# generated using pymatgen
data_HfSi8H56(C4N)4
_symmetry_space_group_name_H-M   'P 1'
_cell_length_a   11.55823262
_cell_length_b   19.10773555
_cell_length_c   19.49265442
_cell_angle_alpha   107.45577572
_cell_angle_beta   90.00000000
_cell_angle_gamma   90.00000000
_symmetry_Int_Tables_number   1
_chemical_formula_structural   HfSi8H56(C4N)4
_chemical_formula_sum   'Hf4 Si32 H224 C64 N16'
_cell_volume   4106.73508241
_cell_formula_units_Z   4
loop_
 _symmetry_equiv_pos_site_id
 _symmetry_equiv_pos_as_xyz
  1  'x, y, z'
loop_
 _atom_site_type_symbol
 _atom_site_label
 _atom_site_symmetry_multiplicity
 _atom_site_fract_x
 _atom_site_fract_y
 _atom_site_fract_z
 _atom_site_occupancy
  Hf  Hf0  1  0.11045263  0.74880947  0.25505840  1
  Hf  Hf1  1  0.61045263  0.25119053  0.24494160  1
  Hf  Hf2  1  0.88954737  0.25119053  0.74494160  1
  Hf  Hf3  1  0.38954737  0.74880947  0.75505840  1
  Si  Si4  1  0.15337442  0.92542083  0.24788403  1
  Si  Si5  1  0.65337442  0.07457917  0.25211597  1
  Si  Si6  1  0.84662558  0.07457917  0.75211597  1
  Si  Si7  1  0.34662558  0.92542083  0.74788403  1
  Si  Si8  1  0.30018137  0.86320656  0.34390533  1
  Si  Si9  1  0.80018137  0.13679344  0.15609467  1
  Si  Si10  1  0.69981863  0.13679344  0.65609467  1
  Si  Si11  1  0.19981863  0.86320656  0.84390533  1
  Si  Si12  1  0.05227247  0.71081195  0.41388610  1
  Si  Si13  1  0.55227247  0.28918805  0.08611390  1
  Si  Si14  1  0.94772753  0.28918805  0.58611390  1
  Si  Si15  1  0.44772753  0.71081195  0.91388610  1
  Si  Si16  1  0.90767556  0.81867592  0.36514894  1
  Si  Si17  1  0.40767556  0.18132408  0.13485106  1
  Si  Si18  1  0.09232444  0.18132408  0.63485106  1
  Si  Si19  1  0.59232444  0.81867592  0.86514894  1
  Si  Si20  1  0.16539852  0.57695289  0.22445230  1
  Si  Si21  1  0.66539852  0.42304711  0.27554770  1
  Si  Si22  1  0.83460148  0.42304711  0.77554770  1
  Si  Si23  1  0.33460148  0.57695289  0.72445230  1
  Si  Si24  1  0.37319407  0.66628999  0.20529729  1
  Si  Si25  1  0.87319407  0.33371001  0.29470271  1
  Si  Si26  1  0.62680593  0.33371001  0.79470271  1
  Si  Si27  1  0.12680593  0.66628999  0.70529729  1
  Si  Si28  1  0.07037505  0.73383828  0.09157106  1
  Si  Si29  1  0.57037505  0.26616172  0.40842894  1
  Si  Si30  1  0.92962495  0.26616172  0.90842894  1
  Si  Si31  1  0.42962495  0.73383828  0.59157106  1
  Si  Si32  1  0.85475850  0.69380901  0.16188592  1
  Si  Si33  1  0.35475850  0.30619099  0.33811408  1
  Si  Si34  1  0.14524150  0.30619099  0.83811408  1
  Si  Si35  1  0.64524150  0.69380901  0.66188592  1
  H  H36  1  0.26312186  0.89029217  0.13170952  1
  H  H37  1  0.76312186  0.10970783  0.36829048  1
  H  H38  1  0.73687814  0.10970783  0.86829048  1
  H  H39  1  0.23687814  0.89029217  0.63170952  1
  H  H40  1  0.21623380  0.98346810  0.15793420  1
  H  H41  1  0.71623380  0.01653190  0.34206580  1
  H  H42  1  0.78376620  0.01653190  0.84206580  1
  H  H43  1  0.28376620  0.98346810  0.65793420  1
  H  H44  1  0.34043878  0.95823696  0.19861352  1
  H  H45  1  0.84043878  0.04176304  0.30138648  1
  H  H46  1  0.65956122  0.04176304  0.80138648  1
  H  H47  1  0.15956122  0.95823696  0.69861352  1
  H  H48  1  0.08424509  0.01530763  0.36358236  1
  H  H49  1  0.58424509  0.98469237  0.13641764  1
  H  H50  1  0.91575491  0.98469237  0.63641764  1
  H  H51  1  0.41575491  0.01530763  0.86358236  1
  H  H52  1  0.22795980  0.03740016  0.34394615  1
  H  H53  1  0.72795980  0.96259984  0.15605385  1
  H  H54  1  0.77204020  0.96259984  0.65605385  1
  H  H55  1  0.27204020  0.03740016  0.84394615  1
  H  H56  1  0.11024138  0.05651524  0.29448224  1
  H  H57  1  0.61024138  0.94348476  0.20551776  1
  H  H58  1  0.88975862  0.94348476  0.70551776  1
  H  H59  1  0.38975862  0.05651524  0.79448224  1
  H  H60  1  0.46764830  0.86008751  0.26070405  1
  H  H61  1  0.96764830  0.13991249  0.23929595  1
  H  H62  1  0.53235170  0.13991249  0.73929595  1
  H  H63  1  0.03235170  0.86008751  0.76070405  1
  H  H64  1  0.44612027  0.95057676  0.31995589  1
  H  H65  1  0.94612027  0.04942324  0.18004411  1
  H  H66  1  0.55387973  0.04942324  0.68004411  1
  H  H67  1  0.05387973  0.95057676  0.81995589  1
  H  H68  1  0.51007852  0.88252924  0.35271151  1
  H  H69  1  0.01007852  0.11747076  0.14728849  1
  H  H70  1  0.48992148  0.11747076  0.64728849  1
  H  H71  1  0.98992148  0.88252924  0.85271151  1
  H  H72  1  0.18991302  0.91549457  0.45905539  1
  H  H73  1  0.68991302  0.08450543  0.04094461  1
  H  H74  1  0.81008698  0.08450543  0.54094461  1
  H  H75  1  0.31008698  0.91549457  0.95905539  1
  H  H76  1  0.34228913  0.91845206  0.47120039  1
  H  H77  1  0.84228913  0.08154794  0.02879961  1
  H  H78  1  0.65771087  0.08154794  0.52879961  1
  H  H79  1  0.15771087  0.91845206  0.97120039  1
  H  H80  1  0.27303703  0.98568649  0.43966627  1
  H  H81  1  0.77303703  0.01431351  0.06033373  1
  H  H82  1  0.72696297  0.01431351  0.56033373  1
  H  H83  1  0.22696297  0.98568649  0.93966627  1
  H  H84  1  0.92675732  0.60084154  0.36092955  1
  H  H85  1  0.42675732  0.39915846  0.13907045  1
  H  H86  1  0.07324268  0.39915846  0.63907045  1
  H  H87  1  0.57324268  0.60084154  0.86092955  1
  H  H88  1  0.98849673  0.60179499  0.44511076  1
  H  H89  1  0.48849673  0.39820501  0.05488924  1
  H  H90  1  0.01150327  0.39820501  0.55488924  1
  H  H91  1  0.51150327  0.60179499  0.94511076  1
  H  H92  1  0.86613330  0.65726484  0.44298717  1
  H  H93  1  0.36613330  0.34273516  0.05701283  1
  H  H94  1  0.13386670  0.34273516  0.55701283  1
  H  H95  1  0.63386670  0.65726484  0.94298717  1
  H  H96  1  0.12404104  0.81759894  0.51458984  1
  H  H97  1  0.62404104  0.18240106  0.98541016  1
  H  H98  1  0.87595896  0.18240106  0.48541016  1
  H  H99  1  0.37595896  0.81759894  0.01458984  1
  H  H100  1  0.97656909  0.79975005  0.52960998  1
  H  H101  1  0.47656909  0.20024995  0.97039002  1
  H  H102  1  0.02343091  0.20024995  0.47039002  1
  H  H103  1  0.52343091  0.79975005  0.02960998  1
  H  H104  1  0.08597870  0.74089937  0.54368233  1
  H  H105  1  0.58597870  0.25910063  0.95631767  1
  H  H106  1  0.91402130  0.25910063  0.45631767  1
  H  H107  1  0.41402130  0.74089937  0.04368233  1
  H  H108  1  0.74723950  0.72656585  0.35426353  1
  H  H109  1  0.24723950  0.27343415  0.14573647  1
  H  H110  1  0.25276050  0.27343415  0.64573647  1
  H  H111  1  0.75276050  0.72656585  0.85426353  1
  H  H112  1  0.76140713  0.78478247  0.44450180  1
  H  H113  1  0.26140713  0.21521753  0.05549820  1
  H  H114  1  0.23859287  0.21521753  0.55549820  1
  H  H115  1  0.73859287  0.78478247  0.94450180  1
  H  H116  1  0.69638641  0.81876327  0.37858724  1
  H  H117  1  0.19638641  0.18123673  0.12141276  1
  H  H118  1  0.30361359  0.18123673  0.62141276  1
  H  H119  1  0.80361359  0.81876327  0.87858724  1
  H  H120  1  0.01369537  0.93414715  0.42783540  1
  H  H121  1  0.51369537  0.06585285  0.07216460  1
  H  H122  1  0.98630463  0.06585285  0.57216460  1
  H  H123  1  0.48630463  0.93414715  0.92783540  1
  H  H124  1  0.86119526  0.94539453  0.43249976  1
  H  H125  1  0.36119526  0.05460547  0.06750024  1
  H  H126  1  0.13880474  0.05460547  0.56750024  1
  H  H127  1  0.63880474  0.94539453  0.93249976  1
  H  H128  1  0.93232035  0.90413810  0.49125565  1
  H  H129  1  0.43232035  0.09586190  0.00874435  1
  H  H130  1  0.06767965  0.09586190  0.50874435  1
  H  H131  1  0.56767965  0.90413810  0.99125565  1
  H  H132  1  0.25862827  0.56190903  0.33558262  1
  H  H133  1  0.75862827  0.43809097  0.16441738  1
  H  H134  1  0.74137173  0.43809097  0.66441738  1
  H  H135  1  0.24137173  0.56190903  0.83558262  1
  H  H136  1  0.18297600  0.48184145  0.28481684  1
  H  H137  1  0.68297600  0.51815855  0.21518316  1
  H  H138  1  0.81702400  0.51815855  0.71518316  1
  H  H139  1  0.31702400  0.48184145  0.78481684  1
  H  H140  1  0.32189891  0.50073306  0.25681464  1
  H  H141  1  0.82189891  0.49926694  0.24318536  1
  H  H142  1  0.67810109  0.49926694  0.74318536  1
  H  H143  1  0.17810109  0.50073306  0.75681464  1
  H  H144  1  0.09417330  0.53121084  0.09735349  1
  H  H145  1  0.59417330  0.46878916  0.40264651  1
  H  H146  1  0.90582670  0.46878916  0.90264651  1
  H  H147  1  0.40582670  0.53121084  0.59735349  1
  H  H148  1  0.22901425  0.48907792  0.10528440  1
  H  H149  1  0.72901425  0.51092208  0.39471560  1
  H  H150  1  0.77098575  0.51092208  0.89471560  1
  H  H151  1  0.27098575  0.48907792  0.60528440  1
  H  H152  1  0.10123646  0.46121015  0.14011746  1
  H  H153  1  0.60123646  0.53878985  0.35988254  1
  H  H154  1  0.89876354  0.53878985  0.85988254  1
  H  H155  1  0.39876354  0.46121015  0.64011746  1
  H  H156  1  0.45869987  0.68897021  0.32811887  1
  H  H157  1  0.95869987  0.31102979  0.17188113  1
  H  H158  1  0.54130013  0.31102979  0.67188113  1
  H  H159  1  0.04130013  0.68897021  0.82811887  1
  H  H160  1  0.48122988  0.59602556  0.27589210  1
  H  H161  1  0.98122988  0.40397444  0.22410790  1
  H  H162  1  0.51877012  0.40397444  0.72410790  1
  H  H163  1  0.01877012  0.59602556  0.77589210  1
  H  H164  1  0.56520062  0.66697170  0.25894270  1
  H  H165  1  0.06520062  0.33302830  0.24105730  1
  H  H166  1  0.43479938  0.33302830  0.74105730  1
  H  H167  1  0.93479938  0.66697170  0.75894270  1
  H  H168  1  0.36219677  0.60437430  0.07194567  1
  H  H169  1  0.86219677  0.39562570  0.42805433  1
  H  H170  1  0.63780323  0.39562570  0.92805433  1
  H  H171  1  0.13780323  0.60437430  0.57194567  1
  H  H172  1  0.50616782  0.61286427  0.10574225  1
  H  H173  1  0.00616782  0.38713573  0.39425775  1
  H  H174  1  0.49383218  0.38713573  0.89425775  1
  H  H175  1  0.99383218  0.61286427  0.60574225  1
  H  H176  1  0.41615760  0.54170209  0.11591219  1
  H  H177  1  0.91615760  0.45829791  0.38408781  1
  H  H178  1  0.58384240  0.45829791  0.88408781  1
  H  H179  1  0.08384240  0.54170209  0.61591219  1
  H  H180  1  0.98285846  0.85266367  0.08811196  1
  H  H181  1  0.48285846  0.14733633  0.41188804  1
  H  H182  1  0.01714154  0.14733633  0.91188804  1
  H  H183  1  0.51714154  0.85266367  0.58811196  1
  H  H184  1  0.06699613  0.80950942  0.01004952  1
  H  H185  1  0.56699613  0.19049058  0.48995048  1
  H  H186  1  0.93300387  0.19049058  0.98995048  1
  H  H187  1  0.43300387  0.80950942  0.51004952  1
  H  H188  1  0.92486347  0.77810490  0.01766167  1
  H  H189  1  0.42486347  0.22189510  0.48233833  1
  H  H190  1  0.07513653  0.22189510  0.98233833  1
  H  H191  1  0.57513653  0.77810490  0.51766167  1
  H  H192  1  0.14012398  0.60473877  0.03666079  1
  H  H193  1  0.64012398  0.39526123  0.46333921  1
  H  H194  1  0.85987602  0.39526123  0.96333921  1
  H  H195  1  0.35987602  0.60473877  0.53666079  1
  H  H196  1  0.02226589  0.62390677  0.98629347  1
  H  H197  1  0.52226589  0.37609323  0.51370653  1
  H  H198  1  0.97773411  0.37609323  0.01370653  1
  H  H199  1  0.47773411  0.62390677  0.48629347  1
  H  H200  1  0.16108923  0.66083163  0.97949811  1
  H  H201  1  0.66108923  0.33916837  0.52050189  1
  H  H202  1  0.83891077  0.33916837  0.02050189  1
  H  H203  1  0.33891077  0.66083163  0.47949811  1
  H  H204  1  0.75034988  0.81417197  0.19713267  1
  H  H205  1  0.25034988  0.18582803  0.30286733  1
  H  H206  1  0.24965012  0.18582803  0.80286733  1
  H  H207  1  0.74965012  0.81417197  0.69713267  1
  H  H208  1  0.75247874  0.77645073  0.10182545  1
  H  H209  1  0.25247874  0.22354927  0.39817455  1
  H  H210  1  0.24752126  0.22354927  0.89817455  1
  H  H211  1  0.74752126  0.77645073  0.60182545  1
  H  H212  1  0.65804973  0.73934165  0.15372666  1
  H  H213  1  0.15804973  0.26065835  0.34627334  1
  H  H214  1  0.34195027  0.26065835  0.84627334  1
  H  H215  1  0.84195027  0.73934165  0.65372666  1
  H  H216  1  0.88336890  0.56238565  0.08726845  1
  H  H217  1  0.38336890  0.43761435  0.41273155  1
  H  H218  1  0.11663110  0.43761435  0.91273155  1
  H  H219  1  0.61663110  0.56238565  0.58726845  1
  H  H220  1  0.73651873  0.59063478  0.09240694  1
  H  H221  1  0.23651873  0.40936522  0.40759306  1
  H  H222  1  0.26348127  0.40936522  0.90759306  1
  H  H223  1  0.76348127  0.59063478  0.59240694  1
  H  H224  1  0.83154235  0.61498709  0.03210375  1
  H  H225  1  0.33154235  0.38501291  0.46789625  1
  H  H226  1  0.16845765  0.38501291  0.96789625  1
  H  H227  1  0.66845765  0.61498709  0.53210375  1
  H  H228  1  0.03532077  0.90962615  0.21467804  1
  H  H229  1  0.53532077  0.09037385  0.28532196  1
  H  H230  1  0.96467923  0.09037385  0.78532196  1
  H  H231  1  0.46467923  0.90962615  0.71467804  1
  H  H232  1  0.31322421  0.78836217  0.35390404  1
  H  H233  1  0.81322421  0.21163783  0.14609596  1
  H  H234  1  0.68677579  0.21163783  0.64609596  1
  H  H235  1  0.18677579  0.78836217  0.85390404  1
  H  H236  1  0.16967195  0.67676294  0.39645659  1
  H  H237  1  0.66967195  0.32323706  0.10354341  1
  H  H238  1  0.83032805  0.32323706  0.60354341  1
  H  H239  1  0.33032805  0.67676294  0.89645659  1
  H  H240  1  0.89559330  0.83664148  0.29533603  1
  H  H241  1  0.39559330  0.16335852  0.20466397  1
  H  H242  1  0.10440670  0.16335852  0.70466397  1
  H  H243  1  0.60440670  0.83664148  0.79533603  1
  H  H244  1  0.04498435  0.59620611  0.25375990  1
  H  H245  1  0.54498435  0.40379389  0.24624010  1
  H  H246  1  0.95501565  0.40379389  0.74624010  1
  H  H247  1  0.45501565  0.59620611  0.75375990  1
  H  H248  1  0.39347259  0.74138001  0.19838877  1
  H  H249  1  0.89347259  0.25861999  0.30161123  1
  H  H250  1  0.60652741  0.25861999  0.80161123  1
  H  H251  1  0.10652741  0.74138001  0.69838877  1
  H  H252  1  0.18604221  0.76506450  0.12227530  1
  H  H253  1  0.68604221  0.23493550  0.37772470  1
  H  H254  1  0.81395779  0.23493550  0.87772470  1
  H  H255  1  0.31395779  0.76506450  0.62227530  1
  H  H256  1  0.82910847  0.67605618  0.23024607  1
  H  H257  1  0.32910847  0.32394382  0.26975393  1
  H  H258  1  0.17089153  0.32394382  0.76975393  1
  H  H259  1  0.67089153  0.67605618  0.73024607  1
  C  C260  1  0.25363019  0.93991974  0.17746058  1
  C  C261  1  0.75363019  0.06008026  0.32253942  1
  C  C262  1  0.74636981  0.06008026  0.82253942  1
  C  C263  1  0.24636981  0.93991974  0.67746058  1
  C  C264  1  0.14368407  0.01654908  0.32004263  1
  C  C265  1  0.64368407  0.98345092  0.17995737  1
  C  C266  1  0.85631593  0.98345092  0.67995737  1
  C  C267  1  0.35631593  0.01654908  0.82004263  1
  C  C268  1  0.44393567  0.89181236  0.31562898  1
  C  C269  1  0.94393567  0.10818764  0.18437102  1
  C  C270  1  0.55606433  0.10818764  0.68437102  1
  C  C271  1  0.05606433  0.89181236  0.81562898  1
  C  C272  1  0.27206644  0.92723395  0.43661423  1
  C  C273  1  0.77206644  0.07276605  0.06338577  1
  C  C274  1  0.72793356  0.07276605  0.56338577  1
  C  C275  1  0.22793356  0.92723395  0.93661423  1
  C  C276  1  0.94749414  0.63585469  0.41528572  1
  C  C277  1  0.44749414  0.36414531  0.08471428  1
  C  C278  1  0.05250586  0.36414531  0.58471428  1
  C  C279  1  0.55250586  0.63585469  0.91528572  1
  C  C280  1  0.05974604  0.77393193  0.50880072  1
  C  C281  1  0.55974604  0.22606807  0.99119928  1
  C  C282  1  0.94025396  0.22606807  0.49119928  1
  C  C283  1  0.44025396  0.77393193  0.00880072  1
  C  C284  1  0.76549625  0.78270084  0.38745176  1
  C  C285  1  0.26549625  0.21729916  0.11254824  1
  C  C286  1  0.23450375  0.21729916  0.61254824  1
  C  C287  1  0.73450375  0.78270084  0.88745176  1
  C  C288  1  0.93238223  0.90853646  0.43619041  1
  C  C289  1  0.43238223  0.09146354  0.06380959  1
  C  C290  1  0.06761777  0.09146354  0.56380959  1
  C  C291  1  0.56761777  0.90853646  0.93619041  1
  C  C292  1  0.24042437  0.52651170  0.28104037  1
  C  C293  1  0.74042437  0.47348830  0.21895963  1
  C  C294  1  0.75957563  0.47348830  0.71895963  1
  C  C295  1  0.25957563  0.52651170  0.78104037  1
  C  C296  1  0.14683261  0.50895412  0.13274215  1
  C  C297  1  0.64683261  0.49104588  0.36725785  1
  C  C298  1  0.85316739  0.49104588  0.86725785  1
  C  C299  1  0.35316739  0.50895412  0.63274215  1
  C  C300  1  0.47831924  0.65287508  0.27395551  1
  C  C301  1  0.97831924  0.34712492  0.22604449  1
  C  C302  1  0.52168076  0.34712492  0.72604449  1
  C  C303  1  0.02168076  0.65287508  0.77395551  1
  C  C304  1  0.41670344  0.59939812  0.11648803  1
  C  C305  1  0.91670344  0.40060188  0.38351197  1
  C  C306  1  0.58329656  0.40060188  0.88351197  1
  C  C307  1  0.08329656  0.59939812  0.61648803  1
  C  C308  1  0.00357161  0.79998458  0.04850104  1
  C  C309  1  0.50357161  0.20001542  0.45149896  1
  C  C310  1  0.99642839  0.20001542  0.95149896  1
  C  C311  1  0.49642839  0.79998458  0.54850104  1
  C  C312  1  0.10027724  0.64717912  0.01706228  1
  C  C313  1  0.60027724  0.35282088  0.48293772  1
  C  C314  1  0.89972276  0.35282088  0.98293772  1
  C  C315  1  0.39972276  0.64717912  0.51706228  1
  C  C316  1  0.74475233  0.76301053  0.15271093  1
  C  C317  1  0.24475233  0.23698947  0.34728907  1
  C  C318  1  0.25524767  0.23698947  0.84728907  1
  C  C319  1  0.75524767  0.76301053  0.65271093  1
  C  C320  1  0.82583450  0.60765855  0.08588522  1
  C  C321  1  0.32583450  0.39234145  0.41411478  1
  C  C322  1  0.17416550  0.39234145  0.91411478  1
  C  C323  1  0.67416550  0.60765855  0.58588522  1
  N  N324  1  0.18996538  0.85179484  0.27976748  1
  N  N325  1  0.68996538  0.14820516  0.22023252  1
  N  N326  1  0.81003462  0.14820516  0.72023252  1
  N  N327  1  0.31003462  0.85179484  0.77976748  1
  N  N328  1  0.02145118  0.75518698  0.34943356  1
  N  N329  1  0.52145118  0.24481302  0.15056644  1
  N  N330  1  0.97854882  0.24481302  0.65056644  1
  N  N331  1  0.47854882  0.75518698  0.84943356  1
  N  N332  1  0.22731718  0.66167122  0.22778512  1
  N  N333  1  0.72731718  0.33832878  0.27221488  1
  N  N334  1  0.77268282  0.33832878  0.77221488  1
  N  N335  1  0.27268282  0.66167122  0.72778512  1
  N  N336  1  0.99797895  0.72485261  0.16726505  1
  N  N337  1  0.49797895  0.27514739  0.33273495  1
  N  N338  1  0.00202105  0.27514739  0.83273495  1
  N  N339  1  0.50202105  0.72485261  0.66726505  1
