# generated using pymatgen
data_Nb4Ag2O11
_symmetry_space_group_name_H-M   'P 1'
_cell_length_a   6.28618568
_cell_length_b   6.28618567
_cell_length_c   13.18874381
_cell_angle_alpha   76.21281043
_cell_angle_beta   76.21281044
_cell_angle_gamma   60.00000713
_symmetry_Int_Tables_number   1
_chemical_formula_structural   Nb4Ag2O11
_chemical_formula_sum   'Nb8 Ag4 O22'
_cell_volume   433.91915078
_cell_formula_units_Z   2
loop_
 _symmetry_equiv_pos_site_id
 _symmetry_equiv_pos_as_xyz
  1  'x, y, z'
loop_
 _atom_site_type_symbol
 _atom_site_label
 _atom_site_symmetry_multiplicity
 _atom_site_fract_x
 _atom_site_fract_y
 _atom_site_fract_z
 _atom_site_occupancy
  Nb  Nb0  1  0.12176053  0.74790811  0.74093095  1
  Nb  Nb1  1  0.74790811  0.38940041  0.74093095  1
  Nb  Nb2  1  0.38940041  0.12176053  0.74093095  1
  Nb  Nb3  1  0.62010671  0.89110564  0.23962979  1
  Nb  Nb4  1  0.89110564  0.24915786  0.23962979  1
  Nb  Nb5  1  0.24915786  0.62010671  0.23962979  1
  Nb  Nb6  1  0.00582960  0.00582960  0.98251120  1
  Nb  Nb7  1  0.50601940  0.50601940  0.48194180  1
  Ag  Ag8  1  0.67465755  0.67465755  0.97602735  1
  Ag  Ag9  1  0.17228182  0.17228182  0.48315453  1
  Ag  Ag10  1  0.83254078  0.83254078  0.50237766  1
  Ag  Ag11  1  0.33100586  0.33100586  0.00698241  1
  O  O12  1  0.43197397  0.22788363  0.59415733  1
  O  O13  1  0.22788363  0.74598507  0.59415733  1
  O  O14  1  0.74598507  0.43197397  0.59415733  1
  O  O15  1  0.93742719  0.24487803  0.09312234  1
  O  O16  1  0.24487803  0.72457244  0.09312234  1
  O  O17  1  0.72457244  0.93742719  0.09312234  1
  O  O18  1  0.05183556  0.75334552  0.90942645  1
  O  O19  1  0.75334552  0.28539247  0.90942645  1
  O  O20  1  0.28539247  0.05183556  0.90942645  1
  O  O21  1  0.56163921  0.77930639  0.40811881  1
  O  O22  1  0.77930639  0.25093558  0.40811881  1
  O  O23  1  0.25093558  0.56163921  0.40811881  1
  O  O24  1  0.49918412  0.75167456  0.74771125  1
  O  O25  1  0.75167456  0.00143007  0.74771125  1
  O  O26  1  0.00143007  0.49918412  0.74771125  1
  O  O27  1  0.00069551  0.49896303  0.24730623  1
  O  O28  1  0.49896303  0.25303523  0.24730623  1
  O  O29  1  0.25303523  0.00069551  0.24730623  1
  O  O30  1  0.59164786  0.59164786  0.22505642  1
  O  O31  1  0.09128530  0.09128530  0.72614411  1
  O  O32  1  0.90666351  0.90666351  0.28000948  1
  O  O33  1  0.40497147  0.40497147  0.78508558  1
