# generated using pymatgen
data_ErC3O8
_symmetry_space_group_name_H-M   'P 1'
_cell_length_a   7.24042576
_cell_length_b   8.39663089
_cell_length_c   12.70432838
_cell_angle_alpha   90.00000000
_cell_angle_beta   90.00000000
_cell_angle_gamma   90.00000000
_symmetry_Int_Tables_number   1
_chemical_formula_structural   ErC3O8
_chemical_formula_sum   'Er4 C12 O32'
_cell_volume   772.36196359
_cell_formula_units_Z   4
loop_
 _symmetry_equiv_pos_site_id
 _symmetry_equiv_pos_as_xyz
  1  'x, y, z'
loop_
 _atom_site_type_symbol
 _atom_site_label
 _atom_site_symmetry_multiplicity
 _atom_site_fract_x
 _atom_site_fract_y
 _atom_site_fract_z
 _atom_site_occupancy
  Er  Er0  1  0.73519759  0.47215160  0.79899055  1
  Er  Er1  1  0.26480241  0.97215160  0.70100945  1
  Er  Er2  1  0.76480241  0.52784840  0.29899055  1
  Er  Er3  1  0.23519759  0.02784840  0.20100945  1
  C  C4  1  0.41428838  0.21423309  0.95541034  1
  C  C5  1  0.58571162  0.71423309  0.54458966  1
  C  C6  1  0.08571162  0.78576691  0.45541034  1
  C  C7  1  0.91428838  0.28576691  0.04458966  1
  C  C8  1  0.95251932  0.72635616  0.09943025  1
  C  C9  1  0.04748068  0.22635616  0.40056975  1
  C  C10  1  0.54748068  0.27364384  0.59943025  1
  C  C11  1  0.45251932  0.77364384  0.90056975  1
  C  C12  1  0.02303519  0.64329815  0.74074161  1
  C  C13  1  0.97696481  0.14329815  0.75925839  1
  C  C14  1  0.47696481  0.35670185  0.24074161  1
  C  C15  1  0.52303519  0.85670185  0.25925839  1
  O  O16  1  0.83985748  0.37015825  0.98499044  1
  O  O17  1  0.16014252  0.87015825  0.51500956  1
  O  O18  1  0.66014252  0.62984175  0.48499044  1
  O  O19  1  0.33985748  0.12984175  0.01500956  1
  O  O20  1  0.49012723  0.29925286  0.89636188  1
  O  O21  1  0.50987277  0.79925286  0.60363812  1
  O  O22  1  0.00987277  0.70074714  0.39636188  1
  O  O23  1  0.99012723  0.20074714  0.10363812  1
  O  O24  1  0.88113066  0.72753192  0.00836265  1
  O  O25  1  0.11886934  0.22753192  0.49163735  1
  O  O26  1  0.61886934  0.27246808  0.50836265  1
  O  O27  1  0.38113066  0.77246808  0.99163735  1
  O  O28  1  0.54384856  0.65300254  0.86719221  1
  O  O29  1  0.45615144  0.15300254  0.63280779  1
  O  O30  1  0.95615144  0.34699746  0.36719221  1
  O  O31  1  0.04384856  0.84699746  0.13280779  1
  O  O32  1  0.83958101  0.23353824  0.78120645  1
  O  O33  1  0.16041899  0.73353824  0.71879355  1
  O  O34  1  0.66041899  0.76646176  0.28120645  1
  O  O35  1  0.33958101  0.26646176  0.21879355  1
  O  O36  1  0.03210141  0.53924302  0.81578118  1
  O  O37  1  0.96789859  0.03924302  0.68421882  1
  O  O38  1  0.46789859  0.46075698  0.31578118  1
  O  O39  1  0.53210141  0.96075698  0.18421882  1
  O  O40  1  0.56769334  0.39973610  0.65739262  1
  O  O41  1  0.43230666  0.89973610  0.84260738  1
  O  O42  1  0.93230666  0.60026390  0.15739262  1
  O  O43  1  0.06769334  0.10026390  0.34260738  1
  O  O44  1  0.86681629  0.65029970  0.68893992  1
  O  O45  1  0.13318371  0.15029970  0.81106008  1
  O  O46  1  0.63318371  0.34970030  0.18893992  1
  O  O47  1  0.36681629  0.84970030  0.31106008  1
