# generated using pymatgen
data_Rb2ZrSi3O10
_symmetry_space_group_name_H-M   'P 1'
_cell_length_a   7.36767427
_cell_length_b   10.60584681
_cell_length_c   13.52663274
_cell_angle_alpha   90.00000000
_cell_angle_beta   90.00000000
_cell_angle_gamma   90.00000000
_symmetry_Int_Tables_number   1
_chemical_formula_structural   Rb2ZrSi3O10
_chemical_formula_sum   'Rb8 Zr4 Si12 O40'
_cell_volume   1056.97682644
_cell_formula_units_Z   4
loop_
 _symmetry_equiv_pos_site_id
 _symmetry_equiv_pos_as_xyz
  1  'x, y, z'
loop_
 _atom_site_type_symbol
 _atom_site_label
 _atom_site_symmetry_multiplicity
 _atom_site_fract_x
 _atom_site_fract_y
 _atom_site_fract_z
 _atom_site_occupancy
  Rb  Rb0  1  0.29674239  0.78328350  0.12907930  1
  Rb  Rb1  1  0.79674239  0.71671650  0.87092070  1
  Rb  Rb2  1  0.70325761  0.28328350  0.37092070  1
  Rb  Rb3  1  0.20325761  0.21671650  0.62907930  1
  Rb  Rb4  1  0.76409299  0.56813607  0.58375928  1
  Rb  Rb5  1  0.26409299  0.93186393  0.41624072  1
  Rb  Rb6  1  0.23590701  0.06813607  0.91624072  1
  Rb  Rb7  1  0.73590701  0.43186393  0.08375928  1
  Zr  Zr8  1  0.24320246  0.55835246  0.71076998  1
  Zr  Zr9  1  0.74320246  0.94164754  0.28923002  1
  Zr  Zr10  1  0.75679754  0.05835246  0.78923002  1
  Zr  Zr11  1  0.25679754  0.44164754  0.21076998  1
  Si  Si12  1  0.47390373  0.83696752  0.67565797  1
  Si  Si13  1  0.97390373  0.66303248  0.32434203  1
  Si  Si14  1  0.52609627  0.33696752  0.82434203  1
  Si  Si15  1  0.02609627  0.16303248  0.17565797  1
  Si  Si16  1  0.75977295  0.96695524  0.55115990  1
  Si  Si17  1  0.25977295  0.53304476  0.44884010  1
  Si  Si18  1  0.24022705  0.46695524  0.94884010  1
  Si  Si19  1  0.74022705  0.03304476  0.05115990  1
  Si  Si20  1  0.93564592  0.35748299  0.82902037  1
  Si  Si21  1  0.43564592  0.14251701  0.17097963  1
  Si  Si22  1  0.06435408  0.85748299  0.67097963  1
  Si  Si23  1  0.56435408  0.64251701  0.32902037  1
  O  O24  1  0.25206901  0.58029370  0.86755431  1
  O  O25  1  0.75206901  0.91970630  0.13244569  1
  O  O26  1  0.74793099  0.08029370  0.63244569  1
  O  O27  1  0.24793099  0.41970630  0.36755431  1
  O  O28  1  0.45440582  0.68659436  0.69183684  1
  O  O29  1  0.95440582  0.81340564  0.30816316  1
  O  O30  1  0.54559418  0.18659436  0.80816316  1
  O  O31  1  0.04559418  0.31340564  0.19183684  1
  O  O32  1  0.23493523  0.49388152  0.56323170  1
  O  O33  1  0.73493523  0.00611848  0.43676830  1
  O  O34  1  0.76506477  0.99388152  0.93676830  1
  O  O35  1  0.26506477  0.50611848  0.06323170  1
  O  O36  1  0.02060170  0.43621380  0.73720608  1
  O  O37  1  0.52060170  0.06378620  0.26279392  1
  O  O38  1  0.97939830  0.93621380  0.76279392  1
  O  O39  1  0.47939830  0.56378620  0.23720608  1
  O  O40  1  0.43440868  0.40680587  0.72902261  1
  O  O41  1  0.93440868  0.09319413  0.27097739  1
  O  O42  1  0.56559132  0.90680587  0.77097739  1
  O  O43  1  0.06559132  0.59319413  0.22902261  1
  O  O44  1  0.05671427  0.70623979  0.69013784  1
  O  O45  1  0.55671427  0.79376021  0.30986216  1
  O  O46  1  0.94328573  0.20623979  0.80986216  1
  O  O47  1  0.44328573  0.29376021  0.19013784  1
  O  O48  1  0.27608870  0.90325634  0.64962831  1
  O  O49  1  0.77608870  0.59674366  0.35037169  1
  O  O50  1  0.72391130  0.40325634  0.85037169  1
  O  O51  1  0.22391130  0.09674366  0.14962831  1
  O  O52  1  0.95896657  0.89563300  0.56690591  1
  O  O53  1  0.45896657  0.60436700  0.43309409  1
  O  O54  1  0.04103343  0.39563300  0.93309409  1
  O  O55  1  0.54103343  0.10436700  0.06690591  1
  O  O56  1  0.60200192  0.85984846  0.57745557  1
  O  O57  1  0.10200192  0.64015154  0.42254443  1
  O  O58  1  0.39799808  0.35984846  0.92254443  1
  O  O59  1  0.89799808  0.14015154  0.07745557  1
  O  O60  1  0.41919911  0.79895265  0.91331600  1
  O  O61  1  0.91919911  0.70104735  0.08668400  1
  O  O62  1  0.58080089  0.29895265  0.58668400  1
  O  O63  1  0.08080089  0.20104735  0.41331600  1
