# generated using pymatgen
data_Ag3P3O10
_symmetry_space_group_name_H-M   'P 1'
_cell_length_a   7.89599766
_cell_length_b   7.89599766
_cell_length_c   9.24575167
_cell_angle_alpha   115.34776329
_cell_angle_beta   111.08968195
_cell_angle_gamma   94.43730095
_symmetry_Int_Tables_number   1
_chemical_formula_structural   Ag3P3O10
_chemical_formula_sum   'Ag6 P6 O20'
_cell_volume   467.38866660
_cell_formula_units_Z   2
loop_
 _symmetry_equiv_pos_site_id
 _symmetry_equiv_pos_as_xyz
  1  'x, y, z'
loop_
 _atom_site_type_symbol
 _atom_site_label
 _atom_site_symmetry_multiplicity
 _atom_site_fract_x
 _atom_site_fract_y
 _atom_site_fract_z
 _atom_site_occupancy
  Ag  Ag0  1  0.32691795  0.04540934  0.05049651  1
  Ag  Ag1  1  0.99491283  0.27642144  0.94950349  1
  Ag  Ag2  1  0.67308205  0.95459066  0.94950349  1
  Ag  Ag3  1  0.00508717  0.72357856  0.05049651  1
  Ag  Ag4  1  0.82627532  0.32627532  0.50000000  1
  Ag  Ag5  1  0.17372468  0.67372468  0.50000000  1
  P  P6  1  0.71484375  0.82637589  0.26412586  1
  P  P7  1  0.56225003  0.45071789  0.73587414  1
  P  P8  1  0.28515625  0.17362411  0.73587414  1
  P  P9  1  0.43774997  0.54928211  0.26412586  1
  P  P10  1  0.78459852  0.79629070  0.58088922  1
  P  P11  1  0.21540148  0.20370930  0.41911078  1
  O  O12  1  0.51403017  0.67972769  0.19375786  1
  O  O13  1  0.48596983  0.32027231  0.80624214  1
  O  O14  1  0.79563224  0.91797499  0.47877834  1
  O  O15  1  0.43919665  0.31685390  0.52122166  1
  O  O16  1  0.20436776  0.08202501  0.52122166  1
  O  O17  1  0.56080335  0.68314610  0.47877834  1
  O  O18  1  0.84190291  0.71526369  0.19956824  1
  O  O19  1  0.51569545  0.64233466  0.80043176  1
  O  O20  1  0.15809709  0.28473631  0.80043176  1
  O  O21  1  0.48430455  0.35766534  0.19956824  1
  O  O22  1  0.67728837  0.99424845  0.22965757  1
  O  O23  1  0.76459088  0.44763080  0.77034243  1
  O  O24  1  0.32271163  0.00575155  0.77034243  1
  O  O25  1  0.23540912  0.55236920  0.22965757  1
  O  O26  1  0.82192857  0.94464914  0.76657771  1
  O  O27  1  0.17807143  0.05535086  0.23342229  1
  O  O28  1  0.89881311  0.65304996  0.55186307  1
  O  O29  1  0.10118689  0.34695004  0.44813693  1
  O  O30  1  0.82260367  0.23676139  0.05936506  1
  O  O31  1  0.17739633  0.76323861  0.94063494  1
