# generated using pymatgen
data_Pr(BiO3)2
_symmetry_space_group_name_H-M   'P 1'
_cell_length_a   5.79456306
_cell_length_b   6.12626776
_cell_length_c   8.37413199
_cell_angle_alpha   90.01217822
_cell_angle_beta   90.00081046
_cell_angle_gamma   90.05728571
_symmetry_Int_Tables_number   1
_chemical_formula_structural   Pr(BiO3)2
_chemical_formula_sum   'Pr2 Bi4 O12'
_cell_volume   297.27353196
_cell_formula_units_Z   2
loop_
 _symmetry_equiv_pos_site_id
 _symmetry_equiv_pos_as_xyz
  1  'x, y, z'
loop_
 _atom_site_type_symbol
 _atom_site_label
 _atom_site_symmetry_multiplicity
 _atom_site_fract_x
 _atom_site_fract_y
 _atom_site_fract_z
 _atom_site_occupancy
  Pr  Pr0  1  0.02541676  0.92509925  0.75002388  1
  Pr  Pr1  1  0.52537124  0.57478821  0.24993834  1
  Bi  Bi2  1  0.00700823  0.48449292  0.99943405  1
  Bi  Bi3  1  0.00702665  0.48452199  0.50055075  1
  Bi  Bi4  1  0.50687725  0.01544638  0.49946639  1
  Bi  Bi5  1  0.50687251  0.01544361  0.00052363  1
  O  O6  1  0.12709183  0.48095629  0.25005169  1
  O  O7  1  0.18785067  0.18640189  0.93781790  1
  O  O8  1  0.18785392  0.18638650  0.56214500  1
  O  O9  1  0.27394982  0.73215752  0.54731774  1
  O  O10  1  0.27394056  0.73216232  0.95281095  1
  O  O11  1  0.42049955  0.95972586  0.25008569  1
  O  O12  1  0.62733366  0.01925911  0.74990141  1
  O  O13  1  0.68781346  0.31364793  0.06228119  1
  O  O14  1  0.68778341  0.31365669  0.43770320  1
  O  O15  1  0.77396109  0.76782394  0.04711319  1
  O  O16  1  0.77397901  0.76788953  0.45290437  1
  O  O17  1  0.92024038  0.54014206  0.74993064  1
