# generated using pymatgen
data_Cd3As2
_symmetry_space_group_name_H-M   'P 1'
_cell_length_a   12.84251449
_cell_length_b   12.84251449
_cell_length_c   15.90722622
_cell_angle_alpha   113.80775904
_cell_angle_beta   113.80775904
_cell_angle_gamma   90.00000000
_symmetry_Int_Tables_number   1
_chemical_formula_structural   Cd3As2
_chemical_formula_sum   'Cd48 As32'
_cell_volume   2154.05857852
_cell_formula_units_Z   16
loop_
 _symmetry_equiv_pos_site_id
 _symmetry_equiv_pos_as_xyz
  1  'x, y, z'
loop_
 _atom_site_type_symbol
 _atom_site_label
 _atom_site_symmetry_multiplicity
 _atom_site_fract_x
 _atom_site_fract_y
 _atom_site_fract_z
 _atom_site_occupancy
  Cd  Cd0  1  0.33648597  0.55757831  0.36622491  1
  Cd  Cd1  1  0.52973894  0.05757831  0.36622491  1
  Cd  Cd2  1  0.05757831  0.83648597  0.86622491  1
  Cd  Cd3  1  0.30864660  0.33648597  0.86622491  1
  Cd  Cd4  1  0.66351403  0.44242169  0.63377509  1
  Cd  Cd5  1  0.47026106  0.94242169  0.63377509  1
  Cd  Cd6  1  0.94242169  0.16351403  0.13377509  1
  Cd  Cd7  1  0.69135340  0.66351403  0.13377509  1
  Cd  Cd8  1  0.83648597  0.80864660  0.36622491  1
  Cd  Cd9  1  0.02973894  0.30864660  0.36622491  1
  Cd  Cd10  1  0.55757831  0.02973894  0.86622491  1
  Cd  Cd11  1  0.80864660  0.52973894  0.86622491  1
  Cd  Cd12  1  0.16351403  0.19135340  0.63377509  1
  Cd  Cd13  1  0.97026106  0.69135340  0.63377509  1
  Cd  Cd14  1  0.44242169  0.97026106  0.13377509  1
  Cd  Cd15  1  0.19135340  0.47026106  0.13377509  1
  Cd  Cd16  1  0.30056649  0.82098555  0.36380605  1
  Cd  Cd17  1  0.56323955  0.32098555  0.36380605  1
  Cd  Cd18  1  0.32098555  0.80056649  0.86380605  1
  Cd  Cd19  1  0.04282049  0.30056649  0.86380605  1
  Cd  Cd20  1  0.69943351  0.17901445  0.63619395  1
  Cd  Cd21  1  0.43676045  0.67901445  0.63619395  1
  Cd  Cd22  1  0.67901445  0.19943351  0.13619395  1
  Cd  Cd23  1  0.95717951  0.69943351  0.13619395  1
  Cd  Cd24  1  0.80056649  0.54282049  0.36380605  1
  Cd  Cd25  1  0.06323955  0.04282049  0.36380605  1
  Cd  Cd26  1  0.82098555  0.06323955  0.86380605  1
  Cd  Cd27  1  0.54282049  0.56323955  0.86380605  1
  Cd  Cd28  1  0.19943351  0.45717951  0.63619395  1
  Cd  Cd29  1  0.93676045  0.95717951  0.63619395  1
  Cd  Cd30  1  0.17901445  0.93676045  0.13619395  1
  Cd  Cd31  1  0.45717951  0.43676045  0.13619395  1
  Cd  Cd32  1  0.08226596  0.58958658  0.39847910  1
  Cd  Cd33  1  0.81621314  0.08958658  0.39847910  1
  Cd  Cd34  1  0.08958658  0.58226596  0.89847910  1
  Cd  Cd35  1  0.30889252  0.08226596  0.89847910  1
  Cd  Cd36  1  0.91773404  0.41041342  0.60152090  1
  Cd  Cd37  1  0.18378686  0.91041342  0.60152090  1
  Cd  Cd38  1  0.91041342  0.41773404  0.10152090  1
  Cd  Cd39  1  0.69110748  0.91773404  0.10152090  1
  Cd  Cd40  1  0.58226596  0.80889252  0.39847910  1
  Cd  Cd41  1  0.31621314  0.30889252  0.39847910  1
  Cd  Cd42  1  0.58958658  0.31621314  0.89847910  1
  Cd  Cd43  1  0.80889252  0.81621314  0.89847910  1
  Cd  Cd44  1  0.41773404  0.19110748  0.60152090  1
  Cd  Cd45  1  0.68378686  0.69110748  0.60152090  1
  Cd  Cd46  1  0.41041342  0.68378686  0.10152090  1
  Cd  Cd47  1  0.19110748  0.18378686  0.10152090  1
  As  As48  1  0.87500000  0.12500000  0.75000000  1
  As  As49  1  0.37500000  0.62500000  0.75000000  1
  As  As50  1  0.62500000  0.37500000  0.25000000  1
  As  As51  1  0.12500000  0.87500000  0.25000000  1
  As  As52  1  0.12500000  0.37500000  0.25000000  1
  As  As53  1  0.62500000  0.87500000  0.25000000  1
  As  As54  1  0.87500000  0.62500000  0.75000000  1
  As  As55  1  0.37500000  0.12500000  0.75000000  1
  As  As56  1  0.00000000  0.50000000  0.50000000  1
  As  As57  1  0.00000000  -0.00000000  0.50000000  1
  As  As58  1  0.00000000  0.50000000  0.00000000  1
  As  As59  1  0.50000000  -0.00000000  0.00000000  1
  As  As60  1  0.50000000  0.00000000  0.50000000  1
  As  As61  1  0.50000000  0.50000000  0.50000000  1
  As  As62  1  0.50000000  0.50000000  -0.00000000  1
  As  As63  1  0.00000000  0.00000000  0.00000000  1
  As  As64  1  0.75000000  0.22068589  -0.00000000  1
  As  As65  1  0.75000000  0.72068589  -0.00000000  1
  As  As66  1  0.72068589  0.25000000  0.50000000  1
  As  As67  1  0.27931411  0.75000000  0.50000000  1
  As  As68  1  0.25000000  0.77931411  -0.00000000  1
  As  As69  1  0.25000000  0.27931411  0.00000000  1
  As  As70  1  0.22068589  0.25000000  0.50000000  1
  As  As71  1  0.77931411  0.75000000  0.50000000  1
  As  As72  1  0.38851468  0.63851468  0.25000000  1
  As  As73  1  0.36148532  0.13851468  0.25000000  1
  As  As74  1  0.13851468  0.88851468  0.75000000  1
  As  As75  1  0.11148532  0.38851468  0.75000000  1
  As  As76  1  0.61148532  0.36148532  0.75000000  1
  As  As77  1  0.63851468  0.86148532  0.75000000  1
  As  As78  1  0.86148532  0.11148532  0.25000000  1
  As  As79  1  0.88851468  0.61148532  0.25000000  1
