# generated using pymatgen
data_Na2HSNO3
_symmetry_space_group_name_H-M   'P 1'
_cell_length_a   5.89813894
_cell_length_b   8.30599341
_cell_length_c   17.03139106
_cell_angle_alpha   90.00000000
_cell_angle_beta   90.00000000
_cell_angle_gamma   90.00000000
_symmetry_Int_Tables_number   1
_chemical_formula_structural   Na2HSNO3
_chemical_formula_sum   'Na16 H8 S8 N8 O24'
_cell_volume   834.36619883
_cell_formula_units_Z   8
loop_
 _symmetry_equiv_pos_site_id
 _symmetry_equiv_pos_as_xyz
  1  'x, y, z'
loop_
 _atom_site_type_symbol
 _atom_site_label
 _atom_site_symmetry_multiplicity
 _atom_site_fract_x
 _atom_site_fract_y
 _atom_site_fract_z
 _atom_site_occupancy
  Na  Na0  1  0.13326387  0.10921579  0.83041255  1
  Na  Na1  1  0.13326387  0.39078421  0.66958745  1
  Na  Na2  1  0.36673613  0.60921579  0.16958745  1
  Na  Na3  1  0.36673613  0.89078421  0.33041255  1
  Na  Na4  1  0.86673613  0.89078421  0.16958745  1
  Na  Na5  1  0.86673613  0.60921579  0.33041255  1
  Na  Na6  1  0.63326387  0.39078421  0.83041255  1
  Na  Na7  1  0.63326387  0.10921579  0.66958745  1
  Na  Na8  1  0.65883837  0.69071525  0.97118964  1
  Na  Na9  1  0.65883837  0.80928475  0.52881036  1
  Na  Na10  1  0.84116163  0.19071525  0.02881036  1
  Na  Na11  1  0.84116163  0.30928475  0.47118964  1
  Na  Na12  1  0.34116163  0.30928475  0.02881036  1
  Na  Na13  1  0.34116163  0.19071525  0.47118964  1
  Na  Na14  1  0.15883837  0.80928475  0.97118964  1
  Na  Na15  1  0.15883837  0.69071525  0.52881036  1
  H  H16  1  0.48054646  0.83335348  0.82906384  1
  H  H17  1  0.48054646  0.66664652  0.67093616  1
  H  H18  1  0.01945354  0.33335348  0.17093616  1
  H  H19  1  0.01945354  0.16664652  0.32906384  1
  H  H20  1  0.51945354  0.16664652  0.17093616  1
  H  H21  1  0.51945354  0.33335348  0.32906384  1
  H  H22  1  0.98054646  0.66664652  0.82906384  1
  H  H23  1  0.98054646  0.83335348  0.67093616  1
  S  S24  1  0.63752095  0.03486000  0.88281566  1
  S  S25  1  0.63752095  0.46514000  0.61718434  1
  S  S26  1  0.86247905  0.53486000  0.11718434  1
  S  S27  1  0.86247905  0.96514000  0.38281566  1
  S  S28  1  0.36247905  0.96514000  0.11718434  1
  S  S29  1  0.36247905  0.53486000  0.38281566  1
  S  S30  1  0.13752095  0.46514000  0.88281566  1
  S  S31  1  0.13752095  0.03486000  0.61718434  1
  N  N32  1  0.43413356  0.91294476  0.87231430  1
  N  N33  1  0.43413356  0.58705524  0.62768570  1
  N  N34  1  0.06586644  0.41294476  0.12768570  1
  N  N35  1  0.06586644  0.08705524  0.37231430  1
  N  N36  1  0.56586644  0.08705524  0.12768570  1
  N  N37  1  0.56586644  0.41294476  0.37231430  1
  N  N38  1  0.93413356  0.58705524  0.87231430  1
  N  N39  1  0.93413356  0.91294476  0.62768570  1
  O  O40  1  0.83387007  0.96380419  0.92750960  1
  O  O41  1  0.83387007  0.53619581  0.57249040  1
  O  O42  1  0.66612993  0.46380419  0.07249040  1
  O  O43  1  0.66612993  0.03619581  0.42750960  1
  O  O44  1  0.16612993  0.03619581  0.07249040  1
  O  O45  1  0.16612993  0.46380419  0.42750960  1
  O  O46  1  0.33387007  0.53619581  0.92750960  1
  O  O47  1  0.33387007  0.96380419  0.57249040  1
  O  O48  1  0.72760548  0.09397440  0.80525787  1
  O  O49  1  0.72760548  0.40602560  0.69474213  1
  O  O50  1  0.77239452  0.59397440  0.19474213  1
  O  O51  1  0.77239452  0.90602560  0.30525787  1
  O  O52  1  0.27239452  0.90602560  0.19474213  1
  O  O53  1  0.27239452  0.59397440  0.30525787  1
  O  O54  1  0.22760548  0.40602560  0.80525787  1
  O  O55  1  0.22760548  0.09397440  0.69474213  1
  O  O56  1  0.54743965  0.17474188  0.92788822  1
  O  O57  1  0.54743965  0.32525812  0.57211178  1
  O  O58  1  0.95256035  0.67474188  0.07211178  1
  O  O59  1  0.95256035  0.82525812  0.42788822  1
  O  O60  1  0.45256035  0.82525812  0.07211178  1
  O  O61  1  0.45256035  0.67474188  0.42788822  1
  O  O62  1  0.04743965  0.32525812  0.92788822  1
  O  O63  1  0.04743965  0.17474188  0.57211178  1
