# generated using pymatgen
data_Ho3Si13Ir4
_symmetry_space_group_name_H-M   'P 1'
_cell_length_a   8.75048203
_cell_length_b   8.75048203
_cell_length_c   8.75048203
_cell_angle_alpha   90.00000000
_cell_angle_beta   90.00000000
_cell_angle_gamma   90.00000000
_symmetry_Int_Tables_number   1
_chemical_formula_structural   Ho3Si13Ir4
_chemical_formula_sum   'Ho6 Si26 Ir8'
_cell_volume   670.03259737
_cell_formula_units_Z   2
loop_
 _symmetry_equiv_pos_site_id
 _symmetry_equiv_pos_as_xyz
  1  'x, y, z'
loop_
 _atom_site_type_symbol
 _atom_site_label
 _atom_site_symmetry_multiplicity
 _atom_site_fract_x
 _atom_site_fract_y
 _atom_site_fract_z
 _atom_site_occupancy
  Ho  Ho0  1  -0.00000000  0.50000000  0.75000000  1
  Ho  Ho1  1  0.50000000  0.25000000  -0.00000000  1
  Ho  Ho2  1  0.75000000  -0.00000000  0.50000000  1
  Ho  Ho3  1  -0.00000000  0.50000000  0.25000000  1
  Ho  Ho4  1  0.50000000  0.75000000  -0.00000000  1
  Ho  Ho5  1  0.25000000  -0.00000000  0.50000000  1
  Si  Si6  1  0.50000000  0.50000000  0.50000000  1
  Si  Si7  1  -0.00000000  -0.00000000  -0.00000000  1
  Si  Si8  1  0.79423212  0.36203822  0.50000000  1
  Si  Si9  1  0.63796178  0.50000000  0.79423212  1
  Si  Si10  1  0.50000000  0.20576788  0.63796178  1
  Si  Si11  1  0.20576788  0.63796178  0.50000000  1
  Si  Si12  1  0.36203822  0.50000000  0.20576788  1
  Si  Si13  1  0.50000000  0.79423212  0.36203822  1
  Si  Si14  1  0.79423212  0.63796178  0.50000000  1
  Si  Si15  1  0.63796178  0.50000000  0.20576788  1
  Si  Si16  1  0.20576788  0.36203822  0.50000000  1
  Si  Si17  1  0.36203822  0.50000000  0.79423212  1
  Si  Si18  1  0.50000000  0.79423212  0.63796178  1
  Si  Si19  1  0.50000000  0.20576788  0.36203822  1
  Si  Si20  1  0.29423212  -0.00000000  0.86203822  1
  Si  Si21  1  0.13796178  0.29423212  -0.00000000  1
  Si  Si22  1  -0.00000000  0.13796178  0.70576788  1
  Si  Si23  1  0.70576788  -0.00000000  0.13796178  1
  Si  Si24  1  0.86203822  0.70576788  -0.00000000  1
  Si  Si25  1  -0.00000000  0.86203822  0.29423212  1
  Si  Si26  1  0.29423212  -0.00000000  0.13796178  1
  Si  Si27  1  0.13796178  0.70576788  -0.00000000  1
  Si  Si28  1  0.70576788  -0.00000000  0.86203822  1
  Si  Si29  1  0.86203822  0.29423212  -0.00000000  1
  Si  Si30  1  -0.00000000  0.13796178  0.29423212  1
  Si  Si31  1  -0.00000000  0.86203822  0.70576788  1
  Ir  Ir32  1  0.75000000  0.25000000  0.75000000  1
  Ir  Ir33  1  0.25000000  0.75000000  0.25000000  1
  Ir  Ir34  1  0.75000000  0.75000000  0.25000000  1
  Ir  Ir35  1  0.25000000  0.25000000  0.75000000  1
  Ir  Ir36  1  0.25000000  0.75000000  0.75000000  1
  Ir  Ir37  1  0.75000000  0.25000000  0.25000000  1
  Ir  Ir38  1  0.25000000  0.25000000  0.25000000  1
  Ir  Ir39  1  0.75000000  0.75000000  0.75000000  1
