# generated using pymatgen
data_Cd2Sb5O2F31
_symmetry_space_group_name_H-M   'P 1'
_cell_length_a   10.56248280
_cell_length_b   11.69647528
_cell_length_c   10.74379129
_cell_angle_alpha   90.00000000
_cell_angle_beta   107.59656200
_cell_angle_gamma   90.00000000
_symmetry_Int_Tables_number   1
_chemical_formula_structural   Cd2Sb5O2F31
_chemical_formula_sum   'Cd4 Sb10 O4 F62'
_cell_volume   1265.22170196
_cell_formula_units_Z   2
loop_
 _symmetry_equiv_pos_site_id
 _symmetry_equiv_pos_as_xyz
  1  'x, y, z'
loop_
 _atom_site_type_symbol
 _atom_site_label
 _atom_site_symmetry_multiplicity
 _atom_site_fract_x
 _atom_site_fract_y
 _atom_site_fract_z
 _atom_site_occupancy
  Cd  Cd0  1  0.64191356  0.64432931  0.02223283  1
  Cd  Cd1  1  0.85808644  0.14432931  0.97776717  1
  Cd  Cd2  1  0.35808644  0.35567069  0.97776717  1
  Cd  Cd3  1  0.14191356  0.85567069  0.02223283  1
  Sb  Sb4  1  0.50000000  -0.00000000  0.00000000  1
  Sb  Sb5  1  0.00000000  0.50000000  0.00000000  1
  Sb  Sb6  1  0.25667696  0.66749626  0.74194578  1
  Sb  Sb7  1  0.24332304  0.16749626  0.25805422  1
  Sb  Sb8  1  0.74332304  0.33250374  0.25805422  1
  Sb  Sb9  1  0.75667696  0.83250374  0.74194578  1
  Sb  Sb10  1  0.95003414  0.81461993  0.30323256  1
  Sb  Sb11  1  0.54996586  0.31461993  0.69676744  1
  Sb  Sb12  1  0.04996586  0.18538007  0.69676744  1
  Sb  Sb13  1  0.45003414  0.68538007  0.30323256  1
  O  O14  1  0.32488707  0.99887520  0.55593614  1
  O  O15  1  0.17511293  0.49887520  0.44406386  1
  O  O16  1  0.67511293  0.00112480  0.44406386  1
  O  O17  1  0.82488707  0.50112480  0.55593614  1
  F  F18  1  0.31956491  0.95203607  0.98127382  1
  F  F19  1  0.18043509  0.45203607  0.01872618  1
  F  F20  1  0.68043509  0.04796393  0.01872618  1
  F  F21  1  0.81956491  0.54796393  0.98127382  1
  F  F22  1  0.88484522  0.96029614  0.23449507  1
  F  F23  1  0.61515478  0.46029614  0.76550493  1
  F  F24  1  0.11515478  0.03970386  0.76550493  1
  F  F25  1  0.38484522  0.53970386  0.23449507  1
  F  F26  1  0.81790012  0.80289641  0.39016470  1
  F  F27  1  0.68209988  0.30289641  0.60983530  1
  F  F28  1  0.18209988  0.19710359  0.60983530  1
  F  F29  1  0.31790012  0.69710359  0.39016470  1
  F  F30  1  0.82688131  0.74329095  0.14990593  1
  F  F31  1  0.67311869  0.24329095  0.85009407  1
  F  F32  1  0.17311869  0.25670905  0.85009407  1
  F  F33  1  0.32688131  0.75670905  0.14990593  1
  F  F34  1  0.44415006  0.67925977  0.83489214  1
  F  F35  1  0.05584994  0.17925977  0.16510786  1
  F  F36  1  0.55584994  0.32074023  0.16510786  1
  F  F37  1  0.94415006  0.82074023  0.83489214  1
  F  F38  1  0.46626310  0.98016028  0.81779554  1
  F  F39  1  0.03373690  0.48016028  0.18220446  1
  F  F40  1  0.53373690  0.01983972  0.18220446  1
  F  F41  1  0.96626310  0.51983972  0.81779554  1
  F  F42  1  0.50000000  0.50000000  0.00000000  1
  F  F43  1  0.00000000  -0.00000000  0.00000000  1
  F  F44  1  0.55753914  0.84425501  0.02993430  1
  F  F45  1  0.94246086  0.34425501  0.97006570  1
  F  F46  1  0.44246086  0.15574499  0.97006570  1
  F  F47  1  0.05753914  0.65574499  0.02993430  1
  F  F48  1  0.21652218  0.73032643  0.89186093  1
  F  F49  1  0.28347782  0.23032643  0.10813907  1
  F  F50  1  0.78347782  0.26967357  0.10813907  1
  F  F51  1  0.71652218  0.76967357  0.89186093  1
  F  F52  1  0.07626983  0.82097082  0.20392029  1
  F  F53  1  0.42373017  0.32097082  0.79607971  1
  F  F54  1  0.92373017  0.17902918  0.79607971  1
  F  F55  1  0.57626983  0.67902918  0.20392029  1
  F  F56  1  0.25850643  0.51732519  0.81398276  1
  F  F57  1  0.24149357  0.01732519  0.18601724  1
  F  F58  1  0.74149357  0.48267481  0.18601724  1
  F  F59  1  0.75850643  0.98267481  0.81398276  1
  F  F60  1  0.26547796  0.81706314  0.67781020  1
  F  F61  1  0.23452204  0.31706314  0.32218980  1
  F  F62  1  0.73452204  0.18293686  0.32218980  1
  F  F63  1  0.76547796  0.68293686  0.67781020  1
  F  F64  1  0.30253312  0.59406491  0.59651698  1
  F  F65  1  0.19746688  0.09406491  0.40348302  1
  F  F66  1  0.69746688  0.40593509  0.40348302  1
  F  F67  1  0.80253312  0.90593509  0.59651698  1
  F  F68  1  0.08100890  0.88045003  0.44712798  1
  F  F69  1  0.41899110  0.38045003  0.55287202  1
  F  F70  1  0.91899110  0.11954997  0.55287202  1
  F  F71  1  0.58100890  0.61954997  0.44712798  1
  F  F72  1  0.01005588  0.66241919  0.35912931  1
  F  F73  1  0.48994412  0.16241919  0.64087069  1
  F  F74  1  0.98994412  0.33758081  0.64087069  1
  F  F75  1  0.51005588  0.83758081  0.35912931  1
  F  F76  1  0.07383075  0.65360713  0.65027211  1
  F  F77  1  0.42616925  0.15360713  0.34972789  1
  F  F78  1  0.92616925  0.34639287  0.34972789  1
  F  F79  1  0.57383075  0.84639287  0.65027211  1
