# generated using pymatgen
data_Y3Ge13Pt4
_symmetry_space_group_name_H-M   'P 1'
_cell_length_a   9.10970199
_cell_length_b   9.10970199
_cell_length_c   9.17047596
_cell_angle_alpha   89.65004974
_cell_angle_beta   89.65004974
_cell_angle_gamma   89.92926075
_symmetry_Int_Tables_number   1
_chemical_formula_structural   Y3Ge13Pt4
_chemical_formula_sum   'Y6 Ge26 Pt8'
_cell_volume   760.99832993
_cell_formula_units_Z   2
loop_
 _symmetry_equiv_pos_site_id
 _symmetry_equiv_pos_as_xyz
  1  'x, y, z'
loop_
 _atom_site_type_symbol
 _atom_site_label
 _atom_site_symmetry_multiplicity
 _atom_site_fract_x
 _atom_site_fract_y
 _atom_site_fract_z
 _atom_site_occupancy
  Y  Y0  1  0.99965718  0.99915445  0.49952828  1
  Y  Y1  1  0.99915445  0.99965718  0.99952828  1
  Y  Y2  1  0.25338954  0.50153663  0.25113978  1
  Y  Y3  1  0.50153663  0.25338954  0.75113978  1
  Y  Y4  1  0.74320255  0.49862387  0.24958168  1
  Y  Y5  1  0.49862387  0.74320255  0.74958168  1
  Ge  Ge6  1  0.50393568  0.99289542  0.24654671  1
  Ge  Ge7  1  0.99289542  0.50393568  0.74654671  1
  Ge  Ge8  1  0.85248986  0.82588674  0.24663865  1
  Ge  Ge9  1  0.82588674  0.85248986  0.74663865  1
  Ge  Ge10  1  0.15368051  0.83349452  0.24909967  1
  Ge  Ge11  1  0.83349452  0.15368051  0.74909967  1
  Ge  Ge12  1  0.49743118  0.31820079  0.38785089  1
  Ge  Ge13  1  0.31820079  0.49743118  0.88785089  1
  Ge  Ge14  1  0.99586208  0.61285664  0.48537859  1
  Ge  Ge15  1  0.61285664  0.99586208  0.98537859  1
  Ge  Ge16  1  -0.00010164  0.33008514  0.39657365  1
  Ge  Ge17  1  0.33008514  -0.00010164  0.89657365  1
  Ge  Ge18  1  0.73458317  0.49570215  0.85790977  1
  Ge  Ge19  1  0.49570215  0.73458317  0.35790977  1
  Ge  Ge20  1  0.99860023  0.33257426  0.09952339  1
  Ge  Ge21  1  0.33257426  0.99860023  0.59952339  1
  Ge  Ge22  1  0.78006718  0.11976209  0.24921231  1
  Ge  Ge23  1  0.11976209  0.78006718  0.74921231  1
  Ge  Ge24  1  0.00269036  0.61489500  0.01420913  1
  Ge  Ge25  1  0.61489500  0.00269036  0.51420913  1
  Ge  Ge26  1  0.49832187  0.33614949  0.08661457  1
  Ge  Ge27  1  0.33614949  0.49832187  0.58661457  1
  Ge  Ge28  1  0.25039938  0.11151099  0.24879037  1
  Ge  Ge29  1  0.11151099  0.25039938  0.74879037  1
  Ge  Ge30  1  0.64773408  0.50318315  0.57924945  1
  Ge  Ge31  1  0.50318315  0.64773408  0.07924945  1
  Pt  Pt32  1  0.24952037  0.74909219  0.99796129  1
  Pt  Pt33  1  0.74909219  0.24952037  0.49796129  1
  Pt  Pt34  1  0.24947176  0.74812768  0.49899542  1
  Pt  Pt35  1  0.74812768  0.24947176  0.99899542  1
  Pt  Pt36  1  0.24597674  0.24362501  0.49993106  1
  Pt  Pt37  1  0.24362501  0.24597674  0.99993106  1
  Pt  Pt38  1  0.74782884  0.75190289  0.49486533  1
  Pt  Pt39  1  0.75190289  0.74782884  0.99486533  1
