# generated using pymatgen
data_Si2BPH28C9
_symmetry_space_group_name_H-M   'P 1'
_cell_length_a   9.43122212
_cell_length_b   13.56839187
_cell_length_c   15.84628419
_cell_angle_alpha   90.00000000
_cell_angle_beta   90.00000000
_cell_angle_gamma   107.10397339
_symmetry_Int_Tables_number   1
_chemical_formula_structural   Si2BPH28C9
_chemical_formula_sum   'Si8 B4 P4 H112 C36'
_cell_volume   1938.10979929
_cell_formula_units_Z   4
loop_
 _symmetry_equiv_pos_site_id
 _symmetry_equiv_pos_as_xyz
  1  'x, y, z'
loop_
 _atom_site_type_symbol
 _atom_site_label
 _atom_site_symmetry_multiplicity
 _atom_site_fract_x
 _atom_site_fract_y
 _atom_site_fract_z
 _atom_site_occupancy
  Si  Si0  1  0.19211076  0.68700358  0.86230717  1
  Si  Si1  1  0.80788924  0.81299642  0.36230717  1
  Si  Si2  1  0.80788924  0.31299642  0.13769283  1
  Si  Si3  1  0.19211076  0.18700358  0.63769283  1
  Si  Si4  1  0.45535987  0.73732994  0.72200785  1
  Si  Si5  1  0.54464013  0.76267006  0.22200785  1
  Si  Si6  1  0.54464013  0.26267006  0.27799215  1
  Si  Si7  1  0.45535987  0.23732994  0.77799215  1
  B  B8  1  0.04544589  0.79561333  0.66930209  1
  B  B9  1  0.95455411  0.70438667  0.16930209  1
  B  B10  1  0.95455411  0.20438667  0.33069791  1
  B  B11  1  0.04544589  0.29561333  0.83069791  1
  P  P12  1  0.11427190  0.67596369  0.66763493  1
  P  P13  1  0.88572810  0.82403631  0.16763493  1
  P  P14  1  0.88572810  0.32403631  0.33236507  1
  P  P15  1  0.11427190  0.17596369  0.83236507  1
  H  H16  1  0.96178287  0.78485801  0.60874636  1
  H  H17  1  0.03821713  0.71514199  0.10874636  1
  H  H18  1  0.03821713  0.21514199  0.39125364  1
  H  H19  1  0.96178287  0.28485801  0.89125364  1
  H  H20  1  0.98116920  0.79490282  0.73600063  1
  H  H21  1  0.01883080  0.70509718  0.23600063  1
  H  H22  1  0.01883080  0.20509718  0.26399937  1
  H  H23  1  0.98116920  0.29490282  0.76399937  1
  H  H24  1  0.15438008  0.86998336  0.66112004  1
  H  H25  1  0.84561992  0.63001664  0.16112004  1
  H  H26  1  0.84561992  0.13001664  0.33887996  1
  H  H27  1  0.15438008  0.36998336  0.83887996  1
  H  H28  1  0.24725560  0.58450284  0.74838627  1
  H  H29  1  0.75274440  0.91549716  0.24838627  1
  H  H30  1  0.75274440  0.41549716  0.25161373  1
  H  H31  1  0.24725560  0.08450284  0.75161373  1
  H  H32  1  0.99277048  0.48741985  0.66665052  1
  H  H33  1  0.00722952  0.01258015  0.16665052  1
  H  H34  1  0.00722952  0.51258015  0.33334948  1
  H  H35  1  0.99277048  0.98741985  0.83334948  1
  H  H36  1  0.89034009  0.55512445  0.72696646  1
  H  H37  1  0.10965991  0.94487555  0.22696646  1
  H  H38  1  0.10965991  0.44487555  0.27303354  1
  H  H39  1  0.89034009  0.05512445  0.77303354  1
  H  H40  1  0.89062572  0.56220877  0.61487978  1
  H  H41  1  0.10937428  0.93779123  0.11487978  1
  H  H42  1  0.10937428  0.43779123  0.38512022  1
  H  H43  1  0.89062572  0.06220877  0.88512022  1
  H  H44  1  0.09626312  0.66093344  0.51854995  1
  H  H45  1  0.90373688  0.83906656  0.01854995  1
  H  H46  1  0.90373688  0.33906656  0.48145005  1
  H  H47  1  0.09626312  0.16093344  0.98145005  1
  H  H48  1  0.28082245  0.72963362  0.54731290  1
  H  H49  1  0.71917755  0.77036638  0.04731290  1
  H  H50  1  0.71917755  0.27036638  0.45268710  1
  H  H51  1  0.28082245  0.22963362  0.95268710  1
  H  H52  1  0.21833266  0.59127561  0.55619975  1
  H  H53  1  0.78166734  0.90872439  0.05619975  1
  H  H54  1  0.78166734  0.40872439  0.44380025  1
  H  H55  1  0.21833266  0.09127561  0.94380025  1
  H  H56  1  0.19330604  0.83327547  0.95546823  1
  H  H57  1  0.80669396  0.66672453  0.45546823  1
  H  H58  1  0.80669396  0.16672453  0.04453177  1
  H  H59  1  0.19330604  0.33327547  0.54453177  1
  H  H60  1  0.35655412  0.86667428  0.89305431  1
  H  H61  1  0.64344588  0.63332572  0.39305431  1
  H  H62  1  0.64344588  0.13332572  0.10694569  1
  H  H63  1  0.35655412  0.36667428  0.60694569  1
  H  H64  1  0.18435647  0.86860699  0.84746793  1
  H  H65  1  0.81564353  0.63139301  0.34746793  1
  H  H66  1  0.81564353  0.13139301  0.15253207  1
  H  H67  1  0.18435647  0.36860699  0.65253207  1
  H  H68  1  0.25593132  0.53626056  0.92440742  1
  H  H69  1  0.74406868  0.96373944  0.42440742  1
  H  H70  1  0.74406868  0.46373944  0.07559258  1
  H  H71  1  0.25593132  0.03626056  0.57559258  1
  H  H72  1  0.40488311  0.65087045  0.94266974  1
  H  H73  1  0.59511689  0.84912955  0.44266974  1
  H  H74  1  0.59511689  0.34912955  0.05733026  1
  H  H75  1  0.40488311  0.15087045  0.55733026  1
  H  H76  1  0.23723742  0.62664783  0.00121712  1
  H  H77  1  0.76276258  0.87335217  0.50121712  1
  H  H78  1  0.76276258  0.37335217  0.99878288  1
  H  H79  1  0.23723742  0.12664783  0.49878288  1
  H  H80  1  0.96966425  0.63662581  0.94890907  1
  H  H81  1  0.03033575  0.86337419  0.44890907  1
  H  H82  1  0.03033575  0.36337419  0.05109093  1
  H  H83  1  0.96966425  0.13662581  0.55109093  1
  H  H84  1  0.91741143  0.65857452  0.84399898  1
  H  H85  1  0.08258857  0.84142548  0.34399898  1
  H  H86  1  0.08258857  0.34142548  0.15600102  1
  H  H87  1  0.91741143  0.15857452  0.65600102  1
  H  H88  1  0.95933056  0.54123865  0.87064799  1
  H  H89  1  0.04066944  0.95876135  0.37064799  1
  H  H90  1  0.04066944  0.45876135  0.12935201  1
  H  H91  1  0.95933056  0.04123865  0.62935201  1
  H  H92  1  0.51690577  0.58286774  0.66352988  1
  H  H93  1  0.48309423  0.91713226  0.16352988  1
  H  H94  1  0.48309423  0.41713226  0.33647012  1
  H  H95  1  0.51690577  0.08286774  0.83647012  1
  H  H96  1  0.48452566  0.66055868  0.57927562  1
  H  H97  1  0.51547434  0.83944132  0.07927562  1
  H  H98  1  0.51547434  0.33944132  0.42072438  1
  H  H99  1  0.48452566  0.16055868  0.92072438  1
  H  H100  1  0.65195714  0.70080829  0.63826004  1
  H  H101  1  0.34804286  0.79919171  0.13826004  1
  H  H102  1  0.34804286  0.29919171  0.36173996  1
  H  H103  1  0.65195714  0.20080829  0.86173996  1
  H  H104  1  0.55631356  0.79249651  0.86837761  1
  H  H105  1  0.44368644  0.70750349  0.36837761  1
  H  H106  1  0.44368644  0.20750349  0.13162239  1
  H  H107  1  0.55631356  0.29249651  0.63162239  1
  H  H108  1  0.58465013  0.67244591  0.83900436  1
  H  H109  1  0.41534987  0.82755409  0.33900436  1
  H  H110  1  0.41534987  0.32755409  0.16099564  1
  H  H111  1  0.58465013  0.17244591  0.66099564  1
  H  H112  1  0.69383130  0.78899649  0.79255968  1
  H  H113  1  0.30616870  0.71100351  0.29255968  1
  H  H114  1  0.30616870  0.21100351  0.20744032  1
  H  H115  1  0.69383130  0.28899649  0.70744032  1
  H  H116  1  0.60060336  0.91150282  0.67380403  1
  H  H117  1  0.39939664  0.58849718  0.17380403  1
  H  H118  1  0.39939664  0.08849718  0.32619597  1
  H  H119  1  0.60060336  0.41150282  0.82619597  1
  H  H120  1  0.42544871  0.87413380  0.62232131  1
  H  H121  1  0.57455129  0.62586620  0.12232131  1
  H  H122  1  0.57455129  0.12586620  0.37767869  1
  H  H123  1  0.42544871  0.37413380  0.87767869  1
  H  H124  1  0.43786438  0.91685086  0.72840097  1
  H  H125  1  0.56213562  0.58314914  0.22840097  1
  H  H126  1  0.56213562  0.08314914  0.27159903  1
  H  H127  1  0.43786438  0.41685086  0.77159903  1
  C  C128  1  0.25027816  0.66676943  0.74800408  1
  C  C129  1  0.74972184  0.83323057  0.24800408  1
  C  C130  1  0.74972184  0.33323057  0.25199592  1
  C  C131  1  0.25027816  0.16676943  0.75199592  1
  C  C132  1  0.95819343  0.55799062  0.67023407  1
  C  C133  1  0.04180657  0.94200938  0.17023407  1
  C  C134  1  0.04180657  0.44200938  0.32976593  1
  C  C135  1  0.95819343  0.05799062  0.82976593  1
  C  C136  1  0.18656582  0.66249561  0.56270688  1
  C  C137  1  0.81343418  0.83750439  0.06270688  1
  C  C138  1  0.81343418  0.33750439  0.43729312  1
  C  C139  1  0.18656582  0.16249561  0.93729312  1
  C  C140  1  0.23677692  0.82763369  0.89159842  1
  C  C141  1  0.76322308  0.67236631  0.39159842  1
  C  C142  1  0.76322308  0.17236631  0.10840158  1
  C  C143  1  0.23677692  0.32763369  0.60840158  1
  C  C144  1  0.28388653  0.61914005  0.93880197  1
  C  C145  1  0.71611347  0.88085995  0.43880197  1
  C  C146  1  0.71611347  0.38085995  0.06119803  1
  C  C147  1  0.28388653  0.11914005  0.56119803  1
  C  C148  1  0.98908380  0.62488693  0.88166464  1
  C  C149  1  0.01091620  0.87511307  0.38166464  1
  C  C150  1  0.01091620  0.37511307  0.11833536  1
  C  C151  1  0.98908380  0.12488693  0.61833536  1
  C  C152  1  0.53187023  0.66266497  0.64275919  1
  C  C153  1  0.46812977  0.83733503  0.14275919  1
  C  C154  1  0.46812977  0.33733503  0.35724081  1
  C  C155  1  0.53187023  0.16266497  0.85724081  1
  C  C156  1  0.58190701  0.74811885  0.81559441  1
  C  C157  1  0.41809299  0.75188115  0.31559441  1
  C  C158  1  0.41809299  0.25188115  0.18440559  1
  C  C159  1  0.58190701  0.24811885  0.68440559  1
  C  C160  1  0.48145107  0.87232603  0.68274521  1
  C  C161  1  0.51854893  0.62767397  0.18274521  1
  C  C162  1  0.51854893  0.12767397  0.31725479  1
  C  C163  1  0.48145107  0.37232603  0.81725479  1
