# generated using pymatgen
data_MnSn4H24C8(Se5N)2
_symmetry_space_group_name_H-M   'P 1'
_cell_length_a   10.34494314
_cell_length_b   10.34494314
_cell_length_c   10.91665942
_cell_angle_alpha   118.28219058
_cell_angle_beta   118.28219052
_cell_angle_gamma   90.00000000
_symmetry_Int_Tables_number   1
_chemical_formula_structural   MnSn4H24C8(Se5N)2
_chemical_formula_sum   'Mn1 Sn4 H24 C8 Se10 N2'
_cell_volume   867.20471630
_cell_formula_units_Z   1
loop_
 _symmetry_equiv_pos_site_id
 _symmetry_equiv_pos_as_xyz
  1  'x, y, z'
loop_
 _atom_site_type_symbol
 _atom_site_label
 _atom_site_symmetry_multiplicity
 _atom_site_fract_x
 _atom_site_fract_y
 _atom_site_fract_z
 _atom_site_occupancy
  Mn  Mn0  1  0.25000000  0.75000000  0.50000000  1
  Sn  Sn1  1  0.40689730  0.51355516  0.18153055  1
  Sn  Sn2  1  0.77463325  0.66797539  0.18153055  1
  Sn  Sn3  1  0.33202461  0.59310270  0.81846945  1
  Sn  Sn4  1  0.48644484  0.22536675  0.81846945  1
  H  H5  1  0.04454230  0.18024981  0.97133844  1
  H  H6  1  0.92679614  0.79108863  0.97133844  1
  H  H7  1  0.20891137  0.95545770  0.02866156  1
  H  H8  1  0.81975019  0.07320386  0.02866156  1
  H  H9  1  0.02356864  0.99221420  0.81500490  1
  H  H10  1  0.79143626  0.82279070  0.81500490  1
  H  H11  1  0.17720930  0.97643136  0.18499510  1
  H  H12  1  0.00778580  0.20856374  0.18499510  1
  H  H13  1  0.85670583  0.04250840  0.81623315  1
  H  H14  1  0.95952732  0.77372475  0.81623315  1
  H  H15  1  0.22627525  0.14329417  0.18376685  1
  H  H16  1  0.95749160  0.04047268  0.18376685  1
  H  H17  1  0.91342606  0.33820522  0.47336655  1
  H  H18  1  0.55994049  0.13516133  0.47336655  1
  H  H19  1  0.86483867  0.08657394  0.52663345  1
  H  H20  1  0.66179478  0.44005951  0.52663345  1
  H  H21  1  0.80231077  0.14014279  0.31724664  1
  H  H22  1  0.51493587  0.17710384  0.31724664  1
  H  H23  1  0.82289616  0.19768923  0.68275336  1
  H  H24  1  0.85985721  0.48506413  0.68275336  1
  H  H25  1  0.71613523  0.29095751  0.31565968  1
  H  H26  1  0.59952445  0.02470217  0.31565968  1
  H  H27  1  0.97529783  0.28386477  0.68434032  1
  H  H28  1  0.70904249  0.40047555  0.68434032  1
  C  C29  1  0.97987637  0.05888794  0.89236555  1
  C  C30  1  0.91248918  0.83347762  0.89236555  1
  C  C31  1  0.16652238  0.02012363  0.10763445  1
  C  C32  1  0.94111206  0.08751082  0.10763445  1
  C  C33  1  0.79942944  0.25549155  0.39343317  1
  C  C34  1  0.59400373  0.13794162  0.39343317  1
  C  C35  1  0.86205838  0.20057056  0.60656683  1
  C  C36  1  0.74450845  0.40599627  0.60656683  1
  Se  Se37  1  0.39161167  0.23015044  0.00086500  1
  Se  Se38  1  0.60925333  0.77071456  0.00086500  1
  Se  Se39  1  0.22928544  0.60838833  0.99913500  1
  Se  Se40  1  0.76984956  0.39074667  0.99913500  1
  Se  Se41  1  0.68717244  0.68717244  0.37434488  1
  Se  Se42  1  0.31282756  0.31282756  0.62565512  1
  Se  Se43  1  0.31258266  0.50531413  0.35293262  1
  Se  Se44  1  0.04034996  0.84761849  0.35293262  1
  Se  Se45  1  0.15238151  0.68741734  0.64706738  1
  Se  Se46  1  0.49468587  0.95965004  0.64706738  1
  N  N47  1  0.00000000  0.00000000  0.00000000  1
  N  N48  1  0.75000000  0.25000000  0.50000000  1
