# generated using pymatgen
data_Si4Bi2AsH38(C7Cl)2
_symmetry_space_group_name_H-M   'P 1'
_cell_length_a   9.84810306
_cell_length_b   13.18996390
_cell_length_c   14.38038191
_cell_angle_alpha   96.08166684
_cell_angle_beta   103.02807061
_cell_angle_gamma   93.78264876
_symmetry_Int_Tables_number   1
_chemical_formula_structural   Si4Bi2AsH38(C7Cl)2
_chemical_formula_sum   'Si8 Bi4 As2 H76 C28 Cl4'
_cell_volume   1801.83104663
_cell_formula_units_Z   2
loop_
 _symmetry_equiv_pos_site_id
 _symmetry_equiv_pos_as_xyz
  1  'x, y, z'
loop_
 _atom_site_type_symbol
 _atom_site_label
 _atom_site_symmetry_multiplicity
 _atom_site_fract_x
 _atom_site_fract_y
 _atom_site_fract_z
 _atom_site_occupancy
  Si  Si0  1  0.01000607  0.72752013  0.11602482  1
  Si  Si1  1  0.98999393  0.27247987  0.88397518  1
  Si  Si2  1  0.62031516  0.10441962  0.36944154  1
  Si  Si3  1  0.37968484  0.89558038  0.63055846  1
  Si  Si4  1  0.71273351  0.66638786  0.16457309  1
  Si  Si5  1  0.28726649  0.33361214  0.83542691  1
  Si  Si6  1  0.88597289  0.26771917  0.37777637  1
  Si  Si7  1  0.11402711  0.73228083  0.62222363  1
  Bi  Bi8  1  0.76415059  0.88539946  0.02994703  1
  Bi  Bi9  1  0.23584941  0.11460054  0.97005297  1
  Bi  Bi10  1  0.69344293  0.16316659  0.14489028  1
  Bi  Bi11  1  0.30655707  0.83683341  0.85510972  1
  As  As12  1  0.53474289  0.97278043  0.08259798  1
  As  As13  1  0.46525711  0.02721957  0.91740202  1
  H  H14  1  0.86776860  0.82415290  0.20767016  1
  H  H15  1  0.13223140  0.17584710  0.79232984  1
  H  H16  1  0.80495112  0.50987830  0.09430595  1
  H  H17  1  0.19504888  0.49012170  0.90569405  1
  H  H18  1  0.62726234  0.48579339  0.09987973  1
  H  H19  1  0.37273766  0.51420661  0.90012027  1
  H  H20  1  0.66893334  0.55380490  0.00814903  1
  H  H21  1  0.33106666  0.44619510  0.99185097  1
  H  H22  1  0.77419055  0.71244477  0.34249446  1
  H  H23  1  0.22580945  0.28755523  0.65750554  1
  H  H24  1  0.69990237  0.58346169  0.30981678  1
  H  H25  1  0.30009763  0.41653831  0.69018322  1
  H  H26  1  0.87876941  0.61574408  0.31051763  1
  H  H27  1  0.12123059  0.38425592  0.68948237  1
  H  H28  1  0.48191400  0.71981340  0.07980048  1
  H  H29  1  0.51808600  0.28018660  0.92019952  1
  H  H30  1  0.46586575  0.63784421  0.16828873  1
  H  H31  1  0.53413425  0.36215579  0.83171127  1
  H  H32  1  0.52477140  0.76985140  0.20415256  1
  H  H33  1  0.47522860  0.23014860  0.79584744  1
  H  H34  1  0.02750137  0.56555930  0.19640753  1
  H  H35  1  0.97249863  0.43444070  0.80359247  1
  H  H36  1  0.19216414  0.61910210  0.18444080  1
  H  H37  1  0.80783586  0.38089790  0.81555920  1
  H  H38  1  0.11627083  0.67391197  0.27673210  1
  H  H39  1  0.88372917  0.32608803  0.72326790  1
  H  H40  1  0.16618176  0.88363015  0.20326197  1
  H  H41  1  0.83381824  0.11636985  0.79673803  1
  H  H42  1  0.24002973  0.81368550  0.11706035  1
  H  H43  1  0.75997027  0.18631450  0.88293965  1
  H  H44  1  0.10752152  0.89560071  0.07907946  1
  H  H45  1  0.89247848  0.10439929  0.92092054  1
  H  H46  1  0.08695648  0.64134260  0.97777459  1
  H  H47  1  0.91304352  0.35865740  0.02222541  1
  H  H48  1  0.91194864  0.59350990  0.97325595  1
  H  H49  1  0.08805136  0.40649010  0.02674405  1
  H  H50  1  0.94650480  0.71493848  0.93631232  1
  H  H51  1  0.05349520  0.28506152  0.06368768  1
  H  H52  1  0.63911212  0.26552004  0.30360920  1
  H  H53  1  0.36088788  0.73447996  0.69639080  1
  H  H54  1  0.02887869  0.11838260  0.37843010  1
  H  H55  1  0.97112131  0.88161740  0.62156990  1
  H  H56  1  0.10968863  0.21842507  0.47155757  1
  H  H57  1  0.89031137  0.78157493  0.52844243  1
  H  H58  1  0.96795528  0.13615883  0.48633323  1
  H  H59  1  0.03204472  0.86384117  0.51366677  1
  H  H60  1  0.81096081  0.33418857  0.52843654  1
  H  H61  1  0.18903919  0.66581143  0.47156346  1
  H  H62  1  0.96457834  0.40434824  0.51520276  1
  H  H63  1  0.03542166  0.59565176  0.48479724  1
  H  H64  1  0.79780284  0.42623133  0.44583204  1
  H  H65  1  0.20219716  0.57376867  0.55416796  1
  H  H66  1  0.91016960  0.40019645  0.26896288  1
  H  H67  1  0.08983040  0.59980355  0.73103712  1
  H  H68  1  0.07495894  0.37654627  0.33983846  1
  H  H69  1  0.92504106  0.62345373  0.66016154  1
  H  H70  1  0.99326227  0.28995809  0.23637951  1
  H  H71  1  0.00673773  0.71004191  0.76362049  1
  H  H72  1  0.80552250  0.98225364  0.39170662  1
  H  H73  1  0.19447750  0.01774636  0.60829338  1
  H  H74  1  0.63793833  0.92098057  0.38999918  1
  H  H75  1  0.36206167  0.07901943  0.61000082  1
  H  H76  1  0.68052388  0.94739884  0.28063888  1
  H  H77  1  0.31947612  0.05260116  0.71936112  1
  H  H78  1  0.59783123  0.21835292  0.51598681  1
  H  H79  1  0.40216877  0.78164708  0.48401319  1
  H  H80  1  0.58807704  0.08720979  0.53342117  1
  H  H81  1  0.41192296  0.91279021  0.46657883  1
  H  H82  1  0.75336711  0.15455241  0.54184344  1
  H  H83  1  0.24663289  0.84544759  0.45815656  1
  H  H84  1  0.40383504  0.06398123  0.23702050  1
  H  H85  1  0.59616496  0.93601877  0.76297950  1
  H  H86  1  0.37689402  0.02969133  0.34812267  1
  H  H87  1  0.62310598  0.97030867  0.65187733  1
  H  H88  1  0.37860312  0.16015840  0.32640253  1
  H  H89  1  0.62139688  0.83984160  0.67359747  1
  C  C90  1  0.83877178  0.77032210  0.14031347  1
  C  C91  1  0.16122822  0.22967790  0.85968653  1
  C  C92  1  0.70362750  0.54248846  0.08414753  1
  C  C93  1  0.29637250  0.45751154  0.91585247  1
  C  C94  1  0.77391462  0.64201071  0.29389226  1
  C  C95  1  0.22608538  0.35798929  0.70610774  1
  C  C96  1  0.52911742  0.70295731  0.15252337  1
  C  C97  1  0.47088258  0.29704269  0.84747663  1
  C  C98  1  0.09234866  0.63768583  0.20156799  1
  C  C99  1  0.90765134  0.36231417  0.79843201  1
  C  C100  1  0.14206317  0.84127757  0.13061903  1
  C  C101  1  0.85793683  0.15872243  0.86938097  1
  C  C102  1  0.98504707  0.66278470  0.98919342  1
  C  C103  1  0.01495293  0.33721530  0.01080658  1
  C  C104  1  0.70812462  0.20220495  0.30972914  1
  C  C105  1  0.29187538  0.79779505  0.69027086  1
  C  C106  1  0.00891514  0.17600362  0.43377903  1
  C  C107  1  0.99108486  0.82399638  0.56622097  1
  C  C108  1  0.86116574  0.36663499  0.47619960  1
  C  C109  1  0.13883426  0.63336501  0.52380040  1
  C  C110  1  0.97307088  0.33957736  0.29726480  1
  C  C111  1  0.02692912  0.66042264  0.70273520  1
  C  C112  1  0.69369551  0.97698713  0.35692215  1
  C  C113  1  0.30630449  0.02301287  0.64307785  1
  C  C114  1  0.64297536  0.14587339  0.50249579  1
  C  C115  1  0.35702464  0.85412661  0.49750421  1
  C  C116  1  0.42703885  0.08847405  0.31489338  1
  C  C117  1  0.57296115  0.91152595  0.68510662  1
  Cl  Cl118  1  0.57395364  0.74880663  0.90187534  1
  Cl  Cl119  1  0.42604636  0.25119337  0.09812466  1
  Cl  Cl120  1  0.92626775  0.05871564  0.16154570  1
  Cl  Cl121  1  0.07373225  0.94128436  0.83845430  1
