# generated using pymatgen
data_H5C2S2N3
_symmetry_space_group_name_H-M   'P 1'
_cell_length_a   4.73365579
_cell_length_b   10.49833330
_cell_length_c   13.69571950
_cell_angle_alpha   90.00000000
_cell_angle_beta   104.85321642
_cell_angle_gamma   90.00000000
_symmetry_Int_Tables_number   1
_chemical_formula_structural   H5C2S2N3
_chemical_formula_sum   'H20 C8 S8 N12'
_cell_volume   657.87329272
_cell_formula_units_Z   4
loop_
 _symmetry_equiv_pos_site_id
 _symmetry_equiv_pos_as_xyz
  1  'x, y, z'
loop_
 _atom_site_type_symbol
 _atom_site_label
 _atom_site_symmetry_multiplicity
 _atom_site_fract_x
 _atom_site_fract_y
 _atom_site_fract_z
 _atom_site_occupancy
  H  H0  1  0.27476811  0.82105802  0.10969113  1
  H  H1  1  0.72523189  0.32105802  0.89030887  1
  H  H2  1  0.23222986  0.70259102  0.01891165  1
  H  H3  1  0.76777014  0.20259102  0.98108835  1
  H  H4  1  0.77641967  0.50189193  0.17856744  1
  H  H5  1  0.22358033  0.00189193  0.82143256  1
  H  H6  1  0.50311559  0.51384066  0.05934027  1
  H  H7  1  0.49688441  0.01384066  0.94065973  1
  H  H8  1  0.66704751  0.82311714  0.23909550  1
  H  H9  1  0.33295249  0.32311714  0.76090450  1
  H  H10  1  0.40855667  0.97744833  0.44901632  1
  H  H11  1  0.59144333  0.47744833  0.55098368  1
  H  H12  1  0.63645991  0.10318082  0.50364070  1
  H  H13  1  0.36354009  0.60318082  0.49635930  1
  H  H14  1  0.43665133  0.28513550  0.27338899  1
  H  H15  1  0.56334867  0.78513550  0.72661101  1
  H  H16  1  0.66939589  0.27945692  0.40061749  1
  H  H17  1  0.33060411  0.77945692  0.59938251  1
  H  H18  1  0.11816472  0.98426510  0.30257989  1
  H  H19  1  0.88183528  0.48426510  0.69742011  1
  C  C20  1  0.55423062  0.66834877  0.15040235  1
  C  C21  1  0.44576938  0.16834877  0.84959765  1
  C  C22  1  0.91057995  0.68389969  0.32342734  1
  C  C23  1  0.08942005  0.18389969  0.67657266  1
  C  C24  1  0.39802792  0.12935085  0.35600504  1
  C  C25  1  0.60197208  0.62935085  0.64399496  1
  C  C26  1  0.07218555  0.10162923  0.17924891  1
  C  C27  1  0.92781445  0.60162923  0.82075109  1
  S  S28  1  0.03280137  0.80319686  0.40911585  1
  S  S29  1  0.96719863  0.30319686  0.59088415  1
  S  S30  1  0.02422103  0.53183713  0.33668785  1
  S  S31  1  0.97577897  0.03183713  0.66331215  1
  S  S32  1  0.85936767  0.98351624  0.11272568  1
  S  S33  1  0.14063233  0.48351624  0.88727432  1
  S  S34  1  0.13474812  0.24272789  0.13052347  1
  S  S35  1  0.86525188  0.74272789  0.86947653  1
  N  N36  1  0.34861611  0.73707546  0.08783824  1
  N  N37  1  0.65138389  0.23707546  0.91216176  1
  N  N38  1  0.69595697  0.72640572  0.23937193  1
  N  N39  1  0.30404303  0.22640572  0.76062807  1
  N  N40  1  0.62124352  0.55205020  0.12608103  1
  N  N41  1  0.37875648  0.05205020  0.87391897  1
  N  N42  1  0.47512142  0.06886360  0.44439508  1
  N  N43  1  0.52487858  0.56886360  0.55560492  1
  N  N44  1  0.19316617  0.06950932  0.28076308  1
  N  N45  1  0.80683383  0.56950932  0.71923692  1
  N  N46  1  0.51412837  0.24070361  0.34238587  1
  N  N47  1  0.48587163  0.74070361  0.65761413  1
