# generated using pymatgen
data_Se2S2O7
_symmetry_space_group_name_H-M   'P 1'
_cell_length_a   5.85324194
_cell_length_b   7.76474871
_cell_length_c   16.74601399
_cell_angle_alpha   96.37275235
_cell_angle_beta   90.00000000
_cell_angle_gamma   90.00000000
_symmetry_Int_Tables_number   1
_chemical_formula_structural   Se2S2O7
_chemical_formula_sum   'Se8 S8 O28'
_cell_volume   756.38589309
_cell_formula_units_Z   4
loop_
 _symmetry_equiv_pos_site_id
 _symmetry_equiv_pos_as_xyz
  1  'x, y, z'
loop_
 _atom_site_type_symbol
 _atom_site_label
 _atom_site_symmetry_multiplicity
 _atom_site_fract_x
 _atom_site_fract_y
 _atom_site_fract_z
 _atom_site_occupancy
  Se  Se0  1  0.21487752  0.51644612  0.43803400  1
  Se  Se1  1  0.71487752  0.98355388  0.06196600  1
  Se  Se2  1  0.78512248  0.48355388  0.56196600  1
  Se  Se3  1  0.28512248  0.01644612  0.93803400  1
  Se  Se4  1  0.96244930  0.71149439  0.50803898  1
  Se  Se5  1  0.46244930  0.78850561  0.99196102  1
  Se  Se6  1  0.03755070  0.28850561  0.49196102  1
  Se  Se7  1  0.53755070  0.21149439  0.00803898  1
  S  S8  1  0.44683394  0.98462215  0.38479817  1
  S  S9  1  0.94683394  0.51537785  0.11520183  1
  S  S10  1  0.55316606  0.01537785  0.61520183  1
  S  S11  1  0.05316606  0.48462215  0.88479817  1
  S  S12  1  0.15658963  0.03006599  0.24701196  1
  S  S13  1  0.65658963  0.46993401  0.25298804  1
  S  S14  1  0.84341037  0.96993401  0.75298804  1
  S  S15  1  0.34341037  0.53006599  0.74701196  1
  O  O16  1  0.41597079  0.16580305  0.41897489  1
  O  O17  1  0.91597079  0.33419695  0.08102511  1
  O  O18  1  0.58402921  0.83419695  0.58102511  1
  O  O19  1  0.08402921  0.66580305  0.91897489  1
  O  O20  1  0.67949364  0.92437715  0.38545812  1
  O  O21  1  0.17949364  0.57562285  0.11454188  1
  O  O22  1  0.32050636  0.07562285  0.61454188  1
  O  O23  1  0.82050636  0.42437715  0.88545812  1
  O  O24  1  0.27216967  0.86824029  0.41070896  1
  O  O25  1  0.77216967  0.63175971  0.08929104  1
  O  O26  1  0.72783033  0.13175971  0.58929104  1
  O  O27  1  0.22783033  0.36824029  0.91070896  1
  O  O28  1  0.40298416  0.98579261  0.28439139  1
  O  O29  1  0.90298416  0.51420739  0.21560861  1
  O  O30  1  0.59701584  0.01420739  0.71560861  1
  O  O31  1  0.09701584  0.48579261  0.78439139  1
  O  O32  1  0.07735228  0.19317535  0.28924547  1
  O  O33  1  0.57735228  0.30682465  0.21075453  1
  O  O34  1  0.92264772  0.80682465  0.71075453  1
  O  O35  1  0.42264772  0.69317535  0.78924547  1
  O  O36  1  0.20833571  0.03535871  0.16222349  1
  O  O37  1  0.70833571  0.46464129  0.33777651  1
  O  O38  1  0.79166429  0.96464129  0.83777651  1
  O  O39  1  0.29166429  0.53535871  0.66222349  1
  O  O40  1  0.99818267  0.88813654  0.25777357  1
  O  O41  1  0.49818267  0.61186346  0.24222643  1
  O  O42  1  0.00181733  0.11186346  0.74222643  1
  O  O43  1  0.50181733  0.38813654  0.75777357  1
