# generated using pymatgen
data_PrTi2ZnO6
_symmetry_space_group_name_H-M   'P 1'
_cell_length_a   5.38050967
_cell_length_b   5.64058872
_cell_length_c   7.71976272
_cell_angle_alpha   90.00195120
_cell_angle_beta   89.99779512
_cell_angle_gamma   89.96608096
_symmetry_Int_Tables_number   1
_chemical_formula_structural   PrTi2ZnO6
_chemical_formula_sum   'Pr2 Ti4 Zn2 O12'
_cell_volume   234.28890664
_cell_formula_units_Z   2
loop_
 _symmetry_equiv_pos_site_id
 _symmetry_equiv_pos_as_xyz
  1  'x, y, z'
loop_
 _atom_site_type_symbol
 _atom_site_label
 _atom_site_symmetry_multiplicity
 _atom_site_fract_x
 _atom_site_fract_y
 _atom_site_fract_z
 _atom_site_occupancy
  Pr  Pr0  1  0.01462283  0.94008463  0.74987813  1
  Pr  Pr1  1  0.51450812  0.55991565  0.25011785  1
  Ti  Ti2  1  0.00415441  0.47686837  0.00162792  1
  Ti  Ti3  1  0.00418816  0.47687091  0.49830914  1
  Ti  Ti4  1  0.50431358  0.02311710  0.50166559  1
  Ti  Ti5  1  0.50427849  0.02316893  0.99838488  1
  Zn  Zn6  1  0.50627102  0.54572151  0.75003462  1
  Zn  Zn7  1  0.00625951  0.95431481  0.24998396  1
  O  O8  1  0.07834999  0.48401230  0.24996521  1
  O  O9  1  0.20317958  0.20775544  0.95293987  1
  O  O10  1  0.20354157  0.20794169  0.54706945  1
  O  O11  1  0.30623400  0.69311840  0.55515047  1
  O  O12  1  0.30607966  0.69307161  0.94479527  1
  O  O13  1  0.37337904  0.97736593  0.25004641  1
  O  O14  1  0.57837093  0.01590577  0.75000660  1
  O  O15  1  0.70314376  0.29221494  0.04707482  1
  O  O16  1  0.70347378  0.29191265  0.45290048  1
  O  O17  1  0.80607451  0.80698741  0.05515739  1
  O  O18  1  0.80618645  0.80690784  0.44491261  1
  O  O19  1  0.87338662  0.52274312  0.74997932  1
