# generated using pymatgen
data_Li5Ce5(SiN3)4
_symmetry_space_group_name_H-M   'P 1'
_cell_length_a   5.55789913
_cell_length_b   10.92372099
_cell_length_c   10.92372099
_cell_angle_alpha   90.00000000
_cell_angle_beta   90.00000000
_cell_angle_gamma   90.00000000
_symmetry_Int_Tables_number   1
_chemical_formula_structural   Li5Ce5(SiN3)4
_chemical_formula_sum   'Li10 Ce10 Si8 N24'
_cell_volume   663.21121034
_cell_formula_units_Z   2
loop_
 _symmetry_equiv_pos_site_id
 _symmetry_equiv_pos_as_xyz
  1  'x, y, z'
loop_
 _atom_site_type_symbol
 _atom_site_label
 _atom_site_symmetry_multiplicity
 _atom_site_fract_x
 _atom_site_fract_y
 _atom_site_fract_z
 _atom_site_occupancy
  Li  Li0  1  0.85228274  0.29259412  0.11187862  1
  Li  Li1  1  0.85228274  0.20740588  0.61187862  1
  Li  Li2  1  0.85228274  0.70740588  0.88812138  1
  Li  Li3  1  0.85228274  0.79259412  0.38812138  1
  Li  Li4  1  0.14771726  0.88812138  0.29259412  1
  Li  Li5  1  0.14771726  0.61187862  0.79259412  1
  Li  Li6  1  0.14771726  0.11187862  0.70740588  1
  Li  Li7  1  0.14771726  0.38812138  0.20740588  1
  Li  Li8  1  0.00000000  0.50000000  0.00000000  1
  Li  Li9  1  0.00000000  -0.00000000  0.50000000  1
  Ce  Ce10  1  0.72932058  0.37942644  0.38277390  1
  Ce  Ce11  1  0.72932058  0.12057356  0.88277390  1
  Ce  Ce12  1  0.72932058  0.62057356  0.61722610  1
  Ce  Ce13  1  0.72932058  0.87942644  0.11722610  1
  Ce  Ce14  1  0.27067942  0.61722610  0.37942644  1
  Ce  Ce15  1  0.27067942  0.88277390  0.87942644  1
  Ce  Ce16  1  0.27067942  0.38277390  0.62057356  1
  Ce  Ce17  1  0.27067942  0.11722610  0.12057356  1
  Ce  Ce18  1  0.50000000  0.50000000  0.00000000  1
  Ce  Ce19  1  0.50000000  -0.00000000  0.50000000  1
  Si  Si20  1  0.76224780  0.60970689  0.23327020  1
  Si  Si21  1  0.76224780  0.89029311  0.73327020  1
  Si  Si22  1  0.76224780  0.39029311  0.76672980  1
  Si  Si23  1  0.76224780  0.10970689  0.26672980  1
  Si  Si24  1  0.23775220  0.76672980  0.60970689  1
  Si  Si25  1  0.23775220  0.73327020  0.10970689  1
  Si  Si26  1  0.23775220  0.23327020  0.39029311  1
  Si  Si27  1  0.23775220  0.26672980  0.89029311  1
  N  N28  1  0.79594875  0.46743879  0.16623490  1
  N  N29  1  0.79594875  0.03256121  0.66623490  1
  N  N30  1  0.79594875  0.53256121  0.83376510  1
  N  N31  1  0.79594875  0.96743879  0.33376510  1
  N  N32  1  0.20405125  0.83376510  0.46743879  1
  N  N33  1  0.20405125  0.66623490  0.96743879  1
  N  N34  1  0.20405125  0.16623490  0.53256121  1
  N  N35  1  0.20405125  0.33376510  0.03256121  1
  N  N36  1  0.73690002  0.60356365  0.39475365  1
  N  N37  1  0.73690002  0.89643635  0.89475365  1
  N  N38  1  0.73690002  0.39643635  0.60524635  1
  N  N39  1  0.73690002  0.10356365  0.10524635  1
  N  N40  1  0.26309998  0.60524635  0.60356365  1
  N  N41  1  0.26309998  0.89475365  0.10356365  1
  N  N42  1  0.26309998  0.39475365  0.39643635  1
  N  N43  1  0.26309998  0.10524635  0.89643635  1
  N  N44  1  0.00000000  0.21388302  0.28611698  1
  N  N45  1  0.00000000  0.28611698  0.78611698  1
  N  N46  1  0.00000000  0.78611698  0.71388302  1
  N  N47  1  0.00000000  0.71388302  0.21388302  1
  N  N48  1  0.50000000  0.67602835  0.17602835  1
  N  N49  1  0.50000000  0.82397165  0.67602835  1
  N  N50  1  0.50000000  0.32397165  0.82397165  1
  N  N51  1  0.50000000  0.17602835  0.32397165  1
