# generated using pymatgen
data_Ni3P4H48(NO15)2
_symmetry_space_group_name_H-M   'P 1'
_cell_length_a   6.21333173
_cell_length_b   7.00745490
_cell_length_c   17.60559079
_cell_angle_alpha   101.47920236
_cell_angle_beta   90.95417012
_cell_angle_gamma   90.00000000
_symmetry_Int_Tables_number   1
_chemical_formula_structural   Ni3P4H48(NO15)2
_chemical_formula_sum   'Ni3 P4 H48 N2 O30'
_cell_volume   751.09953976
_cell_formula_units_Z   1
loop_
 _symmetry_equiv_pos_site_id
 _symmetry_equiv_pos_as_xyz
  1  'x, y, z'
loop_
 _atom_site_type_symbol
 _atom_site_label
 _atom_site_symmetry_multiplicity
 _atom_site_fract_x
 _atom_site_fract_y
 _atom_site_fract_z
 _atom_site_occupancy
  Ni  Ni0  1  0.75048027  0.16655456  0.33310911  1
  Ni  Ni1  1  0.24951973  0.83344544  0.66689089  1
  Ni  Ni2  1  0.00000000  0.50000000  0.00000000  1
  P  P3  1  0.34467525  0.04834004  0.09668008  1
  P  P4  1  0.65532475  0.95165996  0.90331992  1
  P  P5  1  0.36989585  0.70430064  0.40860128  1
  P  P6  1  0.63010415  0.29569936  0.59139872  1
  H  H7  1  0.31933479  0.00777208  0.01554416  1
  H  H8  1  0.68066521  0.99222792  0.98445584  1
  H  H9  1  0.57776291  0.72082282  0.44164564  1
  H  H10  1  0.42223709  0.27917718  0.55835436  1
  H  H11  1  0.38167048  0.31968235  0.40637492  1
  H  H12  1  0.38167048  0.08669257  0.40637492  1
  H  H13  1  0.61832952  0.68031765  0.59362508  1
  H  H14  1  0.61832952  0.91330743  0.59362508  1
  H  H15  1  0.79697214  0.43002777  0.46451560  1
  H  H16  1  0.79697214  0.03448783  0.46451560  1
  H  H17  1  0.20302786  0.56997223  0.53548440  1
  H  H18  1  0.20302786  0.96551217  0.53548440  1
  H  H19  1  0.99866126  0.45878234  0.41394616  1
  H  H20  1  0.99866126  0.95516382  0.41394616  1
  H  H21  1  0.00133874  0.54121766  0.58605384  1
  H  H22  1  0.00133874  0.04483618  0.58605384  1
  H  H23  1  0.19022593  0.15479962  0.30959924  1
  H  H24  1  0.80977407  0.84520038  0.69040076  1
  H  H25  1  0.07923315  0.11193496  0.22386993  1
  H  H26  1  0.92076685  0.88806504  0.77613007  1
  H  H27  1  0.56124107  0.82254677  0.28429474  1
  H  H28  1  0.56124107  0.46174797  0.28429474  1
  H  H29  1  0.43875893  0.17745323  0.71570526  1
  H  H30  1  0.43875893  0.53825203  0.71570526  1
  H  H31  1  0.58539557  0.90383683  0.20669736  1
  H  H32  1  0.58539557  0.30286053  0.20669736  1
  H  H33  1  0.41460443  0.09616317  0.79330264  1
  H  H34  1  0.41460443  0.69713947  0.79330264  1
  H  H35  1  0.03919560  0.77391392  0.90947791  1
  H  H36  1  0.03919560  0.13556399  0.90947791  1
  H  H37  1  0.96080440  0.22608608  0.09052209  1
  H  H38  1  0.96080440  0.86443601  0.09052209  1
  H  H39  1  0.28098841  0.70414904  0.91931203  1
  H  H40  1  0.28098841  0.21516299  0.91931203  1
  H  H41  1  0.71901159  0.29585096  0.08068797  1
  H  H42  1  0.71901159  0.78483701  0.08068797  1
  H  H43  1  0.34896621  0.66184759  0.09019564  1
  H  H44  1  0.34896621  0.42834805  0.09019564  1
  H  H45  1  0.65103379  0.33815241  0.90980436  1
  H  H46  1  0.65103379  0.57165195  0.90980436  1
  H  H47  1  0.15813832  0.63465794  0.26931588  1
  H  H48  1  0.84186168  0.36534206  0.73068412  1
  H  H49  1  0.92238663  0.50318067  0.24478263  1
  H  H50  1  0.92238663  0.74160196  0.24478263  1
  H  H51  1  0.07761337  0.49681933  0.75521737  1
  H  H52  1  0.07761337  0.25839804  0.75521737  1
  H  H53  1  0.05969454  0.58827141  0.17654282  1
  H  H54  1  0.94030546  0.41172859  0.82345718  1
  N  N55  1  0.01720891  0.61708726  0.23417451  1
  N  N56  1  0.98279109  0.38291274  0.76582549  1
  O  O57  1  0.47035251  0.87657973  0.11867399  1
  O  O58  1  0.47035251  0.24209426  0.11867399  1
  O  O59  1  0.52964749  0.12342027  0.88132601  1
  O  O60  1  0.52964749  0.75790574  0.88132601  1
  O  O61  1  0.11357159  0.06411346  0.12822692  1
  O  O62  1  0.88642841  0.93588654  0.87177308  1
  O  O63  1  0.39937537  0.65978353  0.31956706  1
  O  O64  1  0.60062463  0.34021647  0.68043294  1
  O  O65  1  0.25790281  0.90220396  0.43687102  1
  O  O66  1  0.25790281  0.53466706  0.43687102  1
  O  O67  1  0.74209719  0.09779604  0.56312898  1
  O  O68  1  0.74209719  0.46533294  0.56312898  1
  O  O69  1  0.43323440  0.18900281  0.37800561  1
  O  O70  1  0.56676560  0.81099719  0.62199439  1
  O  O71  1  0.84398870  0.41832569  0.40983818  1
  O  O72  1  0.84398870  0.99151249  0.40983818  1
  O  O73  1  0.15601130  0.58167431  0.59016182  1
  O  O74  1  0.15601130  0.00848751  0.59016182  1
  O  O75  1  0.05151859  0.14046384  0.28092767  1
  O  O76  1  0.94848141  0.85953616  0.71907233  1
  O  O77  1  0.65719975  0.90417550  0.25813311  1
  O  O78  1  0.65719975  0.35395761  0.25813311  1
  O  O79  1  0.34280025  0.09582450  0.74186689  1
  O  O80  1  0.34280025  0.64604239  0.74186689  1
  O  O81  1  0.12896601  0.67362770  0.92817354  1
  O  O82  1  0.12896601  0.25454583  0.92817354  1
  O  O83  1  0.87103399  0.32637230  0.07182646  1
  O  O84  1  0.87103399  0.74545417  0.07182646  1
  O  O85  1  0.26275454  0.53847561  0.07695122  1
  O  O86  1  0.73724546  0.46152439  0.92304878  1
