# generated using pymatgen
data_AlTeH6C2Br3
_symmetry_space_group_name_H-M   'P 1'
_cell_length_a   6.96303262
_cell_length_b   11.25580939
_cell_length_c   14.25001897
_cell_angle_alpha   90.00000000
_cell_angle_beta   90.00000000
_cell_angle_gamma   90.00000000
_symmetry_Int_Tables_number   1
_chemical_formula_structural   AlTeH6C2Br3
_chemical_formula_sum   'Al4 Te4 H24 C8 Br12'
_cell_volume   1116.83908001
_cell_formula_units_Z   4
loop_
 _symmetry_equiv_pos_site_id
 _symmetry_equiv_pos_as_xyz
  1  'x, y, z'
loop_
 _atom_site_type_symbol
 _atom_site_label
 _atom_site_symmetry_multiplicity
 _atom_site_fract_x
 _atom_site_fract_y
 _atom_site_fract_z
 _atom_site_occupancy
  Al  Al0  1  0.55060690  0.75000000  0.94644869  1
  Al  Al1  1  0.44939310  0.25000000  0.05355131  1
  Al  Al2  1  0.55060690  0.25000000  0.55355131  1
  Al  Al3  1  0.44939310  0.75000000  0.44644869  1
  Te  Te4  1  0.63446752  0.75000000  0.13488006  1
  Te  Te5  1  0.36553248  0.25000000  0.86511994  1
  Te  Te6  1  0.63446752  0.25000000  0.36511994  1
  Te  Te7  1  0.36553248  0.75000000  0.63488006  1
  H  H8  1  0.92326577  0.62403298  0.20627066  1
  H  H9  1  0.07673423  0.12403298  0.79372934  1
  H  H10  1  0.92326577  0.37596702  0.29372934  1
  H  H11  1  0.07673423  0.87596702  0.70627066  1
  H  H12  1  0.07673423  0.37596702  0.79372934  1
  H  H13  1  0.92326577  0.87596702  0.20627066  1
  H  H14  1  0.07673423  0.62403298  0.70627066  1
  H  H15  1  0.92326577  0.12403298  0.29372934  1
  H  H16  1  0.76422000  0.52562982  0.14298378  1
  H  H17  1  0.23578000  0.02562982  0.85701622  1
  H  H18  1  0.76422000  0.47437018  0.35701622  1
  H  H19  1  0.23578000  0.97437018  0.64298378  1
  H  H20  1  0.23578000  0.47437018  0.85701622  1
  H  H21  1  0.76422000  0.97437018  0.14298378  1
  H  H22  1  0.23578000  0.52562982  0.64298378  1
  H  H23  1  0.76422000  0.02562982  0.35701622  1
  H  H24  1  0.93832840  0.61311273  0.07960709  1
  H  H25  1  0.06167160  0.11311273  0.92039291  1
  H  H26  1  0.93832840  0.38688727  0.42039291  1
  H  H27  1  0.06167160  0.88688727  0.57960709  1
  H  H28  1  0.06167160  0.38688727  0.92039291  1
  H  H29  1  0.93832840  0.88688727  0.07960709  1
  H  H30  1  0.06167160  0.61311273  0.57960709  1
  H  H31  1  0.93832840  0.11311273  0.42039291  1
  C  C32  1  0.84394227  0.60980985  0.14097564  1
  C  C33  1  0.15605773  0.10980985  0.85902436  1
  C  C34  1  0.84394227  0.39019015  0.35902436  1
  C  C35  1  0.15605773  0.89019015  0.64097564  1
  C  C36  1  0.15605773  0.39019015  0.85902436  1
  C  C37  1  0.84394227  0.89019015  0.14097564  1
  C  C38  1  0.15605773  0.60980985  0.64097564  1
  C  C39  1  0.84394227  0.10980985  0.35902436  1
  Br  Br40  1  0.21901411  0.75000000  0.93248052  1
  Br  Br41  1  0.78098589  0.25000000  0.06751948  1
  Br  Br42  1  0.21901411  0.25000000  0.56751948  1
  Br  Br43  1  0.78098589  0.75000000  0.43248052  1
  Br  Br44  1  0.67892048  0.92219716  0.88405903  1
  Br  Br45  1  0.32107952  0.42219716  0.11594097  1
  Br  Br46  1  0.67892048  0.07780284  0.61594097  1
  Br  Br47  1  0.32107952  0.57780284  0.38405903  1
  Br  Br48  1  0.32107952  0.07780284  0.11594097  1
  Br  Br49  1  0.67892048  0.57780284  0.88405903  1
  Br  Br50  1  0.32107952  0.92219716  0.38405903  1
  Br  Br51  1  0.67892048  0.42219716  0.61594097  1
