# generated using pymatgen
data_SnH8C2Br3N
_symmetry_space_group_name_H-M   'P 1'
_cell_length_a   12.85621602
_cell_length_b   13.10447698
_cell_length_c   12.99106050
_cell_angle_alpha   90.00000000
_cell_angle_beta   90.00000000
_cell_angle_gamma   90.00000000
_symmetry_Int_Tables_number   1
_chemical_formula_structural   SnH8C2Br3N
_chemical_formula_sum   'Sn8 H64 C16 Br24 N8'
_cell_volume   2188.65575629
_cell_formula_units_Z   8
loop_
 _symmetry_equiv_pos_site_id
 _symmetry_equiv_pos_as_xyz
  1  'x, y, z'
loop_
 _atom_site_type_symbol
 _atom_site_label
 _atom_site_symmetry_multiplicity
 _atom_site_fract_x
 _atom_site_fract_y
 _atom_site_fract_z
 _atom_site_occupancy
  Sn  Sn0  1  0.74561272  0.30400300  0.50937561  1
  Sn  Sn1  1  0.75438728  0.80400300  0.49062439  1
  Sn  Sn2  1  0.24561272  0.69599700  0.99062439  1
  Sn  Sn3  1  0.25438728  0.19599700  0.00937561  1
  Sn  Sn4  1  0.25438728  0.69599700  0.49062439  1
  Sn  Sn5  1  0.24561272  0.19599700  0.50937561  1
  Sn  Sn6  1  0.75438728  0.30400300  0.00937561  1
  Sn  Sn7  1  0.74561272  0.80400300  0.99062439  1
  H  H8  1  0.04224805  0.54340153  0.86048030  1
  H  H9  1  0.45775195  0.04340153  0.13951970  1
  H  H10  1  0.54224805  0.45659847  0.63951970  1
  H  H11  1  0.95775195  0.95659847  0.36048030  1
  H  H12  1  0.95775195  0.45659847  0.13951970  1
  H  H13  1  0.54224805  0.95659847  0.86048030  1
  H  H14  1  0.45775195  0.54340153  0.36048030  1
  H  H15  1  0.04224805  0.04340153  0.63951970  1
  H  H16  1  0.94164192  0.46695438  0.84587191  1
  H  H17  1  0.55835808  0.96695438  0.15412809  1
  H  H18  1  0.44164192  0.53304562  0.65412809  1
  H  H19  1  0.05835808  0.03304562  0.34587191  1
  H  H20  1  0.05835808  0.53304562  0.15412809  1
  H  H21  1  0.44164192  0.03304562  0.84587191  1
  H  H22  1  0.55835808  0.46695438  0.34587191  1
  H  H23  1  0.94164192  0.96695438  0.65412809  1
  H  H24  1  0.91031688  0.62724746  0.76339541  1
  H  H25  1  0.58968312  0.12724746  0.23660459  1
  H  H26  1  0.41031688  0.37275254  0.73660459  1
  H  H27  1  0.08968312  0.87275254  0.26339541  1
  H  H28  1  0.08968312  0.37275254  0.23660459  1
  H  H29  1  0.41031688  0.87275254  0.76339541  1
  H  H30  1  0.58968312  0.62724746  0.26339541  1
  H  H31  1  0.91031688  0.12724746  0.73660459  1
  H  H32  1  0.02533043  0.60811404  0.68752567  1
  H  H33  1  0.47466957  0.10811404  0.31247433  1
  H  H34  1  0.52533043  0.39188596  0.81247433  1
  H  H35  1  0.97466957  0.89188596  0.18752567  1
  H  H36  1  0.97466957  0.39188596  0.31247433  1
  H  H37  1  0.52533043  0.89188596  0.68752567  1
  H  H38  1  0.47466957  0.60811404  0.18752567  1
  H  H39  1  0.02533043  0.10811404  0.81247433  1
  H  H40  1  0.91482950  0.52501004  0.67103164  1
  H  H41  1  0.58517050  0.02501004  0.32896836  1
  H  H42  1  0.41482950  0.47498996  0.82896836  1
  H  H43  1  0.08517050  0.97498996  0.17103164  1
  H  H44  1  0.08517050  0.47498996  0.32896836  1
  H  H45  1  0.41482950  0.97498996  0.67103164  1
  H  H46  1  0.58517050  0.52501004  0.17103164  1
  H  H47  1  0.91482950  0.02501004  0.82896836  1
  H  H48  1  0.13896512  0.45732340  0.72593993  1
  H  H49  1  0.36103488  0.95732340  0.27406007  1
  H  H50  1  0.63896512  0.54267660  0.77406007  1
  H  H51  1  0.86103488  0.04267660  0.22593993  1
  H  H52  1  0.86103488  0.54267660  0.27406007  1
  H  H53  1  0.63896512  0.04267660  0.72593993  1
  H  H54  1  0.36103488  0.45732340  0.22593993  1
  H  H55  1  0.13896512  0.95732340  0.77406007  1
  H  H56  1  0.09927967  0.37071414  0.82609284  1
  H  H57  1  0.40072033  0.87071414  0.17390716  1
  H  H58  1  0.59927967  0.62928586  0.67390716  1
  H  H59  1  0.90072033  0.12928586  0.32609284  1
  H  H60  1  0.90072033  0.62928586  0.17390716  1
  H  H61  1  0.59927967  0.12928586  0.82609284  1
  H  H62  1  0.40072033  0.37071414  0.32609284  1
  H  H63  1  0.09927967  0.87071414  0.67390716  1
  H  H64  1  0.02895006  0.37476617  0.70666702  1
  H  H65  1  0.47104994  0.87476617  0.29333298  1
  H  H66  1  0.52895006  0.62523383  0.79333298  1
  H  H67  1  0.97104994  0.12523383  0.20666702  1
  H  H68  1  0.97104994  0.62523383  0.29333298  1
  H  H69  1  0.52895006  0.12523383  0.70666702  1
  H  H70  1  0.47104994  0.37476617  0.20666702  1
  H  H71  1  0.02895006  0.87476617  0.79333298  1
  C  C72  1  0.96006276  0.57034298  0.72586738  1
  C  C73  1  0.53993724  0.07034298  0.27413262  1
  C  C74  1  0.46006276  0.42965702  0.77413262  1
  C  C75  1  0.03993724  0.92965702  0.22586738  1
  C  C76  1  0.03993724  0.42965702  0.27413262  1
  C  C77  1  0.46006276  0.92965702  0.72586738  1
  C  C78  1  0.53993724  0.57034298  0.22586738  1
  C  C79  1  0.96006276  0.07034298  0.77413262  1
  C  C80  1  0.07277866  0.41970763  0.76298201  1
  C  C81  1  0.42722134  0.91970763  0.23701799  1
  C  C82  1  0.57277866  0.58029237  0.73701799  1
  C  C83  1  0.92722134  0.08029237  0.26298201  1
  C  C84  1  0.92722134  0.58029237  0.23701799  1
  C  C85  1  0.57277866  0.08029237  0.76298201  1
  C  C86  1  0.42722134  0.41970763  0.26298201  1
  C  C87  1  0.07277866  0.91970763  0.73701799  1
  Br  Br88  1  0.76586703  0.32549663  0.71497323  1
  Br  Br89  1  0.73413297  0.82549663  0.28502677  1
  Br  Br90  1  0.26586703  0.67450337  0.78502677  1
  Br  Br91  1  0.23413297  0.17450337  0.21497323  1
  Br  Br92  1  0.23413297  0.67450337  0.28502677  1
  Br  Br93  1  0.26586703  0.17450337  0.71497323  1
  Br  Br94  1  0.73413297  0.32549663  0.21497323  1
  Br  Br95  1  0.76586703  0.82549663  0.78502677  1
  Br  Br96  1  0.53644837  0.28878191  0.51718580  1
  Br  Br97  1  0.96355163  0.78878191  0.48281420  1
  Br  Br98  1  0.03644837  0.71121809  0.98281420  1
  Br  Br99  1  0.46355163  0.21121809  0.01718580  1
  Br  Br100  1  0.46355163  0.71121809  0.48281420  1
  Br  Br101  1  0.03644837  0.21121809  0.51718580  1
  Br  Br102  1  0.96355163  0.28878191  0.01718580  1
  Br  Br103  1  0.53644837  0.78878191  0.98281420  1
  Br  Br104  1  0.72438634  0.50620448  0.47612678  1
  Br  Br105  1  0.77561366  0.00620448  0.52387322  1
  Br  Br106  1  0.22438634  0.49379552  0.02387322  1
  Br  Br107  1  0.27561366  0.99379552  0.97612678  1
  Br  Br108  1  0.27561366  0.49379552  0.52387322  1
  Br  Br109  1  0.22438634  0.99379552  0.47612678  1
  Br  Br110  1  0.77561366  0.50620448  0.97612678  1
  Br  Br111  1  0.72438634  0.00620448  0.02387322  1
  N  N112  1  0.00273202  0.50019562  0.80619699  1
  N  N113  1  0.49726798  0.00019562  0.19380301  1
  N  N114  1  0.50273202  0.49980438  0.69380301  1
  N  N115  1  0.99726798  -0.00019562  0.30619699  1
  N  N116  1  0.99726798  0.49980438  0.19380301  1
  N  N117  1  0.50273202  -0.00019562  0.80619699  1
  N  N118  1  0.49726798  0.50019562  0.30619699  1
  N  N119  1  0.00273202  0.00019562  0.69380301  1
