# generated using pymatgen
data_H4CSIN2
_symmetry_space_group_name_H-M   'P 1'
_cell_length_a   5.77068605
_cell_length_b   11.85541314
_cell_length_c   14.30876453
_cell_angle_alpha   127.04827250
_cell_angle_beta   101.63338405
_cell_angle_gamma   90.00000000
_symmetry_Int_Tables_number   1
_chemical_formula_structural   H4CSIN2
_chemical_formula_sum   'H16 C4 S4 I4 N8'
_cell_volume   755.95438176
_cell_formula_units_Z   4
loop_
 _symmetry_equiv_pos_site_id
 _symmetry_equiv_pos_as_xyz
  1  'x, y, z'
loop_
 _atom_site_type_symbol
 _atom_site_label
 _atom_site_symmetry_multiplicity
 _atom_site_fract_x
 _atom_site_fract_y
 _atom_site_fract_z
 _atom_site_occupancy
  H  H0  1  0.96247346  0.81721592  0.63476477  1
  H  H1  1  0.32770869  0.68278408  0.36523523  1
  H  H2  1  0.03752654  0.18278408  0.36523523  1
  H  H3  1  0.67229131  0.31721592  0.63476477  1
  H  H4  1  0.03892097  0.98447782  0.78039929  1
  H  H5  1  0.25852168  0.51552218  0.21960071  1
  H  H6  1  0.96107903  0.01552218  0.21960071  1
  H  H7  1  0.74147832  0.48447782  0.78039929  1
  H  H8  1  0.43051341  0.05821068  0.89696742  1
  H  H9  1  0.53354598  0.44178932  0.10303258  1
  H  H10  1  0.56948659  0.94178932  0.10303258  1
  H  H11  1  0.46645402  0.55821068  0.89696742  1
  H  H12  1  0.61635208  0.92768176  0.86289979  1
  H  H13  1  0.75345229  0.57231824  0.13710021  1
  H  H14  1  0.38364792  0.07231824  0.13710021  1
  H  H15  1  0.24654771  0.42768176  0.86289979  1
  C  C16  1  0.29720676  0.85498662  0.73836523  1
  C  C17  1  0.55884153  0.64501338  0.26163477  1
  C  C18  1  0.70279324  0.14501338  0.26163477  1
  C  C19  1  0.44115847  0.35498662  0.73836523  1
  S  S20  1  0.38899447  0.69355516  0.64094302  1
  S  S21  1  0.74805146  0.80644484  0.35905698  1
  S  S22  1  0.61100553  0.30644484  0.35905698  1
  S  S23  1  0.25194854  0.19355516  0.64094302  1
  I  I24  1  0.00000000  0.50000000  0.50000000  1
  I  I25  1  0.50000000  -0.00000000  0.50000000  1
  I  I26  1  0.07112900  0.25000000  -0.00000000  1
  I  I27  1  0.92887100  0.75000000  -0.00000000  1
  N  N28  1  0.08188258  0.88716127  0.71619198  1
  N  N29  1  0.36569060  0.61283873  0.28380802  1
  N  N30  1  0.91811742  0.11283873  0.28380802  1
  N  N31  1  0.63430940  0.38716127  0.71619198  1
  N  N32  1  0.45909465  0.95446251  0.84155858  1
  N  N33  1  0.61753607  0.54553749  0.15844142  1
  N  N34  1  0.54090535  0.04553749  0.15844142  1
  N  N35  1  0.38246393  0.45446251  0.84155858  1
