# generated using pymatgen
data_Sr2MnSb2
_symmetry_space_group_name_H-M   'P 1'
_cell_length_a   8.27067953
_cell_length_b   14.67877725
_cell_length_c   16.07518805
_cell_angle_alpha   90.00000000
_cell_angle_beta   90.00000000
_cell_angle_gamma   90.00000000
_symmetry_Int_Tables_number   1
_chemical_formula_structural   Sr2MnSb2
_chemical_formula_sum   'Sr24 Mn12 Sb24'
_cell_volume   1951.58349004
_cell_formula_units_Z   12
loop_
 _symmetry_equiv_pos_site_id
 _symmetry_equiv_pos_as_xyz
  1  'x, y, z'
loop_
 _atom_site_type_symbol
 _atom_site_label
 _atom_site_symmetry_multiplicity
 _atom_site_fract_x
 _atom_site_fract_y
 _atom_site_fract_z
 _atom_site_occupancy
  Sr  Sr0  1  0.40673102  0.25000000  0.87300518  1
  Sr  Sr1  1  0.09326898  0.25000000  0.37300518  1
  Sr  Sr2  1  0.59326898  0.75000000  0.12699482  1
  Sr  Sr3  1  0.90673102  0.75000000  0.62699482  1
  Sr  Sr4  1  0.91335490  0.40249612  0.88540590  1
  Sr  Sr5  1  0.58664510  0.09750388  0.38540590  1
  Sr  Sr6  1  0.08664510  0.90249612  0.11459410  1
  Sr  Sr7  1  0.41335490  0.59750388  0.61459410  1
  Sr  Sr8  1  0.08664510  0.59750388  0.11459410  1
  Sr  Sr9  1  0.41335490  0.90249612  0.61459410  1
  Sr  Sr10  1  0.91335490  0.09750388  0.88540590  1
  Sr  Sr11  1  0.58664510  0.40249612  0.38540590  1
  Sr  Sr12  1  0.62482779  0.44034156  0.10947305  1
  Sr  Sr13  1  0.87517221  0.05965844  0.60947305  1
  Sr  Sr14  1  0.37517221  0.94034156  0.89052695  1
  Sr  Sr15  1  0.12482779  0.55965844  0.39052695  1
  Sr  Sr16  1  0.37517221  0.55965844  0.89052695  1
  Sr  Sr17  1  0.12482779  0.94034156  0.39052695  1
  Sr  Sr18  1  0.62482779  0.05965844  0.10947305  1
  Sr  Sr19  1  0.87517221  0.44034156  0.60947305  1
  Sr  Sr20  1  0.00703643  0.25000000  0.12537663  1
  Sr  Sr21  1  0.49296357  0.25000000  0.62537663  1
  Sr  Sr22  1  0.99296357  0.75000000  0.87462337  1
  Sr  Sr23  1  0.50703643  0.75000000  0.37462337  1
  Mn  Mn24  1  0.25961436  0.41261395  0.20352077  1
  Mn  Mn25  1  0.24038564  0.08738605  0.70352077  1
  Mn  Mn26  1  0.74038564  0.91261395  0.79647923  1
  Mn  Mn27  1  0.75961436  0.58738605  0.29647923  1
  Mn  Mn28  1  0.74038564  0.58738605  0.79647923  1
  Mn  Mn29  1  0.75961436  0.91261395  0.29647923  1
  Mn  Mn30  1  0.25961436  0.08738605  0.20352077  1
  Mn  Mn31  1  0.24038564  0.41261395  0.70352077  1
  Mn  Mn32  1  0.40477220  0.25000000  0.07719254  1
  Mn  Mn33  1  0.09522780  0.25000000  0.57719254  1
  Mn  Mn34  1  0.59522780  0.75000000  0.92280746  1
  Mn  Mn35  1  0.90477220  0.75000000  0.42280746  1
  Sb  Sb36  1  0.70511920  0.25000000  0.00183388  1
  Sb  Sb37  1  0.79488080  0.25000000  0.50183388  1
  Sb  Sb38  1  0.29488080  0.75000000  0.99816612  1
  Sb  Sb39  1  0.20511920  0.75000000  0.49816612  1
  Sb  Sb40  1  0.24204424  0.40378215  0.02622644  1
  Sb  Sb41  1  0.25795576  0.09621785  0.52622644  1
  Sb  Sb42  1  0.75795576  0.90378215  0.97377356  1
  Sb  Sb43  1  0.74204424  0.59621785  0.47377356  1
  Sb  Sb44  1  0.75795576  0.59621785  0.97377356  1
  Sb  Sb45  1  0.74204424  0.90378215  0.47377356  1
  Sb  Sb46  1  0.24204424  0.09621785  0.02622644  1
  Sb  Sb47  1  0.25795576  0.40378215  0.52622644  1
  Sb  Sb48  1  0.08734285  0.25000000  0.74801072  1
  Sb  Sb49  1  0.41265715  0.25000000  0.24801072  1
  Sb  Sb50  1  0.91265715  0.75000000  0.25198928  1
  Sb  Sb51  1  0.58734285  0.75000000  0.75198928  1
  Sb  Sb52  1  0.56683476  0.43103052  0.75131279  1
  Sb  Sb53  1  0.93316524  0.06896948  0.25131279  1
  Sb  Sb54  1  0.43316524  0.93103052  0.24868721  1
  Sb  Sb55  1  0.06683476  0.56896948  0.74868721  1
  Sb  Sb56  1  0.43316524  0.56896948  0.24868721  1
  Sb  Sb57  1  0.06683476  0.93103052  0.74868721  1
  Sb  Sb58  1  0.56683476  0.06896948  0.75131279  1
  Sb  Sb59  1  0.93316524  0.43103052  0.25131279  1
