# generated using pymatgen
data_SbTe3O8
_symmetry_space_group_name_H-M   'P 1'
_cell_length_a   9.92468196
_cell_length_b   9.92468196
_cell_length_c   9.92468196
_cell_angle_alpha   109.47122063
_cell_angle_beta   109.47122063
_cell_angle_gamma   109.47122063
_symmetry_Int_Tables_number   1
_chemical_formula_structural   SbTe3O8
_chemical_formula_sum   'Sb4 Te12 O32'
_cell_volume   752.53708113
_cell_formula_units_Z   4
loop_
 _symmetry_equiv_pos_site_id
 _symmetry_equiv_pos_as_xyz
  1  'x, y, z'
loop_
 _atom_site_type_symbol
 _atom_site_label
 _atom_site_symmetry_multiplicity
 _atom_site_fract_x
 _atom_site_fract_y
 _atom_site_fract_z
 _atom_site_occupancy
  Sb  Sb0  1  0.00000000  0.00000000  0.00000000  1
  Sb  Sb1  1  0.50000000  0.00000000  0.50000000  1
  Sb  Sb2  1  0.50000000  0.50000000  0.00000000  1
  Sb  Sb3  1  0.00000000  0.50000000  0.50000000  1
  Te  Te4  1  0.79521171  0.54521171  0.75000000  1
  Te  Te5  1  0.20478829  0.45478829  0.25000000  1
  Te  Te6  1  0.70478829  0.95478829  0.25000000  1
  Te  Te7  1  0.54521171  0.75000000  0.79521171  1
  Te  Te8  1  0.29521171  0.04521171  0.75000000  1
  Te  Te9  1  0.45478829  0.25000000  0.20478829  1
  Te  Te10  1  0.95478829  0.25000000  0.70478829  1
  Te  Te11  1  0.04521171  0.75000000  0.29521171  1
  Te  Te12  1  0.75000000  0.79521171  0.54521171  1
  Te  Te13  1  0.25000000  0.20478829  0.45478829  1
  Te  Te14  1  0.25000000  0.70478829  0.95478829  1
  Te  Te15  1  0.75000000  0.29521171  0.04521171  1
  O  O16  1  0.67152850  0.67152850  0.67152850  1
  O  O17  1  0.32847150  0.32847150  0.32847150  1
  O  O18  1  0.82847150  0.00000000  0.50000000  1
  O  O19  1  0.50000000  0.82847150  -0.00000000  1
  O  O20  1  0.17152850  -0.00000000  0.50000000  1
  O  O21  1  0.50000000  0.17152850  0.00000000  1
  O  O22  1  0.00000000  0.50000000  0.82847150  1
  O  O23  1  0.00000000  0.50000000  0.17152850  1
  O  O24  1  0.56569228  0.82522144  0.53311884  1
  O  O25  1  0.43430772  0.17477856  0.46688116  1
  O  O26  1  0.93430772  0.96742656  0.75952916  1
  O  O27  1  0.20789740  0.67477856  0.74047084  1
  O  O28  1  0.82522144  0.53311884  0.56569228  1
  O  O29  1  0.06569228  0.03257344  0.24047084  1
  O  O30  1  0.79210260  0.32522144  0.25952916  1
  O  O31  1  0.17477856  0.46688116  0.43430772  1
  O  O32  1  0.29210260  0.53257344  0.96688116  1
  O  O33  1  0.96742656  0.75952916  0.93430772  1
  O  O34  1  0.70789740  0.46742656  0.03311884  1
  O  O35  1  0.03257344  0.24047084  0.06569228  1
  O  O36  1  0.67477856  0.74047084  0.20789740  1
  O  O37  1  0.32522144  0.25952916  0.79210260  1
  O  O38  1  0.53257344  0.96688116  0.29210260  1
  O  O39  1  0.46742656  0.03311884  0.70789740  1
  O  O40  1  0.53311884  0.56569228  0.82522144  1
  O  O41  1  0.46688116  0.43430772  0.17477856  1
  O  O42  1  0.74047084  0.20789740  0.67477856  1
  O  O43  1  0.25952916  0.79210260  0.32522144  1
  O  O44  1  0.96688116  0.29210260  0.53257344  1
  O  O45  1  0.03311884  0.70789740  0.46742656  1
  O  O46  1  0.75952916  0.93430772  0.96742656  1
  O  O47  1  0.24047084  0.06569228  0.03257344  1
