# generated using pymatgen
data_TeAsOs
_symmetry_space_group_name_H-M   'P 1'
_cell_length_a   6.36628133
_cell_length_b   6.41424743
_cell_length_c   6.53383197
_cell_angle_alpha   113.35990385
_cell_angle_beta   90.00000000
_cell_angle_gamma   90.00000000
_symmetry_Int_Tables_number   1
_chemical_formula_structural   TeAsOs
_chemical_formula_sum   'Te4 As4 Os4'
_cell_volume   244.93873565
_cell_formula_units_Z   4
loop_
 _symmetry_equiv_pos_site_id
 _symmetry_equiv_pos_as_xyz
  1  'x, y, z'
loop_
 _atom_site_type_symbol
 _atom_site_label
 _atom_site_symmetry_multiplicity
 _atom_site_fract_x
 _atom_site_fract_y
 _atom_site_fract_z
 _atom_site_occupancy
  Te  Te0  1  0.62955059  0.83837793  0.68852010  1
  Te  Te1  1  0.37044941  0.16162207  0.31147990  1
  Te  Te2  1  0.12955059  0.16162207  0.81147990  1
  Te  Te3  1  0.87044941  0.83837793  0.18852010  1
  As  As4  1  0.36357238  0.63946159  0.88878112  1
  As  As5  1  0.63642762  0.36053841  0.11121888  1
  As  As6  1  0.86357238  0.36053841  0.61121888  1
  As  As7  1  0.13642762  0.63946159  0.38878112  1
  Os  Os8  1  0.01026268  0.76297226  0.79046891  1
  Os  Os9  1  0.98973732  0.23702774  0.20953109  1
  Os  Os10  1  0.51026268  0.23702774  0.70953109  1
  Os  Os11  1  0.48973732  0.76297226  0.29046891  1
