# generated using pymatgen
data_CaPr(SnO3)2
_symmetry_space_group_name_H-M   'P 1'
_cell_length_a   5.69606067
_cell_length_b   5.95208571
_cell_length_c   8.23298294
_cell_angle_alpha   89.99990966
_cell_angle_beta   89.99999360
_cell_angle_gamma   90.03439809
_symmetry_Int_Tables_number   1
_chemical_formula_structural   CaPr(SnO3)2
_chemical_formula_sum   'Ca2 Pr2 Sn4 O12'
_cell_volume   279.12640342
_cell_formula_units_Z   2
loop_
 _symmetry_equiv_pos_site_id
 _symmetry_equiv_pos_as_xyz
  1  'x, y, z'
loop_
 _atom_site_type_symbol
 _atom_site_label
 _atom_site_symmetry_multiplicity
 _atom_site_fract_x
 _atom_site_fract_y
 _atom_site_fract_z
 _atom_site_occupancy
  Ca  Ca0  1  0.48481595  0.44838559  0.75000100  1
  Ca  Ca1  1  0.98490950  0.05115687  0.25000100  1
  Pr  Pr2  1  0.01972460  0.94125250  0.75000000  1
  Pr  Pr3  1  0.52030674  0.55933137  0.25000000  1
  Sn  Sn4  1  0.00115821  0.49596975  0.99946261  1
  Sn  Sn5  1  0.00116121  0.49596975  0.50053839  1
  Sn  Sn6  1  0.50174276  0.00424530  0.49948103  1
  Sn  Sn7  1  0.50173876  0.00424330  0.00051797  1
  O  O8  1  0.11857218  0.44897036  0.25000100  1
  O  O9  1  0.19542121  0.20043045  0.93843788  1
  O  O10  1  0.19542421  0.20043145  0.56156112  1
  O  O11  1  0.29731047  0.70322228  0.56223003  1
  O  O12  1  0.29730947  0.70322128  0.93777097  1
  O  O13  1  0.38304800  0.95344137  0.25000000  1
  O  O14  1  0.61794751  0.05041746  0.74999900  1
  O  O15  1  0.69805545  0.30231288  0.06173965  1
  O  O16  1  0.69805945  0.30231388  0.43826035  1
  O  O17  1  0.80007915  0.79400687  0.06232027  1
  O  O18  1  0.80008115  0.79400587  0.43767873  1
  O  O19  1  0.88312901  0.54667042  0.74999900  1
