# generated using pymatgen
data_SrTi4(CuO4)3
_symmetry_space_group_name_H-M   'P 1'
_cell_length_a   6.49501575
_cell_length_b   6.49501575
_cell_length_c   6.49501575
_cell_angle_alpha   109.47122063
_cell_angle_beta   109.47122063
_cell_angle_gamma   109.47122063
_symmetry_Int_Tables_number   1
_chemical_formula_structural   SrTi4(CuO4)3
_chemical_formula_sum   'Sr1 Ti4 Cu3 O12'
_cell_volume   210.92047190
_cell_formula_units_Z   1
loop_
 _symmetry_equiv_pos_site_id
 _symmetry_equiv_pos_as_xyz
  1  'x, y, z'
loop_
 _atom_site_type_symbol
 _atom_site_label
 _atom_site_symmetry_multiplicity
 _atom_site_fract_x
 _atom_site_fract_y
 _atom_site_fract_z
 _atom_site_occupancy
  Sr  Sr0  1  0.00000000  -0.00000000  -0.00000000  1
  Ti  Ti1  1  0.50000000  0.50000000  0.50000000  1
  Ti  Ti2  1  0.50000000  -0.00000000  -0.00000000  1
  Ti  Ti3  1  0.00000000  0.50000000  -0.00000000  1
  Ti  Ti4  1  0.00000000  -0.00000000  0.50000000  1
  Cu  Cu5  1  0.50000000  0.50000000  -0.00000000  1
  Cu  Cu6  1  0.50000000  -0.00000000  0.50000000  1
  Cu  Cu7  1  0.00000000  0.50000000  0.50000000  1
  O  O8  1  0.82062551  0.69502042  0.51564593  1
  O  O9  1  0.17937449  0.30497958  0.48435407  1
  O  O10  1  0.17937449  0.69502042  0.87439491  1
  O  O11  1  0.82062551  0.30497958  0.12560509  1
  O  O12  1  0.69502042  0.51564593  0.82062551  1
  O  O13  1  0.30497958  0.48435407  0.17937449  1
  O  O14  1  0.69502042  0.87439491  0.17937449  1
  O  O15  1  0.30497958  0.12560509  0.82062551  1
  O  O16  1  0.51564593  0.82062551  0.69502042  1
  O  O17  1  0.48435407  0.17937449  0.30497958  1
  O  O18  1  0.12560509  0.82062551  0.30497958  1
  O  O19  1  0.87439491  0.17937449  0.69502042  1
