# generated using pymatgen
data_Yb5(ReO6)2
_symmetry_space_group_name_H-M   'P 1'
_cell_length_a   5.67077559
_cell_length_b   6.83575429
_cell_length_c   7.69495621
_cell_angle_alpha   106.55915337
_cell_angle_beta   90.00000000
_cell_angle_gamma   114.50595685
_symmetry_Int_Tables_number   1
_chemical_formula_structural   Yb5(ReO6)2
_chemical_formula_sum   'Yb5 Re2 O12'
_cell_volume   257.75960740
_cell_formula_units_Z   1
loop_
 _symmetry_equiv_pos_site_id
 _symmetry_equiv_pos_as_xyz
  1  'x, y, z'
loop_
 _atom_site_type_symbol
 _atom_site_label
 _atom_site_symmetry_multiplicity
 _atom_site_fract_x
 _atom_site_fract_y
 _atom_site_fract_z
 _atom_site_occupancy
  Yb  Yb0  1  0.69501515  0.39003031  0.36484828  1
  Yb  Yb1  1  0.30498485  0.60996969  0.63515172  1
  Yb  Yb2  1  0.68550156  0.37100312  0.82124029  1
  Yb  Yb3  1  0.31449844  0.62899688  0.17875971  1
  Yb  Yb4  1  -0.00000000  -0.00000000  0.50000000  1
  Re  Re5  1  0.77340218  -0.00000000  0.00000000  1
  Re  Re6  1  0.22659782  -0.00000000  0.00000000  1
  O  O7  1  0.99989049  0.99978097  0.80486438  1
  O  O8  1  0.00010951  0.00021903  0.19513562  1
  O  O9  1  0.59226081  0.68997763  0.92306400  1
  O  O10  1  0.40773919  0.31002237  0.07693600  1
  O  O11  1  0.90228318  0.31002237  0.07693600  1
  O  O12  1  0.09771682  0.68997763  0.92306400  1
  O  O13  1  0.49917214  0.99834428  0.82870581  1
  O  O14  1  0.50082786  0.00165572  0.17129419  1
  O  O15  1  0.41083291  0.30592047  0.57529842  1
  O  O16  1  0.58916709  0.69407953  0.42470158  1
  O  O17  1  0.10491244  0.69407953  0.42470158  1
  O  O18  1  0.89508756  0.30592047  0.57529842  1
