# generated using pymatgen
data_RbSmI3
_symmetry_space_group_name_H-M   'P 1'
_cell_length_a   4.31154850
_cell_length_b   8.61408058
_cell_length_c   11.94876916
_cell_angle_alpha   90.00000000
_cell_angle_beta   90.00000000
_cell_angle_gamma   104.49299741
_symmetry_Int_Tables_number   1
_chemical_formula_structural   RbSmI3
_chemical_formula_sum   'Rb2 Sm2 I6'
_cell_volume   429.65581259
_cell_formula_units_Z   2
loop_
 _symmetry_equiv_pos_site_id
 _symmetry_equiv_pos_as_xyz
  1  'x, y, z'
loop_
 _atom_site_type_symbol
 _atom_site_label
 _atom_site_symmetry_multiplicity
 _atom_site_fract_x
 _atom_site_fract_y
 _atom_site_fract_z
 _atom_site_occupancy
  Rb  Rb0  1  0.74906628  0.49813255  0.25000000  1
  Rb  Rb1  1  0.25093372  0.50186745  0.75000000  1
  Sm  Sm2  1  -0.00000000  -0.00000000  0.00000000  1
  Sm  Sm3  1  -0.00000000  -0.00000000  0.50000000  1
  I  I4  1  0.36380052  0.72760104  0.05252329  1
  I  I5  1  0.63619948  0.27239896  0.94747671  1
  I  I6  1  0.63619948  0.27239896  0.55252329  1
  I  I7  1  0.36380052  0.72760104  0.44747671  1
  I  I8  1  0.06296648  0.12593296  0.25000000  1
  I  I9  1  0.93703352  0.87406704  0.75000000  1
