# generated using pymatgen
data_Nd5Si3O13
_symmetry_space_group_name_H-M   'P 1'
_cell_length_a   7.09041408
_cell_length_b   9.69461689
_cell_length_c   9.69461689
_cell_angle_alpha   120.00000285
_cell_angle_beta   90.00000000
_cell_angle_gamma   90.00000000
_symmetry_Int_Tables_number   1
_chemical_formula_structural   Nd5Si3O13
_chemical_formula_sum   'Nd10 Si6 O26'
_cell_volume   577.11653899
_cell_formula_units_Z   2
loop_
 _symmetry_equiv_pos_site_id
 _symmetry_equiv_pos_as_xyz
  1  'x, y, z'
loop_
 _atom_site_type_symbol
 _atom_site_label
 _atom_site_symmetry_multiplicity
 _atom_site_fract_x
 _atom_site_fract_y
 _atom_site_fract_z
 _atom_site_occupancy
  Nd  Nd0  1  0.90932528  0.76947054  0.00848691  1
  Nd  Nd1  1  0.90932528  0.23901638  0.23052946  1
  Nd  Nd2  1  0.40932528  0.23052946  0.99151309  1
  Nd  Nd3  1  0.90932528  0.99151309  0.76098362  1
  Nd  Nd4  1  0.40932528  0.76098362  0.76947054  1
  Nd  Nd5  1  0.40932528  0.00848691  0.23901638  1
  Nd  Nd6  1  0.15382281  0.66666700  0.33333300  1
  Nd  Nd7  1  0.65382281  0.33333300  0.66666700  1
  Nd  Nd8  1  0.65702688  0.66666700  0.33333300  1
  Nd  Nd9  1  0.15702688  0.33333300  0.66666700  1
  Si  Si10  1  0.90970643  0.60202933  0.62991657  1
  Si  Si11  1  0.90970643  0.02788724  0.39797067  1
  Si  Si12  1  0.40970643  0.39797067  0.37008343  1
  Si  Si13  1  0.90970643  0.37008343  0.97211276  1
  Si  Si14  1  0.40970643  0.97211276  0.60202933  1
  Si  Si15  1  0.40970643  0.62991657  0.02788724  1
  O  O16  1  0.73098374  0.67350814  0.75572542  1
  O  O17  1  0.73098374  0.08221728  0.32649186  1
  O  O18  1  0.23098374  0.32649186  0.24427458  1
  O  O19  1  0.73098374  0.24427458  0.91778272  1
  O  O20  1  0.23098374  0.91778272  0.67350814  1
  O  O21  1  0.23098374  0.75572542  0.08221728  1
  O  O22  1  0.89613339  0.40629743  0.52733631  1
  O  O23  1  0.89613339  0.12103888  0.59370257  1
  O  O24  1  0.39613339  0.59370257  0.47266369  1
  O  O25  1  0.89613339  0.47266369  0.87896112  1
  O  O26  1  0.39613339  0.87896112  0.40629743  1
  O  O27  1  0.39613339  0.52733631  0.12103888  1
  O  O28  1  0.59791405  0.74363680  0.09921602  1
  O  O29  1  0.59791405  0.35557922  0.25636320  1
  O  O30  1  0.09791405  0.25636320  0.90078398  1
  O  O31  1  0.59791405  0.90078398  0.64442078  1
  O  O32  1  0.09791405  0.64442078  0.74363680  1
  O  O33  1  0.09791405  0.09921602  0.35557922  1
  O  O34  1  0.91206432  0.83359753  0.31564686  1
  O  O35  1  0.91206432  0.48204933  0.16640247  1
  O  O36  1  0.41206432  0.16640247  0.68435314  1
  O  O37  1  0.91206432  0.68435314  0.51795067  1
  O  O38  1  0.41206432  0.51795067  0.83359753  1
  O  O39  1  0.41206432  0.31564686  0.48204933  1
  O  O40  1  0.95546868  0.00000000  0.00000000  1
  O  O41  1  0.45546868  0.00000000  0.00000000  1
