# generated using pymatgen
data_Mn3ZnO7
_symmetry_space_group_name_H-M   'P 1'
_cell_length_a   7.77313177
_cell_length_b   7.77270386
_cell_length_c   7.44830457
_cell_angle_alpha   59.11900899
_cell_angle_beta   59.20204943
_cell_angle_gamma   59.99806246
_symmetry_Int_Tables_number   1
_chemical_formula_structural   Mn3ZnO7
_chemical_formula_sum   'Mn6 Zn2 O14'
_cell_volume   314.10525070
_cell_formula_units_Z   2
loop_
 _symmetry_equiv_pos_site_id
 _symmetry_equiv_pos_as_xyz
  1  'x, y, z'
loop_
 _atom_site_type_symbol
 _atom_site_label
 _atom_site_symmetry_multiplicity
 _atom_site_fract_x
 _atom_site_fract_y
 _atom_site_fract_z
 _atom_site_occupancy
  Mn  Mn0  1  0.14254674  0.57223697  0.49915133  1
  Mn  Mn1  1  0.85745326  0.42776303  0.50084867  1
  Mn  Mn2  1  0.28602429  0.14234568  0.49941654  1
  Mn  Mn3  1  0.71397571  0.85765432  0.50058346  1
  Mn  Mn4  1  0.57227790  0.28602182  0.49934748  1
  Mn  Mn5  1  0.42772210  0.71397818  0.50065252  1
  Zn  Zn6  1  0.08043009  0.08094388  0.25348081  1
  Zn  Zn7  1  0.91956991  0.91905612  0.74651919  1
  O  O8  1  0.14786601  0.43089453  0.34005657  1
  O  O9  1  0.85213399  0.56910547  0.65994343  1
  O  O10  1  0.99570502  0.15053881  0.67747559  1
  O  O11  1  0.00429498  0.84946119  0.32252441  1
  O  O12  1  0.31982762  0.00475167  0.32306726  1
  O  O13  1  0.68017238  0.99524833  0.67693274  1
  O  O14  1  0.57803818  0.14825284  0.34005372  1
  O  O15  1  0.42196182  0.85174716  0.65994628  1
  O  O16  1  0.84908827  0.32027076  0.32321484  1
  O  O17  1  0.15091173  0.67972924  0.67678516  1
  O  O18  1  0.43052331  0.57841097  0.34011021  1
  O  O19  1  0.56947669  0.42158903  0.65988979  1
  O  O20  1  0.28131645  0.28098912  0.65924028  1
  O  O21  1  0.71868355  0.71901088  0.34075972  1
