# generated using pymatgen
data_Ni(Bi3O5)4
_symmetry_space_group_name_H-M   'P 1'
_cell_length_a   8.86182214
_cell_length_b   8.86182214
_cell_length_c   8.86182214
_cell_angle_alpha   109.47122063
_cell_angle_beta   109.47122063
_cell_angle_gamma   109.47122063
_symmetry_Int_Tables_number   1
_chemical_formula_structural   Ni(Bi3O5)4
_chemical_formula_sum   'Ni1 Bi12 O20'
_cell_volume   535.73151842
_cell_formula_units_Z   1
loop_
 _symmetry_equiv_pos_site_id
 _symmetry_equiv_pos_as_xyz
  1  'x, y, z'
loop_
 _atom_site_type_symbol
 _atom_site_label
 _atom_site_symmetry_multiplicity
 _atom_site_fract_x
 _atom_site_fract_y
 _atom_site_fract_z
 _atom_site_occupancy
  Ni  Ni0  1  0.00000000  0.00000000  0.00000000  1
  Bi  Bi1  1  0.49388447  0.33091004  0.19048802  1
  Bi  Bi2  1  0.50611553  0.69660355  0.83702557  1
  Bi  Bi3  1  0.85957798  0.66908996  0.16297443  1
  Bi  Bi4  1  0.33091004  0.19048802  0.49388447  1
  Bi  Bi5  1  0.14042202  0.30339645  0.80951198  1
  Bi  Bi6  1  0.69660355  0.83702557  0.50611553  1
  Bi  Bi7  1  0.66908996  0.16297443  0.85957798  1
  Bi  Bi8  1  0.30339645  0.80951198  0.14042202  1
  Bi  Bi9  1  0.19048802  0.49388447  0.33091004  1
  Bi  Bi10  1  0.16297443  0.85957798  0.66908996  1
  Bi  Bi11  1  0.80951198  0.14042202  0.30339645  1
  Bi  Bi12  1  0.83702557  0.50611553  0.69660355  1
  O  O13  1  0.78783040  0.78783040  0.78783040  1
  O  O14  1  0.21216960  0.00000000  -0.00000000  1
  O  O15  1  -0.00000000  0.21216960  -0.00000000  1
  O  O16  1  0.00000000  -0.00000000  0.21216960  1
  O  O17  1  0.39441906  0.39441906  0.39441906  1
  O  O18  1  0.60558094  0.00000000  0.00000000  1
  O  O19  1  -0.00000000  0.60558094  -0.00000000  1
  O  O20  1  0.00000000  -0.00000000  0.60558094  1
  O  O21  1  0.74472121  0.62075664  0.38444826  1
  O  O22  1  0.25527879  0.63972704  0.87603543  1
  O  O23  1  0.76369161  0.37924336  0.12396457  1
  O  O24  1  0.62075664  0.38444826  0.74472121  1
  O  O25  1  0.23630839  0.36027296  0.61555174  1
  O  O26  1  0.63972704  0.87603543  0.25527879  1
  O  O27  1  0.37924336  0.12396457  0.76369161  1
  O  O28  1  0.36027296  0.61555174  0.23630839  1
  O  O29  1  0.38444826  0.74472121  0.62075664  1
  O  O30  1  0.12396457  0.76369161  0.37924336  1
  O  O31  1  0.61555174  0.23630839  0.36027296  1
  O  O32  1  0.87603543  0.25527879  0.63972704  1
