# generated using pymatgen
data_MnP2H6O5
_symmetry_space_group_name_H-M   'P 1'
_cell_length_a   7.62469752
_cell_length_b   7.97491040
_cell_length_c   10.94822371
_cell_angle_alpha   103.02465782
_cell_angle_beta   90.00000000
_cell_angle_gamma   90.00000000
_symmetry_Int_Tables_number   1
_chemical_formula_structural   MnP2H6O5
_chemical_formula_sum   'Mn4 P8 H24 O20'
_cell_volume   648.59386339
_cell_formula_units_Z   4
loop_
 _symmetry_equiv_pos_site_id
 _symmetry_equiv_pos_as_xyz
  1  'x, y, z'
loop_
 _atom_site_type_symbol
 _atom_site_label
 _atom_site_symmetry_multiplicity
 _atom_site_fract_x
 _atom_site_fract_y
 _atom_site_fract_z
 _atom_site_occupancy
  Mn  Mn0  1  0.95359333  0.80744171  0.89666179  1
  Mn  Mn1  1  0.04640667  0.19255829  0.10333821  1
  Mn  Mn2  1  0.45359333  0.19255829  0.60333821  1
  Mn  Mn3  1  0.54640667  0.80744171  0.39666179  1
  P  P4  1  0.61340889  0.53093743  0.81019955  1
  P  P5  1  0.38659111  0.46906257  0.18980045  1
  P  P6  1  0.11340889  0.46906257  0.68980045  1
  P  P7  1  0.88659111  0.53093743  0.31019955  1
  P  P8  1  0.81756809  0.96506261  0.65004677  1
  P  P9  1  0.18243191  0.03493739  0.34995323  1
  P  P10  1  0.31756809  0.03493739  0.84995323  1
  P  P11  1  0.68243191  0.96506261  0.15004677  1
  H  H12  1  0.61046650  0.61726605  0.71054391  1
  H  H13  1  0.38953350  0.38273395  0.28945609  1
  H  H14  1  0.11046650  0.38273395  0.78945609  1
  H  H15  1  0.88953350  0.61726605  0.21054391  1
  H  H16  1  0.84470303  0.40065594  0.95364235  1
  H  H17  1  0.15529697  0.59934406  0.04635765  1
  H  H18  1  0.34470303  0.59934406  0.54635765  1
  H  H19  1  0.65529697  0.40065594  0.45364235  1
  H  H20  1  0.82389378  0.19865353  0.90587727  1
  H  H21  1  0.17610622  0.80134647  0.09412273  1
  H  H22  1  0.32389378  0.80134647  0.59412273  1
  H  H23  1  0.67610622  0.19865353  0.40587727  1
  H  H24  1  0.91892616  0.82694452  0.58186346  1
  H  H25  1  0.08107384  0.17305548  0.41813654  1
  H  H26  1  0.41892616  0.17305548  0.91813654  1
  H  H27  1  0.58107384  0.82694452  0.08186346  1
  H  H28  1  0.45988192  0.59077061  0.87944872  1
  H  H29  1  0.54011808  0.40922939  0.12055128  1
  H  H30  1  0.95988192  0.40922939  0.62055128  1
  H  H31  1  0.04011808  0.59077061  0.37944872  1
  H  H32  1  0.42011170  0.88732151  0.85042501  1
  H  H33  1  0.57988830  0.11267849  0.14957499  1
  H  H34  1  0.92011170  0.11267849  0.64957499  1
  H  H35  1  0.07988830  0.88732151  0.35042501  1
  O  O36  1  0.86720895  0.28885784  0.97563214  1
  O  O37  1  0.13279105  0.71114216  0.02436786  1
  O  O38  1  0.36720895  0.71114216  0.52436786  1
  O  O39  1  0.63279105  0.28885784  0.47563214  1
  O  O40  1  0.65040008  0.97529578  0.57400413  1
  O  O41  1  0.34959992  0.02470422  0.42599587  1
  O  O42  1  0.15040008  0.02470422  0.92599587  1
  O  O43  1  0.84959992  0.97529578  0.07400413  1
  O  O44  1  0.77385257  0.59145548  0.89264890  1
  O  O45  1  0.22614743  0.40854452  0.10735110  1
  O  O46  1  0.27385257  0.40854452  0.60735110  1
  O  O47  1  0.72614743  0.59145548  0.39264890  1
  O  O48  1  0.79553521  0.94817639  0.78517964  1
  O  O49  1  0.20446479  0.05182361  0.21482036  1
  O  O50  1  0.29553521  0.05182361  0.71482036  1
  O  O51  1  0.70446479  0.94817639  0.28517964  1
  O  O52  1  0.60003510  0.33748445  0.76024712  1
  O  O53  1  0.39996490  0.66251555  0.23975288  1
  O  O54  1  0.10003510  0.66251555  0.73975288  1
  O  O55  1  0.89996490  0.33748445  0.26024712  1
