# generated using pymatgen
data_PrMn2ZnO6
_symmetry_space_group_name_H-M   'P 1'
_cell_length_a   5.29837414
_cell_length_b   5.43940282
_cell_length_c   7.72959933
_cell_angle_alpha   90.00066587
_cell_angle_beta   89.99909488
_cell_angle_gamma   89.99272275
_symmetry_Int_Tables_number   1
_chemical_formula_structural   PrMn2ZnO6
_chemical_formula_sum   'Pr2 Mn4 Zn2 O12'
_cell_volume   222.76698322
_cell_formula_units_Z   2
loop_
 _symmetry_equiv_pos_site_id
 _symmetry_equiv_pos_as_xyz
  1  'x, y, z'
loop_
 _atom_site_type_symbol
 _atom_site_label
 _atom_site_symmetry_multiplicity
 _atom_site_fract_x
 _atom_site_fract_y
 _atom_site_fract_z
 _atom_site_occupancy
  Pr  Pr0  1  0.01071249  0.96112166  0.74994402  1
  Pr  Pr1  1  0.51075240  0.53887518  0.25005975  1
  Mn  Mn2  1  0.99992624  0.49546323  0.99961136  1
  Mn  Mn3  1  0.99996905  0.49543003  0.50040061  1
  Mn  Mn4  1  0.49987712  0.00452431  0.49960813  1
  Mn  Mn5  1  0.49984627  0.00454020  0.00039534  1
  Zn  Zn6  1  0.48510699  0.46188611  0.75010354  1
  Zn  Zn7  1  0.98508318  0.03812082  0.24990990  1
  O  O8  1  0.07632500  0.45692429  0.24994044  1
  O  O9  1  0.22183902  0.22288482  0.94758201  1
  O  O10  1  0.22188265  0.22287433  0.55232264  1
  O  O11  1  0.30541773  0.69715795  0.55772284  1
  O  O12  1  0.30540826  0.69717458  0.94224615  1
  O  O13  1  0.37350029  0.98009917  0.24993310  1
  O  O14  1  0.57633636  0.04307699  0.75005145  1
  O  O15  1  0.72179836  0.27714201  0.05237849  1
  O  O16  1  0.72187734  0.27707251  0.44767138  1
  O  O17  1  0.80542706  0.80288161  0.05778550  1
  O  O18  1  0.80540447  0.80283541  0.44226247  1
  O  O19  1  0.87350571  0.51991480  0.75007189  1
