# generated using pymatgen
data_NaCa2ZrSi2O9
_symmetry_space_group_name_H-M   'P 1'
_cell_length_a   7.49931623
_cell_length_b   10.50741558
_cell_length_c   11.02514280
_cell_angle_alpha   90.00000000
_cell_angle_beta   110.18425908
_cell_angle_gamma   90.00000000
_symmetry_Int_Tables_number   1
_chemical_formula_structural   NaCa2ZrSi2O9
_chemical_formula_sum   'Na4 Ca8 Zr4 Si8 O36'
_cell_volume   815.41130501
_cell_formula_units_Z   4
loop_
 _symmetry_equiv_pos_site_id
 _symmetry_equiv_pos_as_xyz
  1  'x, y, z'
loop_
 _atom_site_type_symbol
 _atom_site_label
 _atom_site_symmetry_multiplicity
 _atom_site_fract_x
 _atom_site_fract_y
 _atom_site_fract_z
 _atom_site_occupancy
  Na  Na0  1  0.19168864  0.67261846  0.62903944  1
  Na  Na1  1  0.80831136  0.17261846  0.37096056  1
  Na  Na2  1  0.56610196  0.82965502  0.87091339  1
  Na  Na3  1  0.43389804  0.32965502  0.12908661  1
  Ca  Ca4  1  0.45758223  0.94531457  0.15141659  1
  Ca  Ca5  1  0.54241777  0.44531457  0.84858341  1
  Ca  Ca6  1  0.80087796  0.55174392  0.35312119  1
  Ca  Ca7  1  0.19912204  0.05174392  0.64687881  1
  Ca  Ca8  1  0.95221708  0.32035677  0.12589970  1
  Ca  Ca9  1  0.04778292  0.82035677  0.87410030  1
  Ca  Ca10  1  0.30190475  0.55640242  0.34794830  1
  Ca  Ca11  1  0.69809525  0.05640242  0.65205170  1
  Zr  Zr12  1  0.95808421  0.95322984  0.15447226  1
  Zr  Zr13  1  0.04191579  0.45322984  0.84552774  1
  Zr  Zr14  1  0.31057761  0.18920629  0.37553213  1
  Zr  Zr15  1  0.68942239  0.68920629  0.62446787  1
  Si  Si16  1  0.43931535  0.62594050  0.06269610  1
  Si  Si17  1  0.56068465  0.12594050  0.93730390  1
  Si  Si18  1  0.88420657  0.87273022  0.43330286  1
  Si  Si19  1  0.11579343  0.37273022  0.56669714  1
  Si  Si20  1  0.87358381  0.62641245  0.07130564  1
  Si  Si21  1  0.12641619  0.12641245  0.92869436  1
  Si  Si22  1  0.30241338  0.87210281  0.42568647  1
  Si  Si23  1  0.69758662  0.37210281  0.57431353  1
  O  O24  1  0.63796751  0.60997500  0.02629640  1
  O  O25  1  0.36203249  0.10997500  0.97370360  1
  O  O26  1  0.68772084  0.01236401  0.03283305  1
  O  O27  1  0.31227916  0.51236401  0.96716695  1
  O  O28  1  0.97902908  0.58921190  0.22089908  1
  O  O29  1  0.02097092  0.08921190  0.77910092  1
  O  O30  1  0.43221270  0.74697668  0.47497335  1
  O  O31  1  0.56778730  0.24697668  0.52502665  1
  O  O32  1  0.48405650  0.59328832  0.21325780  1
  O  O33  1  0.51594350  0.09328832  0.78674220  1
  O  O34  1  0.52455739  0.62707230  0.72955732  1
  O  O35  1  0.47544261  0.12707230  0.27044268  1
  O  O36  1  0.91664548  0.51187469  0.98156039  1
  O  O37  1  0.08335452  0.01187469  0.01843961  1
  O  O38  1  0.12069649  0.85459732  0.47832962  1
  O  O39  1  0.87930351  0.35459732  0.52167038  1
  O  O40  1  0.35666175  0.76902619  0.01860773  1
  O  O41  1  0.64333825  0.26902619  0.98139227  1
  O  O42  1  0.22900177  0.87817555  0.26767831  1
  O  O43  1  0.77099823  0.37817555  0.73232169  1
  O  O44  1  0.25964125  0.34774021  0.27124562  1
  O  O45  1  0.74035875  0.84774021  0.72875438  1
  O  O46  1  0.03842576  0.11838000  0.25466544  1
  O  O47  1  0.96157424  0.61838000  0.74533456  1
  O  O48  1  0.39411129  0.00777575  0.49059236  1
  O  O49  1  0.60588871  0.50777575  0.50940764  1
  O  O50  1  0.79952745  0.88748110  0.27386598  1
  O  O51  1  0.20047255  0.38748110  0.72613402  1
  O  O52  1  0.14383310  0.49957009  0.49234483  1
  O  O53  1  0.85616690  0.99957009  0.50765517  1
  O  O54  1  0.81801888  0.73853278  0.47998072  1
  O  O55  1  0.18198112  0.23853278  0.52001928  1
  O  O56  1  0.91285650  0.77217411  0.03496599  1
  O  O57  1  0.08714350  0.27217411  0.96503401  1
  O  O58  1  0.75712947  0.35607073  0.24725648  1
  O  O59  1  0.24287053  0.85607073  0.75274352  1
