# generated using pymatgen
data_Li2In(PO4)2
_symmetry_space_group_name_H-M   'P 1'
_cell_length_a   4.91459581
_cell_length_b   7.80690678
_cell_length_c   8.44299945
_cell_angle_alpha   90.00000000
_cell_angle_beta   90.00000000
_cell_angle_gamma   99.22875758
_symmetry_Int_Tables_number   1
_chemical_formula_structural   Li2In(PO4)2
_chemical_formula_sum   'Li4 In2 P4 O16'
_cell_volume   319.74613757
_cell_formula_units_Z   2
loop_
 _symmetry_equiv_pos_site_id
 _symmetry_equiv_pos_as_xyz
  1  'x, y, z'
loop_
 _atom_site_type_symbol
 _atom_site_label
 _atom_site_symmetry_multiplicity
 _atom_site_fract_x
 _atom_site_fract_y
 _atom_site_fract_z
 _atom_site_occupancy
  Li  Li0  1  0.89069356  0.83901713  0.62721942  1
  Li  Li1  1  0.10930644  0.16098287  0.37278058  1
  Li  Li2  1  0.60930644  0.66098287  0.12721942  1
  Li  Li3  1  0.39069356  0.33901713  0.87278058  1
  In  In4  1  -0.00000000  0.00000000  0.00000000  1
  In  In5  1  0.50000000  0.50000000  0.50000000  1
  P  P6  1  0.11192557  0.76630454  0.34325950  1
  P  P7  1  0.88807443  0.23369546  0.65674050  1
  P  P8  1  0.38807443  0.73369546  0.84325950  1
  P  P9  1  0.61192557  0.26630454  0.15674050  1
  O  O10  1  0.98311804  0.79939048  0.18144162  1
  O  O11  1  0.01688196  0.20060952  0.81855838  1
  O  O12  1  0.51688196  0.70060952  0.68144162  1
  O  O13  1  0.48311804  0.29939048  0.31855838  1
  O  O14  1  0.36166974  0.66970857  0.31896814  1
  O  O15  1  0.63833026  0.33029143  0.68103186  1
  O  O16  1  0.13833026  0.83029143  0.81896814  1
  O  O17  1  0.86166974  0.16970857  0.18103186  1
  O  O18  1  0.20920201  0.93873103  0.43226234  1
  O  O19  1  0.79079799  0.06126897  0.56773766  1
  O  O20  1  0.29079799  0.56126897  0.93226234  1
  O  O21  1  0.70920201  0.43873103  0.06773766  1
  O  O22  1  0.90043593  0.65719708  0.45355308  1
  O  O23  1  0.09956407  0.34280292  0.54644692  1
  O  O24  1  0.59956407  0.84280292  0.95355308  1
  O  O25  1  0.40043593  0.15719708  0.04644692  1
