# generated using pymatgen
data_Mn13Fe(SiO11)2
_symmetry_space_group_name_H-M   'P 1'
_cell_length_a   6.76829552
_cell_length_b   6.76829552
_cell_length_c   11.25387472
_cell_angle_alpha   90.00000000
_cell_angle_beta   90.00000000
_cell_angle_gamma   119.99999378
_symmetry_Int_Tables_number   1
_chemical_formula_structural   Mn13Fe(SiO11)2
_chemical_formula_sum   'Mn13 Fe1 Si2 O22'
_cell_volume   446.46905300
_cell_formula_units_Z   1
loop_
 _symmetry_equiv_pos_site_id
 _symmetry_equiv_pos_as_xyz
  1  'x, y, z'
loop_
 _atom_site_type_symbol
 _atom_site_label
 _atom_site_symmetry_multiplicity
 _atom_site_fract_x
 _atom_site_fract_y
 _atom_site_fract_z
 _atom_site_occupancy
  Mn  Mn0  1  -0.00000000  -0.00000000  0.00000000  1
  Mn  Mn1  1  0.50000000  0.50000000  0.50000000  1
  Mn  Mn2  1  -0.00000000  0.50000000  0.50000000  1
  Mn  Mn3  1  0.50000000  -0.00000000  0.50000000  1
  Mn  Mn4  1  0.16681474  0.33362948  0.76542504  1
  Mn  Mn5  1  0.83318526  0.66637052  0.23457496  1
  Mn  Mn6  1  0.16681474  0.83318526  0.76542504  1
  Mn  Mn7  1  0.83318526  0.16681474  0.23457496  1
  Mn  Mn8  1  0.66637052  0.83318526  0.76542504  1
  Mn  Mn9  1  0.33362948  0.16681474  0.23457496  1
  Mn  Mn10  1  0.50000000  0.50000000  0.00000000  1
  Mn  Mn11  1  -0.00000000  0.50000000  0.00000000  1
  Mn  Mn12  1  0.50000000  -0.00000000  0.00000000  1
  Fe  Fe13  1  -0.00000000  -0.00000000  0.50000000  1
  Si  Si14  1  0.66666700  0.33333300  0.73779695  1
  Si  Si15  1  0.33333300  0.66666700  0.26220305  1
  O  O16  1  0.15887087  0.31774173  0.59255018  1
  O  O17  1  0.84112913  0.68225827  0.40744982  1
  O  O18  1  0.15887087  0.84112913  0.59255018  1
  O  O19  1  0.84112913  0.15887087  0.40744982  1
  O  O20  1  0.68225827  0.84112913  0.59255018  1
  O  O21  1  0.31774173  0.15887087  0.40744982  1
  O  O22  1  0.53365352  0.06730704  0.78785637  1
  O  O23  1  0.46634648  0.93269296  0.21214363  1
  O  O24  1  0.53365352  0.46634648  0.78785637  1
  O  O25  1  0.46634648  0.53365352  0.21214363  1
  O  O26  1  0.93269296  0.46634648  0.78785637  1
  O  O27  1  0.06730704  0.53365352  0.21214363  1
  O  O28  1  -0.00000000  -0.00000000  0.80216397  1
  O  O29  1  -0.00000000  -0.00000000  0.19783603  1
  O  O30  1  0.66666700  0.33333300  0.59248977  1
  O  O31  1  0.33333300  0.66666700  0.40751023  1
  O  O32  1  0.19349423  0.38698845  0.94376990  1
  O  O33  1  0.80650577  0.61301155  0.05623010  1
  O  O34  1  0.19349423  0.80650577  0.94376990  1
  O  O35  1  0.80650577  0.19349423  0.05623010  1
  O  O36  1  0.61301155  0.80650577  0.94376990  1
  O  O37  1  0.38698845  0.19349423  0.05623010  1
