# generated using pymatgen
data_KO4F
_symmetry_space_group_name_H-M   'P 1'
_cell_length_a   6.39725375
_cell_length_b   11.21500069
_cell_length_c   12.91405033
_cell_angle_alpha   90.00000000
_cell_angle_beta   90.00000000
_cell_angle_gamma   90.00000000
_symmetry_Int_Tables_number   1
_chemical_formula_structural   KO4F
_chemical_formula_sum   'K8 O32 F8'
_cell_volume   926.52119115
_cell_formula_units_Z   8
loop_
 _symmetry_equiv_pos_site_id
 _symmetry_equiv_pos_as_xyz
  1  'x, y, z'
loop_
 _atom_site_type_symbol
 _atom_site_label
 _atom_site_symmetry_multiplicity
 _atom_site_fract_x
 _atom_site_fract_y
 _atom_site_fract_z
 _atom_site_occupancy
  K  K0  1  0.69659028  0.94129723  0.84320085  1
  K  K1  1  0.30340972  0.05870277  0.15679915  1
  K  K2  1  0.80340972  0.44129723  0.15679915  1
  K  K3  1  0.30340972  0.55870277  0.34320085  1
  K  K4  1  0.19659028  0.55870277  0.84320085  1
  K  K5  1  0.69659028  0.44129723  0.65679915  1
  K  K6  1  0.19659028  0.05870277  0.65679915  1
  K  K7  1  0.80340972  0.94129723  0.34320085  1
  O  O8  1  0.87939755  0.85297536  0.64609361  1
  O  O9  1  0.12060245  0.14702464  0.35390639  1
  O  O10  1  0.62060245  0.35297536  0.35390639  1
  O  O11  1  0.12060245  0.64702464  0.14609361  1
  O  O12  1  0.37939755  0.64702464  0.64609361  1
  O  O13  1  0.87939755  0.35297536  0.85390639  1
  O  O14  1  0.37939755  0.14702464  0.85390639  1
  O  O15  1  0.62060245  0.85297536  0.14609361  1
  O  O16  1  0.73280987  0.85959277  0.58381831  1
  O  O17  1  0.26719013  0.14040723  0.41618169  1
  O  O18  1  0.76719013  0.35959277  0.41618169  1
  O  O19  1  0.26719013  0.64040723  0.08381831  1
  O  O20  1  0.23280987  0.64040723  0.58381831  1
  O  O21  1  0.73280987  0.35959277  0.91618169  1
  O  O22  1  0.23280987  0.14040723  0.91618169  1
  O  O23  1  0.76719013  0.85959277  0.08381831  1
  O  O24  1  0.75483465  0.62944905  0.96549012  1
  O  O25  1  0.24516535  0.37055095  0.03450988  1
  O  O26  1  0.74516535  0.12944905  0.03450988  1
  O  O27  1  0.24516535  0.87055095  0.46549012  1
  O  O28  1  0.25483465  0.87055095  0.96549012  1
  O  O29  1  0.75483465  0.12944905  0.53450988  1
  O  O30  1  0.25483465  0.37055095  0.53450988  1
  O  O31  1  0.74516535  0.62944905  0.46549012  1
  O  O32  1  0.64711972  0.66420576  0.89169727  1
  O  O33  1  0.35288028  0.33579424  0.10830273  1
  O  O34  1  0.85288028  0.16420576  0.10830273  1
  O  O35  1  0.35288028  0.83579424  0.39169727  1
  O  O36  1  0.14711972  0.83579424  0.89169727  1
  O  O37  1  0.64711972  0.16420576  0.60830273  1
  O  O38  1  0.14711972  0.33579424  0.60830273  1
  O  O39  1  0.85288028  0.66420576  0.39169727  1
  F  F40  1  0.89247269  0.61202538  0.73179831  1
  F  F41  1  0.10752731  0.38797462  0.26820169  1
  F  F42  1  0.60752731  0.11202538  0.26820169  1
  F  F43  1  0.10752731  0.88797462  0.23179831  1
  F  F44  1  0.39247269  0.88797462  0.73179831  1
  F  F45  1  0.89247269  0.11202538  0.76820169  1
  F  F46  1  0.39247269  0.38797462  0.76820169  1
  F  F47  1  0.60752731  0.61202538  0.23179831  1
