# generated using pymatgen
data_KP2(HO2)4
_symmetry_space_group_name_H-M   'P 1'
_cell_length_a   7.89561534
_cell_length_b   10.02129642
_cell_length_c   10.93861157
_cell_angle_alpha   90.00000000
_cell_angle_beta   90.00000000
_cell_angle_gamma   114.93385787
_symmetry_Int_Tables_number   1
_chemical_formula_structural   KP2(HO2)4
_chemical_formula_sum   'K4 P8 H16 O32'
_cell_volume   784.84018853
_cell_formula_units_Z   4
loop_
 _symmetry_equiv_pos_site_id
 _symmetry_equiv_pos_as_xyz
  1  'x, y, z'
loop_
 _atom_site_type_symbol
 _atom_site_label
 _atom_site_symmetry_multiplicity
 _atom_site_fract_x
 _atom_site_fract_y
 _atom_site_fract_z
 _atom_site_occupancy
  K  K0  1  0.56184477  0.85674583  0.38368280  1
  K  K1  1  0.43815523  0.14325417  0.61631720  1
  K  K2  1  0.93815523  0.64325417  0.88368280  1
  K  K3  1  0.06184477  0.35674583  0.11631720  1
  P  P4  1  0.84967313  0.71904909  0.22802652  1
  P  P5  1  0.15032687  0.28095091  0.77197348  1
  P  P6  1  0.65032687  0.78095091  0.72802652  1
  P  P7  1  0.34967313  0.21904909  0.27197348  1
  P  P8  1  0.38112556  0.76542756  0.06977695  1
  P  P9  1  0.61887444  0.23457244  0.93022305  1
  P  P10  1  0.11887444  0.73457244  0.56977695  1
  P  P11  1  0.88112556  0.26542756  0.43022305  1
  H  H12  1  0.07462117  0.86956194  0.42116211  1
  H  H13  1  0.92537883  0.13043806  0.57883789  1
  H  H14  1  0.42537883  0.63043806  0.92116211  1
  H  H15  1  0.57462117  0.36956194  0.07883789  1
  H  H16  1  0.77695101  0.70203736  0.58001797  1
  H  H17  1  0.22304899  0.29796264  0.41998203  1
  H  H18  1  0.72304899  0.79796264  0.08001797  1
  H  H19  1  0.27695101  0.20203736  0.91998203  1
  H  H20  1  0.09080200  0.65711237  0.21880958  1
  H  H21  1  0.90919800  0.34288763  0.78119042  1
  H  H22  1  0.40919800  0.84288763  0.71880958  1
  H  H23  1  0.59080200  0.15711237  0.28119042  1
  H  H24  1  0.57444036  0.53265105  0.26062594  1
  H  H25  1  0.42555964  0.46734895  0.73937406  1
  H  H26  1  0.92555964  0.96734895  0.76062594  1
  H  H27  1  0.07444036  0.03265105  0.23937406  1
  O  O28  1  0.94590394  0.61056567  0.22542469  1
  O  O29  1  0.05409606  0.38943433  0.77457531  1
  O  O30  1  0.55409606  0.88943433  0.72542469  1
  O  O31  1  0.44590394  0.11056567  0.27457531  1
  O  O32  1  0.95528066  0.86085688  0.29782863  1
  O  O33  1  0.04471934  0.13914312  0.70217137  1
  O  O34  1  0.54471934  0.63914312  0.79782863  1
  O  O35  1  0.45528066  0.36085688  0.20217137  1
  O  O36  1  0.58905293  0.86245025  0.07799535  1
  O  O37  1  0.41094707  0.13754975  0.92200465  1
  O  O38  1  0.91094707  0.63754975  0.57799535  1
  O  O39  1  0.08905293  0.36245025  0.42200465  1
  O  O40  1  0.65428246  0.63480219  0.29250194  1
  O  O41  1  0.34571754  0.36519781  0.70749806  1
  O  O42  1  0.84571754  0.86519781  0.79250194  1
  O  O43  1  0.15428246  0.13480219  0.20749806  1
  O  O44  1  0.15541693  0.88276214  0.49661252  1
  O  O45  1  0.84458307  0.11723786  0.50338748  1
  O  O46  1  0.34458307  0.61723786  0.99661252  1
  O  O47  1  0.65541693  0.38276214  0.00338748  1
  O  O48  1  0.29071339  0.71559046  0.19648384  1
  O  O49  1  0.70928661  0.28440954  0.80351616  1
  O  O50  1  0.20928661  0.78440954  0.69648384  1
  O  O51  1  0.79071339  0.21559046  0.30351616  1
  O  O52  1  0.26279687  0.83864623  0.01155113  1
  O  O53  1  0.73720313  0.16135377  0.98844887  1
  O  O54  1  0.23720313  0.66135377  0.51155113  1
  O  O55  1  0.76279687  0.33864623  0.48844887  1
  O  O56  1  0.81393699  0.74580250  0.09086918  1
  O  O57  1  0.18606301  0.25419750  0.90913082  1
  O  O58  1  0.68606301  0.75419750  0.59086918  1
  O  O59  1  0.31393699  0.24580250  0.40913082  1
