# generated using pymatgen
data_In2CuS4
_symmetry_space_group_name_H-M   'P 1'
_cell_length_a   7.49846330
_cell_length_b   7.49846330
_cell_length_c   7.49846330
_cell_angle_alpha   60.00000000
_cell_angle_beta   60.00000000
_cell_angle_gamma   60.00000000
_symmetry_Int_Tables_number   1
_chemical_formula_structural   In2CuS4
_chemical_formula_sum   'In4 Cu2 S8'
_cell_volume   298.12734563
_cell_formula_units_Z   2
loop_
 _symmetry_equiv_pos_site_id
 _symmetry_equiv_pos_as_xyz
  1  'x, y, z'
loop_
 _atom_site_type_symbol
 _atom_site_label
 _atom_site_symmetry_multiplicity
 _atom_site_fract_x
 _atom_site_fract_y
 _atom_site_fract_z
 _atom_site_occupancy
  In  In0  1  0.62528391  0.62528391  0.62528391  1
  In  In1  1  0.12414827  0.62528391  0.62528391  1
  In  In2  1  0.62528391  0.12414827  0.62528391  1
  In  In3  1  0.62528391  0.62528391  0.12414827  1
  Cu  Cu4  1  0.25000000  0.25000000  0.25000000  1
  Cu  Cu5  1  0.00000000  -0.00000000  -0.00000000  1
  S  S6  1  0.37642840  0.37642840  0.37642840  1
  S  S7  1  0.87071481  0.37642840  0.37642840  1
  S  S8  1  0.37642840  0.87071481  0.37642840  1
  S  S9  1  0.37642840  0.37642840  0.87071481  1
  S  S10  1  0.87386917  0.87386917  0.87386917  1
  S  S11  1  0.37839249  0.87386917  0.87386917  1
  S  S12  1  0.87386917  0.37839249  0.87386917  1
  S  S13  1  0.87386917  0.87386917  0.37839249  1
