# generated using pymatgen
data_PrZn(NiO3)2
_symmetry_space_group_name_H-M   'P 1'
_cell_length_a   5.22096801
_cell_length_b   5.42266130
_cell_length_c   7.58475584
_cell_angle_alpha   90.00384902
_cell_angle_beta   89.99525764
_cell_angle_gamma   90.00204137
_symmetry_Int_Tables_number   1
_chemical_formula_structural   PrZn(NiO3)2
_chemical_formula_sum   'Pr2 Zn2 Ni4 O12'
_cell_volume   214.73612591
_cell_formula_units_Z   2
loop_
 _symmetry_equiv_pos_site_id
 _symmetry_equiv_pos_as_xyz
  1  'x, y, z'
loop_
 _atom_site_type_symbol
 _atom_site_label
 _atom_site_symmetry_multiplicity
 _atom_site_fract_x
 _atom_site_fract_y
 _atom_site_fract_z
 _atom_site_occupancy
  Pr  Pr0  1  0.01101835  0.95663334  0.75005306  1
  Pr  Pr1  1  0.51100427  0.54334896  0.24995791  1
  Zn  Zn2  1  0.47318091  0.44870905  0.74996002  1
  Zn  Zn3  1  0.97316846  0.05132911  0.25003881  1
  Ni  Ni4  1  0.99808399  0.49788097  0.99845314  1
  Ni  Ni5  1  0.99800110  0.49783732  0.50154827  1
  Ni  Ni6  1  0.49808208  0.00209553  0.49846028  1
  Ni  Ni7  1  0.49803452  0.00214438  0.00152362  1
  O  O8  1  0.07443612  0.44921899  0.25001208  1
  O  O9  1  0.23554688  0.23941412  0.93940866  1
  O  O10  1  0.23536942  0.23929591  0.56055811  1
  O  O11  1  0.30591274  0.69876444  0.55763829  1
  O  O12  1  0.30588306  0.69886441  0.94235047  1
  O  O13  1  0.36255615  0.98075809  0.24993694  1
  O  O14  1  0.57445883  0.05081989  0.75007024  1
  O  O15  1  0.73548259  0.26062296  0.06058226  1
  O  O16  1  0.73543318  0.26070990  0.43939716  1
  O  O17  1  0.80585887  0.80117203  0.05765940  1
  O  O18  1  0.80590980  0.80114008  0.44237581  1
  O  O19  1  0.86257768  0.51924152  0.75001547  1
