# generated using pymatgen
data_GdTlS2O9
_symmetry_space_group_name_H-M   'P 1'
_cell_length_a   8.52638559
_cell_length_b   10.59910648
_cell_length_c   10.28458894
_cell_angle_alpha   119.84619209
_cell_angle_beta   90.00000000
_cell_angle_gamma   90.00000000
_symmetry_Int_Tables_number   1
_chemical_formula_structural   GdTlS2O9
_chemical_formula_sum   'Gd4 Tl4 S8 O36'
_cell_volume   806.16290359
_cell_formula_units_Z   4
loop_
 _symmetry_equiv_pos_site_id
 _symmetry_equiv_pos_as_xyz
  1  'x, y, z'
loop_
 _atom_site_type_symbol
 _atom_site_label
 _atom_site_symmetry_multiplicity
 _atom_site_fract_x
 _atom_site_fract_y
 _atom_site_fract_z
 _atom_site_occupancy
  Gd  Gd0  1  0.35571940  0.96202212  0.71709400  1
  Gd  Gd1  1  0.64428060  0.03797788  0.28290600  1
  Gd  Gd2  1  0.85571940  0.53797788  0.78290600  1
  Gd  Gd3  1  0.14428060  0.46202212  0.21709400  1
  Tl  Tl4  1  0.33013711  0.68769760  0.96754914  1
  Tl  Tl5  1  0.66986289  0.31230240  0.03245086  1
  Tl  Tl6  1  0.83013711  0.81230240  0.53245086  1
  Tl  Tl7  1  0.16986289  0.18769760  0.46754914  1
  S  S8  1  0.13050896  0.31694141  0.87209695  1
  S  S9  1  0.86949104  0.68305859  0.12790305  1
  S  S10  1  0.63050896  0.18305859  0.62790305  1
  S  S11  1  0.36949104  0.81694141  0.37209695  1
  S  S12  1  0.20036182  0.60298342  0.59878375  1
  S  S13  1  0.79963818  0.39701658  0.40121625  1
  S  S14  1  0.70036182  0.89701658  0.90121625  1
  S  S15  1  0.29963818  0.10298342  0.09878375  1
  O  O16  1  0.78060477  0.03979747  0.96774373  1
  O  O17  1  0.21939523  0.96020253  0.03225627  1
  O  O18  1  0.28060477  0.46020253  0.53225627  1
  O  O19  1  0.71939523  0.53979747  0.46774373  1
  O  O20  1  0.20490145  0.17768464  0.76215178  1
  O  O21  1  0.79509855  0.82231536  0.23784822  1
  O  O22  1  0.70490145  0.32231536  0.73784822  1
  O  O23  1  0.29509855  0.67768464  0.26215178  1
  O  O24  1  0.31375912  0.72425984  0.67488147  1
  O  O25  1  0.68624088  0.27574016  0.32511853  1
  O  O26  1  0.81375912  0.77574016  0.82511853  1
  O  O27  1  0.18624088  0.22425984  0.17488147  1
  O  O28  1  0.38354071  0.11712631  0.97931880  1
  O  O29  1  0.61645929  0.88287369  0.02068120  1
  O  O30  1  0.88354071  0.38287369  0.52068120  1
  O  O31  1  0.11645929  0.61712631  0.47931880  1
  O  O32  1  0.09153442  0.94437414  0.76826873  1
  O  O33  1  0.90846558  0.05562586  0.23173127  1
  O  O34  1  0.59153442  0.55562586  0.73173127  1
  O  O35  1  0.40846558  0.44437414  0.26826873  1
  O  O36  1  0.25099866  0.42042038  0.97940177  1
  O  O37  1  0.74900134  0.57957962  0.02059823  1
  O  O38  1  0.75099866  0.07957962  0.52059823  1
  O  O39  1  0.24900134  0.92042038  0.47940177  1
  O  O40  1  0.01289428  0.29826234  0.96835291  1
  O  O41  1  0.98710572  0.70173766  0.03164709  1
  O  O42  1  0.51289428  0.20173766  0.53164709  1
  O  O43  1  0.48710572  0.79826234  0.46835291  1
  O  O44  1  0.05838146  0.38093724  0.78615221  1
  O  O45  1  0.94161854  0.61906276  0.21384779  1
  O  O46  1  0.55838146  0.11906276  0.71384779  1
  O  O47  1  0.44161854  0.88093724  0.28615221  1
  O  O48  1  0.58827190  0.88460052  0.78477870  1
  O  O49  1  0.41172810  0.11539948  0.21522130  1
  O  O50  1  0.08827190  0.61539948  0.71522130  1
  O  O51  1  0.91172810  0.38460052  0.28477870  1
