# generated using pymatgen
data_HfSbPd
_symmetry_space_group_name_H-M   'P 1'
_cell_length_a   4.41636470
_cell_length_b   6.68012751
_cell_length_c   8.02168155
_cell_angle_alpha   90.00000000
_cell_angle_beta   90.00000000
_cell_angle_gamma   90.00000000
_symmetry_Int_Tables_number   1
_chemical_formula_structural   HfSbPd
_chemical_formula_sum   'Hf4 Sb4 Pd4'
_cell_volume   236.65468109
_cell_formula_units_Z   4
loop_
 _symmetry_equiv_pos_site_id
 _symmetry_equiv_pos_as_xyz
  1  'x, y, z'
loop_
 _atom_site_type_symbol
 _atom_site_label
 _atom_site_symmetry_multiplicity
 _atom_site_fract_x
 _atom_site_fract_y
 _atom_site_fract_z
 _atom_site_occupancy
  Hf  Hf0  1  0.75000000  0.98527018  0.29510313  1
  Hf  Hf1  1  0.25000000  0.01472982  0.70489687  1
  Hf  Hf2  1  0.25000000  0.51472982  0.79510313  1
  Hf  Hf3  1  0.75000000  0.48527018  0.20489687  1
  Sb  Sb4  1  0.75000000  0.73747757  0.60006439  1
  Sb  Sb5  1  0.25000000  0.26252243  0.39993561  1
  Sb  Sb6  1  0.25000000  0.76252243  0.10006439  1
  Sb  Sb7  1  0.75000000  0.23747757  0.89993561  1
  Pd  Pd8  1  0.75000000  0.82926840  0.92316712  1
  Pd  Pd9  1  0.25000000  0.17073160  0.07683288  1
  Pd  Pd10  1  0.25000000  0.67073160  0.42316712  1
  Pd  Pd11  1  0.75000000  0.32926840  0.57683288  1
