# generated using pymatgen
data_ZrTiCN
_symmetry_space_group_name_H-M   'P 1'
_cell_length_a   3.18194310
_cell_length_b   3.18194310
_cell_length_c   5.49619911
_cell_angle_alpha   73.17392427
_cell_angle_beta   90.00000000
_cell_angle_gamma   120.00000000
_symmetry_Int_Tables_number   1
_chemical_formula_structural   ZrTiCN
_chemical_formula_sum   'Zr1 Ti1 C1 N1'
_cell_volume   45.42055016
_cell_formula_units_Z   1
loop_
 _symmetry_equiv_pos_site_id
 _symmetry_equiv_pos_as_xyz
  1  'x, y, z'
loop_
 _atom_site_type_symbol
 _atom_site_label
 _atom_site_symmetry_multiplicity
 _atom_site_fract_x
 _atom_site_fract_y
 _atom_site_fract_z
 _atom_site_occupancy
  Zr  Zr0  1  0.74959417  0.49918834  0.75121749  1
  Ti  Ti1  1  0.25130060  0.50260120  0.24609820  1
  C  C2  1  0.99412243  0.98824486  0.01763271  1
  N  N3  1  0.50498280  0.00996560  0.48505160  1
