# generated using pymatgen
data_Al4Cr13Si2(SbO14)2
_symmetry_space_group_name_H-M   'P 1'
_cell_length_a   5.75642549
_cell_length_b   8.69069283
_cell_length_c   12.10712178
_cell_angle_alpha   87.34192951
_cell_angle_beta   76.29849638
_cell_angle_gamma   78.73812137
_symmetry_Int_Tables_number   1
_chemical_formula_structural   Al4Cr13Si2(SbO14)2
_chemical_formula_sum   'Al4 Cr13 Si2 Sb2 O28'
_cell_volume   577.12009916
_cell_formula_units_Z   1
loop_
 _symmetry_equiv_pos_site_id
 _symmetry_equiv_pos_as_xyz
  1  'x, y, z'
loop_
 _atom_site_type_symbol
 _atom_site_label
 _atom_site_symmetry_multiplicity
 _atom_site_fract_x
 _atom_site_fract_y
 _atom_site_fract_z
 _atom_site_occupancy
  Al  Al0  1  0.07172082  0.66570891  0.43579276  1
  Al  Al1  1  0.49512967  0.33568532  0.43568818  1
  Al  Al2  1  0.93160508  0.33561877  0.56413973  1
  Al  Al3  1  0.50854475  0.66537479  0.56344568  1
  Cr  Cr4  1  0.89449658  0.63726609  0.70916143  1
  Cr  Cr5  1  0.66817009  0.35023071  0.13609814  1
  Cr  Cr6  1  0.39844215  0.36350815  0.70878086  1
  Cr  Cr7  1  0.10697617  0.36336534  0.29068425  1
  Cr  Cr8  1  0.33032160  0.65118442  0.86322736  1
  Cr  Cr9  1  0.28724539  0.00035435  0.42771159  1
  Cr  Cr10  1  0.19219329  0.65083368  0.13663026  1
  Cr  Cr11  1  0.99912558  0.00083392  0.99949566  1
  Cr  Cr12  1  0.42697114  0.00042050  0.14486541  1
  Cr  Cr13  1  0.80342999  0.35020884  0.86276739  1
  Cr  Cr14  1  0.60174155  0.63733377  0.29009319  1
  Cr  Cr15  1  0.57144108  0.00039350  0.85439019  1
  Cr  Cr16  1  0.71421841  0.00060260  0.57172492  1
  Si  Si17  1  0.23564500  0.32133635  0.99966375  1
  Si  Si18  1  0.76245163  0.67968776  0.99953667  1
  Sb  Sb19  1  0.86151718  0.00028838  0.27792658  1
  Sb  Sb20  1  0.13824576  0.99948018  0.72110632  1
  O  O21  1  0.66302930  0.39364587  0.30341174  1
  O  O22  1  0.17154103  0.37460047  0.45017344  1
  O  O23  1  0.95028817  0.33608416  0.99928562  1
  O  O24  1  0.35349294  0.13138118  0.99964351  1
  O  O25  1  0.83213975  0.62504899  0.54932800  1
  O  O26  1  0.34083604  0.60731780  0.69561480  1
  O  O27  1  0.99576446  0.12185946  0.55686109  1
  O  O28  1  0.00661436  0.87907859  0.44414332  1
  O  O29  1  0.64509914  0.86973843  0.99966435  1
  O  O30  1  0.14751706  0.89181152  0.13723661  1
  O  O31  1  0.26183478  0.40171811  0.11647850  1
  O  O32  1  0.03506963  0.60710842  0.30391269  1
  O  O33  1  0.45155432  0.87866461  0.55453501  1
  O  O34  1  0.71370726  0.10939972  0.13744268  1
  O  O35  1  0.61908257  0.59915612  0.11606855  1
  O  O36  1  0.04808064  0.66479880  0.99951799  1
  O  O37  1  0.28478149  0.89195201  0.86270010  1
  O  O38  1  0.85145573  0.10926379  0.86105316  1
  O  O39  1  0.55217591  0.12216527  0.44369773  1
  O  O40  1  0.18819355  0.12243417  0.28264334  1
  O  O41  1  0.80972362  0.87805213  0.71690496  1
  O  O42  1  0.37974999  0.40188746  0.88326657  1
  O  O43  1  0.47128899  0.12258175  0.71661745  1
  O  O44  1  0.62260744  0.37515056  0.54928905  1
  O  O45  1  0.73568699  0.59920992  0.88288421  1
  O  O46  1  0.52691735  0.87812191  0.28242280  1
  O  O47  1  0.97046251  0.39355370  0.69588095  1
  O  O48  1  0.38109206  0.62490876  0.45014151  1
