# generated using pymatgen
data_CaAlSiO5
_symmetry_space_group_name_H-M   'P 1'
_cell_length_a   5.40348691
_cell_length_b   5.40348691
_cell_length_c   7.03025486
_cell_angle_alpha   103.06985936
_cell_angle_beta   103.06985936
_cell_angle_gamma   106.97256826
_symmetry_Int_Tables_number   1
_chemical_formula_structural   CaAlSiO5
_chemical_formula_sum   'Ca2 Al2 Si2 O10'
_cell_volume   181.59494428
_cell_formula_units_Z   2
loop_
 _symmetry_equiv_pos_site_id
 _symmetry_equiv_pos_as_xyz
  1  'x, y, z'
loop_
 _atom_site_type_symbol
 _atom_site_label
 _atom_site_symmetry_multiplicity
 _atom_site_fract_x
 _atom_site_fract_y
 _atom_site_fract_z
 _atom_site_occupancy
  Ca  Ca0  1  0.67278236  0.32721764  0.75000000  1
  Ca  Ca1  1  0.32721764  0.67278236  0.25000000  1
  Al  Al2  1  0.00000000  -0.00000000  -0.00000000  1
  Al  Al3  1  0.00000000  -0.00000000  0.50000000  1
  Si  Si4  1  0.31460084  0.68539916  0.75000000  1
  Si  Si5  1  0.68539916  0.31460084  0.25000000  1
  O  O6  1  0.93875815  0.06124185  0.75000000  1
  O  O7  1  0.06124185  0.93875815  0.25000000  1
  O  O8  1  0.30630906  0.88620066  0.60645034  1
  O  O9  1  0.69369094  0.11379934  0.39354966  1
  O  O10  1  0.11379934  0.69369094  0.89354966  1
  O  O11  1  0.88620066  0.30630906  0.10645034  1
  O  O12  1  0.62993751  0.75952789  0.89545004  1
  O  O13  1  0.37006249  0.24047211  0.10454996  1
  O  O14  1  0.24047211  0.37006249  0.60454996  1
  O  O15  1  0.75952789  0.62993751  0.39545004  1
