# generated using pymatgen
data_Ba2YCu3O8
_symmetry_space_group_name_H-M   'P 1'
_cell_length_a   3.93485578
_cell_length_b   3.92995571
_cell_length_c   11.57396233
_cell_angle_alpha   90.00000000
_cell_angle_beta   90.00000000
_cell_angle_gamma   90.00000000
_symmetry_Int_Tables_number   1
_chemical_formula_structural   Ba2YCu3O8
_chemical_formula_sum   'Ba2 Y1 Cu3 O8'
_cell_volume   178.97754216
_cell_formula_units_Z   1
loop_
 _symmetry_equiv_pos_site_id
 _symmetry_equiv_pos_as_xyz
  1  'x, y, z'
loop_
 _atom_site_type_symbol
 _atom_site_label
 _atom_site_symmetry_multiplicity
 _atom_site_fract_x
 _atom_site_fract_y
 _atom_site_fract_z
 _atom_site_occupancy
  Ba  Ba0  1  0.50000000  0.50000000  0.16871517  1
  Ba  Ba1  1  0.50000000  0.50000000  0.83128483  1
  Y  Y2  1  0.50000000  0.50000000  0.50000000  1
  Cu  Cu3  1  0.00000000  -0.00000000  0.00000000  1
  Cu  Cu4  1  -0.00000000  0.00000000  0.34611993  1
  Cu  Cu5  1  -0.00000000  -0.00000000  0.65388007  1
  O  O6  1  0.50000000  0.00000000  0.37939503  1
  O  O7  1  0.50000000  -0.00000000  0.62060497  1
  O  O8  1  0.00000000  0.50000000  0.37942639  1
  O  O9  1  0.00000000  0.50000000  0.62057361  1
  O  O10  1  0.00000000  0.00000000  0.17243980  1
  O  O11  1  -0.00000000  0.00000000  0.82756020  1
  O  O12  1  0.50000000  0.00000000  -0.00000000  1
  O  O13  1  0.00000000  0.50000000  -0.00000000  1
