# generated using pymatgen
data_ZrVCu
_symmetry_space_group_name_H-M   'P 1'
_cell_length_a   5.19372642
_cell_length_b   5.19388850
_cell_length_c   8.46191371
_cell_angle_alpha   90.00000000
_cell_angle_beta   90.00000000
_cell_angle_gamma   58.88134492
_symmetry_Int_Tables_number   1
_chemical_formula_structural   ZrVCu
_chemical_formula_sum   'Zr4 V4 Cu4'
_cell_volume   195.41783752
_cell_formula_units_Z   4
loop_
 _symmetry_equiv_pos_site_id
 _symmetry_equiv_pos_as_xyz
  1  'x, y, z'
loop_
 _atom_site_type_symbol
 _atom_site_label
 _atom_site_symmetry_multiplicity
 _atom_site_fract_x
 _atom_site_fract_y
 _atom_site_fract_z
 _atom_site_occupancy
  Zr  Zr0  1  0.32834634  0.32833904  0.56516992  1
  Zr  Zr1  1  0.66447678  0.66450192  0.43878548  1
  Zr  Zr2  1  0.66447678  0.66450192  0.06121452  1
  Zr  Zr3  1  0.32834634  0.32833904  0.93483008  1
  V  V4  1  0.83538223  0.83537418  0.75000000  1
  V  V5  1  0.17633293  0.65355636  0.25000000  1
  V  V6  1  0.65357187  0.17631933  0.25000000  1
  V  V7  1  0.17731478  0.17730600  0.25000000  1
  Cu  Cu8  1  0.00021549  0.00021630  0.50293315  1
  Cu  Cu9  1  0.00021549  0.00021630  0.99706685  1
  Cu  Cu10  1  0.83219471  0.33912854  0.75000000  1
  Cu  Cu11  1  0.33912626  0.83220107  0.75000000  1
