# generated using pymatgen
data_Dy3Ni11Ge4
_symmetry_space_group_name_H-M   'P 1'
_cell_length_a   8.31703961
_cell_length_b   8.31703961
_cell_length_c   8.56488544
_cell_angle_alpha   90.00000000
_cell_angle_beta   90.00000000
_cell_angle_gamma   119.99999737
_symmetry_Int_Tables_number   1
_chemical_formula_structural   Dy3Ni11Ge4
_chemical_formula_sum   'Dy6 Ni22 Ge8'
_cell_volume   513.08549961
_cell_formula_units_Z   2
loop_
 _symmetry_equiv_pos_site_id
 _symmetry_equiv_pos_as_xyz
  1  'x, y, z'
loop_
 _atom_site_type_symbol
 _atom_site_label
 _atom_site_symmetry_multiplicity
 _atom_site_fract_x
 _atom_site_fract_y
 _atom_site_fract_z
 _atom_site_occupancy
  Dy  Dy0  1  0.80453383  0.19546617  0.75000000  1
  Dy  Dy1  1  0.19546617  0.80453383  0.25000000  1
  Dy  Dy2  1  0.39093234  0.19546617  0.75000000  1
  Dy  Dy3  1  0.60906766  0.80453383  0.25000000  1
  Dy  Dy4  1  0.80453383  0.60906766  0.75000000  1
  Dy  Dy5  1  0.19546617  0.39093234  0.25000000  1
  Ni  Ni6  1  0.84153744  0.15846256  0.40524591  1
  Ni  Ni7  1  0.15846256  0.84153744  0.59475409  1
  Ni  Ni8  1  0.31692511  0.15846256  0.40524591  1
  Ni  Ni9  1  0.15846256  0.84153744  0.90524591  1
  Ni  Ni10  1  0.68307489  0.84153744  0.59475409  1
  Ni  Ni11  1  0.84153744  0.15846256  0.09475409  1
  Ni  Ni12  1  0.84153744  0.68307489  0.40524591  1
  Ni  Ni13  1  0.68307489  0.84153744  0.90524591  1
  Ni  Ni14  1  0.15846256  0.31692511  0.59475409  1
  Ni  Ni15  1  0.31692511  0.15846256  0.09475409  1
  Ni  Ni16  1  0.15846256  0.31692511  0.90524591  1
  Ni  Ni17  1  0.84153744  0.68307489  0.09475409  1
  Ni  Ni18  1  0.43445866  0.56554134  0.75000000  1
  Ni  Ni19  1  0.56554134  0.43445866  0.25000000  1
  Ni  Ni20  1  0.13108268  0.56554134  0.75000000  1
  Ni  Ni21  1  0.86891732  0.43445866  0.25000000  1
  Ni  Ni22  1  0.43445866  0.86891732  0.75000000  1
  Ni  Ni23  1  0.56554134  0.13108268  0.25000000  1
  Ni  Ni24  1  0.66666700  0.33333300  0.00390431  1
  Ni  Ni25  1  0.33333300  0.66666700  0.99609569  1
  Ni  Ni26  1  0.33333300  0.66666700  0.50390431  1
  Ni  Ni27  1  0.66666700  0.33333300  0.49609569  1
  Ge  Ge28  1  0.50000000  0.50000000  0.00000000  1
  Ge  Ge29  1  -0.00000000  0.50000000  0.00000000  1
  Ge  Ge30  1  0.50000000  0.50000000  0.50000000  1
  Ge  Ge31  1  0.50000000  -0.00000000  0.00000000  1
  Ge  Ge32  1  -0.00000000  0.50000000  0.50000000  1
  Ge  Ge33  1  0.50000000  -0.00000000  0.50000000  1
  Ge  Ge34  1  -0.00000000  -0.00000000  0.75000000  1
  Ge  Ge35  1  -0.00000000  -0.00000000  0.25000000  1
