# generated using pymatgen
data_BaYbCuTe3
_symmetry_space_group_name_H-M   'P 1'
_cell_length_a   4.42784812
_cell_length_b   7.75071797
_cell_length_c   11.65004141
_cell_angle_alpha   90.00000000
_cell_angle_beta   90.00000000
_cell_angle_gamma   106.59717751
_symmetry_Int_Tables_number   1
_chemical_formula_structural   BaYbCuTe3
_chemical_formula_sum   'Ba2 Yb2 Cu2 Te6'
_cell_volume   383.16004439
_cell_formula_units_Z   2
loop_
 _symmetry_equiv_pos_site_id
 _symmetry_equiv_pos_as_xyz
  1  'x, y, z'
loop_
 _atom_site_type_symbol
 _atom_site_label
 _atom_site_symmetry_multiplicity
 _atom_site_fract_x
 _atom_site_fract_y
 _atom_site_fract_z
 _atom_site_occupancy
  Ba  Ba0  1  0.74813766  0.49627532  0.25000000  1
  Ba  Ba1  1  0.25186234  0.50372468  0.75000000  1
  Yb  Yb2  1  -0.00000000  -0.00000000  -0.00000000  1
  Yb  Yb3  1  -0.00000000  0.00000000  0.50000000  1
  Cu  Cu4  1  0.46509289  0.93018577  0.25000000  1
  Cu  Cu5  1  0.53490711  0.06981423  0.75000000  1
  Te  Te6  1  0.36028085  0.72056170  0.06478178  1
  Te  Te7  1  0.63971915  0.27943830  0.93521822  1
  Te  Te8  1  0.63971915  0.27943830  0.56478178  1
  Te  Te9  1  0.36028085  0.72056170  0.43521822  1
  Te  Te10  1  0.06488252  0.12976504  0.25000000  1
  Te  Te11  1  0.93511748  0.87023496  0.75000000  1
