# generated using pymatgen
data_CaB2H2O7
_symmetry_space_group_name_H-M   'P 1'
_cell_length_a   6.03710252
_cell_length_b   7.52788392
_cell_length_c   8.23800603
_cell_angle_alpha   65.24482764
_cell_angle_beta   54.64871708
_cell_angle_gamma   62.19979907
_symmetry_Int_Tables_number   1
_chemical_formula_structural   CaB2H2O7
_chemical_formula_sum   'Ca2 B4 H4 O14'
_cell_volume   264.30005734
_cell_formula_units_Z   2
loop_
 _symmetry_equiv_pos_site_id
 _symmetry_equiv_pos_as_xyz
  1  'x, y, z'
loop_
 _atom_site_type_symbol
 _atom_site_label
 _atom_site_symmetry_multiplicity
 _atom_site_fract_x
 _atom_site_fract_y
 _atom_site_fract_z
 _atom_site_occupancy
  Ca  Ca0  1  0.33575138  0.03038798  0.79471783  1
  Ca  Ca1  1  0.66424862  0.96961202  0.20528217  1
  B  B2  1  0.45096011  0.58597880  0.31813560  1
  B  B3  1  0.54903989  0.41402120  0.68186440  1
  B  B4  1  0.09724296  0.97456978  0.29988363  1
  B  B5  1  0.90275704  0.02543022  0.70011637  1
  H  H6  1  0.09877019  0.51540884  0.53776643  1
  H  H7  1  0.90122981  0.48459116  0.46223357  1
  H  H8  1  0.81491246  0.35256309  0.26081376  1
  H  H9  1  0.18508754  0.64743691  0.73918624  1
  O  O10  1  0.04843898  0.04404816  0.13359248  1
  O  O11  1  0.95156102  0.95595184  0.86640752  1
  O  O12  1  0.35736327  0.79538190  0.28524558  1
  O  O13  1  0.64263673  0.20461810  0.71475442  1
  O  O14  1  0.15774691  0.13975672  0.32074412  1
  O  O15  1  0.84225309  0.86024328  0.67925588  1
  O  O16  1  0.28191810  0.45607098  0.42899511  1
  O  O17  1  0.71808190  0.54392902  0.57100489  1
  O  O18  1  0.17446635  0.06318669  0.51660889  1
  O  O19  1  0.82553365  0.93681331  0.48339111  1
  O  O20  1  0.74084989  0.50253904  0.23228335  1
  O  O21  1  0.25915011  0.49746096  0.76771665  1
  O  O22  1  0.57277618  0.41024384  0.99304834  1
  O  O23  1  0.42722382  0.58975616  0.00695166  1
