# generated using pymatgen
data_Zr4WC5
_symmetry_space_group_name_H-M   'P 1'
_cell_length_a   3.29083522
_cell_length_b   3.29083522
_cell_length_c   13.50751205
_cell_angle_alpha   83.00314064
_cell_angle_beta   90.00000000
_cell_angle_gamma   120.00000000
_symmetry_Int_Tables_number   1
_chemical_formula_structural   Zr4WC5
_chemical_formula_sum   'Zr4 W1 C5'
_cell_volume   125.42349621
_cell_formula_units_Z   1
loop_
 _symmetry_equiv_pos_site_id
 _symmetry_equiv_pos_as_xyz
  1  'x, y, z'
loop_
 _atom_site_type_symbol
 _atom_site_label
 _atom_site_symmetry_multiplicity
 _atom_site_fract_x
 _atom_site_fract_y
 _atom_site_fract_z
 _atom_site_occupancy
  Zr  Zr0  1  0.90221796  0.80443592  0.29334611  1
  Zr  Zr1  1  0.50071228  0.00142456  0.49786316  1
  Zr  Zr2  1  0.09928772  0.19857544  0.70213684  1
  Zr  Zr3  1  0.69778204  0.39556408  0.90665389  1
  W  W4  1  0.30000000  0.60000000  0.10000000  1
  C  C5  1  0.39806363  0.79612727  0.80580910  1
  C  C6  1  0.20193637  0.40387273  0.39419090  1
  C  C7  1  0.80000000  0.60000000  0.60000000  1
  C  C8  1  0.99559730  0.99119460  0.01320810  1
  C  C9  1  0.60440270  0.20880540  0.18679190  1
