# generated using pymatgen
data_CaTi2O4
_symmetry_space_group_name_H-M   'P 1'
_cell_length_a   6.18558244
_cell_length_b   6.18364948
_cell_length_c   19.11474257
_cell_angle_alpha   60.94263961
_cell_angle_beta   60.92902365
_cell_angle_gamma   59.95411918
_symmetry_Int_Tables_number   1
_chemical_formula_structural   CaTi2O4
_chemical_formula_sum   'Ca6 Ti12 O24'
_cell_volume   523.99173060
_cell_formula_units_Z   6
loop_
 _symmetry_equiv_pos_site_id
 _symmetry_equiv_pos_as_xyz
  1  'x, y, z'
loop_
 _atom_site_type_symbol
 _atom_site_label
 _atom_site_symmetry_multiplicity
 _atom_site_fract_x
 _atom_site_fract_y
 _atom_site_fract_z
 _atom_site_occupancy
  Ca  Ca0  1  0.12567066  0.12572962  0.04095555  1
  Ca  Ca1  1  0.12715007  0.12716612  0.37284499  1
  Ca  Ca2  1  0.49564436  0.49584477  0.33765243  1
  Ca  Ca3  1  0.12822559  0.12655107  0.70565156  1
  Ca  Ca4  1  0.49927724  0.49940623  0.00068365  1
  Ca  Ca5  1  0.87611985  0.87573016  0.62404104  1
  Ti  Ti6  1  0.50739125  0.50742006  0.16504697  1
  Ti  Ti7  1  0.50759548  0.98957615  0.16509908  1
  Ti  Ti8  1  0.50368268  0.50362093  0.50186431  1
  Ti  Ti9  1  0.98994302  0.50746487  0.16507904  1
  Ti  Ti10  1  0.50387187  0.98706061  0.50173756  1
  Ti  Ti11  1  0.49722850  0.49708372  0.66933900  1
  Ti  Ti12  1  0.88023031  0.88035494  0.28639578  1
  Ti  Ti13  1  0.50267112  0.50176605  0.82943390  1
  Ti  Ti14  1  0.98710349  0.50364892  0.50185041  1
  Ti  Ti15  1  0.50156882  0.01045644  0.82882280  1
  Ti  Ti16  1  0.00756821  0.50184016  0.82927308  1
  Ti  Ti17  1  0.88309552  0.88214073  0.95052239  1
  O  O18  1  0.24960035  0.24952858  0.10012032  1
  O  O19  1  0.26752095  0.26736181  0.23255791  1
  O  O20  1  0.24969551  0.70060135  0.09999369  1
  O  O21  1  0.70047544  0.24958534  0.10008718  1
  O  O22  1  0.24076199  0.24098505  0.43906515  1
  O  O23  1  0.25298369  0.75691497  0.24448232  1
  O  O24  1  0.26509614  0.26496416  0.56829391  1
  O  O25  1  0.75673785  0.25300764  0.24451806  1
  O  O26  1  0.75898605  0.75876693  0.07440093  1
  O  O27  1  0.24101593  0.70099555  0.43902347  1
  O  O28  1  0.70101374  0.24107799  0.43904893  1
  O  O29  1  0.75666170  0.75689477  0.24450595  1
  O  O30  1  0.26772959  0.26991812  0.75383027  1
  O  O31  1  0.30333406  0.72531148  0.58207977  1
  O  O32  1  0.72498431  0.30316909  0.58229533  1
  O  O33  1  0.26936438  0.26922233  0.89718110  1
  O  O34  1  0.75333088  0.75337054  0.41327286  1
  O  O35  1  0.26960041  0.69894097  0.75399924  1
  O  O36  1  0.70057654  0.27024401  0.75377685  1
  O  O37  1  0.72518600  0.72538102  0.58209182  1
  O  O38  1  0.25637476  0.76387596  0.90486802  1
  O  O39  1  0.76482665  0.25564857  0.90495203  1
  O  O40  1  0.73489143  0.73753699  0.76444859  1
  O  O41  1  0.76521363  0.76383522  0.90480974  1
