# generated using pymatgen
data_YbGePd
_symmetry_space_group_name_H-M   'P 1'
_cell_length_a   4.50746376
_cell_length_b   5.70131442
_cell_length_c   5.57862897
_cell_angle_alpha   97.01082988
_cell_angle_beta   113.82809292
_cell_angle_gamma   66.71528933
_symmetry_Int_Tables_number   1
_chemical_formula_structural   YbGePd
_chemical_formula_sum   'Yb2 Ge2 Pd2'
_cell_volume   120.34004138
_cell_formula_units_Z   2
loop_
 _symmetry_equiv_pos_site_id
 _symmetry_equiv_pos_as_xyz
  1  'x, y, z'
loop_
 _atom_site_type_symbol
 _atom_site_label
 _atom_site_symmetry_multiplicity
 _atom_site_fract_x
 _atom_site_fract_y
 _atom_site_fract_z
 _atom_site_occupancy
  Yb  Yb0  1  0.74301676  0.80540708  0.29144060  1
  Yb  Yb1  1  0.25698324  0.19459292  0.70855940  1
  Ge  Ge2  1  0.55369046  0.60961915  0.71700007  1
  Ge  Ge3  1  0.44630954  0.39038085  0.28299993  1
  Pd  Pd4  1  0.06753744  0.75023036  0.88530524  1
  Pd  Pd5  1  0.93246256  0.24976964  0.11469476  1
