# generated using pymatgen
data_ZrTiNi
_symmetry_space_group_name_H-M   'P 1'
_cell_length_a   5.21438790
_cell_length_b   5.23088693
_cell_length_c   8.41077441
_cell_angle_alpha   90.00000000
_cell_angle_beta   90.00000000
_cell_angle_gamma   60.56404467
_symmetry_Int_Tables_number   1
_chemical_formula_structural   ZrTiNi
_chemical_formula_sum   'Zr4 Ti4 Ni4'
_cell_volume   199.79551004
_cell_formula_units_Z   4
loop_
 _symmetry_equiv_pos_site_id
 _symmetry_equiv_pos_as_xyz
  1  'x, y, z'
loop_
 _atom_site_type_symbol
 _atom_site_label
 _atom_site_symmetry_multiplicity
 _atom_site_fract_x
 _atom_site_fract_y
 _atom_site_fract_z
 _atom_site_occupancy
  Zr  Zr0  1  0.32205770  0.32134432  0.56947685  1
  Zr  Zr1  1  0.65472190  0.65531933  0.45800830  1
  Zr  Zr2  1  0.65472190  0.65531933  0.04199170  1
  Zr  Zr3  1  0.32205770  0.32134432  0.93052315  1
  Ti  Ti4  1  0.86076875  0.86061803  0.75000000  1
  Ti  Ti5  1  0.15724185  0.66173251  0.25000000  1
  Ti  Ti6  1  0.66241621  0.15611512  0.25000000  1
  Ti  Ti7  1  0.16766615  0.16986904  0.25000000  1
  Ni  Ni8  1  0.00070516  0.00091382  0.50122876  1
  Ni  Ni9  1  0.00070516  0.00091382  -0.00122876  1
  Ni  Ni10  1  0.84105962  0.35537542  0.75000000  1
  Ni  Ni11  1  0.35587790  0.84113494  0.75000000  1
