# generated using pymatgen
data_ZnCu4(WO4)5
_symmetry_space_group_name_H-M   'P 1'
_cell_length_a   4.75147810
_cell_length_b   19.52363833
_cell_length_c   7.57765419
_cell_angle_alpha   91.24548790
_cell_angle_beta   87.44502092
_cell_angle_gamma   83.67892059
_symmetry_Int_Tables_number   1
_chemical_formula_structural   ZnCu4(WO4)5
_chemical_formula_sum   'Zn2 Cu8 W10 O40'
_cell_volume   697.73027050
_cell_formula_units_Z   2
loop_
 _symmetry_equiv_pos_site_id
 _symmetry_equiv_pos_as_xyz
  1  'x, y, z'
loop_
 _atom_site_type_symbol
 _atom_site_label
 _atom_site_symmetry_multiplicity
 _atom_site_fract_x
 _atom_site_fract_y
 _atom_site_fract_z
 _atom_site_occupancy
  Zn  Zn0  1  0.48934886  0.21205551  0.89924497  1
  Zn  Zn1  1  0.48615420  0.41234626  0.49781088  1
  Cu  Cu2  1  0.50235353  0.61959830  0.10608114  1
  Cu  Cu3  1  0.50396820  0.81944617  0.70616189  1
  Cu  Cu4  1  0.50598409  0.01907053  0.30581097  1
  Cu  Cu5  1  0.49941003  0.18082858  0.29539571  1
  Cu  Cu6  1  0.49754920  0.38060139  0.89575664  1
  Cu  Cu7  1  0.49490346  0.57995423  0.49350433  1
  Cu  Cu8  1  0.49603245  0.78009169  0.09357638  1
  Cu  Cu9  1  0.49554159  0.97969311  0.69385969  1
  W  W10  1  0.99393886  0.31810758  0.19457180  1
  W  W11  1  0.98907630  0.51684075  0.79675266  1
  W  W12  1  0.99381727  0.71699881  0.39830846  1
  W  W13  1  0.99388986  0.91672926  0.99873879  1
  W  W14  1  0.99889527  0.11808328  0.59619192  1
  W  W15  1  0.01076402  0.08257239  0.00328517  1
  W  W16  1  0.00777433  0.28403358  0.60174055  1
  W  W17  1  0.00351416  0.48436249  0.20006386  1
  W  W18  1  0.00690356  0.68277505  0.80138879  1
  W  W19  1  0.00657536  0.88267963  0.40212657  1
  O  O20  1  0.78933361  0.21015091  0.69540453  1
  O  O21  1  0.78499489  0.41026863  0.29426323  1
  O  O22  1  0.78110160  0.61046070  0.89866799  1
  O  O23  1  0.78245966  0.81037183  0.49985582  1
  O  O24  1  0.78512870  0.01017039  0.09960615  1
  O  O25  1  0.22384857  0.19031144  0.49943261  1
  O  O26  1  0.21895325  0.39037101  0.09905752  1
  O  O27  1  0.21433322  0.58996623  0.69959984  1
  O  O28  1  0.21732546  0.79013001  0.30029802  1
  O  O29  1  0.21805923  0.98995959  0.89978080  1
  O  O30  1  0.74668769  0.31234085  0.01867844  1
  O  O31  1  0.74448587  0.51316412  0.61749829  1
  O  O32  1  0.75012668  0.71591474  0.21899977  1
  O  O33  1  0.74934056  0.91590223  0.81977330  1
  O  O34  1  0.75270419  0.11504161  0.42004513  1
  O  O35  1  0.25384139  0.08376015  0.18230877  1
  O  O36  1  0.24767207  0.28662684  0.78067615  1
  O  O37  1  0.24264694  0.48741618  0.37960561  1
  O  O38  1  0.25088233  0.68454378  0.98041348  1
  O  O39  1  0.25033080  0.88437115  0.58112149  1
  O  O40  1  0.22336305  0.13210034  0.83694578  1
  O  O41  1  0.22062006  0.33286480  0.43537388  1
  O  O42  1  0.21200300  0.53021791  0.03112012  1
  O  O43  1  0.21455719  0.72962647  0.63230772  1
  O  O44  1  0.21377556  0.92937254  0.23247334  1
  O  O45  1  0.78972681  0.27297296  0.36902292  1
  O  O46  1  0.78065044  0.47123048  0.96690485  1
  O  O47  1  0.78487175  0.67087696  0.56722779  1
  O  O48  1  0.78451909  0.87071891  0.16739796  1
  O  O49  1  0.79374725  0.07259240  0.76918920  1
  O  O50  1  0.26646818  0.24275968  0.14009858  1
  O  O51  1  0.26396755  0.44275729  0.73873926  1
  O  O52  1  0.26727383  0.64247942  0.33373547  1
  O  O53  1  0.26685892  0.84185910  0.93323017  1
  O  O54  1  0.27088795  0.04223503  0.53482680  1
  O  O55  1  0.73755173  0.15578631  0.07398728  1
  O  O56  1  0.73384984  0.35652920  0.67292287  1
  O  O57  1  0.72872873  0.55865958  0.26557967  1
  O  O58  1  0.73336464  0.75818382  0.86663322  1
  O  O59  1  0.73256311  0.95806584  0.46682501  1
