# generated using pymatgen
data_AlAs
_symmetry_space_group_name_H-M   'P 1'
_cell_length_a   7.02252996
_cell_length_b   7.02252996
_cell_length_c   7.02252996
_cell_angle_alpha   90.00000000
_cell_angle_beta   90.00000000
_cell_angle_gamma   90.00000000
_symmetry_Int_Tables_number   1
_chemical_formula_structural   AlAs
_chemical_formula_sum   'Al8 As8'
_cell_volume   346.32257514
_cell_formula_units_Z   8
loop_
 _symmetry_equiv_pos_site_id
 _symmetry_equiv_pos_as_xyz
  1  'x, y, z'
loop_
 _atom_site_type_symbol
 _atom_site_label
 _atom_site_symmetry_multiplicity
 _atom_site_fract_x
 _atom_site_fract_y
 _atom_site_fract_z
 _atom_site_occupancy
  Al  Al0  1  0.34149936  0.34149936  0.34149936  1
  Al  Al1  1  0.15850064  0.65850064  0.84149936  1
  Al  Al2  1  0.84149936  0.15850064  0.65850064  1
  Al  Al3  1  0.65850064  0.84149936  0.15850064  1
  Al  Al4  1  0.65850064  0.65850064  0.65850064  1
  Al  Al5  1  0.84149936  0.34149936  0.15850064  1
  Al  Al6  1  0.15850064  0.84149936  0.34149936  1
  Al  Al7  1  0.34149936  0.15850064  0.84149936  1
  As  As8  1  0.14120233  0.14120233  0.14120233  1
  As  As9  1  0.35879767  0.85879767  0.64120233  1
  As  As10  1  0.64120233  0.35879767  0.85879767  1
  As  As11  1  0.85879767  0.64120233  0.35879767  1
  As  As12  1  0.85879767  0.85879767  0.85879767  1
  As  As13  1  0.64120233  0.14120233  0.35879767  1
  As  As14  1  0.35879767  0.64120233  0.14120233  1
  As  As15  1  0.14120233  0.35879767  0.64120233  1
