# generated using pymatgen
data_U2MnCoSe6
_symmetry_space_group_name_H-M   'P 1'
_cell_length_a   3.89247045
_cell_length_b   6.12686512
_cell_length_c   9.29834871
_cell_angle_alpha   90.73026359
_cell_angle_beta   90.00000000
_cell_angle_gamma   71.47877356
_symmetry_Int_Tables_number   1
_chemical_formula_structural   U2MnCoSe6
_chemical_formula_sum   'U2 Mn1 Co1 Se6'
_cell_volume   210.24852332
_cell_formula_units_Z   1
loop_
 _symmetry_equiv_pos_site_id
 _symmetry_equiv_pos_as_xyz
  1  'x, y, z'
loop_
 _atom_site_type_symbol
 _atom_site_label
 _atom_site_symmetry_multiplicity
 _atom_site_fract_x
 _atom_site_fract_y
 _atom_site_fract_z
 _atom_site_occupancy
  U  U0  1  0.73354323  0.53291355  0.25497034  1
  U  U1  1  0.26645677  0.46708645  0.74502966  1
  Mn  Mn2  1  0.50000000  0.00000000  -0.00000000  1
  Co  Co3  1  0.50000000  0.00000000  0.50000000  1
  Se  Se4  1  0.14476357  0.71047286  0.05484949  1
  Se  Se5  1  0.85523643  0.28952714  0.94515051  1
  Se  Se6  1  0.13487899  0.73024202  0.45364596  1
  Se  Se7  1  0.86512101  0.26975798  0.54635404  1
  Se  Se8  1  0.41523815  0.16952370  0.26037324  1
  Se  Se9  1  0.58476185  0.83047630  0.73962676  1
