# generated using pymatgen
data_Y8MgCu7O20
_symmetry_space_group_name_H-M   'P 1'
_cell_length_a   3.53157294
_cell_length_b   10.90305881
_cell_length_c   12.64660933
_cell_angle_alpha   90.43689878
_cell_angle_beta   89.84473935
_cell_angle_gamma   89.74489904
_symmetry_Int_Tables_number   1
_chemical_formula_structural   Y8MgCu7O20
_chemical_formula_sum   'Y8 Mg1 Cu7 O20'
_cell_volume   486.93621156
_cell_formula_units_Z   1
loop_
 _symmetry_equiv_pos_site_id
 _symmetry_equiv_pos_as_xyz
  1  'x, y, z'
loop_
 _atom_site_type_symbol
 _atom_site_label
 _atom_site_symmetry_multiplicity
 _atom_site_fract_x
 _atom_site_fract_y
 _atom_site_fract_z
 _atom_site_occupancy
  Y  Y0  1  0.22409860  0.29298631  0.33572157  1
  Y  Y1  1  0.77843589  0.70850010  0.83668231  1
  Y  Y2  1  0.72005855  0.20948206  0.83475244  1
  Y  Y3  1  0.26805924  0.79153526  0.34061134  1
  Y  Y4  1  0.22296549  0.46031251  0.01107257  1
  Y  Y5  1  0.77965327  0.54071845  0.50912723  1
  Y  Y6  1  0.71903365  0.04152291  0.50883278  1
  Y  Y7  1  0.27254761  0.96031524  0.00637622  1
  Mg  Mg8  1  0.76208726  0.75070108  0.12510219  1
  Cu  Cu9  1  0.84262959  0.00985418  0.22355547  1
  Cu  Cu10  1  0.15869269  0.98653329  0.72422746  1
  Cu  Cu11  1  0.34048513  0.48683728  0.72560903  1
  Cu  Cu12  1  0.66242556  0.51568231  0.22639293  1
  Cu  Cu13  1  0.66184786  0.24030156  0.12040126  1
  Cu  Cu14  1  0.34230256  0.75886045  0.62083829  1
  Cu  Cu15  1  0.15672680  0.26024429  0.61922016  1
  O  O16  1  0.78259261  0.07121006  0.07888989  1
  O  O17  1  0.22364053  0.92479962  0.57239924  1
  O  O18  1  0.27786559  0.42525222  0.57469224  1
  O  O19  1  0.72725329  0.57578034  0.07635847  1
  O  O20  1  0.22925335  0.07734897  0.86230513  1
  O  O21  1  0.77271821  0.92876523  0.35981303  1
  O  O22  1  0.72942584  0.42385475  0.36354161  1
  O  O23  1  0.27281381  0.57628748  0.86489100  1
  O  O24  1  0.72695407  0.32517196  0.98175461  1
  O  O25  1  0.27531369  0.67173138  0.48407105  1
  O  O26  1  0.22168576  0.17310660  0.48011644  1
  O  O27  1  0.76944250  0.83133240  0.97868679  1
  O  O28  1  0.72567293  0.17821139  0.26861009  1
  O  O29  1  0.28038193  0.82167361  0.76885553  1
  O  O30  1  0.21681241  0.32190630  0.76907237  1
  O  O31  1  0.76878842  0.68070425  0.27765037  1
  O  O32  1  0.35217079  0.37827964  0.17354858  1
  O  O33  1  0.65205479  0.62160820  0.67382805  1
  O  O34  1  0.85257104  0.12278825  0.67182447  1
  O  O35  1  0.23053867  0.85580006  0.16576777  1
