# generated using pymatgen
data_TlMo6(SeS)4
_symmetry_space_group_name_H-M   'P 1'
_cell_length_a   6.84828795
_cell_length_b   6.82889798
_cell_length_c   6.79878556
_cell_angle_alpha   90.05175733
_cell_angle_beta   89.66230212
_cell_angle_gamma   88.61907090
_symmetry_Int_Tables_number   1
_chemical_formula_structural   TlMo6(SeS)4
_chemical_formula_sum   'Tl1 Mo6 Se4 S4'
_cell_volume   317.85573224
_cell_formula_units_Z   1
loop_
 _symmetry_equiv_pos_site_id
 _symmetry_equiv_pos_as_xyz
  1  'x, y, z'
loop_
 _atom_site_type_symbol
 _atom_site_label
 _atom_site_symmetry_multiplicity
 _atom_site_fract_x
 _atom_site_fract_y
 _atom_site_fract_z
 _atom_site_occupancy
  Tl  Tl0  1  0.99897820  0.00331647  0.99230862  1
  Mo  Mo1  1  0.58608045  0.76455802  0.44297971  1
  Mo  Mo2  1  0.75458912  0.43837431  0.58750063  1
  Mo  Mo3  1  0.43828706  0.58628623  0.76391156  1
  Mo  Mo4  1  0.41541314  0.23119640  0.56307672  1
  Mo  Mo5  1  0.24323237  0.56034062  0.41909466  1
  Mo  Mo6  1  0.55643759  0.41305360  0.23200260  1
  Se  Se7  1  0.88014429  0.60160391  0.25587166  1
  Se  Se8  1  0.39080806  0.74730866  0.12145590  1
  Se  Se9  1  0.74345878  0.11593061  0.38806593  1
  Se  Se10  1  0.11852718  0.39125513  0.74696289  1
  S  S11  1  0.74375650  0.75219229  0.75351328  1
  S  S12  1  0.25426321  0.24360047  0.25445996  1
  S  S13  1  0.59666684  0.27624281  0.87428976  1
  S  S14  1  0.27935722  0.87474048  0.60450612  1
