# generated using pymatgen
data_LaMgCr2O6
_symmetry_space_group_name_H-M   'P 1'
_cell_length_a   5.31745252
_cell_length_b   5.41851022
_cell_length_c   7.74920626
_cell_angle_alpha   90.00000000
_cell_angle_beta   89.72152614
_cell_angle_gamma   90.00000000
_symmetry_Int_Tables_number   1
_chemical_formula_structural   LaMgCr2O6
_chemical_formula_sum   'La2 Mg2 Cr4 O12'
_cell_volume   223.27269195
_cell_formula_units_Z   2
loop_
 _symmetry_equiv_pos_site_id
 _symmetry_equiv_pos_as_xyz
  1  'x, y, z'
loop_
 _atom_site_type_symbol
 _atom_site_label
 _atom_site_symmetry_multiplicity
 _atom_site_fract_x
 _atom_site_fract_y
 _atom_site_fract_z
 _atom_site_occupancy
  La  La0  1  0.00435740  0.96269552  0.75030328  1
  La  La1  1  0.50435740  0.53730448  0.25030328  1
  Mg  Mg2  1  0.48298683  0.44727478  0.75183482  1
  Mg  Mg3  1  0.98298683  0.05272522  0.25183482  1
  Cr  Cr4  1  0.49642029  0.00397494  0.50041991  1
  Cr  Cr5  1  0.99642029  0.49602506  0.00041991  1
  Cr  Cr6  1  0.49764149  0.00095024  0.00031954  1
  Cr  Cr7  1  0.99764149  0.49904976  0.50031954  1
  O  O8  1  0.07742052  0.44614375  0.24892095  1
  O  O9  1  0.21491975  0.22654662  0.94672244  1
  O  O10  1  0.22746908  0.21836258  0.55111049  1
  O  O11  1  0.30585814  0.69105931  0.94193639  1
  O  O12  1  0.31818390  0.70009942  0.55644248  1
  O  O13  1  0.37474060  0.97693952  0.25198872  1
  O  O14  1  0.57742052  0.05385625  0.74892095  1
  O  O15  1  0.71491975  0.27345338  0.44672244  1
  O  O16  1  0.72746908  0.28163742  0.05111049  1
  O  O17  1  0.80585814  0.80894069  0.44193639  1
  O  O18  1  0.81818390  0.79990058  0.05644248  1
  O  O19  1  0.87474060  0.52306048  0.75198872  1
