# generated using pymatgen
data_TiVAs2
_symmetry_space_group_name_H-M   'P 1'
_cell_length_a   3.52163813
_cell_length_b   3.52163847
_cell_length_c   6.25719169
_cell_angle_alpha   90.00225831
_cell_angle_beta   89.99760912
_cell_angle_gamma   120.01319599
_symmetry_Int_Tables_number   1
_chemical_formula_structural   TiVAs2
_chemical_formula_sum   'Ti1 V1 As2'
_cell_volume   67.19575283
_cell_formula_units_Z   1
loop_
 _symmetry_equiv_pos_site_id
 _symmetry_equiv_pos_as_xyz
  1  'x, y, z'
loop_
 _atom_site_type_symbol
 _atom_site_label
 _atom_site_symmetry_multiplicity
 _atom_site_fract_x
 _atom_site_fract_y
 _atom_site_fract_z
 _atom_site_occupancy
  Ti  Ti0  1  0.50000000  0.00000000  -0.00000000  1
  V  V1  1  0.50000000  0.00000000  0.50000000  1
  As  As2  1  0.83330297  0.66669689  0.25747252  1
  As  As3  1  0.16669703  0.33330311  0.74252748  1
