# generated using pymatgen
data_UMnAl
_symmetry_space_group_name_H-M   'P 1'
_cell_length_a   5.20346663
_cell_length_b   5.10204871
_cell_length_c   8.74508622
_cell_angle_alpha   90.00000000
_cell_angle_beta   90.00000000
_cell_angle_gamma   120.72744914
_symmetry_Int_Tables_number   1
_chemical_formula_structural   UMnAl
_chemical_formula_sum   'U4 Mn4 Al4'
_cell_volume   199.57296401
_cell_formula_units_Z   4
loop_
 _symmetry_equiv_pos_site_id
 _symmetry_equiv_pos_as_xyz
  1  'x, y, z'
loop_
 _atom_site_type_symbol
 _atom_site_label
 _atom_site_symmetry_multiplicity
 _atom_site_fract_x
 _atom_site_fract_y
 _atom_site_fract_z
 _atom_site_occupancy
  U  U0  1  0.65270861  0.30377275  0.52889697  1
  U  U1  1  0.34237890  0.68570615  0.43663681  1
  U  U2  1  0.34237890  0.68570615  0.06336319  1
  U  U3  1  0.65270861  0.30377275  0.97110303  1
  Mn  Mn4  1  0.84516033  0.18657176  0.25000000  1
  Mn  Mn5  1  0.34001580  0.18698962  0.25000000  1
  Mn  Mn6  1  0.99801595  0.99549999  0.50090451  1
  Mn  Mn7  1  0.99801595  0.99549999  0.99909549  1
  Al  Al8  1  0.16093693  0.32118035  0.75000000  1
  Al  Al9  1  0.15764436  0.82256806  0.75000000  1
  Al  Al10  1  0.66560138  0.82249875  0.75000000  1
  Al  Al11  1  0.84443427  0.69023368  0.25000000  1
