# generated using pymatgen
data_VFe4
_symmetry_space_group_name_H-M   'P 1'
_cell_length_a   2.47860959
_cell_length_b   2.47860959
_cell_length_c   10.16645108
_cell_angle_alpha   85.25898010
_cell_angle_beta   85.25898010
_cell_angle_gamma   108.78250397
_symmetry_Int_Tables_number   1
_chemical_formula_structural   VFe4
_chemical_formula_sum   'V1 Fe4'
_cell_volume   58.53282351
_cell_formula_units_Z   1
loop_
 _symmetry_equiv_pos_site_id
 _symmetry_equiv_pos_as_xyz
  1  'x, y, z'
loop_
 _atom_site_type_symbol
 _atom_site_label
 _atom_site_symmetry_multiplicity
 _atom_site_fract_x
 _atom_site_fract_y
 _atom_site_fract_z
 _atom_site_occupancy
  V  V0  1  -0.00000000  -0.00000000  0.00000000  1
  Fe  Fe1  1  0.39922807  0.39922807  0.20154387  1
  Fe  Fe2  1  0.80024202  0.80024202  0.39951596  1
  Fe  Fe3  1  0.19975798  0.19975798  0.60048404  1
  Fe  Fe4  1  0.60077193  0.60077193  0.79845613  1
