# generated using pymatgen
data_Y(FeO2)3
_symmetry_space_group_name_H-M   'P 1'
_cell_length_a   18.59871169
_cell_length_b   6.27712543
_cell_length_c   6.27712548
_cell_angle_alpha   59.87360999
_cell_angle_beta   59.72874733
_cell_angle_gamma   59.72873496
_symmetry_Int_Tables_number   1
_chemical_formula_structural   Y(FeO2)3
_chemical_formula_sum   'Y4 Fe12 O24'
_cell_volume   515.56508411
_cell_formula_units_Z   4
loop_
 _symmetry_equiv_pos_site_id
 _symmetry_equiv_pos_as_xyz
  1  'x, y, z'
loop_
 _atom_site_type_symbol
 _atom_site_label
 _atom_site_symmetry_multiplicity
 _atom_site_fract_x
 _atom_site_fract_y
 _atom_site_fract_z
 _atom_site_occupancy
  Y  Y0  1  0.22665558  0.60634434  0.60634434  1
  Y  Y1  1  0.53614841  0.62976355  0.62976355  1
  Y  Y2  1  0.10667742  0.39365566  0.39365566  1
  Y  Y3  1  0.79718459  0.37023645  0.37023645  1
  Fe  Fe4  1  -0.00010450  0.50899503  0.99635515  1
  Fe  Fe5  1  0.33343750  0.49100497  0.00364485  1
  Fe  Fe6  1  0.66666700  0.50000000  0.00000000  1
  Fe  Fe7  1  0.99939929  0.99834176  0.99834176  1
  Fe  Fe8  1  0.33393371  0.00165824  0.00165824  1
  Fe  Fe9  1  0.66666700  0.00000000  0.00000000  1
  Fe  Fe10  1  0.16666700  0.00000000  0.00000000  1
  Fe  Fe11  1  0.49308313  0.00595108  0.00595108  1
  Fe  Fe12  1  0.84024987  0.99404892  0.99404892  1
  Fe  Fe13  1  -0.00010450  0.99635515  0.50899503  1
  Fe  Fe14  1  0.33343750  0.00364485  0.49100497  1
  Fe  Fe15  1  0.66666700  0.00000000  0.50000000  1
  O  O16  1  0.08167431  0.75050193  0.75050193  1
  O  O17  1  0.39603929  0.76981627  0.76981627  1
  O  O18  1  0.72709549  0.77343412  0.77343412  1
  O  O19  1  0.08007418  0.22945378  0.80269597  1
  O  O20  1  0.40280537  0.24149948  0.80731419  1
  O  O21  1  0.74824241  0.23335439  0.79113138  1
  O  O22  1  0.08007418  0.80269597  0.22945378  1
  O  O23  1  0.40280537  0.80731419  0.24149948  1
  O  O24  1  0.74824241  0.79113138  0.23335439  1
  O  O25  1  0.08131459  0.22763813  0.22763813  1
  O  O26  1  0.40460198  0.23846896  0.23846896  1
  O  O27  1  0.74892088  0.23190318  0.23190318  1
  O  O28  1  0.25325982  0.77054622  0.19730403  1
  O  O29  1  0.58509059  0.76664561  0.20886862  1
  O  O30  1  0.93052763  0.75850052  0.19268581  1
  O  O31  1  0.25165969  0.24949807  0.24949807  1
  O  O32  1  0.60623751  0.22656588  0.22656588  1
  O  O33  1  0.93729371  0.23018373  0.23018373  1
  O  O34  1  0.25325982  0.19730403  0.77054622  1
  O  O35  1  0.58509059  0.20886862  0.76664561  1
  O  O36  1  0.93052763  0.19268581  0.75850052  1
  O  O37  1  0.25201941  0.77236187  0.77236187  1
  O  O38  1  0.58441212  0.76809682  0.76809682  1
  O  O39  1  0.92873102  0.76153104  0.76153104  1
