# generated using pymatgen
data_Tb2F15
_symmetry_space_group_name_H-M   'P 1'
_cell_length_a   8.55616908
_cell_length_b   8.55616908
_cell_length_c   8.56445918
_cell_angle_alpha   105.17947466
_cell_angle_beta   105.17947466
_cell_angle_gamma   88.37707280
_symmetry_Int_Tables_number   1
_chemical_formula_structural   Tb2F15
_chemical_formula_sum   'Tb4 F30'
_cell_volume   583.45442879
_cell_formula_units_Z   2
loop_
 _symmetry_equiv_pos_site_id
 _symmetry_equiv_pos_as_xyz
  1  'x, y, z'
loop_
 _atom_site_type_symbol
 _atom_site_label
 _atom_site_symmetry_multiplicity
 _atom_site_fract_x
 _atom_site_fract_y
 _atom_site_fract_z
 _atom_site_occupancy
  Tb  Tb0  1  0.23730465  0.26269535  0.25000000  1
  Tb  Tb1  1  0.76269535  0.73730465  0.75000000  1
  Tb  Tb2  1  0.67478107  0.82521893  0.25000000  1
  Tb  Tb3  1  0.32521893  0.17478107  0.75000000  1
  F  F4  1  0.93311823  0.56688177  0.25000000  1
  F  F5  1  0.57323573  0.26659641  0.91577658  1
  F  F6  1  0.23340359  0.92676427  0.58422342  1
  F  F7  1  0.42676427  0.73340359  0.08422342  1
  F  F8  1  0.76659641  0.07323573  0.41577658  1
  F  F9  1  0.06688177  0.43311823  0.75000000  1
  F  F10  1  0.02575435  0.81554452  0.78588648  1
  F  F11  1  0.72396264  0.80502442  0.00565272  1
  F  F12  1  0.78539181  0.01670517  0.81391401  1
  F  F13  1  0.51670517  0.28539181  0.31391401  1
  F  F14  1  0.30502442  0.22396264  0.50565272  1
  F  F15  1  0.31554452  0.52575435  0.28588648  1
  F  F16  1  0.97424565  0.18445548  0.21411352  1
  F  F17  1  0.27603736  0.19497558  0.99434728  1
  F  F18  1  0.21460819  0.98329483  0.18608599  1
  F  F19  1  0.48329483  0.71460819  0.68608599  1
  F  F20  1  0.69497558  0.77603736  0.49434728  1
  F  F21  1  0.68445548  0.47424565  0.71411352  1
  F  F22  1  0.30028825  0.45074007  0.82002203  1
  F  F23  1  0.40450610  0.88118860  0.29508418  1
  F  F24  1  0.82491512  0.49817457  0.57608006  1
  F  F25  1  0.99817457  0.32491512  0.07608006  1
  F  F26  1  0.38118860  0.90450610  0.79508418  1
  F  F27  1  0.95074007  0.80028825  0.32002203  1
  F  F28  1  0.69971175  0.54925993  0.17997797  1
  F  F29  1  0.59549390  0.11881140  0.70491582  1
  F  F30  1  0.17508488  0.50182543  0.42391994  1
  F  F31  1  0.00182543  0.67508488  0.92391994  1
  F  F32  1  0.61881140  0.09549390  0.20491582  1
  F  F33  1  0.04925993  0.19971175  0.67997797  1
