# generated using pymatgen
data_TbZnAgAs2
_symmetry_space_group_name_H-M   'P 1'
_cell_length_a   4.26512224
_cell_length_b   4.26514722
_cell_length_c   6.89136939
_cell_angle_alpha   89.99864535
_cell_angle_beta   89.99876707
_cell_angle_gamma   59.99983923
_symmetry_Int_Tables_number   1
_chemical_formula_structural   TbZnAgAs2
_chemical_formula_sum   'Tb1 Zn1 Ag1 As2'
_cell_volume   108.56778240
_cell_formula_units_Z   1
loop_
 _symmetry_equiv_pos_site_id
 _symmetry_equiv_pos_as_xyz
  1  'x, y, z'
loop_
 _atom_site_type_symbol
 _atom_site_label
 _atom_site_symmetry_multiplicity
 _atom_site_fract_x
 _atom_site_fract_y
 _atom_site_fract_z
 _atom_site_occupancy
  Tb  Tb0  1  0.00000106  0.00000026  0.98412070  1
  Zn  Zn1  1  0.33332972  0.33333115  0.37656233  1
  Ag  Ag2  1  0.66666224  0.66666742  0.63358501  1
  As  As3  1  0.66666417  0.66666072  0.24032333  1
  As  As4  1  0.33334281  0.33334045  0.76540862  1
