# generated using pymatgen
data_TbIn7Cu5
_symmetry_space_group_name_H-M   'P 1'
_cell_length_a   5.64066608
_cell_length_b   7.26591130
_cell_length_c   7.26591130
_cell_angle_alpha   98.72350467
_cell_angle_beta   112.84002766
_cell_angle_gamma   67.15997234
_symmetry_Int_Tables_number   1
_chemical_formula_structural   TbIn7Cu5
_chemical_formula_sum   'Tb1 In7 Cu5'
_cell_volume   252.92272804
_cell_formula_units_Z   1
loop_
 _symmetry_equiv_pos_site_id
 _symmetry_equiv_pos_as_xyz
  1  'x, y, z'
loop_
 _atom_site_type_symbol
 _atom_site_label
 _atom_site_symmetry_multiplicity
 _atom_site_fract_x
 _atom_site_fract_y
 _atom_site_fract_z
 _atom_site_occupancy
  Tb  Tb0  1  0.00145328  0.99854672  0.00145328  1
  In  In1  1  0.65805628  0.34194372  0.65805628  1
  In  In2  1  0.33410559  0.66589441  0.33410559  1
  In  In3  1  0.98865579  0.35184304  0.32915461  1
  In  In4  1  0.98865579  0.67084539  0.64815696  1
  In  In5  1  0.27581161  0.22418839  0.77581161  1
  In  In6  1  0.51175597  0.78679833  0.81031026  1
  In  In7  1  0.51175597  0.18968974  0.21320167  1
  Cu  Cu8  1  0.50023963  0.99322272  0.49659250  1
  Cu  Cu9  1  0.00313015  0.99322272  0.49659250  1
  Cu  Cu10  1  0.50023963  0.50340750  0.00677728  1
  Cu  Cu11  1  0.00313015  0.50340750  0.00677728  1
  Cu  Cu12  1  0.72301017  0.77698983  0.22301017  1
