# generated using pymatgen
data_ThPbI6
_symmetry_space_group_name_H-M   'P 1'
_cell_length_a   4.47130299
_cell_length_b   7.78032892
_cell_length_c   10.10694755
_cell_angle_alpha   90.00000000
_cell_angle_beta   90.00000000
_cell_angle_gamma   73.30083385
_symmetry_Int_Tables_number   1
_chemical_formula_structural   ThPbI6
_chemical_formula_sum   'Th1 Pb1 I6'
_cell_volume   336.77434327
_cell_formula_units_Z   1
loop_
 _symmetry_equiv_pos_site_id
 _symmetry_equiv_pos_as_xyz
  1  'x, y, z'
loop_
 _atom_site_type_symbol
 _atom_site_label
 _atom_site_symmetry_multiplicity
 _atom_site_fract_x
 _atom_site_fract_y
 _atom_site_fract_z
 _atom_site_occupancy
  Th  Th0  1  0.23807534  0.52384933  0.75000000  1
  Pb  Pb1  1  0.76413061  0.47173878  0.25000000  1
  I  I2  1  0.15075822  0.69848357  0.04534461  1
  I  I3  1  0.84667588  0.30664825  0.92435284  1
  I  I4  1  0.15075822  0.69848357  0.45465539  1
  I  I5  1  0.84667588  0.30664825  0.57564716  1
  I  I6  1  0.41361740  0.17276521  0.25000000  1
  I  I7  1  0.58720847  0.82558306  0.75000000  1
