# generated using pymatgen
data_SrSmScO4
_symmetry_space_group_name_H-M   'P 1'
_cell_length_a   5.70099805
_cell_length_b   5.88180885
_cell_length_c   6.77474864
_cell_angle_alpha   90.00000000
_cell_angle_beta   65.11783813
_cell_angle_gamma   90.00000000
_symmetry_Int_Tables_number   1
_chemical_formula_structural   SrSmScO4
_chemical_formula_sum   'Sr2 Sm2 Sc2 O8'
_cell_volume   206.08485849
_cell_formula_units_Z   2
loop_
 _symmetry_equiv_pos_site_id
 _symmetry_equiv_pos_as_xyz
  1  'x, y, z'
loop_
 _atom_site_type_symbol
 _atom_site_label
 _atom_site_symmetry_multiplicity
 _atom_site_fract_x
 _atom_site_fract_y
 _atom_site_fract_z
 _atom_site_occupancy
  Sr  Sr0  1  0.14563451  0.51152465  0.70873099  1
  Sr  Sr1  1  0.35436549  0.01152465  0.29126901  1
  Sm  Sm2  1  0.85599833  0.49053490  0.28800334  1
  Sm  Sm3  1  0.64400167  0.99053490  0.71199666  1
  Sc  Sc4  1  0.49601393  0.49449117  0.00797215  1
  Sc  Sc5  1  0.00398607  0.99449117  0.99202785  1
  O  O6  1  0.16631598  0.92831143  0.66736804  1
  O  O7  1  0.81743084  0.10510738  0.36513833  1
  O  O8  1  0.33368402  0.42831143  0.33263196  1
  O  O9  1  0.68256916  0.60510738  0.63486167  1
  O  O10  1  0.21216165  0.73501524  0.05655560  1
  O  O11  1  0.28783835  0.23501524  0.94344440  1
  O  O12  1  0.76871725  0.23501524  0.94344440  1
  O  O13  1  0.73128275  0.73501524  0.05655560  1
