# generated using pymatgen
data_Sr2GdGaO5
_symmetry_space_group_name_H-M   'P 1'
_cell_length_a   6.77167950
_cell_length_b   6.77167950
_cell_length_c   7.41621105
_cell_angle_alpha   63.02324065
_cell_angle_beta   63.02324065
_cell_angle_gamma   90.36604609
_symmetry_Int_Tables_number   1
_chemical_formula_structural   Sr2GdGaO5
_chemical_formula_sum   'Sr4 Gd2 Ga2 O10'
_cell_volume   260.27886014
_cell_formula_units_Z   2
loop_
 _symmetry_equiv_pos_site_id
 _symmetry_equiv_pos_as_xyz
  1  'x, y, z'
loop_
 _atom_site_type_symbol
 _atom_site_label
 _atom_site_symmetry_multiplicity
 _atom_site_fract_x
 _atom_site_fract_y
 _atom_site_fract_z
 _atom_site_occupancy
  Sr  Sr0  1  0.25000000  0.25000000  0.50000000  1
  Sr  Sr1  1  0.75000000  0.75000000  0.50000000  1
  Sr  Sr2  1  0.82604732  0.67395268  -0.00000000  1
  Sr  Sr3  1  0.17395268  0.32604732  -0.00000000  1
  Gd  Gd4  1  0.68086563  0.18086563  -0.00000000  1
  Gd  Gd5  1  0.31913437  0.81913437  -0.00000000  1
  Ga  Ga6  1  0.75328586  0.25328586  0.49342828  1
  Ga  Ga7  1  0.24671414  0.74671414  0.50657172  1
  O  O8  1  0.21764789  0.99822579  0.28412631  1
  O  O9  1  0.49822579  0.71764789  0.28412631  1
  O  O10  1  0.00991882  0.50991882  0.28421601  1
  O  O11  1  0.70586518  0.20586518  0.28421601  1
  O  O12  1  0.78235211  0.00177421  0.71587369  1
  O  O13  1  0.50177421  0.28235211  0.71587369  1
  O  O14  1  0.99008118  0.49008118  0.71578399  1
  O  O15  1  0.29413482  0.79413482  0.71578399  1
  O  O16  1  0.50000000  0.50000000  -0.00000000  1
  O  O17  1  0.00000000  0.00000000  -0.00000000  1
