# generated using pymatgen
data_Sr2Al3Ge
_symmetry_space_group_name_H-M   'P 1'
_cell_length_a   4.41913262
_cell_length_b   4.42063227
_cell_length_c   9.62848624
_cell_angle_alpha   90.00000000
_cell_angle_beta   90.00000000
_cell_angle_gamma   120.03733333
_symmetry_Int_Tables_number   1
_chemical_formula_structural   Sr2Al3Ge
_chemical_formula_sum   'Sr2 Al3 Ge1'
_cell_volume   162.83455381
_cell_formula_units_Z   1
loop_
 _symmetry_equiv_pos_site_id
 _symmetry_equiv_pos_as_xyz
  1  'x, y, z'
loop_
 _atom_site_type_symbol
 _atom_site_label
 _atom_site_symmetry_multiplicity
 _atom_site_fract_x
 _atom_site_fract_y
 _atom_site_fract_z
 _atom_site_occupancy
  Sr  Sr0  1  0.99998817  0.00001846  0.99832793  1
  Sr  Sr1  1  0.99998817  0.00001846  0.50167207  1
  Al  Al2  1  0.33344523  0.66668930  0.75000000  1
  Al  Al3  1  0.66662289  0.33337537  0.25000000  1
  Al  Al4  1  0.66648253  0.33331556  0.75000000  1
  Ge  Ge5  1  0.33327302  0.66658285  0.25000000  1
