# generated using pymatgen
data_MgFeF4
_symmetry_space_group_name_H-M   'P 1'
_cell_length_a   5.06645670
_cell_length_b   5.04502321
_cell_length_c   6.23387946
_cell_angle_alpha   113.65661095
_cell_angle_beta   113.93313944
_cell_angle_gamma   89.92883025
_symmetry_Int_Tables_number   1
_chemical_formula_structural   MgFeF4
_chemical_formula_sum   'Mg2 Fe2 F8'
_cell_volume   130.89495952
_cell_formula_units_Z   2
loop_
 _symmetry_equiv_pos_site_id
 _symmetry_equiv_pos_as_xyz
  1  'x, y, z'
loop_
 _atom_site_type_symbol
 _atom_site_label
 _atom_site_symmetry_multiplicity
 _atom_site_fract_x
 _atom_site_fract_y
 _atom_site_fract_z
 _atom_site_occupancy
  Mg  Mg0  1  0.25225531  0.24914044  0.49898727  1
  Mg  Mg1  1  0.75115371  0.74851920  0.49899532  1
  Fe  Fe2  1  0.00035036  0.50075220  0.00068652  1
  Fe  Fe3  1  0.49940131  0.99776703  0.99794210  1
  F  F4  1  0.90736974  0.39626204  0.26171405  1
  F  F5  1  0.65216880  0.13842433  0.73855250  1
  F  F6  1  0.09578636  0.60508901  0.74145285  1
  F  F7  1  0.15021656  0.10161942  0.73533511  1
  F  F8  1  0.35476780  0.85945653  0.26296492  1
  F  F9  1  0.40633398  0.35781901  0.25899846  1
  F  F10  1  0.85244011  0.89404428  0.25748503  1
  F  F11  1  0.59281497  0.63723553  0.73614286  1
