# generated using pymatgen
data_Sr3Nd4O9
_symmetry_space_group_name_H-M   'P 1'
_cell_length_a   6.88516559
_cell_length_b   6.88516559
_cell_length_c   12.49719985
_cell_angle_alpha   80.80591959
_cell_angle_beta   81.72110682
_cell_angle_gamma   116.65571333
_symmetry_Int_Tables_number   1
_chemical_formula_structural   Sr3Nd4O9
_chemical_formula_sum   'Sr6 Nd8 O18'
_cell_volume   506.81046719
_cell_formula_units_Z   2
loop_
 _symmetry_equiv_pos_site_id
 _symmetry_equiv_pos_as_xyz
  1  'x, y, z'
loop_
 _atom_site_type_symbol
 _atom_site_label
 _atom_site_symmetry_multiplicity
 _atom_site_fract_x
 _atom_site_fract_y
 _atom_site_fract_z
 _atom_site_occupancy
  Sr  Sr0  1  0.63313788  0.76205964  0.38138995  1
  Sr  Sr1  1  0.35655042  0.98547217  0.88138995  1
  Sr  Sr2  1  0.03827463  0.61895069  0.72670986  1
  Sr  Sr3  1  0.15433946  0.23501552  0.22670986  1
  Sr  Sr4  1  0.16018508  0.16517284  0.50043501  1
  Sr  Sr5  1  0.83439215  0.33937991  0.00043501  1
  Nd  Nd6  1  0.58863470  0.06061738  0.58559076  1
  Nd  Nd7  1  0.85379185  0.82577453  0.08559076  1
  Nd  Nd8  1  0.91164081  0.03930077  0.79130371  1
  Nd  Nd9  1  0.66939552  0.29705547  0.29130371  1
  Nd  Nd10  1  0.03876167  0.61273350  0.44936890  1
  Nd  Nd11  1  0.43789759  0.51186943  0.94936890  1
  Nd  Nd12  1  0.32912146  0.82521158  0.16837798  1
  Nd  Nd13  1  0.50641044  0.50250056  0.66837798  1
  O  O14  1  0.94184486  0.75591243  0.90661808  1
  O  O15  1  0.83746949  0.15153706  0.40661808  1
  O  O16  1  0.13535529  0.35384257  0.84848123  1
  O  O17  1  0.29767620  0.01616348  0.34848123  1
  O  O18  1  0.16281424  0.53704326  0.07913309  1
  O  O19  1  0.88382366  0.75805267  0.57913309  1
  O  O20  1  0.36249556  0.70418195  0.55780909  1
  O  O21  1  0.23800895  0.07969534  0.05780909  1
  O  O22  1  0.62103099  0.38412352  0.82425843  1
  O  O23  1  0.29161805  0.55471058  0.32425843  1
  O  O24  1  0.54207165  0.80616920  0.76581079  1
  O  O25  1  0.92802001  0.69211757  0.26581079  1
  O  O26  1  0.63011561  0.91997255  0.97999880  1
  O  O27  1  0.60002864  0.38988559  0.47999880  1
  O  O28  1  0.92763970  0.28485838  0.62321862  1
  O  O29  1  0.59192300  0.44914168  0.12321862  1
  O  O30  1  0.27246237  0.08783623  0.68849569  1
  O  O31  1  0.72366808  0.03904193  0.18849569  1
