# generated using pymatgen
data_Sr2EuFeO5
_symmetry_space_group_name_H-M   'P 1'
_cell_length_a   6.83904525
_cell_length_b   6.83904525
_cell_length_c   7.50638641
_cell_angle_alpha   63.00850153
_cell_angle_beta   63.00850153
_cell_angle_gamma   90.21256849
_symmetry_Int_Tables_number   1
_chemical_formula_structural   Sr2EuFeO5
_chemical_formula_sum   'Sr4 Eu2 Fe2 O10'
_cell_volume   268.87450716
_cell_formula_units_Z   2
loop_
 _symmetry_equiv_pos_site_id
 _symmetry_equiv_pos_as_xyz
  1  'x, y, z'
loop_
 _atom_site_type_symbol
 _atom_site_label
 _atom_site_symmetry_multiplicity
 _atom_site_fract_x
 _atom_site_fract_y
 _atom_site_fract_z
 _atom_site_occupancy
  Sr  Sr0  1  0.25000000  0.25000000  0.50000000  1
  Sr  Sr1  1  0.75000000  0.75000000  0.50000000  1
  Sr  Sr2  1  0.32688469  0.82688469  0.00000000  1
  Sr  Sr3  1  0.67311531  0.17311531  1.00000000  1
  Eu  Eu4  1  0.18009628  0.31990372  0.00000000  1
  Eu  Eu5  1  0.81990372  0.68009628  0.00000000  1
  Fe  Fe6  1  0.25182631  0.75182631  0.49634738  1
  Fe  Fe7  1  0.74817369  0.24817369  0.50365262  1
  O  O8  1  0.00079107  0.50079107  0.28600834  1
  O  O9  1  0.71320058  0.21320058  0.28600834  1
  O  O10  1  0.20646417  0.00790246  0.28563337  1
  O  O11  1  0.50790246  0.70646417  0.28563337  1
  O  O12  1  0.99920893  0.49920893  0.71399166  1
  O  O13  1  0.28679942  0.78679942  0.71399166  1
  O  O14  1  0.79353583  0.99209754  0.71436663  1
  O  O15  1  0.49209754  0.29353583  0.71436663  1
  O  O16  1  0.50000000  0.50000000  0.00000000  1
  O  O17  1  -0.00000000  -0.00000000  0.00000000  1
