# generated using pymatgen
data_Tl32Si8O37
_symmetry_space_group_name_H-M   'P 1'
_cell_length_a   9.95895220
_cell_length_b   12.91584969
_cell_length_c   13.94837703
_cell_angle_alpha   74.51955247
_cell_angle_beta   91.03998096
_cell_angle_gamma   74.26203340
_symmetry_Int_Tables_number   1
_chemical_formula_structural   Tl32Si8O37
_chemical_formula_sum   'Tl32 Si8 O37'
_cell_volume   1656.30053941
_cell_formula_units_Z   1
loop_
 _symmetry_equiv_pos_site_id
 _symmetry_equiv_pos_as_xyz
  1  'x, y, z'
loop_
 _atom_site_type_symbol
 _atom_site_label
 _atom_site_symmetry_multiplicity
 _atom_site_fract_x
 _atom_site_fract_y
 _atom_site_fract_z
 _atom_site_occupancy
  Tl  Tl0  1  0.56543828  0.82256049  0.66953341  1
  Tl  Tl1  1  0.73346306  0.59497717  0.37979277  1
  Tl  Tl2  1  0.31390936  0.08629583  0.91491446  1
  Tl  Tl3  1  0.03809525  0.31412617  0.17118719  1
  Tl  Tl4  1  0.36914191  0.29323095  0.53507557  1
  Tl  Tl5  1  0.52860675  0.10397390  0.21243844  1
  Tl  Tl6  1  0.04537073  0.56723031  0.73839237  1
  Tl  Tl7  1  0.78960002  0.80616450  0.98617152  1
  Tl  Tl8  1  0.89735892  0.84887891  0.72238478  1
  Tl  Tl9  1  0.09830693  0.58912736  0.49609948  1
  Tl  Tl10  1  0.67537746  0.07301228  0.99795076  1
  Tl  Tl11  1  0.34721154  0.36514024  0.26043987  1
  Tl  Tl12  1  0.20463729  0.05157041  0.15661520  1
  Tl  Tl13  1  0.45460684  0.81641107  0.90217586  1
  Tl  Tl14  1  0.99486612  0.34097468  0.42519209  1
  Tl  Tl15  1  0.71383274  0.52431000  0.66595579  1
  Tl  Tl16  1  0.47252665  0.85825176  0.39708989  1
  Tl  Tl17  1  0.68396019  0.55926478  0.13862528  1
  Tl  Tl18  1  0.23047647  0.05278839  0.64692430  1
  Tl  Tl19  1  0.98045004  0.30725030  0.91207566  1
  Tl  Tl20  1  0.64021172  0.08227984  0.49619816  1
  Tl  Tl21  1  0.83225381  0.83083416  0.24049660  1
  Tl  Tl22  1  0.41520810  0.32221155  0.78296438  1
  Tl  Tl23  1  0.09716434  0.56318649  0.00342248  1
  Tl  Tl24  1  0.18456909  0.82570091  0.56206422  1
  Tl  Tl25  1  0.34851326  0.64684446  0.32498570  1
  Tl  Tl26  1  0.98750444  0.02701714  0.83706188  1
  Tl  Tl27  1  0.65009137  0.35188602  0.98325169  1
  Tl  Tl28  1  0.94997489  0.04848305  0.35867580  1
  Tl  Tl29  1  0.15683227  0.79956506  0.06791296  1
  Tl  Tl30  1  0.79568783  0.23057360  0.63872826  1
  Tl  Tl31  1  0.38976500  0.58308773  0.85491993  1
  Si  Si32  1  0.81166217  0.81225961  0.49103852  1
  Si  Si33  1  0.04371251  0.58413499  0.24222570  1
  Si  Si34  1  0.60672481  0.06159204  0.77178837  1
  Si  Si35  1  0.32152151  0.32936465  0.01668192  1
  Si  Si36  1  0.26739315  0.10995833  0.40312373  1
  Si  Si37  1  0.48069173  0.84460582  0.14883210  1
  Si  Si38  1  0.07140596  0.33224789  0.67614082  1
  Si  Si39  1  0.75760498  0.59817579  0.89850464  1
  O  O40  1  0.79789388  0.75091510  0.60825350  1
  O  O41  1  0.10363389  0.50687051  0.35695270  1
  O  O42  1  0.55898415  0.98842809  0.87579292  1
  O  O43  1  0.30069146  0.25330054  0.12822844  1
  O  O44  1  0.18254989  0.23982690  0.33725559  1
  O  O45  1  0.44850429  0.98274486  0.10701970  1
  O  O46  1  0.97066243  0.46074835  0.61986659  1
  O  O47  1  0.69894212  0.73524575  0.84309901  1
  O  O48  1  0.38310981  0.11441438  0.48702915  1
  O  O49  1  0.56422454  0.79817881  0.26338231  1
  O  O50  1  0.19114710  0.34792675  0.75219528  1
  O  O51  1  0.86550866  0.58517930  0.99772811  1
  O  O52  1  0.65313905  0.90348101  0.43980654  1
  O  O53  1  0.87166234  0.63061914  0.22771911  1
  O  O54  1  0.47239313  0.17584589  0.72058804  1
  O  O55  1  0.16050520  0.40802501  0.96123466  1
  O  O56  1  0.32327081  0.77340004  0.43097730  1
  O  O57  1  0.15888967  0.71299292  0.95619974  1
  O  O58  1  0.97936537  0.04585398  0.68824252  1
  O  O59  1  0.53983266  0.42191936  0.80058003  1
  O  O60  1  0.64814056  0.99057165  0.68913436  1
  O  O61  1  0.85684011  0.72183683  0.42430253  1
  O  O62  1  0.39793743  0.24219447  0.95097040  1
  O  O63  1  0.11008891  0.50008450  0.17047533  1
  O  O64  1  0.34947571  0.04121618  0.32369147  1
  O  O65  1  0.57056677  0.77583290  0.07565494  1
  O  O66  1  0.14201817  0.27030461  0.59162539  1
  O  O67  1  0.83991286  0.52234144  0.82743508  1
  O  O68  1  0.03385323  0.97794293  0.98944421  1
  O  O69  1  0.73794023  0.10351425  0.80990603  1
  O  O70  1  0.40962388  0.41789217  0.02281999  1
  O  O71  1  0.10412201  0.69731596  0.21258081  1
  O  O72  1  0.92147520  0.88834111  0.48443993  1
  O  O73  1  0.97995757  0.25793221  0.74795899  1
  O  O74  1  0.62522349  0.55569246  0.94705220  1
  O  O75  1  0.32324761  0.81933640  0.16225809  1
  O  O76  1  0.15813632  0.04298460  0.46084647  1
