# generated using pymatgen
data_SrNd2(CuO3)2
_symmetry_space_group_name_H-M   'P 1'
_cell_length_a   3.84328203
_cell_length_b   3.84328203
_cell_length_c   10.19058704
_cell_angle_alpha   79.13064569
_cell_angle_beta   79.13064569
_cell_angle_gamma   90.00000000
_symmetry_Int_Tables_number   1
_chemical_formula_structural   SrNd2(CuO3)2
_chemical_formula_sum   'Sr1 Nd2 Cu2 O6'
_cell_volume   145.07217357
_cell_formula_units_Z   1
loop_
 _symmetry_equiv_pos_site_id
 _symmetry_equiv_pos_as_xyz
  1  'x, y, z'
loop_
 _atom_site_type_symbol
 _atom_site_label
 _atom_site_symmetry_multiplicity
 _atom_site_fract_x
 _atom_site_fract_y
 _atom_site_fract_z
 _atom_site_occupancy
  Sr  Sr0  1  -0.00000000  -0.00000000  0.00000000  1
  Nd  Nd1  1  0.17710815  0.17710815  0.64578370  1
  Nd  Nd2  1  0.82289185  0.82289185  0.35421630  1
  Cu  Cu3  1  0.58929561  0.58929561  0.82140878  1
  Cu  Cu4  1  0.41070439  0.41070439  0.17859122  1
  O  O5  1  0.70648259  0.70648259  0.58703482  1
  O  O6  1  0.29351741  0.29351741  0.41296518  1
  O  O7  1  0.59087887  0.09087887  0.81824226  1
  O  O8  1  0.09087887  0.59087887  0.81824226  1
  O  O9  1  0.40912113  0.90912113  0.18175774  1
  O  O10  1  0.90912113  0.40912113  0.18175774  1
