# generated using pymatgen
data_SrNdCoRuO6
_symmetry_space_group_name_H-M   'P 1'
_cell_length_a   7.77614311
_cell_length_b   7.84313024
_cell_length_c   8.03277416
_cell_angle_alpha   90.00000000
_cell_angle_beta   90.00000000
_cell_angle_gamma   90.08253128
_symmetry_Int_Tables_number   1
_chemical_formula_structural   SrNdCoRuO6
_chemical_formula_sum   'Sr4 Nd4 Co4 Ru4 O24'
_cell_volume   489.91279041
_cell_formula_units_Z   4
loop_
 _symmetry_equiv_pos_site_id
 _symmetry_equiv_pos_as_xyz
  1  'x, y, z'
loop_
 _atom_site_type_symbol
 _atom_site_label
 _atom_site_symmetry_multiplicity
 _atom_site_fract_x
 _atom_site_fract_y
 _atom_site_fract_z
 _atom_site_occupancy
  Sr  Sr0  1  0.25000000  0.25000000  0.24977534  1
  Sr  Sr1  1  0.75000000  0.75000000  0.75022466  1
  Sr  Sr2  1  0.25000000  0.75000000  0.72639440  1
  Sr  Sr3  1  0.75000000  0.25000000  0.27360560  1
  Nd  Nd4  1  0.25000000  0.75000000  0.22400887  1
  Nd  Nd5  1  0.75000000  0.25000000  0.77599113  1
  Nd  Nd6  1  0.75000000  0.75000000  0.25404559  1
  Nd  Nd7  1  0.25000000  0.25000000  0.74595441  1
  Co  Co8  1  -0.00000000  0.50000000  -0.00000000  1
  Co  Co9  1  0.50000000  -0.00000000  -0.00000000  1
  Co  Co10  1  -0.00000000  -0.00000000  0.50000000  1
  Co  Co11  1  0.50000000  0.50000000  0.50000000  1
  Ru  Ru12  1  0.50000000  -0.00000000  0.50000000  1
  Ru  Ru13  1  -0.00000000  0.50000000  0.50000000  1
  Ru  Ru14  1  0.50000000  0.50000000  -0.00000000  1
  Ru  Ru15  1  -0.00000000  -0.00000000  -0.00000000  1
  O  O16  1  0.55078600  0.24469739  0.53846049  1
  O  O17  1  0.94921400  0.25530261  0.53846049  1
  O  O18  1  0.74735077  0.45061959  0.01928040  1
  O  O19  1  0.75264923  0.04938041  0.01928040  1
  O  O20  1  0.44921400  0.75530261  0.46153951  1
  O  O21  1  0.05078600  0.74469739  0.46153951  1
  O  O22  1  0.25264923  0.54938041  0.98071960  1
  O  O23  1  0.24735077  0.95061959  0.98071960  1
  O  O24  1  0.47474543  0.02376479  0.25818604  1
  O  O25  1  0.02525457  0.47623521  0.25818604  1
  O  O26  1  0.52971109  0.51274620  0.75625217  1
  O  O27  1  0.97028891  0.98725380  0.75625217  1
  O  O28  1  0.52525457  0.97623521  0.74181396  1
  O  O29  1  0.97474543  0.52376479  0.74181396  1
  O  O30  1  0.47028891  0.48725380  0.24374783  1
  O  O31  1  0.02971109  0.01274620  0.24374783  1
  O  O32  1  0.24966377  0.04776436  0.53365827  1
  O  O33  1  0.25033623  0.45223564  0.53365827  1
  O  O34  1  0.54172568  0.74968564  0.03817316  1
  O  O35  1  0.95827432  0.75031436  0.03817316  1
  O  O36  1  0.75033623  0.95223564  0.46634173  1
  O  O37  1  0.74966377  0.54776436  0.46634173  1
  O  O38  1  0.45827432  0.25031436  0.96182684  1
  O  O39  1  0.04172568  0.24968564  0.96182684  1
