# generated using pymatgen
data_SrLaCuSbO6
_symmetry_space_group_name_H-M   'P 1'
_cell_length_a   5.56385897
_cell_length_b   5.51692930
_cell_length_c   8.65495286
_cell_angle_alpha   90.95203142
_cell_angle_beta   90.00000000
_cell_angle_gamma   90.00000000
_symmetry_Int_Tables_number   1
_chemical_formula_structural   SrLaCuSbO6
_chemical_formula_sum   'Sr2 La2 Cu2 Sb2 O12'
_cell_volume   265.63070971
_cell_formula_units_Z   2
loop_
 _symmetry_equiv_pos_site_id
 _symmetry_equiv_pos_as_xyz
  1  'x, y, z'
loop_
 _atom_site_type_symbol
 _atom_site_label
 _atom_site_symmetry_multiplicity
 _atom_site_fract_x
 _atom_site_fract_y
 _atom_site_fract_z
 _atom_site_occupancy
  Sr  Sr0  1  0.46843392  0.51382129  0.74811512  1
  Sr  Sr1  1  0.03156608  0.01382129  0.24811512  1
  La  La2  1  0.53994173  0.47914065  0.25388807  1
  La  La3  1  0.96005827  0.97914065  0.75388807  1
  Cu  Cu4  1  0.49735306  0.00276770  0.99784793  1
  Cu  Cu5  1  0.00264694  0.50276770  0.49784793  1
  Sb  Sb6  1  0.49933934  0.99951185  0.50036585  1
  Sb  Sb7  1  0.00066066  0.49951185  0.00036585  1
  O  O8  1  0.01318837  0.40704272  0.77754823  1
  O  O9  1  0.48681163  0.90704272  0.27754823  1
  O  O10  1  0.97800289  0.57133421  0.22478868  1
  O  O11  1  0.52199711  0.07133421  0.72478868  1
  O  O12  1  0.72222423  0.71843051  0.54448400  1
  O  O13  1  0.77777577  0.21843051  0.04448400  1
  O  O14  1  0.29049833  0.29169607  0.45255038  1
  O  O15  1  0.20950167  0.79169607  0.95255038  1
  O  O16  1  0.20776221  0.79417098  0.55064445  1
  O  O17  1  0.29223779  0.29417098  0.05064445  1
  O  O18  1  0.77905942  0.22208403  0.44976728  1
  O  O19  1  0.72094058  0.72208403  0.94976728  1
