# generated using pymatgen
data_Sr3Nd2Nb10O30
_symmetry_space_group_name_H-M   'P 1'
_cell_length_a   3.98207647
_cell_length_b   12.68010860
_cell_length_c   12.68010860
_cell_angle_alpha   90.27004406
_cell_angle_beta   90.00000000
_cell_angle_gamma   90.00000000
_symmetry_Int_Tables_number   1
_chemical_formula_structural   Sr3Nd2Nb10O30
_chemical_formula_sum   'Sr3 Nd2 Nb10 O30'
_cell_volume   640.25166753
_cell_formula_units_Z   1
loop_
 _symmetry_equiv_pos_site_id
 _symmetry_equiv_pos_as_xyz
  1  'x, y, z'
loop_
 _atom_site_type_symbol
 _atom_site_label
 _atom_site_symmetry_multiplicity
 _atom_site_fract_x
 _atom_site_fract_y
 _atom_site_fract_z
 _atom_site_occupancy
  Sr  Sr0  1  0.00000000  0.84089744  0.34089744  1
  Sr  Sr1  1  0.00000000  0.33292120  0.16343117  1
  Sr  Sr2  1  0.00000000  0.66343117  0.83292120  1
  Nd  Nd3  1  0.00000000  0.50073328  0.50393060  1
  Nd  Nd4  1  0.00000000  0.00393060  0.00073328  1
  Nb  Nb5  1  0.50000000  0.71504476  0.57990939  1
  Nb  Nb6  1  0.50000000  0.29165282  0.42004294  1
  Nb  Nb7  1  0.50000000  0.78887982  0.08127400  1
  Nb  Nb8  1  0.50000000  0.21061945  0.91956007  1
  Nb  Nb9  1  0.50000000  0.58127400  0.28887982  1
  Nb  Nb10  1  0.50000000  0.41956007  0.71061945  1
  Nb  Nb11  1  0.50000000  0.07990939  0.21504476  1
  Nb  Nb12  1  0.50000000  0.92004294  0.79165282  1
  Nb  Nb13  1  0.50000000  0.49919440  0.99919440  1
  Nb  Nb14  1  0.50000000  0.00406571  0.50406571  1
  O  O15  1  0.00000000  0.69752040  0.58366842  1
  O  O16  1  -0.00000000  0.30881741  0.41587343  1
  O  O17  1  0.00000000  0.79895020  0.08101359  1
  O  O18  1  0.00000000  0.19314185  0.93403695  1
  O  O19  1  0.00000000  0.58101359  0.29895020  1
  O  O20  1  0.00000000  0.43403695  0.69314185  1
  O  O21  1  0.00000000  0.08366842  0.19752040  1
  O  O22  1  -0.00000000  0.91587343  0.80881741  1
  O  O23  1  0.50000000  0.56240560  0.62774428  1
  O  O24  1  0.50000000  0.44084465  0.36505634  1
  O  O25  1  0.50000000  0.93952066  0.13025857  1
  O  O26  1  0.50000000  0.05834830  0.87130446  1
  O  O27  1  0.50000000  0.63025857  0.43952066  1
  O  O28  1  0.50000000  0.37130446  0.55834830  1
  O  O29  1  0.50000000  0.12774428  0.06240560  1
  O  O30  1  0.50000000  0.86505634  0.94084465  1
  O  O31  1  0.50000000  0.76802896  0.73164399  1
  O  O32  1  0.50000000  0.23164399  0.26802896  1
  O  O33  1  0.50000000  0.73022126  0.23022126  1
  O  O34  1  0.50000000  0.28757661  0.78757661  1
  O  O35  1  0.50000000  0.65859312  0.99171080  1
  O  O36  1  0.50000000  0.33869182  0.01220746  1
  O  O37  1  0.50000000  0.83483698  0.48498344  1
  O  O38  1  0.50000000  0.15404665  0.48872155  1
  O  O39  1  0.50000000  0.98498344  0.33483698  1
  O  O40  1  0.50000000  0.98872155  0.65404665  1
  O  O41  1  0.50000000  0.49171080  0.15859312  1
  O  O42  1  0.50000000  0.51220746  0.83869182  1
  O  O43  1  0.00000000  0.49810172  0.99810172  1
  O  O44  1  -0.00000000  0.98767348  0.48767348  1
