# generated using pymatgen
data_SmAlCu
_symmetry_space_group_name_H-M   'P 1'
_cell_length_a   5.45359838
_cell_length_b   5.45359838
_cell_length_c   5.45359838
_cell_angle_alpha   88.59340462
_cell_angle_beta   60.70579367
_cell_angle_gamma   119.08840068
_symmetry_Int_Tables_number   1
_chemical_formula_structural   SmAlCu
_chemical_formula_sum   'Sm2 Al2 Cu2'
_cell_volume   116.05598350
_cell_formula_units_Z   2
loop_
 _symmetry_equiv_pos_site_id
 _symmetry_equiv_pos_as_xyz
  1  'x, y, z'
loop_
 _atom_site_type_symbol
 _atom_site_label
 _atom_site_symmetry_multiplicity
 _atom_site_fract_x
 _atom_site_fract_y
 _atom_site_fract_z
 _atom_site_occupancy
  Sm  Sm0  1  0.50000000  0.75099065  0.74900935  1
  Sm  Sm1  1  -0.00000000  -0.00099065  0.00099065  1
  Al  Al2  1  0.75000000  0.37500000  0.87500000  1
  Al  Al3  1  0.25000000  0.37500000  0.37500000  1
  Cu  Cu4  1  0.25000000  0.87500000  0.37500000  1
  Cu  Cu5  1  0.75000000  0.37500000  0.37500000  1
