# generated using pymatgen
data_Sm2Co16Ag
_symmetry_space_group_name_H-M   'P 1'
_cell_length_a   6.35946011
_cell_length_b   6.35946014
_cell_length_c   6.35946011
_cell_angle_alpha   83.56764352
_cell_angle_beta   83.56764297
_cell_angle_gamma   83.56764352
_symmetry_Int_Tables_number   1
_chemical_formula_structural   Sm2Co16Ag
_chemical_formula_sum   'Sm2 Co16 Ag1'
_cell_volume   252.67389472
_cell_formula_units_Z   1
loop_
 _symmetry_equiv_pos_site_id
 _symmetry_equiv_pos_as_xyz
  1  'x, y, z'
loop_
 _atom_site_type_symbol
 _atom_site_label
 _atom_site_symmetry_multiplicity
 _atom_site_fract_x
 _atom_site_fract_y
 _atom_site_fract_z
 _atom_site_occupancy
  Sm  Sm0  1  0.65228213  0.65228213  0.65228213  1
  Sm  Sm1  1  0.34389955  0.34389955  0.34389955  1
  Co  Co2  1  0.71124788  0.00098205  0.28983832  1
  Co  Co3  1  0.00098205  0.28983832  0.71124788  1
  Co  Co4  1  0.28983832  0.71124788  0.00098205  1
  Co  Co5  1  0.00098205  0.71124788  0.28983832  1
  Co  Co6  1  0.71124788  0.28983832  0.00098205  1
  Co  Co7  1  0.28983832  0.00098205  0.71124788  1
  Co  Co8  1  0.34425037  0.84795467  0.34425037  1
  Co  Co9  1  0.84795467  0.34425037  0.34425037  1
  Co  Co10  1  0.34425037  0.34425037  0.84795467  1
  Co  Co11  1  0.64946754  0.15831821  0.64946754  1
  Co  Co12  1  0.15831821  0.64946754  0.64946754  1
  Co  Co13  1  0.64946754  0.64946754  0.15831821  1
  Co  Co14  1  0.00615591  0.48778191  0.00615591  1
  Co  Co15  1  0.48778191  0.00615591  0.00615591  1
  Co  Co16  1  0.00615591  0.00615591  0.48778191  1
  Co  Co17  1  0.10805372  0.10805372  0.10805372  1
  Ag  Ag18  1  0.89782569  0.89782569  0.89782569  1
