# generated using pymatgen
data_PrAlCo4
_symmetry_space_group_name_H-M   'P 1'
_cell_length_a   3.88254234
_cell_length_b   5.19321463
_cell_length_c   5.19200335
_cell_angle_alpha   59.97953348
_cell_angle_beta   90.00000000
_cell_angle_gamma   90.00000000
_symmetry_Int_Tables_number   1
_chemical_formula_structural   PrAlCo4
_chemical_formula_sum   'Pr1 Al1 Co4'
_cell_volume   90.64178821
_cell_formula_units_Z   1
loop_
 _symmetry_equiv_pos_site_id
 _symmetry_equiv_pos_as_xyz
  1  'x, y, z'
loop_
 _atom_site_type_symbol
 _atom_site_label
 _atom_site_symmetry_multiplicity
 _atom_site_fract_x
 _atom_site_fract_y
 _atom_site_fract_z
 _atom_site_occupancy
  Pr  Pr0  1  0.00000000  0.99989654  0.00012316  1
  Al  Al1  1  0.00000000  0.33318950  0.33332936  1
  Co  Co2  1  0.00000000  0.66673980  0.66667642  1
  Co  Co3  1  0.50000000  0.50400211  0.50414893  1
  Co  Co4  1  0.50000000  0.50401771  0.99184042  1
  Co  Co5  1  0.50000000  0.99205433  0.50398172  1
