# generated using pymatgen
data_Re8Pb8O27
_symmetry_space_group_name_H-M   'P 1'
_cell_length_a   7.48119682
_cell_length_b   10.65285201
_cell_length_c   7.48119682
_cell_angle_alpha   90.00000000
_cell_angle_beta   90.00000000
_cell_angle_gamma   90.00000000
_symmetry_Int_Tables_number   1
_chemical_formula_structural   Re8Pb8O27
_chemical_formula_sum   'Re8 Pb8 O27'
_cell_volume   596.22207894
_cell_formula_units_Z   1
loop_
 _symmetry_equiv_pos_site_id
 _symmetry_equiv_pos_as_xyz
  1  'x, y, z'
loop_
 _atom_site_type_symbol
 _atom_site_label
 _atom_site_symmetry_multiplicity
 _atom_site_fract_x
 _atom_site_fract_y
 _atom_site_fract_z
 _atom_site_occupancy
  Re  Re0  1  0.25000000  0.74992088  0.24884144  1
  Re  Re1  1  0.75000000  0.25213437  0.74879979  1
  Re  Re2  1  0.75000000  0.25213437  0.25120021  1
  Re  Re3  1  0.25000000  0.74992088  0.75115856  1
  Re  Re4  1  0.49884144  0.50007912  0.00000000  1
  Re  Re5  1  0.99879979  0.99786563  0.50000000  1
  Re  Re6  1  0.00115856  0.50007912  -0.00000000  1
  Re  Re7  1  0.50120021  0.99786563  0.50000000  1
  Pb  Pb8  1  0.75000000  0.74918034  0.75279008  1
  Pb  Pb9  1  0.25000000  0.24055317  0.24896518  1
  Pb  Pb10  1  0.25000000  0.24055317  0.75103482  1
  Pb  Pb11  1  0.75000000  0.74918034  0.24720992  1
  Pb  Pb12  1  0.00279008  0.50081966  0.50000000  1
  Pb  Pb13  1  0.49896518  0.00944683  -0.00000000  1
  Pb  Pb14  1  0.00103482  0.00944683  -0.00000000  1
  Pb  Pb15  1  0.49720992  0.50081966  0.50000000  1
  O  O16  1  0.25000000  0.81265580  0.00000000  1
  O  O17  1  0.75000000  0.31327029  0.50000000  1
  O  O18  1  0.25000000  0.43734420  0.00000000  1
  O  O19  1  0.75000000  0.93672971  0.50000000  1
  O  O20  1  0.43850974  0.62500000  0.18850974  1
  O  O21  1  0.94059455  0.12500000  0.69059455  1
  O  O22  1  0.06149026  0.62500000  0.81149026  1
  O  O23  1  0.55940545  0.12500000  0.30940545  1
  O  O24  1  0.43850974  0.62500000  0.81149026  1
  O  O25  1  0.94059455  0.12500000  0.30940545  1
  O  O26  1  0.06149026  0.62500000  0.18850974  1
  O  O27  1  0.55940545  0.12500000  0.69059455  1
  O  O28  1  0.75000000  0.18184116  0.00000000  1
  O  O29  1  0.25000000  0.68717248  0.50000000  1
  O  O30  1  0.75000000  0.56282752  0.00000000  1
  O  O31  1  0.25000000  0.06815884  0.50000000  1
  O  O32  1  0.56030150  0.37380783  0.81196298  1
  O  O33  1  0.06196298  0.87619217  0.31030150  1
  O  O34  1  0.93969850  0.37380783  0.18803702  1
  O  O35  1  0.43803702  0.87619217  0.68969850  1
  O  O36  1  0.56030150  0.37380783  0.18803702  1
  O  O37  1  0.06196298  0.87619217  0.68969850  1
  O  O38  1  0.93969850  0.37380783  0.81196298  1
  O  O39  1  0.43803702  0.87619217  0.31030150  1
  O  O40  1  0.75000000  0.62500000  0.50000000  1
  O  O41  1  0.75000000  0.90598190  0.00000000  1
  O  O42  1  0.25000000  0.34401810  0.50000000  1
