# generated using pymatgen
data_SnPbS2
_symmetry_space_group_name_H-M   'P 1'
_cell_length_a   4.17672201
_cell_length_b   4.22781741
_cell_length_c   17.07102263
_cell_angle_alpha   87.34004662
_cell_angle_beta   85.65801871
_cell_angle_gamma   90.05879712
_symmetry_Int_Tables_number   1
_chemical_formula_structural   SnPbS2
_chemical_formula_sum   'Sn2 Pb2 S4'
_cell_volume   300.25510004
_cell_formula_units_Z   2
loop_
 _symmetry_equiv_pos_site_id
 _symmetry_equiv_pos_as_xyz
  1  'x, y, z'
loop_
 _atom_site_type_symbol
 _atom_site_label
 _atom_site_symmetry_multiplicity
 _atom_site_fract_x
 _atom_site_fract_y
 _atom_site_fract_z
 _atom_site_occupancy
  Sn  Sn0  1  0.32511509  0.61328648  0.24435969  1
  Sn  Sn1  1  0.22358379  0.86559426  0.58774483  1
  Pb  Pb2  1  0.67055152  0.38297838  0.75912089  1
  Pb  Pb3  1  0.77680509  0.10904049  0.41383581  1
  S  S4  1  0.71613228  0.44631728  0.60093685  1
  S  S5  1  0.28407583  0.57840486  0.39729782  1
  S  S6  1  0.17327752  0.90136204  0.74170614  1
  S  S7  1  0.83045890  0.10301622  0.25499798  1
