# generated using pymatgen
data_Sn2SbSe2I3
_symmetry_space_group_name_H-M   'P 1'
_cell_length_a   4.34603642
_cell_length_b   7.80904472
_cell_length_c   19.03843947
_cell_angle_alpha   90.00000000
_cell_angle_beta   90.00000000
_cell_angle_gamma   73.84305564
_symmetry_Int_Tables_number   1
_chemical_formula_structural   Sn2SbSe2I3
_chemical_formula_sum   'Sn4 Sb2 Se4 I6'
_cell_volume   620.61372318
_cell_formula_units_Z   2
loop_
 _symmetry_equiv_pos_site_id
 _symmetry_equiv_pos_as_xyz
  1  'x, y, z'
loop_
 _atom_site_type_symbol
 _atom_site_label
 _atom_site_symmetry_multiplicity
 _atom_site_fract_x
 _atom_site_fract_y
 _atom_site_fract_z
 _atom_site_occupancy
  Sn  Sn0  1  0.87683498  0.24633005  0.50327043  1
  Sn  Sn1  1  0.13737759  0.72524483  0.51481835  1
  Sn  Sn2  1  0.86262241  0.27475517  0.01481835  1
  Sn  Sn3  1  0.12316502  0.75366995  0.00327043  1
  Sb  Sb4  1  0.20938196  0.58123609  0.29499373  1
  Sb  Sb5  1  0.79061804  0.41876391  0.79499373  1
  Se  Se6  1  0.27997781  0.44004437  0.41908841  1
  Se  Se7  1  0.72366664  0.55266671  0.58091831  1
  Se  Se8  1  0.27633336  0.44733329  0.08091831  1
  Se  Se9  1  0.72002219  0.55995563  0.91908841  1
  I  I10  1  0.57347285  0.85305431  0.34279890  1
  I  I11  1  0.44528658  0.10942683  0.60897168  1
  I  I12  1  0.55471342  0.89057317  0.10897168  1
  I  I13  1  0.42652715  0.14694569  0.84279890  1
  I  I14  1  0.84156555  0.31686890  0.25124021  1
  I  I15  1  0.15843445  0.68313110  0.75124021  1
