# generated using pymatgen
data_Mg(MnS2)2
_symmetry_space_group_name_H-M   'P 1'
_cell_length_a   7.22518225
_cell_length_b   7.09885458
_cell_length_c   6.94705538
_cell_angle_alpha   89.00680793
_cell_angle_beta   119.94096439
_cell_angle_gamma   121.94748408
_symmetry_Int_Tables_number   1
_chemical_formula_structural   Mg(MnS2)2
_chemical_formula_sum   'Mg2 Mn4 S8'
_cell_volume   246.80162554
_cell_formula_units_Z   2
loop_
 _symmetry_equiv_pos_site_id
 _symmetry_equiv_pos_as_xyz
  1  'x, y, z'
loop_
 _atom_site_type_symbol
 _atom_site_label
 _atom_site_symmetry_multiplicity
 _atom_site_fract_x
 _atom_site_fract_y
 _atom_site_fract_z
 _atom_site_occupancy
  Mg  Mg0  1  0.99995921  0.99998191  0.99996628  1
  Mg  Mg1  1  0.50003322  0.99999037  0.00002385  1
  Mn  Mn2  1  0.50000788  -0.00001683  0.49999791  1
  Mn  Mn3  1  0.50002919  0.50000020  0.50002553  1
  Mn  Mn4  1  -0.00000009  0.49998762  0.00001435  1
  Mn  Mn5  1  0.99990177  0.49998277  0.49994530  1
  S  S6  1  0.02733652  0.73959575  0.26026888  1
  S  S7  1  0.47755625  0.74835007  0.72823349  1
  S  S8  1  0.47419829  0.74553084  0.25466243  1
  S  S9  1  0.99785995  0.72721103  0.74728068  1
  S  S10  1  0.52584974  0.25448821  0.74536139  1
  S  S11  1  0.52236292  0.25161600  0.27173743  1
  S  S12  1  0.00227063  0.27283796  0.25280642  1
  S  S13  1  0.97268251  0.26040910  0.73971805  1
