# generated using pymatgen
data_Nb6ZnS8
_symmetry_space_group_name_H-M   'P 1'
_cell_length_a   3.38883208
_cell_length_b   9.68466858
_cell_length_c   9.67760161
_cell_angle_alpha   59.99871125
_cell_angle_beta   90.00408185
_cell_angle_gamma   90.00856354
_symmetry_Int_Tables_number   1
_chemical_formula_structural   Nb6ZnS8
_chemical_formula_sum   'Nb6 Zn1 S8'
_cell_volume   275.06006385
_cell_formula_units_Z   1
loop_
 _symmetry_equiv_pos_site_id
 _symmetry_equiv_pos_as_xyz
  1  'x, y, z'
loop_
 _atom_site_type_symbol
 _atom_site_label
 _atom_site_symmetry_multiplicity
 _atom_site_fract_x
 _atom_site_fract_y
 _atom_site_fract_z
 _atom_site_occupancy
  Nb  Nb0  1  0.75042921  0.37180921  0.51360347  1
  Nb  Nb1  1  0.75035138  0.11454597  0.37208836  1
  Nb  Nb2  1  0.75042057  0.51345897  0.11457428  1
  Nb  Nb3  1  0.24957079  0.62819079  0.48639653  1
  Nb  Nb4  1  0.24964862  0.88545403  0.62791164  1
  Nb  Nb5  1  0.24957943  0.48654103  0.88542572  1
  Zn  Zn6  1  0.50000000  -0.00000000  0.00000000  1
  S  S7  1  0.75004971  0.66657892  0.66676089  1
  S  S8  1  0.24995029  0.33342108  0.33323911  1
  S  S9  1  0.74926586  0.05686483  0.65545810  1
  S  S10  1  0.74940097  0.28755784  0.05673411  1
  S  S11  1  0.74929459  0.65571808  0.28755391  1
  S  S12  1  0.25073414  0.94313517  0.34454190  1
  S  S13  1  0.25059903  0.71244216  0.94326589  1
  S  S14  1  0.25070541  0.34428192  0.71244609  1
