# generated using pymatgen
data_Nd2Ge3Ir
_symmetry_space_group_name_H-M   'P 1'
_cell_length_a   4.17703210
_cell_length_b   4.35795233
_cell_length_c   7.36067363
_cell_angle_alpha   89.98975391
_cell_angle_beta   90.00000000
_cell_angle_gamma   90.00000000
_symmetry_Int_Tables_number   1
_chemical_formula_structural   Nd2Ge3Ir
_chemical_formula_sum   'Nd2 Ge3 Ir1'
_cell_volume   133.98859809
_cell_formula_units_Z   1
loop_
 _symmetry_equiv_pos_site_id
 _symmetry_equiv_pos_as_xyz
  1  'x, y, z'
loop_
 _atom_site_type_symbol
 _atom_site_label
 _atom_site_symmetry_multiplicity
 _atom_site_fract_x
 _atom_site_fract_y
 _atom_site_fract_z
 _atom_site_occupancy
  Nd  Nd0  1  0.00000000  0.00000950  0.01167748  1
  Nd  Nd1  1  -0.00000000  0.50017883  0.49507815  1
  Ge  Ge2  1  0.50000000  0.49990239  0.83441685  1
  Ge  Ge3  1  0.50000000  0.49989957  0.17577037  1
  Ge  Ge4  1  0.50000000  0.00003199  0.65755172  1
  Ir  Ir5  1  0.50000000  0.99977772  0.32550543  1
