# generated using pymatgen
data_Nb8Fe2Sb4Pd
_symmetry_space_group_name_H-M   'P 1'
_cell_length_a   4.95689548
_cell_length_b   7.87837157
_cell_length_c   7.87837157
_cell_angle_alpha   95.67963716
_cell_angle_beta   108.33599084
_cell_angle_gamma   71.66400916
_symmetry_Int_Tables_number   1
_chemical_formula_structural   Nb8Fe2Sb4Pd
_chemical_formula_sum   'Nb8 Fe2 Sb4 Pd1'
_cell_volume   277.21952246
_cell_formula_units_Z   1
loop_
 _symmetry_equiv_pos_site_id
 _symmetry_equiv_pos_as_xyz
  1  'x, y, z'
loop_
 _atom_site_type_symbol
 _atom_site_label
 _atom_site_symmetry_multiplicity
 _atom_site_fract_x
 _atom_site_fract_y
 _atom_site_fract_z
 _atom_site_occupancy
  Nb  Nb0  1  0.41259383  0.87850363  0.71813757  1
  Nb  Nb1  1  0.57295989  0.12149637  0.28186243  1
  Nb  Nb2  1  0.92704011  0.28186243  0.12149637  1
  Nb  Nb3  1  0.08740617  0.71813757  0.87850363  1
  Nb  Nb4  1  0.70890254  0.71813757  0.12149637  1
  Nb  Nb5  1  0.30554374  0.28186243  0.87850363  1
  Nb  Nb6  1  0.79109746  0.12149637  0.71813757  1
  Nb  Nb7  1  0.19445626  0.87850363  0.28186243  1
  Fe  Fe8  1  0.25000000  -0.00000000  -0.00000000  1
  Fe  Fe9  1  0.75000000  -0.00000000  -0.00000000  1
  Sb  Sb10  1  0.37667800  0.50000000  0.19861356  1
  Sb  Sb11  1  0.67806444  0.50000000  0.80138644  1
  Sb  Sb12  1  0.82193556  0.80138644  0.50000000  1
  Sb  Sb13  1  0.12332200  0.19861356  0.50000000  1
  Pd  Pd14  1  0.25000000  0.50000000  0.50000000  1
