# generated using pymatgen
data_NbAlCo
_symmetry_space_group_name_H-M   'P 1'
_cell_length_a   4.92407150
_cell_length_b   4.92364660
_cell_length_c   7.97351098
_cell_angle_alpha   90.00000000
_cell_angle_beta   90.00000000
_cell_angle_gamma   61.31579897
_symmetry_Int_Tables_number   1
_chemical_formula_structural   NbAlCo
_chemical_formula_sum   'Nb4 Al4 Co4'
_cell_volume   169.58925442
_cell_formula_units_Z   4
loop_
 _symmetry_equiv_pos_site_id
 _symmetry_equiv_pos_as_xyz
  1  'x, y, z'
loop_
 _atom_site_type_symbol
 _atom_site_label
 _atom_site_symmetry_multiplicity
 _atom_site_fract_x
 _atom_site_fract_y
 _atom_site_fract_z
 _atom_site_occupancy
  Nb  Nb0  1  0.33338310  0.33339139  0.54477665  1
  Nb  Nb1  1  0.66399806  0.66399138  0.42500957  1
  Nb  Nb2  1  0.66399806  0.66399138  0.07499043  1
  Nb  Nb3  1  0.33338310  0.33339139  0.95522335  1
  Al  Al4  1  0.99187259  0.99163497  0.48829547  1
  Al  Al5  1  0.99187259  0.99163497  0.01170453  1
  Al  Al6  1  0.83477973  0.34777077  0.75000000  1
  Al  Al7  1  0.34779676  0.83476367  0.75000000  1
  Co  Co8  1  0.83684999  0.83689888  0.75000000  1
  Co  Co9  1  0.17604706  0.65501670  0.25000000  1
  Co  Co10  1  0.65482548  0.17620053  0.25000000  1
  Co  Co11  1  0.17119348  0.17131397  0.25000000  1
