# generated using pymatgen
data_Nd(Co5Mo)2
_symmetry_space_group_name_H-M   'P 1'
_cell_length_a   4.69915150
_cell_length_b   6.46939116
_cell_length_c   6.46939116
_cell_angle_alpha   97.42898778
_cell_angle_beta   111.29583130
_cell_angle_gamma   68.70416870
_symmetry_Int_Tables_number   1
_chemical_formula_structural   Nd(Co5Mo)2
_chemical_formula_sum   'Nd1 Co10 Mo2'
_cell_volume   170.73122750
_cell_formula_units_Z   1
loop_
 _symmetry_equiv_pos_site_id
 _symmetry_equiv_pos_as_xyz
  1  'x, y, z'
loop_
 _atom_site_type_symbol
 _atom_site_label
 _atom_site_symmetry_multiplicity
 _atom_site_fract_x
 _atom_site_fract_y
 _atom_site_fract_z
 _atom_site_occupancy
  Nd  Nd0  1  0.00000000  -0.00000000  0.00000000  1
  Co  Co1  1  0.71607526  0.78392474  0.21607526  1
  Co  Co2  1  0.28392474  0.21607526  0.78392474  1
  Co  Co3  1  0.50000000  0.77524557  0.77524557  1
  Co  Co4  1  0.50000000  0.22475443  0.22475443  1
  Co  Co5  1  0.50000000  -0.00000000  0.50000000  1
  Co  Co6  1  0.00000000  -0.00000000  0.50000000  1
  Co  Co7  1  0.50000000  0.50000000  0.00000000  1
  Co  Co8  1  0.00000000  0.50000000  0.00000000  1
  Co  Co9  1  0.63938207  0.36061793  0.63938207  1
  Co  Co10  1  0.36061793  0.63938207  0.36061793  1
  Mo  Mo11  1  0.00000000  0.35930954  0.35930954  1
  Mo  Mo12  1  0.00000000  0.64069046  0.64069046  1
