# generated using pymatgen
data_Nb4Fe3Si5
_symmetry_space_group_name_H-M   'P 1'
_cell_length_a   4.94582784
_cell_length_b   4.90014055
_cell_length_c   7.65986619
_cell_angle_alpha   90.00000000
_cell_angle_beta   90.00000000
_cell_angle_gamma   59.68962481
_symmetry_Int_Tables_number   1
_chemical_formula_structural   Nb4Fe3Si5
_chemical_formula_sum   'Nb4 Fe3 Si5'
_cell_volume   160.26273754
_cell_formula_units_Z   1
loop_
 _symmetry_equiv_pos_site_id
 _symmetry_equiv_pos_as_xyz
  1  'x, y, z'
loop_
 _atom_site_type_symbol
 _atom_site_label
 _atom_site_symmetry_multiplicity
 _atom_site_fract_x
 _atom_site_fract_y
 _atom_site_fract_z
 _atom_site_occupancy
  Nb  Nb0  1  0.33171161  0.33659528  0.56404117  1
  Nb  Nb1  1  0.66559224  0.66880072  0.43076751  1
  Nb  Nb2  1  0.66559224  0.66880072  0.06923249  1
  Nb  Nb3  1  0.33171161  0.33659528  0.93595883  1
  Fe  Fe4  1  0.00227701  0.99544304  0.49554601  1
  Fe  Fe5  1  0.00227701  0.99544304  0.00445399  1
  Fe  Fe6  1  0.83014863  0.33968833  0.75000000  1
  Si  Si7  1  0.33624522  0.83102530  0.75000000  1
  Si  Si8  1  0.83272028  0.83104353  0.75000000  1
  Si  Si9  1  0.16927712  0.66143649  0.25000000  1
  Si  Si10  1  0.66482301  0.16756036  0.25000000  1
  Si  Si11  1  0.16762402  0.16756792  0.25000000  1
