# generated using pymatgen
data_Pr2FeSn4
_symmetry_space_group_name_H-M   'P 1'
_cell_length_a   4.62107944
_cell_length_b   4.65404928
_cell_length_c   8.70137497
_cell_angle_alpha   74.48849720
_cell_angle_beta   90.00000000
_cell_angle_gamma   90.00000000
_symmetry_Int_Tables_number   1
_chemical_formula_structural   Pr2FeSn4
_chemical_formula_sum   'Pr2 Fe1 Sn4'
_cell_volume   180.32196173
_cell_formula_units_Z   1
loop_
 _symmetry_equiv_pos_site_id
 _symmetry_equiv_pos_as_xyz
  1  'x, y, z'
loop_
 _atom_site_type_symbol
 _atom_site_label
 _atom_site_symmetry_multiplicity
 _atom_site_fract_x
 _atom_site_fract_y
 _atom_site_fract_z
 _atom_site_occupancy
  Pr  Pr0  1  0.25000000  0.89924829  0.20150342  1
  Pr  Pr1  1  0.75000000  0.10166665  0.79666669  1
  Fe  Fe2  1  0.25000000  0.70002801  0.59994397  1
  Sn  Sn3  1  0.25000000  0.25827458  0.48345084  1
  Sn  Sn4  1  0.75000000  0.75566216  0.48867569  1
  Sn  Sn5  1  0.25000000  0.55094807  0.89810387  1
  Sn  Sn6  1  0.75000000  0.43117224  0.13765552  1
