# generated using pymatgen
data_MgV2O4
_symmetry_space_group_name_H-M   'P 1'
_cell_length_a   6.07542436
_cell_length_b   6.00474948
_cell_length_c   5.98151689
_cell_angle_alpha   88.97904545
_cell_angle_beta   120.51702555
_cell_angle_gamma   120.38753690
_symmetry_Int_Tables_number   1
_chemical_formula_structural   MgV2O4
_chemical_formula_sum   'Mg2 V4 O8'
_cell_volume   153.54286944
_cell_formula_units_Z   2
loop_
 _symmetry_equiv_pos_site_id
 _symmetry_equiv_pos_as_xyz
  1  'x, y, z'
loop_
 _atom_site_type_symbol
 _atom_site_label
 _atom_site_symmetry_multiplicity
 _atom_site_fract_x
 _atom_site_fract_y
 _atom_site_fract_z
 _atom_site_occupancy
  Mg  Mg0  1  0.00002170  0.00000747  0.00001347  1
  Mg  Mg1  1  0.49999662  0.99999481  -0.00000705  1
  V  V2  1  0.50000980  0.99998669  0.50002813  1
  V  V3  1  0.50003162  0.50002638  0.50000895  1
  V  V4  1  -0.00002789  0.49997762  -0.00001559  1
  V  V5  1  0.00000502  0.50000092  0.50000087  1
  O  O6  1  0.03015837  0.74404592  0.25510836  1
  O  O7  1  0.49696561  0.75254332  0.74124079  1
  O  O8  1  0.46888417  0.74392192  0.25499201  1
  O  O9  1  0.99206079  0.73692848  0.74705356  1
  O  O10  1  0.53112296  0.25607330  0.74501110  1
  O  O11  1  0.50303263  0.24744426  0.25875279  1
  O  O12  1  0.00794452  0.26305874  0.25296191  1
  O  O13  1  0.96984308  0.25595517  0.74489470  1
