# generated using pymatgen
data_Nb6SnS8
_symmetry_space_group_name_H-M   'P 1'
_cell_length_a   3.41085207
_cell_length_b   9.65042675
_cell_length_c   9.64914479
_cell_angle_alpha   120.01276687
_cell_angle_beta   90.00762170
_cell_angle_gamma   89.99887159
_symmetry_Int_Tables_number   1
_chemical_formula_structural   Nb6SnS8
_chemical_formula_sum   'Nb6 Sn1 S8'
_cell_volume   275.02550322
_cell_formula_units_Z   1
loop_
 _symmetry_equiv_pos_site_id
 _symmetry_equiv_pos_as_xyz
  1  'x, y, z'
loop_
 _atom_site_type_symbol
 _atom_site_label
 _atom_site_symmetry_multiplicity
 _atom_site_fract_x
 _atom_site_fract_y
 _atom_site_fract_z
 _atom_site_occupancy
  Nb  Nb0  1  0.74898143  0.37468335  0.88757494  1
  Nb  Nb1  1  0.74893990  0.11240657  0.48711136  1
  Nb  Nb2  1  0.74887805  0.51290651  0.62528180  1
  Nb  Nb3  1  0.25101857  0.62531665  0.11242506  1
  Nb  Nb4  1  0.25106010  0.88759343  0.51288864  1
  Nb  Nb5  1  0.25112195  0.48709349  0.37471820  1
  Sn  Sn6  1  0.50000000  -0.00000000  -0.00000000  1
  S  S7  1  0.75028680  0.66664385  0.33334543  1
  S  S8  1  0.24971320  0.33335615  0.66665457  1
  S  S9  1  0.75141874  0.05455299  0.71488861  1
  S  S10  1  0.75141256  0.28508641  0.33953710  1
  S  S11  1  0.75126196  0.66034072  0.94547018  1
  S  S12  1  0.24858126  0.94544701  0.28511139  1
  S  S13  1  0.24858744  0.71491359  0.66046290  1
  S  S14  1  0.24873804  0.33965928  0.05452982  1
