# generated using pymatgen
data_PH10C2NO4
_symmetry_space_group_name_H-M   'P 1'
_cell_length_a   7.01467891
_cell_length_b   9.66658518
_cell_length_c   9.69379977
_cell_angle_alpha   90.00000000
_cell_angle_beta   90.00000000
_cell_angle_gamma   89.72902833
_symmetry_Int_Tables_number   1
_chemical_formula_structural   PH10C2NO4
_chemical_formula_sum   'P4 H40 C8 N4 O16'
_cell_volume   657.30973824
_cell_formula_units_Z   4
loop_
 _symmetry_equiv_pos_site_id
 _symmetry_equiv_pos_as_xyz
  1  'x, y, z'
loop_
 _atom_site_type_symbol
 _atom_site_label
 _atom_site_symmetry_multiplicity
 _atom_site_fract_x
 _atom_site_fract_y
 _atom_site_fract_z
 _atom_site_occupancy
  P  P0  1  0.73786636  0.83028775  0.03062343  1
  P  P1  1  0.25611561  0.33273756  0.47260398  1
  P  P2  1  0.24388439  0.16726244  0.97260398  1
  P  P3  1  0.76213364  0.66971225  0.53062343  1
  H  H4  1  0.73205199  0.49814236  0.18960371  1
  H  H5  1  0.23231911  0.99938621  0.30973496  1
  H  H6  1  0.26768089  0.50061379  0.80973496  1
  H  H7  1  0.76794801  0.00185764  0.68960371  1
  H  H8  1  0.91646663  0.14062078  0.22541356  1
  H  H9  1  0.41620525  0.64225350  0.27229809  1
  H  H10  1  0.08379475  0.85774650  0.77229809  1
  H  H11  1  0.58353337  0.35937922  0.72541356  1
  H  H12  1  0.64572044  0.35964334  0.08272960  1
  H  H13  1  0.14673182  0.85914550  0.41528734  1
  H  H14  1  0.35326818  0.64085450  0.91528734  1
  H  H15  1  0.85427956  0.14035666  0.58272960  1
  H  H16  1  0.89672196  0.37362647  0.11972256  1
  H  H17  1  0.39729632  0.87442254  0.37888760  1
  H  H18  1  0.10270368  0.62557746  0.87888760  1
  H  H19  1  0.60327804  0.12637353  0.61972256  1
  H  H20  1  0.74005410  0.09426013  0.35201960  1
  H  H21  1  0.23810263  0.59540642  0.14749022  1
  H  H22  1  0.26189737  0.90459358  0.64749022  1
  H  H23  1  0.75994590  0.40573987  0.85201960  1
  H  H24  1  0.81554552  0.33786610  0.36001449  1
  H  H25  1  0.32147404  0.83913549  0.13824930  1
  H  H26  1  0.17852596  0.66086451  0.63824930  1
  H  H27  1  0.68445448  0.16213390  0.86001449  1
  H  H28  1  0.58172859  0.30937599  0.31566334  1
  H  H29  1  0.08552112  0.81312461  0.18044331  1
  H  H30  1  0.41447888  0.68687539  0.68044331  1
  H  H31  1  0.91827141  0.19062401  0.81566334  1
  H  H32  1  0.67397277  0.11568248  0.17542640  1
  H  H33  1  0.17431452  0.61951550  0.32474800  1
  H  H34  1  0.32568548  0.88048450  0.82474800  1
  H  H35  1  0.82602723  0.38431752  0.67542640  1
  H  H36  1  0.72313326  0.70686805  0.83544968  1
  H  H37  1  0.22533228  0.20992698  0.66654530  1
  H  H38  1  0.27466772  0.29007302  0.16654530  1
  H  H39  1  0.77686674  0.79313195  0.33544968  1
  H  H40  1  0.52806494  0.51084070  0.49396992  1
  H  H41  1  0.97193506  0.98915930  0.99396992  1
  H  H42  1  0.01193224  0.48154000  0.49159556  1
  H  H43  1  0.48806776  0.01846000  0.99159556  1
  C  C44  1  0.76763537  0.15279258  0.25756539  1
  C  C45  1  0.26703318  0.65482038  0.24120397  1
  C  C46  1  0.23296682  0.84517962  0.74120397  1
  C  C47  1  0.73236463  0.34720742  0.75756539  1
  C  C48  1  0.75206648  0.38990819  0.15952261  1
  C  C49  1  0.25276697  0.89091338  0.33884213  1
  C  C50  1  0.24723303  0.60908662  0.83884213  1
  C  C51  1  0.74793352  0.11009181  0.65952261  1
  N  N52  1  0.72528794  0.30135291  0.28327074  1
  N  N53  1  0.22760417  0.80346538  0.21425151  1
  N  N54  1  0.27239583  0.69653462  0.71425151  1
  N  N55  1  0.77471206  0.19864709  0.78327074  1
  O  O56  1  0.84631127  0.94814943  0.94930528  1
  O  O57  1  0.36110543  0.44791396  0.54744648  1
  O  O58  1  0.13889457  0.05208604  0.04744648  1
  O  O59  1  0.65368873  0.55185057  0.44930528  1
  O  O60  1  0.75281607  0.69449773  0.93660256  1
  O  O61  1  0.25172331  0.19569863  0.56505019  1
  O  O62  1  0.24827669  0.30430137  0.06505019  1
  O  O63  1  0.74718393  0.80550227  0.43660256  1
  O  O64  1  0.52839758  0.87754013  0.04021961  1
  O  O65  1  0.03775348  0.37968169  0.45647655  1
  O  O66  1  0.46224652  0.12031831  0.95647655  1
  O  O67  1  0.97160242  0.62245987  0.54021961  1
  O  O68  1  0.83499513  0.79560252  0.16642223  1
  O  O69  1  0.33740216  0.28970236  0.33330076  1
  O  O70  1  0.16259784  0.21029764  0.83330076  1
  O  O71  1  0.66500487  0.70439748  0.66642223  1
