# generated using pymatgen
data_CaTi(PO3)4
_symmetry_space_group_name_H-M   'P 1'
_cell_length_a   7.61961616
_cell_length_b   7.62379130
_cell_length_c   10.15834993
_cell_angle_alpha   99.13664321
_cell_angle_beta   109.83330083
_cell_angle_gamma   109.66903351
_symmetry_Int_Tables_number   1
_chemical_formula_structural   CaTi(PO3)4
_chemical_formula_sum   'Ca2 Ti2 P8 O24'
_cell_volume   497.26900411
_cell_formula_units_Z   2
loop_
 _symmetry_equiv_pos_site_id
 _symmetry_equiv_pos_as_xyz
  1  'x, y, z'
loop_
 _atom_site_type_symbol
 _atom_site_label
 _atom_site_symmetry_multiplicity
 _atom_site_fract_x
 _atom_site_fract_y
 _atom_site_fract_z
 _atom_site_occupancy
  Ca  Ca0  1  0.70339583  0.95320870  0.75016624  1
  Ca  Ca1  1  0.29787499  0.04731442  0.24962795  1
  Ti  Ti2  1  0.50094947  0.50050151  0.50027882  1
  Ti  Ti3  1  0.50087737  0.00129764  0.00041936  1
  P  P4  1  0.50310353  0.31973754  0.80466225  1
  P  P5  1  0.01539429  0.69775718  0.69527864  1
  P  P6  1  0.49871066  0.68149844  0.19487372  1
  P  P7  1  0.98680615  0.30139070  0.30584944  1
  P  P8  1  0.75447454  0.72016194  0.02319025  1
  P  P9  1  0.19462743  0.73002034  0.47566438  1
  P  P10  1  0.24589469  0.28210659  0.97550777  1
  P  P11  1  0.80596859  0.27014480  0.52414434  1
  O  O12  1  0.31730330  0.32256106  0.84619064  1
  O  O13  1  0.97764273  0.47062214  0.65318547  1
  O  O14  1  0.68432223  0.67865358  0.15291412  1
  O  O15  1  0.02421687  0.52826900  0.34777220  1
  O  O16  1  0.70400132  0.50403894  0.93131093  1
  O  O17  1  0.07077675  0.77190207  0.56780601  1
  O  O18  1  0.29750489  0.49876095  0.06705218  1
  O  O19  1  0.93049858  0.22702205  0.43291144  1
  O  O20  1  0.46223382  0.35069126  0.65818572  1
  O  O21  1  0.19403161  0.80408200  0.84107412  1
  O  O22  1  0.53830469  0.64823652  0.34050717  1
  O  O23  1  0.80878083  0.19528645  0.15969660  1
  O  O24  1  0.53709143  0.13959383  0.82667414  1
  O  O25  1  0.81337625  0.70923135  0.67481676  1
  O  O26  1  0.46582614  0.86259699  0.17429385  1
  O  O27  1  0.18905145  0.29022748  0.32686308  1
  O  O28  1  0.62061434  0.80255801  0.92777716  1
  O  O29  1  0.37478377  0.69451542  0.57113570  1
  O  O30  1  0.37784483  0.19831766  0.07110876  1
  O  O31  1  0.62809532  0.30824794  0.42838284  1
  O  O32  1  0.98009213  0.83371625  0.08690442  1
  O  O33  1  0.24057458  0.88980062  0.40947101  1
  O  O34  1  0.01996909  0.17046326  0.91088038  1
  O  O35  1  0.75585452  0.10916838  0.58866016  1
