# generated using pymatgen
data_Nb3AlV3Sn
_symmetry_space_group_name_H-M   'P 1'
_cell_length_a   5.09325425
_cell_length_b   5.09325425
_cell_length_c   5.09325425
_cell_angle_alpha   90.13251500
_cell_angle_beta   89.86748500
_cell_angle_gamma   89.86748500
_symmetry_Int_Tables_number   1
_chemical_formula_structural   Nb3AlV3Sn
_chemical_formula_sum   'Nb3 Al1 V3 Sn1'
_cell_volume   132.12426320
_cell_formula_units_Z   1
loop_
 _symmetry_equiv_pos_site_id
 _symmetry_equiv_pos_as_xyz
  1  'x, y, z'
loop_
 _atom_site_type_symbol
 _atom_site_label
 _atom_site_symmetry_multiplicity
 _atom_site_fract_x
 _atom_site_fract_y
 _atom_site_fract_z
 _atom_site_occupancy
  Nb  Nb0  1  0.49814800  0.73599875  0.00064690  1
  Nb  Nb1  1  0.26400125  0.00064690  0.50185200  1
  Nb  Nb2  1  0.99935310  0.50185200  0.73599875  1
  Al  Al3  1  0.50367635  0.49632365  0.49632365  1
  V  V4  1  0.49712013  0.25829771  0.99676809  1
  V  V5  1  0.74170229  0.99676809  0.50287987  1
  V  V6  1  0.00323191  0.50287987  0.25829771  1
  Sn  Sn7  1  0.99276697  0.00723303  0.00723303  1
