# generated using pymatgen
data_Nb3SiSnMo3
_symmetry_space_group_name_H-M   'P 1'
_cell_length_a   5.12830263
_cell_length_b   5.12830263
_cell_length_c   5.12830263
_cell_angle_alpha   89.90335357
_cell_angle_beta   90.09664643
_cell_angle_gamma   90.09664643
_symmetry_Int_Tables_number   1
_chemical_formula_structural   Nb3SiSnMo3
_chemical_formula_sum   'Nb3 Si1 Sn1 Mo3'
_cell_volume   134.87115819
_cell_formula_units_Z   1
loop_
 _symmetry_equiv_pos_site_id
 _symmetry_equiv_pos_as_xyz
  1  'x, y, z'
loop_
 _atom_site_type_symbol
 _atom_site_label
 _atom_site_symmetry_multiplicity
 _atom_site_fract_x
 _atom_site_fract_y
 _atom_site_fract_z
 _atom_site_occupancy
  Nb  Nb0  1  0.49907641  0.25628622  0.99886091  1
  Nb  Nb1  1  0.74371378  0.99886091  0.50092359  1
  Nb  Nb2  1  0.00113909  0.50092359  0.25628622  1
  Si  Si3  1  0.49990809  0.50009191  0.50009191  1
  Sn  Sn4  1  0.00097957  0.99902043  0.99902043  1
  Mo  Mo5  1  0.49947579  0.74491827  0.99937446  1
  Mo  Mo6  1  0.25508173  0.99937446  0.50052421  1
  Mo  Mo7  1  0.00062554  0.50052421  0.74491827  1
