# generated using pymatgen
data_Nb2Se3
_symmetry_space_group_name_H-M   'P 1'
_cell_length_a   3.45366752
_cell_length_b   3.45903795
_cell_length_c   13.70629804
_cell_angle_alpha   90.00000000
_cell_angle_beta   90.03407620
_cell_angle_gamma   59.94854796
_symmetry_Int_Tables_number   1
_chemical_formula_structural   Nb2Se3
_chemical_formula_sum   'Nb2 Se3'
_cell_volume   141.72979309
_cell_formula_units_Z   1
loop_
 _symmetry_equiv_pos_site_id
 _symmetry_equiv_pos_as_xyz
  1  'x, y, z'
loop_
 _atom_site_type_symbol
 _atom_site_label
 _atom_site_symmetry_multiplicity
 _atom_site_fract_x
 _atom_site_fract_y
 _atom_site_fract_z
 _atom_site_occupancy
  Nb  Nb0  1  0.99917433  0.00041284  0.49578288  1
  Nb  Nb1  1  0.00027306  0.99986347  0.75210145  1
  Se  Se2  1  0.33326659  0.33336670  0.62822986  1
  Se  Se3  1  0.66735463  0.66632269  0.37248806  1
  Se  Se4  1  0.33333139  0.33333431  0.87639774  1
