# generated using pymatgen
data_Na2U2O7
_symmetry_space_group_name_H-M   'P 1'
_cell_length_a   3.98335047
_cell_length_b   6.90841879
_cell_length_c   6.49755823
_cell_angle_alpha   110.44945353
_cell_angle_beta   90.00000405
_cell_angle_gamma   89.99999927
_symmetry_Int_Tables_number   1
_chemical_formula_structural   Na2U2O7
_chemical_formula_sum   'Na2 U2 O7'
_cell_volume   167.53595962
_cell_formula_units_Z   1
loop_
 _symmetry_equiv_pos_site_id
 _symmetry_equiv_pos_as_xyz
  1  'x, y, z'
loop_
 _atom_site_type_symbol
 _atom_site_label
 _atom_site_symmetry_multiplicity
 _atom_site_fract_x
 _atom_site_fract_y
 _atom_site_fract_z
 _atom_site_occupancy
  Na  Na0  1  0.00000000  0.50149481  0.50912079  1
  Na  Na1  1  0.50000000  0.00393667  0.50121177  1
  U  U2  1  1.00000000  0.98487316  0.99891516  1
  U  U3  1  0.50000000  0.50997606  0.98657530  1
  O  O4  1  0.50000000  0.58891747  0.29734427  1
  O  O5  1  1.00000000  0.11422220  0.30406006  1
  O  O6  1  0.50000000  0.40669639  0.67393059  1
  O  O7  1  0.00000000  0.88337891  0.69217291  1
  O  O8  1  0.50000000  0.85241205  0.04301022  1
  O  O9  1  0.00000000  0.61245060  0.95958650  1
  O  O10  1  0.50000000  0.18464168  0.96307243  1
