# generated using pymatgen
data_Nb3S4
_symmetry_space_group_name_H-M   'P 1'
_cell_length_a   3.31109788
_cell_length_b   3.31109788
_cell_length_c   13.10691488
_cell_angle_alpha   89.99811319
_cell_angle_beta   90.00188681
_cell_angle_gamma   120.00024128
_symmetry_Int_Tables_number   1
_chemical_formula_structural   Nb3S4
_chemical_formula_sum   'Nb3 S4'
_cell_volume   124.44403714
_cell_formula_units_Z   1
loop_
 _symmetry_equiv_pos_site_id
 _symmetry_equiv_pos_as_xyz
  1  'x, y, z'
loop_
 _atom_site_type_symbol
 _atom_site_label
 _atom_site_symmetry_multiplicity
 _atom_site_fract_x
 _atom_site_fract_y
 _atom_site_fract_z
 _atom_site_occupancy
  Nb  Nb0  1  0.00001403  0.99998597  0.75470847  1
  Nb  Nb1  1  0.99998597  0.00001403  0.24529153  1
  Nb  Nb2  1  0.00000000  -0.00000000  0.50000000  1
  S  S3  1  0.66667776  0.33332224  0.62867411  1
  S  S4  1  0.33332224  0.66667776  0.37132589  1
  S  S5  1  0.33330483  0.66669517  0.12462622  1
  S  S6  1  0.66669517  0.33330483  0.87537378  1
