# generated using pymatgen
data_NaB10Pb4Cl2O19
_symmetry_space_group_name_H-M   'P 1'
_cell_length_a   6.74442223
_cell_length_b   11.58458553
_cell_length_c   11.51635012
_cell_angle_alpha   90.00000000
_cell_angle_beta   90.21390507
_cell_angle_gamma   90.00000000
_symmetry_Int_Tables_number   1
_chemical_formula_structural   NaB10Pb4Cl2O19
_chemical_formula_sum   'Na2 B20 Pb8 Cl4 O38'
_cell_volume   899.78155174
_cell_formula_units_Z   2
loop_
 _symmetry_equiv_pos_site_id
 _symmetry_equiv_pos_as_xyz
  1  'x, y, z'
loop_
 _atom_site_type_symbol
 _atom_site_label
 _atom_site_symmetry_multiplicity
 _atom_site_fract_x
 _atom_site_fract_y
 _atom_site_fract_z
 _atom_site_occupancy
  Na  Na0  1  0.34566310  0.50438896  0.99395942  1
  Na  Na1  1  0.84566310  0.99561104  0.49395942  1
  B  B2  1  0.18803744  0.52183941  0.25376427  1
  B  B3  1  0.19056066  0.47912519  0.73872234  1
  B  B4  1  0.69056066  0.02087481  0.23872234  1
  B  B5  1  0.68803744  0.97816059  0.75376427  1
  B  B6  1  0.30132775  0.71216414  0.16092948  1
  B  B7  1  0.30416752  0.29137979  0.83484497  1
  B  B8  1  0.80416752  0.20862021  0.33484497  1
  B  B9  1  0.80132775  0.78783586  0.66092948  1
  B  B10  1  0.97348274  0.69820578  0.26758227  1
  B  B11  1  0.97205012  0.30414943  0.72910026  1
  B  B12  1  0.47205012  0.19585057  0.22910026  1
  B  B13  1  0.47348274  0.80179422  0.76758227  1
  B  B14  1  0.15096459  0.70137436  0.69157820  1
  B  B15  1  0.14827778  0.29874469  0.30554059  1
  B  B16  1  0.64827778  0.20125531  0.80554059  1
  B  B17  1  0.65096459  0.79862564  0.19157820  1
  B  B18  1  0.52423295  0.74791758  0.98843611  1
  B  B19  1  0.52570268  0.25497513  0.00923989  1
  B  B20  1  0.02570268  0.24502487  0.50923989  1
  B  B21  1  0.02423295  0.75208242  0.48843611  1
  Pb  Pb22  1  0.17756945  0.03154820  0.72523585  1
  Pb  Pb23  1  0.19234162  0.97118503  0.26581693  1
  Pb  Pb24  1  0.69234162  0.52881497  0.76581693  1
  Pb  Pb25  1  0.67756945  0.46845180  0.22523585  1
  Pb  Pb26  1  0.49960531  0.72042614  0.45383600  1
  Pb  Pb27  1  0.49670529  0.26021003  0.53724501  1
  Pb  Pb28  1  -0.00329471  0.23978997  0.03724501  1
  Pb  Pb29  1  -0.00039469  0.77957386  0.95383600  1
  Cl  Cl30  1  0.64523466  0.48529592  0.51467291  1
  Cl  Cl31  1  0.14523466  0.01470408  0.01467291  1
  Cl  Cl32  1  0.96931561  0.53896752  0.96873668  1
  Cl  Cl33  1  0.46931561  0.96103248  0.46873668  1
  O  O34  1  0.93546419  0.70651441  0.72050991  1
  O  O35  1  0.93425607  0.29202571  0.27671571  1
  O  O36  1  0.43425607  0.20797429  0.77671571  1
  O  O37  1  0.43546419  0.79348559  0.22050991  1
  O  O38  1  0.00886253  0.57004655  0.28217129  1
  O  O39  1  0.00921268  0.43175966  0.71031544  1
  O  O40  1  0.50921268  0.06824034  0.21031544  1
  O  O41  1  0.50886253  0.92995345  0.78217129  1
  O  O42  1  0.66310964  0.46711908  0.02546661  1
  O  O43  1  0.16310964  0.03288092  0.52546661  1
  O  O44  1  0.33470569  0.59073537  0.20312240  1
  O  O45  1  0.33763582  0.41075282  0.78926825  1
  O  O46  1  0.83763582  0.08924718  0.28926825  1
  O  O47  1  0.83470569  0.90926463  0.70312240  1
  O  O48  1  0.09117019  0.74475786  0.16921410  1
  O  O49  1  0.09121856  0.26155721  0.82916775  1
  O  O50  1  0.59121856  0.23844279  0.32916775  1
  O  O51  1  0.59117019  0.75524214  0.66921410  1
  O  O52  1  0.34309157  0.71241269  0.03201381  1
  O  O53  1  0.34794136  0.29516224  0.96354680  1
  O  O54  1  0.84794136  0.20483776  0.46354680  1
  O  O55  1  0.84309157  0.78758731  0.53201381  1
  O  O56  1  0.56179723  0.74203721  0.87190195  1
  O  O57  1  0.55680188  0.25737852  0.12699880  1
  O  O58  1  0.05680188  0.24262148  0.62699880  1
  O  O59  1  0.06179723  0.75796279  0.37190195  1
  O  O60  1  0.17416905  0.71823821  0.56192403  1
  O  O61  1  0.17142189  0.28813201  0.43667659  1
  O  O62  1  0.67142189  0.21186799  0.93667659  1
  O  O63  1  0.67416905  0.78176179  0.06192403  1
  O  O64  1  0.75877576  0.70746073  0.25496985  1
  O  O65  1  0.75794704  0.29514279  0.74588820  1
  O  O66  1  0.25794704  0.20485721  0.24588820  1
  O  O67  1  0.25877576  0.79253927  0.75496985  1
  O  O68  1  0.24198720  0.59090974  0.72198223  1
  O  O69  1  0.23719240  0.40877425  0.26790508  1
  O  O70  1  0.73719240  0.09122575  0.76790508  1
  O  O71  1  0.74198720  0.90909026  0.22198223  1
