# generated using pymatgen
data_NaFeCuSe2
_symmetry_space_group_name_H-M   'P 1'
_cell_length_a   4.02694254
_cell_length_b   4.02694227
_cell_length_c   7.18533605
_cell_angle_alpha   90.02181405
_cell_angle_beta   90.02181406
_cell_angle_gamma   60.01682257
_symmetry_Int_Tables_number   1
_chemical_formula_structural   NaFeCuSe2
_chemical_formula_sum   'Na1 Fe1 Cu1 Se2'
_cell_volume   100.92577771
_cell_formula_units_Z   1
loop_
 _symmetry_equiv_pos_site_id
 _symmetry_equiv_pos_as_xyz
  1  'x, y, z'
loop_
 _atom_site_type_symbol
 _atom_site_label
 _atom_site_symmetry_multiplicity
 _atom_site_fract_x
 _atom_site_fract_y
 _atom_site_fract_z
 _atom_site_occupancy
  Na  Na0  1  0.99999841  0.99999841  0.99202535  1
  Fe  Fe1  1  0.33336433  0.33336433  0.39235806  1
  Cu  Cu2  1  0.66671204  0.66671204  0.61614276  1
  Se  Se3  1  0.66666673  0.66666673  0.26540392  1
  Se  Se4  1  0.33325849  0.33325849  0.73406992  1
