# generated using pymatgen
data_Mg(Mo3Se4)2
_symmetry_space_group_name_H-M   'P 1'
_cell_length_a   6.80877458
_cell_length_b   6.86096829
_cell_length_c   6.87905695
_cell_angle_alpha   91.11192395
_cell_angle_beta   94.20953125
_cell_angle_gamma   94.97512947
_symmetry_Int_Tables_number   1
_chemical_formula_structural   Mg(Mo3Se4)2
_chemical_formula_sum   'Mg1 Mo6 Se8'
_cell_volume   319.17187333
_cell_formula_units_Z   1
loop_
 _symmetry_equiv_pos_site_id
 _symmetry_equiv_pos_as_xyz
  1  'x, y, z'
loop_
 _atom_site_type_symbol
 _atom_site_label
 _atom_site_symmetry_multiplicity
 _atom_site_fract_x
 _atom_site_fract_y
 _atom_site_fract_z
 _atom_site_occupancy
  Mg  Mg0  1  0.88180407  0.08289812  0.00382346  1
  Mo  Mo1  1  0.58266260  0.44822336  0.76552286  1
  Mo  Mo2  1  0.41027359  0.55278018  0.23399212  1
  Mo  Mo3  1  0.45575648  0.76422023  0.58125726  1
  Mo  Mo4  1  0.54241808  0.23527205  0.42147821  1
  Mo  Mo5  1  0.76405508  0.58789313  0.45520206  1
  Mo  Mo6  1  0.23596406  0.41306092  0.54509903  1
  Se  Se7  1  0.79514269  0.77323419  0.78317922  1
  Se  Se8  1  0.21130294  0.21825721  0.21417497  1
  Se  Se9  1  0.87044500  0.26309678  0.63343770  1
  Se  Se10  1  0.13114461  0.73207410  0.36773010  1
  Se  Se11  1  0.62907092  0.87989614  0.26287541  1
  Se  Se12  1  0.37464117  0.11778876  0.73381017  1
  Se  Se13  1  0.27309705  0.61861069  0.86476023  1
  Se  Se14  1  0.72622166  0.38769413  0.13465722  1
