# generated using pymatgen
data_Zn(MoO3)2
_symmetry_space_group_name_H-M   'P 1'
_cell_length_a   5.32320264
_cell_length_b   5.50890115
_cell_length_c   7.64518972
_cell_angle_alpha   89.98836288
_cell_angle_beta   90.76922901
_cell_angle_gamma   89.98970302
_symmetry_Int_Tables_number   1
_chemical_formula_structural   Zn(MoO3)2
_chemical_formula_sum   'Zn2 Mo4 O12'
_cell_volume   224.17495348
_cell_formula_units_Z   2
loop_
 _symmetry_equiv_pos_site_id
 _symmetry_equiv_pos_as_xyz
  1  'x, y, z'
loop_
 _atom_site_type_symbol
 _atom_site_label
 _atom_site_symmetry_multiplicity
 _atom_site_fract_x
 _atom_site_fract_y
 _atom_site_fract_z
 _atom_site_occupancy
  Zn  Zn0  1  0.49504002  0.46384059  0.25018334  1
  Zn  Zn1  1  0.99537448  0.03535669  0.75045847  1
  Mo  Mo2  1  0.50267643  0.98349059  0.99613534  1
  Mo  Mo3  1  0.98985449  0.49713979  0.99545618  1
  Mo  Mo4  1  0.00240018  0.51650353  0.49609355  1
  Mo  Mo5  1  0.48962436  0.00292588  0.49548745  1
  O  O6  1  0.68338217  0.31350355  0.44383119  1
  O  O7  1  0.17884321  0.19196478  0.55659468  1
  O  O8  1  0.80148616  0.79226989  0.04823499  1
  O  O9  1  0.30445253  0.71481325  0.95844881  1
  O  O10  1  0.30094343  0.70800502  0.54798181  1
  O  O11  1  0.80376527  0.78488440  0.45808608  1
  O  O12  1  0.18378125  0.18673508  0.94366002  1
  O  O13  1  0.67914625  0.30788086  0.05638014  1
  O  O14  1  0.12951155  0.47665478  0.24593061  1
  O  O15  1  0.62977098  0.02309310  0.74591282  1
  O  O16  1  0.42590286  0.97502199  0.25549668  1
  O  O17  1  0.92622139  0.52597422  0.75552082  1
