# generated using pymatgen
data_LiMo6(Se3S)2
_symmetry_space_group_name_H-M   'P 1'
_cell_length_a   6.66790996
_cell_length_b   6.72007246
_cell_length_c   6.77037000
_cell_angle_alpha   91.48274384
_cell_angle_beta   91.46505375
_cell_angle_gamma   91.21607184
_symmetry_Int_Tables_number   1
_chemical_formula_structural   LiMo6(Se3S)2
_chemical_formula_sum   'Li1 Mo6 Se6 S2'
_cell_volume   303.09899210
_cell_formula_units_Z   1
loop_
 _symmetry_equiv_pos_site_id
 _symmetry_equiv_pos_as_xyz
  1  'x, y, z'
loop_
 _atom_site_type_symbol
 _atom_site_label
 _atom_site_symmetry_multiplicity
 _atom_site_fract_x
 _atom_site_fract_y
 _atom_site_fract_z
 _atom_site_occupancy
  Li  Li0  1  0.00187688  0.99910246  0.00023423  1
  Mo  Mo1  1  0.77115313  0.45017158  0.58505402  1
  Mo  Mo2  1  0.44670950  0.58913188  0.76665634  1
  Mo  Mo3  1  0.58856035  0.77539449  0.44619212  1
  Mo  Mo4  1  0.22387445  0.55522317  0.41472923  1
  Mo  Mo5  1  0.55108940  0.41935174  0.23159166  1
  Mo  Mo6  1  0.41174012  0.22003202  0.54875839  1
  Se  Se7  1  0.61564226  0.25526183  0.87391162  1
  Se  Se8  1  0.74892884  0.12687553  0.37815377  1
  Se  Se9  1  0.12551339  0.37656363  0.74665956  1
  Se  Se10  1  0.37657037  0.74934865  0.12372924  1
  Se  Se11  1  0.78165254  0.78218263  0.77620214  1
  Se  Se12  1  0.21628845  0.22265799  0.22375976  1
  S  S13  1  0.27457239  0.86660472  0.60732540  1
  S  S14  1  0.86582793  0.61209769  0.27704253  1
