# generated using pymatgen
data_MgAl2(PO4)3
_symmetry_space_group_name_H-M   'P 1'
_cell_length_a   9.33027190
_cell_length_b   9.33027190
_cell_length_c   9.19253332
_cell_angle_alpha   90.00589240
_cell_angle_beta   90.00589240
_cell_angle_gamma   89.15628863
_symmetry_Int_Tables_number   1
_chemical_formula_structural   MgAl2(PO4)3
_chemical_formula_sum   'Mg2 Al4 P6 O24'
_cell_volume   800.15978434
_cell_formula_units_Z   2
loop_
 _symmetry_equiv_pos_site_id
 _symmetry_equiv_pos_as_xyz
  1  'x, y, z'
loop_
 _atom_site_type_symbol
 _atom_site_label
 _atom_site_symmetry_multiplicity
 _atom_site_fract_x
 _atom_site_fract_y
 _atom_site_fract_z
 _atom_site_occupancy
  Mg  Mg0  1  0.50301924  0.25731573  0.99996832  1
  Mg  Mg1  1  0.75731573  0.00301924  0.49996832  1
  Al  Al2  1  0.00240472  0.50254835  0.24992902  1
  Al  Al3  1  0.24352304  0.99648061  0.49989566  1
  Al  Al4  1  0.00254835  0.50240472  0.74992902  1
  Al  Al5  1  0.49648061  0.74352304  0.99989566  1
  P  P6  1  0.00768655  0.25601574  0.49945444  1
  P  P7  1  0.75601574  0.50768655  0.99945444  1
  P  P8  1  0.49022964  0.98920983  0.25003362  1
  P  P9  1  0.24533425  0.50706161  0.00057806  1
  P  P10  1  0.48920983  0.99022964  0.75003362  1
  P  P11  1  0.00706161  0.74533425  0.50057806  1
  O  O12  1  0.15186725  0.50705278  0.86300246  1
  O  O13  1  0.49269497  0.85611601  0.84766558  1
  O  O14  1  0.13896821  0.84307700  0.49458122  1
  O  O15  1  0.84975486  0.50751006  0.13845748  1
  O  O16  1  0.48090998  0.85596998  0.15170507  1
  O  O17  1  0.86964812  0.83243467  0.50730132  1
  O  O18  1  0.85074720  0.51905555  0.86174813  1
  O  O19  1  0.48043527  0.12875551  0.83797768  1
  O  O20  1  0.87137036  0.17037849  0.49315551  1
  O  O21  1  0.15068969  0.51988009  0.13685758  1
  O  O22  1  0.49524784  0.12800483  0.16275240  1
  O  O23  1  0.14221844  0.15638355  0.50493644  1
  O  O24  1  0.00705278  0.65186725  0.36300246  1
  O  O25  1  0.35611601  0.99269497  0.34766558  1
  O  O26  1  0.34307700  0.63896821  0.99458122  1
  O  O27  1  0.00751006  0.34975486  0.63845748  1
  O  O28  1  0.35596998  0.98090998  0.65170507  1
  O  O29  1  0.33243467  0.36964812  0.00730132  1
  O  O30  1  0.01905555  0.35074720  0.36174813  1
  O  O31  1  0.62875551  0.98043527  0.33797768  1
  O  O32  1  0.67037849  0.37137036  0.99315551  1
  O  O33  1  0.01988009  0.65068969  0.63685758  1
  O  O34  1  0.62800483  0.99524784  0.66275240  1
  O  O35  1  0.65638355  0.64221844  0.00493644  1
