# generated using pymatgen
data_MnFe3
_symmetry_space_group_name_H-M   'P 1'
_cell_length_a   2.47027571
_cell_length_b   2.47027571
_cell_length_c   7.82654112
_cell_angle_alpha   90.00000000
_cell_angle_beta   90.00000000
_cell_angle_gamma   119.99776441
_symmetry_Int_Tables_number   1
_chemical_formula_structural   MnFe3
_chemical_formula_sum   'Mn1 Fe3'
_cell_volume   41.36196295
_cell_formula_units_Z   1
loop_
 _symmetry_equiv_pos_site_id
 _symmetry_equiv_pos_as_xyz
  1  'x, y, z'
loop_
 _atom_site_type_symbol
 _atom_site_label
 _atom_site_symmetry_multiplicity
 _atom_site_fract_x
 _atom_site_fract_y
 _atom_site_fract_z
 _atom_site_occupancy
  Mn  Mn0  1  0.66667821  0.33332179  0.37500000  1
  Fe  Fe1  1  0.66666889  0.33333111  0.87500000  1
  Fe  Fe2  1  0.33332645  0.66667355  0.12448044  1
  Fe  Fe3  1  0.33332645  0.66667355  0.62551956  1
