# generated using pymatgen
data_Na4V20(CuO4)15
_symmetry_space_group_name_H-M   'P 1'
_cell_length_a   10.39526917
_cell_length_b   10.39526917
_cell_length_c   12.18955374
_cell_angle_alpha   90.00000003
_cell_angle_beta   64.76064288
_cell_angle_gamma   60.00000000
_symmetry_Int_Tables_number   1
_chemical_formula_structural   Na4V20(CuO4)15
_chemical_formula_sum   'Na4 V20 Cu15 O60'
_cell_volume   992.89467283
_cell_formula_units_Z   1
loop_
 _symmetry_equiv_pos_site_id
 _symmetry_equiv_pos_as_xyz
  1  'x, y, z'
loop_
 _atom_site_type_symbol
 _atom_site_label
 _atom_site_symmetry_multiplicity
 _atom_site_fract_x
 _atom_site_fract_y
 _atom_site_fract_z
 _atom_site_occupancy
  Na  Na0  1  0.00036232  0.99981884  0.99945652  1
  Na  Na1  1  0.60105029  0.19947485  0.59842456  1
  Na  Na2  1  0.19894971  0.40052515  0.20157544  1
  Na  Na3  1  0.79963768  0.60018116  0.80054348  1
  V  V4  1  0.20198465  0.89900768  0.69702303  1
  V  V5  1  0.59801535  0.70099232  0.10297697  1
  V  V6  1  0.00021484  0.49989258  0.49967774  1
  V  V7  1  0.40000000  0.30000000  0.90000000  1
  V  V8  1  0.79978516  0.10010742  0.30032226  1
  V  V9  1  0.09980396  0.20039286  0.10135954  1
  V  V10  1  0.50138821  0.99331621  0.49732611  1
  V  V11  1  0.90000000  0.80000000  0.90000000  1
  V  V12  1  0.29861179  0.60668379  0.30267389  1
  V  V13  1  0.70019604  0.39960714  0.69864046  1
  V  V14  1  0.40000000  0.80000000  0.90000000  1
  V  V15  1  0.79203052  0.60128569  0.30267389  1
  V  V16  1  0.20155636  0.39883650  0.69864046  1
  V  V17  1  0.59844364  0.20116350  0.10135954  1
  V  V18  1  0.00796948  0.99871431  0.49732611  1
  V  V19  1  0.49599010  0.50529559  0.49732611  1
  V  V20  1  0.90000000  0.30000000  0.90000000  1
  V  V21  1  0.30400990  0.09470441  0.30267389  1
  V  V22  1  0.70096668  0.90019682  0.69864046  1
  V  V23  1  0.09903332  0.69980318  0.10135954  1
  Cu  Cu24  1  0.90000000  0.30000000  0.40000000  1
  Cu  Cu25  1  0.29915756  0.10020390  0.79995292  1
  Cu  Cu26  1  0.69958017  0.90099656  0.19952948  1
  Cu  Cu27  1  0.10041983  0.69900344  0.60047052  1
  Cu  Cu28  1  0.50084244  0.49979610  0.00004708  1
  Cu  Cu29  1  0.60010621  0.70089035  0.60047052  1
  Cu  Cu30  1  0.99931437  0.50088952  0.00004708  1
  Cu  Cu31  1  0.40000000  0.30000000  0.40000000  1
  Cu  Cu32  1  0.80068563  0.09911048  0.79995292  1
  Cu  Cu33  1  0.19989379  0.89910965  0.19952948  1
  Cu  Cu34  1  0.70146708  0.39942327  0.19952948  1
  Cu  Cu35  1  0.09853292  0.20057673  0.60047052  1
  Cu  Cu36  1  0.49974902  0.99936145  0.00004708  1
  Cu  Cu37  1  0.90000000  0.80000000  0.40000000  1
  Cu  Cu38  1  0.30025098  0.60063855  0.79995292  1
  O  O39  1  0.96978016  0.60476801  0.14928749  1
  O  O40  1  0.57115490  0.80415880  0.74956374  1
  O  O41  1  0.16302210  0.00633762  0.35133067  1
  O  O42  1  0.76904333  0.20519849  0.94827761  1
  O  O43  1  0.36755601  0.40419775  0.54887290  1
  O  O44  1  0.22884510  0.79584120  0.05043626  1
  O  O45  1  0.83021984  0.99523199  0.65071251  1
  O  O46  1  0.43244399  0.19580225  0.25112710  1
  O  O47  1  0.03095667  0.39480151  0.85172239  1
  O  O48  1  0.63697790  0.59366238  0.44866933  1
  O  O49  1  0.38357486  0.71670079  0.20412234  1
  O  O50  1  0.98458109  0.91716329  0.80428900  1
  O  O51  1  0.58617041  0.11896752  0.40354250  1
  O  O52  1  0.18722518  0.31814284  0.00375882  1
  O  O53  1  0.78966229  0.51628394  0.60384411  1
  O  O54  1  0.81541891  0.68283671  0.99571100  1
  O  O55  1  0.41642514  0.88329921  0.59587766  1
  O  O56  1  0.01033771  0.08371606  0.19615589  1
  O  O57  1  0.61277482  0.28185716  0.79624118  1
  O  O58  1  0.21382959  0.48103248  0.39645750  1
  O  O59  1  0.12062666  0.68357109  0.25112710  1
  O  O60  1  0.72251944  0.88267905  0.85172239  1
  O  O61  1  0.32069039  0.08564722  0.44866933  1
  O  O62  1  0.92487744  0.27928135  0.05043626  1
  O  O63  1  0.52383566  0.48093235  0.65071251  1
  O  O64  1  0.07748056  0.71732095  0.94827761  1
  O  O65  1  0.67937334  0.91642891  0.54887290  1
  O  O66  1  0.27616434  0.11906765  0.14928749  1
  O  O67  1  0.87512256  0.32071865  0.74956374  1
  O  O68  1  0.47930961  0.51435278  0.35133067  1
  O  O69  1  0.30912684  0.40901600  0.79624118  1
  O  O70  1  0.90868043  0.61028709  0.39645750  1
  O  O71  1  0.50603337  0.81112992  0.99571100  1
  O  O72  1  0.10439800  0.01230280  0.59587766  1
  O  O73  1  0.70979034  0.20649360  0.19615589  1
  O  O74  1  0.89131957  0.98971291  0.40354250  1
  O  O75  1  0.49087316  0.19098400  0.00375882  1
  O  O76  1  0.09020966  0.39350640  0.60384411  1
  O  O77  1  0.69560200  0.58769720  0.20412234  1
  O  O78  1  0.29396663  0.78887008  0.80428900  1
  O  O79  1  0.31438402  0.49463198  0.00375882  1
  O  O80  1  0.91243983  0.69405377  0.60384411  1
  O  O81  1  0.51257845  0.89972435  0.20412234  1
  O  O82  1  0.11287430  0.09825562  0.80428900  1
  O  O83  1  0.71542503  0.29486206  0.40354250  1
  O  O84  1  0.88756017  0.90594623  0.19615589  1
  O  O85  1  0.48561598  0.10536802  0.79624118  1
  O  O86  1  0.08457497  0.30513794  0.39645750  1
  O  O87  1  0.68712570  0.50174438  0.99571100  1
  O  O88  1  0.28742155  0.70027565  0.59587766  1
  O  O89  1  0.65500694  0.83064028  0.35133067  1
  O  O90  1  0.25692088  0.02575818  0.94827761  1
  O  O91  1  0.85532485  0.22824624  0.54887290  1
  O  O92  1  0.45548052  0.42545183  0.14928749  1
  O  O93  1  0.05459506  0.62468630  0.74956374  1
  O  O94  1  0.54307912  0.57424182  0.85172239  1
  O  O95  1  0.14499306  0.76935972  0.44866933  1
  O  O96  1  0.74540494  0.97531370  0.05043626  1
  O  O97  1  0.34451948  0.17454817  0.65071251  1
  O  O98  1  0.94467515  0.37175376  0.25112710  1
