# generated using pymatgen
data_MgFe4CuO8
_symmetry_space_group_name_H-M   'P 1'
_cell_length_a   6.05848532
_cell_length_b   5.91194978
_cell_length_c   5.99230975
_cell_angle_alpha   90.00000000
_cell_angle_beta   60.36066998
_cell_angle_gamma   119.33075415
_symmetry_Int_Tables_number   1
_chemical_formula_structural   MgFe4CuO8
_chemical_formula_sum   'Mg1 Fe4 Cu1 O8'
_cell_volume   154.09698875
_cell_formula_units_Z   1
loop_
 _symmetry_equiv_pos_site_id
 _symmetry_equiv_pos_as_xyz
  1  'x, y, z'
loop_
 _atom_site_type_symbol
 _atom_site_label
 _atom_site_symmetry_multiplicity
 _atom_site_fract_x
 _atom_site_fract_y
 _atom_site_fract_z
 _atom_site_occupancy
  Mg  Mg0  1  0.50000000  0.50000000  0.50000000  1
  Fe  Fe1  1  0.27561217  0.13141072  0.11219392  1
  Fe  Fe2  1  0.72438783  0.86858928  0.88780608  1
  Fe  Fe3  1  -0.00000000  0.50000000  -0.00000000  1
  Fe  Fe4  1  -0.00000000  0.50000000  0.50000000  1
  Cu  Cu5  1  0.50000000  -0.00000000  0.50000000  1
  O  O6  1  0.98618142  0.73116301  0.25690929  1
  O  O7  1  0.03876805  0.28677917  0.23061598  1
  O  O8  1  0.52747262  0.25277588  0.72082369  1
  O  O9  1  0.52747262  0.25277588  0.25170369  1
  O  O10  1  0.01381858  0.26883699  0.74309071  1
  O  O11  1  0.96123195  0.71322083  0.76938402  1
  O  O12  1  0.47252738  0.74722412  0.27917631  1
  O  O13  1  0.47252738  0.74722412  0.74829631  1
