# generated using pymatgen
data_Li19V12O32
_symmetry_space_group_name_H-M   'P 1'
_cell_length_a   7.28632695
_cell_length_b   12.45149258
_cell_length_c   7.28632695
_cell_angle_alpha   104.34588492
_cell_angle_beta   67.44255299
_cell_angle_gamma   104.34588492
_symmetry_Int_Tables_number   1
_chemical_formula_structural   Li19V12O32
_chemical_formula_sum   'Li19 V12 O32'
_cell_volume   582.76575750
_cell_formula_units_Z   1
loop_
 _symmetry_equiv_pos_site_id
 _symmetry_equiv_pos_as_xyz
  1  'x, y, z'
loop_
 _atom_site_type_symbol
 _atom_site_label
 _atom_site_symmetry_multiplicity
 _atom_site_fract_x
 _atom_site_fract_y
 _atom_site_fract_z
 _atom_site_occupancy
  Li  Li0  1  0.47557233  0.67728422  0.22557233  1
  Li  Li1  1  0.97053499  0.67307526  0.72053499  1
  Li  Li2  1  0.02633301  0.32624770  0.28713105  1
  Li  Li3  1  0.53713105  0.32624770  0.77633301  1
  Li  Li4  1  0.73464893  0.67882504  0.48464893  1
  Li  Li5  1  0.23909938  0.68084871  0.98909938  1
  Li  Li6  1  0.75879099  0.32192508  0.00991072  1
  Li  Li7  1  0.25991072  0.32192508  0.50879099  1
  Li  Li8  1  0.79895358  0.93861822  0.54895358  1
  Li  Li9  1  0.30046431  0.93783725  0.05046431  1
  Li  Li10  1  0.70154871  0.06040894  0.94844751  1
  Li  Li11  1  0.19844751  0.06040894  0.45154871  1
  Li  Li12  1  0.37418416  0.20747322  0.12418416  1
  Li  Li13  1  0.87051484  0.21712838  0.62051484  1
  Li  Li14  1  0.12461262  0.78969290  0.37531538  1
  Li  Li15  1  0.62531538  0.78969290  0.87461262  1
  Li  Li16  1  0.42240988  0.43485809  0.17240988  1
  Li  Li17  1  0.58867394  0.56323744  0.83007443  1
  Li  Li18  1  0.08007443  0.56323744  0.33867394  1
  V  V19  1  0.60996519  0.19080195  0.35996519  1
  V  V20  1  0.11240658  0.19270698  0.86240658  1
  V  V21  1  0.88778113  0.80798641  0.13706926  1
  V  V22  1  0.38706926  0.80798641  0.63778113  1
  V  V23  1  0.68198027  0.44073504  0.43198027  1
  V  V24  1  0.18373530  0.44469261  0.93373530  1
  V  V25  1  0.82100697  0.55724184  0.06584433  1
  V  V26  1  0.31584433  0.55724184  0.57100697  1
  V  V27  1  0.02756229  0.92841458  0.77756229  1
  V  V28  1  0.52793266  0.92892894  0.27793266  1
  V  V29  1  0.47269513  0.06974668  0.72316785  1
  V  V30  1  0.97316785  0.06974668  0.22269513  1
  O  O31  1  0.62879085  0.82519009  0.37879085  1
  O  O32  1  0.12910819  0.82644716  0.87910819  1
  O  O33  1  0.87926031  0.17517069  0.11132218  1
  O  O34  1  0.36132218  0.17517069  0.62926031  1
  O  O35  1  0.46832342  0.05685456  0.21832342  1
  O  O36  1  0.97119280  0.05872495  0.72119280  1
  O  O37  1  0.03167329  0.94362412  0.28166761  1
  O  O38  1  0.53166761  0.94362412  0.78167329  1
  O  O39  1  0.58420118  0.55257873  0.33420118  1
  O  O40  1  0.08977000  0.55095610  0.83977000  1
  O  O41  1  0.91811415  0.44610271  0.16369839  1
  O  O42  1  0.41369839  0.44610271  0.66811415  1
  O  O43  1  0.81014402  0.55489798  0.56014402  1
  O  O44  1  0.31811721  0.55107501  0.06811721  1
  O  O45  1  0.68009973  0.44862339  0.94156874  1
  O  O46  1  0.19156874  0.44862339  0.43009973  1
  O  O47  1  0.89647911  0.82176481  0.64647911  1
  O  O48  1  0.39756148  0.82002297  0.14756148  1
  O  O49  1  0.60313560  0.18052198  0.85057900  1
  O  O50  1  0.10057900  0.18052198  0.35313560  1
  O  O51  1  0.19662619  0.06269039  0.94662619  1
  O  O52  1  0.69482322  0.06129806  0.44482322  1
  O  O53  1  0.30493503  0.94009603  0.55531314  1
  O  O54  1  0.80531314  0.94009603  0.05493503  1
  O  O55  1  0.75063452  0.31440577  0.50063452  1
  O  O56  1  0.25548334  0.31571036  0.00548334  1
  O  O57  1  0.74472547  0.68166119  0.99103191  1
  O  O58  1  0.24103191  0.68166119  0.49472547  1
  O  O59  1  0.53082314  0.31454346  0.28082314  1
  O  O60  1  0.03764520  0.30344535  0.78764520  1
  O  O61  1  0.96799400  0.68479579  0.21628986  1
  O  O62  1  0.46628986  0.68479579  0.71799400  1
