# generated using pymatgen
data_Li3Al2CoO6
_symmetry_space_group_name_H-M   'P 1'
_cell_length_a   2.85832951
_cell_length_b   2.85832951
_cell_length_c   14.42732727
_cell_angle_alpha   90.00000000
_cell_angle_beta   90.00000000
_cell_angle_gamma   60.00002097
_symmetry_Int_Tables_number   1
_chemical_formula_structural   Li3Al2CoO6
_chemical_formula_sum   'Li3 Al2 Co1 O6'
_cell_volume   102.08012526
_cell_formula_units_Z   1
loop_
 _symmetry_equiv_pos_site_id
 _symmetry_equiv_pos_as_xyz
  1  'x, y, z'
loop_
 _atom_site_type_symbol
 _atom_site_label
 _atom_site_symmetry_multiplicity
 _atom_site_fract_x
 _atom_site_fract_y
 _atom_site_fract_z
 _atom_site_occupancy
  Li  Li0  1  0.00000000  0.00000000  -0.00099907  1
  Li  Li1  1  0.33333300  0.33333300  0.33433207  1
  Li  Li2  1  0.66666700  0.66666700  0.66666700  1
  Al  Al3  1  0.00000000  0.00000000  0.49980946  1
  Al  Al4  1  0.33333300  0.33333300  0.83352354  1
  Co  Co5  1  0.66666700  0.66666700  0.16666700  1
  O  O6  1  0.33333300  0.33333300  0.08827313  1
  O  O7  1  0.66666700  0.66666700  0.42940705  1
  O  O8  1  -0.00000000  0.00000000  0.76251476  1
  O  O9  1  0.00000000  0.00000000  0.24505987  1
  O  O10  1  0.33333300  0.33333300  0.57081824  1
  O  O11  1  0.66666700  0.66666700  0.90392695  1
