# generated using pymatgen
data_KLa(WO4)2
_symmetry_space_group_name_H-M   'P 1'
_cell_length_a   5.54768243
_cell_length_b   5.54768243
_cell_length_c   7.20792588
_cell_angle_alpha   67.36668306
_cell_angle_beta   67.36668314
_cell_angle_gamma   90.00000000
_symmetry_Int_Tables_number   1
_chemical_formula_structural   KLa(WO4)2
_chemical_formula_sum   'K1 La1 W2 O8'
_cell_volume   186.10616341
_cell_formula_units_Z   1
loop_
 _symmetry_equiv_pos_site_id
 _symmetry_equiv_pos_as_xyz
  1  'x, y, z'
loop_
 _atom_site_type_symbol
 _atom_site_label
 _atom_site_symmetry_multiplicity
 _atom_site_fract_x
 _atom_site_fract_y
 _atom_site_fract_z
 _atom_site_occupancy
  K  K0  1  0.37500000  0.62500000  0.25000000  1
  La  La1  1  0.62500000  0.37500000  0.75000000  1
  W  W2  1  0.87500000  0.12500000  0.25000000  1
  W  W3  1  0.12500000  0.87500000  0.75000000  1
  O  O4  1  0.05004115  0.71651441  0.59398892  1
  O  O5  1  0.35596993  0.18949668  0.59398892  1
  O  O6  1  0.72388572  0.33586878  0.07484693  1
  O  O7  1  0.20126735  0.08928429  0.07484693  1
  O  O8  1  0.91071571  0.27611428  0.42515307  1
  O  O9  1  0.66413122  0.79873265  0.42515307  1
  O  O10  1  0.28348559  0.64403007  0.90601108  1
  O  O11  1  0.81050332  0.94995885  0.90601108  1
