# generated using pymatgen
data_LaY3Ti4O12
_symmetry_space_group_name_H-M   'P 1'
_cell_length_a   5.39855403
_cell_length_b   5.73630644
_cell_length_c   7.75141347
_cell_angle_alpha   90.00000000
_cell_angle_beta   90.00000000
_cell_angle_gamma   89.99904852
_symmetry_Int_Tables_number   1
_chemical_formula_structural   LaY3Ti4O12
_chemical_formula_sum   'La1 Y3 Ti4 O12'
_cell_volume   240.04391406
_cell_formula_units_Z   1
loop_
 _symmetry_equiv_pos_site_id
 _symmetry_equiv_pos_as_xyz
  1  'x, y, z'
loop_
 _atom_site_type_symbol
 _atom_site_label
 _atom_site_symmetry_multiplicity
 _atom_site_fract_x
 _atom_site_fract_y
 _atom_site_fract_z
 _atom_site_occupancy
  La  La0  1  0.51723791  0.56456035  0.25000000  1
  Y  Y1  1  0.97807376  0.06986437  0.25000000  1
  Y  Y2  1  0.47915836  0.42636454  0.75000000  1
  Y  Y3  1  0.01795615  0.92870745  0.75000000  1
  Ti  Ti4  1  0.99991678  0.49877504  0.99638235  1
  Ti  Ti5  1  0.50083330  0.99974612  0.50254295  1
  Ti  Ti6  1  0.99991678  0.49877504  0.50361765  1
  Ti  Ti7  1  0.50083330  0.99974612  0.99745705  1
  O  O8  1  0.81614111  0.80877085  0.05149586  1
  O  O9  1  0.69893381  0.29307240  0.45280833  1
  O  O10  1  0.19459124  0.19874921  0.55846841  1
  O  O11  1  0.30917177  0.69662429  0.94090242  1
  O  O12  1  0.19459124  0.19874921  0.94153159  1
  O  O13  1  0.30917177  0.69662429  0.55909758  1
  O  O14  1  0.81614111  0.80877085  0.44850414  1
  O  O15  1  0.69893381  0.29307240  0.04719167  1
  O  O16  1  0.38503829  0.97667594  0.25000000  1
  O  O17  1  0.08814157  0.45929498  0.25000000  1
  O  O18  1  0.61417871  0.03982431  0.75000000  1
  O  O19  1  0.88103924  0.54323223  0.75000000  1
