# generated using pymatgen
data_Ba2Tl2Bi3O10
_symmetry_space_group_name_H-M   'P 1'
_cell_length_a   3.98828941
_cell_length_b   3.88149710
_cell_length_c   21.37539001
_cell_angle_alpha   92.85667576
_cell_angle_beta   94.48580125
_cell_angle_gamma   90.01050501
_symmetry_Int_Tables_number   1
_chemical_formula_structural   Ba2Tl2Bi3O10
_chemical_formula_sum   'Ba2 Tl2 Bi3 O10'
_cell_volume   329.47609757
_cell_formula_units_Z   1
loop_
 _symmetry_equiv_pos_site_id
 _symmetry_equiv_pos_as_xyz
  1  'x, y, z'
loop_
 _atom_site_type_symbol
 _atom_site_label
 _atom_site_symmetry_multiplicity
 _atom_site_fract_x
 _atom_site_fract_y
 _atom_site_fract_z
 _atom_site_occupancy
  Ba  Ba0  1  0.11611248  0.18093578  0.30624909  1
  Ba  Ba1  1  0.78444997  0.80703742  0.69429080  1
  Tl  Tl2  1  0.65876152  0.72844509  0.44559215  1
  Tl  Tl3  1  0.20552143  0.26336165  0.55423127  1
  Bi  Bi4  1  0.34129357  0.33574497  0.82895753  1
  Bi  Bi5  1  0.56538532  0.64174428  0.17181996  1
  Bi  Bi6  1  0.39051788  0.53970327  0.99964631  1
  O  O7  1  0.32112956  0.83164941  0.78034012  1
  O  O8  1  0.26378056  0.29534800  0.64959789  1
  O  O9  1  0.82302801  0.33145098  0.78431836  1
  O  O10  1  0.82034936  0.75863552  0.54101615  1
  O  O11  1  0.90968434  0.54111012  0.04153002  1
  O  O12  1  0.07915627  0.65487655  0.21708950  1
  O  O13  1  0.63205401  0.69573187  0.35039384  1
  O  O14  1  0.58092150  0.15588532  0.22029681  1
  O  O15  1  0.28480865  0.23286976  0.45880398  1
  O  O16  1  0.37351358  0.02417602  0.94888222  1
