# generated using pymatgen
data_LaMnFe3(BiO4)3
_symmetry_space_group_name_H-M   'P 1'
_cell_length_a   5.67140835
_cell_length_b   5.67140835
_cell_length_c   9.79516682
_cell_angle_alpha   71.92697999
_cell_angle_beta   108.07302001
_cell_angle_gamma   121.43908487
_symmetry_Int_Tables_number   1
_chemical_formula_structural   LaMnFe3(BiO4)3
_chemical_formula_sum   'La1 Mn1 Fe3 Bi3 O12'
_cell_volume   251.23093945
_cell_formula_units_Z   1
loop_
 _symmetry_equiv_pos_site_id
 _symmetry_equiv_pos_as_xyz
  1  'x, y, z'
loop_
 _atom_site_type_symbol
 _atom_site_label
 _atom_site_symmetry_multiplicity
 _atom_site_fract_x
 _atom_site_fract_y
 _atom_site_fract_z
 _atom_site_occupancy
  La  La0  1  0.37303750  0.62696250  0.62114544  1
  Mn  Mn1  1  0.74928850  0.25071150  0.75050729  1
  Fe  Fe2  1  0.49776014  0.50223986  0.00127664  1
  Fe  Fe3  1  0.00283232  0.99716768  0.49946174  1
  Fe  Fe4  1  0.24997702  0.75002298  0.25029859  1
  Bi  Bi5  1  0.64412073  0.35587927  0.38892953  1
  Bi  Bi6  1  0.13775553  0.86224447  0.88897933  1
  Bi  Bi7  1  0.85864753  0.14135247  0.11605501  1
  O  O8  1  0.07870537  0.92129463  0.32904700  1
  O  O9  1  0.56671022  0.43328978  0.83110739  1
  O  O10  1  0.42252454  0.57747546  0.17030668  1
  O  O11  1  0.93305466  0.06694534  0.66980031  1
  O  O12  1  0.59888513  0.90989656  0.39989194  1
  O  O13  1  0.08975223  0.40845424  0.90024323  1
  O  O14  1  0.40537285  0.09729843  0.09461119  1
  O  O15  1  0.89472967  0.58750471  0.59679616  1
  O  O16  1  0.09010344  0.40111487  0.39989194  1
  O  O17  1  0.59154576  0.91024777  0.90024323  1
  O  O18  1  0.90270157  0.59462715  0.09461119  1
  O  O19  1  0.41249529  0.10527033  0.59679616  1
