# generated using pymatgen
data_Li3Ta12O31
_symmetry_space_group_name_H-M   'P 1'
_cell_length_a   3.90017719
_cell_length_b   9.05741365
_cell_length_c   17.08306930
_cell_angle_alpha   90.43098684
_cell_angle_beta   90.00000000
_cell_angle_gamma   90.00000000
_symmetry_Int_Tables_number   1
_chemical_formula_structural   Li3Ta12O31
_chemical_formula_sum   'Li3 Ta12 O31'
_cell_volume   603.45120116
_cell_formula_units_Z   1
loop_
 _symmetry_equiv_pos_site_id
 _symmetry_equiv_pos_as_xyz
  1  'x, y, z'
loop_
 _atom_site_type_symbol
 _atom_site_label
 _atom_site_symmetry_multiplicity
 _atom_site_fract_x
 _atom_site_fract_y
 _atom_site_fract_z
 _atom_site_occupancy
  Li  Li0  1  0.50000000  0.04314886  0.38212500  1
  Li  Li1  1  0.50000000  0.95761068  0.62252354  1
  Li  Li2  1  0.50000000  0.04769947  0.11483513  1
  Ta  Ta3  1  0.00000000  0.40363884  0.36778373  1
  Ta  Ta4  1  0.00000000  0.60528616  0.63197391  1
  Ta  Ta5  1  -0.00000000  0.39865506  0.13035969  1
  Ta  Ta6  1  0.00000000  0.59303453  0.86678886  1
  Ta  Ta7  1  -0.00000000  0.05700659  0.25012674  1
  Ta  Ta8  1  0.00000000  0.94503296  0.75488512  1
  Ta  Ta9  1  0.00000000  0.80892810  0.44281821  1
  Ta  Ta10  1  0.00000000  0.19597266  0.55820056  1
  Ta  Ta11  1  0.00000000  0.80468200  0.05910810  1
  Ta  Ta12  1  0.00000000  0.18072536  0.94384402  1
  Ta  Ta13  1  -0.00000000  0.69111896  0.25004069  1
  Ta  Ta14  1  0.00000000  0.30525051  0.74824711  1
  O  O15  1  0.00000000  0.46293075  0.24994246  1
  O  O16  1  0.00000000  0.54048027  0.75226000  1
  O  O17  1  0.00000000  0.33532701  0.47678487  1
  O  O18  1  0.00000000  0.66631448  0.52273529  1
  O  O19  1  0.00000000  0.33011789  0.02314720  1
  O  O20  1  0.00000000  0.66041265  0.97292425  1
  O  O21  1  -0.00000000  0.88480980  0.32573888  1
  O  O22  1  -0.00000000  0.11831658  0.67491915  1
  O  O23  1  0.00000000  0.88243967  0.17291793  1
  O  O24  1  -0.00000000  0.12119556  0.82508277  1
  O  O25  1  0.50000000  0.83804923  0.43536886  1
  O  O26  1  0.50000000  0.16174542  0.56404033  1
  O  O27  1  0.50000000  0.82903997  0.06157877  1
  O  O28  1  0.50000000  0.17211497  0.93704948  1
  O  O29  1  -0.00000000  0.62681554  0.36769991  1
  O  O30  1  0.00000000  0.37574549  0.63261737  1
  O  O31  1  0.00000000  0.62398532  0.13060907  1
  O  O32  1  -0.00000000  0.38031194  0.87002334  1
  O  O33  1  -0.00000000  0.00080641  0.49949764  1
  O  O34  1  0.00000000  0.00433216  0.00973788  1
  O  O35  1  0.00000000  0.19012993  0.33797093  1
  O  O36  1  0.00000000  0.81246998  0.66203238  1
  O  O37  1  0.00000000  0.18859105  0.16215579  1
  O  O38  1  0.00000000  0.79435011  0.83294193  1
  O  O39  1  0.50000000  0.70395081  0.24889316  1
  O  O40  1  0.50000000  0.30694420  0.75190395  1
  O  O41  1  0.50000000  0.05373915  0.24907341  1
  O  O42  1  0.50000000  0.94453239  0.74342924  1
  O  O43  1  0.50000000  0.40530428  0.37016255  1
  O  O44  1  0.50000000  0.59374187  0.63254689  1
  O  O45  1  0.50000000  0.40416439  0.13055397  1
