# generated using pymatgen
data_LaAlCu4
_symmetry_space_group_name_H-M   'P 1'
_cell_length_a   4.02129963
_cell_length_b   5.33363140
_cell_length_c   5.33417157
_cell_angle_alpha   120.00756004
_cell_angle_beta   90.00000000
_cell_angle_gamma   90.00000000
_symmetry_Int_Tables_number   1
_chemical_formula_structural   LaAlCu4
_chemical_formula_sum   'La1 Al1 Cu4'
_cell_volume   99.07269005
_cell_formula_units_Z   1
loop_
 _symmetry_equiv_pos_site_id
 _symmetry_equiv_pos_as_xyz
  1  'x, y, z'
loop_
 _atom_site_type_symbol
 _atom_site_label
 _atom_site_symmetry_multiplicity
 _atom_site_fract_x
 _atom_site_fract_y
 _atom_site_fract_z
 _atom_site_occupancy
  La  La0  1  -0.00000000  0.99995648  0.00001788  1
  Al  Al1  1  -0.00000000  0.33335257  0.66665653  1
  Cu  Cu2  1  -0.00000000  0.66663989  0.33333425  1
  Cu  Cu3  1  0.50000000  0.50108412  0.00220960  1
  Cu  Cu4  1  0.50000000  0.50109938  0.49889255  1
  Cu  Cu5  1  0.50000000  0.99776755  0.49888919  1
