# generated using pymatgen
data_LiTa2CuO6
_symmetry_space_group_name_H-M   'P 1'
_cell_length_a   5.22960659
_cell_length_b   5.22960659
_cell_length_c   5.58850188
_cell_angle_alpha   89.99999649
_cell_angle_beta   117.89741100
_cell_angle_gamma   60.00000656
_symmetry_Int_Tables_number   1
_chemical_formula_structural   LiTa2CuO6
_chemical_formula_sum   'Li1 Ta2 Cu1 O6'
_cell_volume   111.38149894
_cell_formula_units_Z   1
loop_
 _symmetry_equiv_pos_site_id
 _symmetry_equiv_pos_as_xyz
  1  'x, y, z'
loop_
 _atom_site_type_symbol
 _atom_site_label
 _atom_site_symmetry_multiplicity
 _atom_site_fract_x
 _atom_site_fract_y
 _atom_site_fract_z
 _atom_site_occupancy
  Li  Li0  1  0.58351687  0.20824157  0.37527530  1
  Ta  Ta1  1  0.00486929  0.49756536  0.50730393  1
  Ta  Ta2  1  0.01420317  0.99289842  0.02130475  1
  Cu  Cu3  1  0.53057115  0.73471443  0.79585672  1
  O  O4  1  0.87005460  0.36495194  0.73227330  1
  O  O5  1  0.09722525  0.76499346  0.73227330  1
  O  O6  1  0.49726676  0.13778129  0.73227330  1
  O  O7  1  0.86727185  0.25534872  0.24114646  1
  O  O8  1  0.49649518  0.87737943  0.24114646  1
  O  O9  1  0.11852589  0.62612538  0.24114646  1
