# generated using pymatgen
data_LaNb2CuBrO7
_symmetry_space_group_name_H-M   'P 1'
_cell_length_a   5.58218444
_cell_length_b   5.58218444
_cell_length_c   11.79887416
_cell_angle_alpha   89.94768461
_cell_angle_beta   90.05231539
_cell_angle_gamma   90.17975788
_symmetry_Int_Tables_number   1
_chemical_formula_structural   LaNb2CuBrO7
_chemical_formula_sum   'La2 Nb4 Cu2 Br2 O14'
_cell_volume   367.66004399
_cell_formula_units_Z   2
loop_
 _symmetry_equiv_pos_site_id
 _symmetry_equiv_pos_as_xyz
  1  'x, y, z'
loop_
 _atom_site_type_symbol
 _atom_site_label
 _atom_site_symmetry_multiplicity
 _atom_site_fract_x
 _atom_site_fract_y
 _atom_site_fract_z
 _atom_site_occupancy
  La  La0  1  0.26395937  0.73812103  0.50000465  1
  La  La1  1  0.73812103  0.26395937  0.49999535  1
  Nb  Nb2  1  0.75440540  0.75400062  0.69061761  1
  Nb  Nb3  1  0.25081514  0.24984072  0.69046351  1
  Nb  Nb4  1  0.75400062  0.75440540  0.30938239  1
  Nb  Nb5  1  0.24984072  0.25081514  0.30953649  1
  Cu  Cu6  1  0.77072528  0.77072528  -0.00000000  1
  Cu  Cu7  1  0.22640546  0.22640546  -0.00000000  1
  Br  Br8  1  0.76370041  0.28379578  0.99500051  1
  Br  Br9  1  0.28379578  0.76370041  0.00499949  1
  O  O10  1  0.50025238  0.99962431  0.65246356  1
  O  O11  1  0.99962431  0.50025238  0.34753644  1
  O  O12  1  0.49982565  0.99999933  0.34677880  1
  O  O13  1  0.99999933  0.49982565  0.65322120  1
  O  O14  1  0.71393058  0.71393058  0.50000000  1
  O  O15  1  0.28862057  0.28862057  0.50000000  1
  O  O16  1  0.50142350  0.50144881  0.67304696  1
  O  O17  1  0.50144881  0.50142350  0.32695304  1
  O  O18  1  0.00110177  0.00088346  0.63809003  1
  O  O19  1  0.00088346  0.00110177  0.36190997  1
  O  O20  1  0.77526522  0.77670494  0.84325597  1
  O  O21  1  0.23790238  0.23364787  0.84305406  1
  O  O22  1  0.77670494  0.77526522  0.15674403  1
  O  O23  1  0.23364787  0.23790238  0.15694594  1
