# generated using pymatgen
data_HfTa5B4
_symmetry_space_group_name_H-M   'P 1'
_cell_length_a   3.31477027
_cell_length_b   6.26121138
_cell_length_c   6.26121138
_cell_angle_alpha   90.00000000
_cell_angle_beta   90.00000000
_cell_angle_gamma   90.00000000
_symmetry_Int_Tables_number   1
_chemical_formula_structural   HfTa5B4
_chemical_formula_sum   'Hf1 Ta5 B4'
_cell_volume   129.94816969
_cell_formula_units_Z   1
loop_
 _symmetry_equiv_pos_site_id
 _symmetry_equiv_pos_as_xyz
  1  'x, y, z'
loop_
 _atom_site_type_symbol
 _atom_site_label
 _atom_site_symmetry_multiplicity
 _atom_site_fract_x
 _atom_site_fract_y
 _atom_site_fract_z
 _atom_site_occupancy
  Hf  Hf0  1  0.00000000  0.50000000  0.50000000  1
  Ta  Ta1  1  0.50000000  0.17287812  0.67881327  1
  Ta  Ta2  1  0.50000000  0.82712188  0.32118673  1
  Ta  Ta3  1  0.50000000  0.32118673  0.17287812  1
  Ta  Ta4  1  0.50000000  0.67881327  0.82712188  1
  Ta  Ta5  1  0.00000000  -0.00000000  0.00000000  1
  B  B6  1  0.00000000  0.60688871  0.10511207  1
  B  B7  1  -0.00000000  0.39311129  0.89488793  1
  B  B8  1  0.00000000  0.89488793  0.60688871  1
  B  B9  1  -0.00000000  0.10511207  0.39311129  1
