# generated using pymatgen
data_HoIn7Cu5
_symmetry_space_group_name_H-M   'P 1'
_cell_length_a   5.61589051
_cell_length_b   7.22130657
_cell_length_c   7.22130657
_cell_angle_alpha   98.68518930
_cell_angle_beta   112.88244694
_cell_angle_gamma   67.11755306
_symmetry_Int_Tables_number   1
_chemical_formula_structural   HoIn7Cu5
_chemical_formula_sum   'Ho1 In7 Cu5'
_cell_volume   248.57453819
_cell_formula_units_Z   1
loop_
 _symmetry_equiv_pos_site_id
 _symmetry_equiv_pos_as_xyz
  1  'x, y, z'
loop_
 _atom_site_type_symbol
 _atom_site_label
 _atom_site_symmetry_multiplicity
 _atom_site_fract_x
 _atom_site_fract_y
 _atom_site_fract_z
 _atom_site_occupancy
  Ho  Ho0  1  0.00137459  0.99862541  0.00137459  1
  In  In1  1  0.65688673  0.34311327  0.65688673  1
  In  In2  1  0.33513415  0.66486585  0.33513415  1
  In  In3  1  0.98741109  0.35088677  0.32570894  1
  In  In4  1  0.98741109  0.67429106  0.64911323  1
  In  In5  1  0.27099685  0.22900315  0.77099685  1
  In  In6  1  0.51297109  0.79144581  0.81738799  1
  In  In7  1  0.51297109  0.18261201  0.20855419  1
  Cu  Cu8  1  0.49644491  0.99256421  0.49493091  1
  Cu  Cu9  1  0.00592180  0.99256421  0.49493091  1
  Cu  Cu10  1  0.49644491  0.50506909  0.00743579  1
  Cu  Cu11  1  0.00592180  0.50506909  0.00743579  1
  Cu  Cu12  1  0.73010991  0.76989009  0.23010991  1
