# generated using pymatgen
data_KH8WN2(OF)3
_symmetry_space_group_name_H-M   'P 1'
_cell_length_a   6.34858941
_cell_length_b   6.44728517
_cell_length_c   9.41489734
_cell_angle_alpha   90.89309965
_cell_angle_beta   90.00000000
_cell_angle_gamma   90.00000000
_symmetry_Int_Tables_number   1
_chemical_formula_structural   KH8WN2(OF)3
_chemical_formula_sum   'K2 H16 W2 N4 O6 F6'
_cell_volume   385.31591438
_cell_formula_units_Z   2
loop_
 _symmetry_equiv_pos_site_id
 _symmetry_equiv_pos_as_xyz
  1  'x, y, z'
loop_
 _atom_site_type_symbol
 _atom_site_label
 _atom_site_symmetry_multiplicity
 _atom_site_fract_x
 _atom_site_fract_y
 _atom_site_fract_z
 _atom_site_occupancy
  K  K0  1  -0.00778171  -0.00231767  0.49953975  1
  K  K1  1  0.50778171  0.49768233  -0.00046025  1
  H  H2  1  0.68630171  0.00608230  0.78124264  1
  H  H3  1  0.81369829  0.50608230  0.28124264  1
  H  H4  1  0.32389523  0.97845830  0.22101349  1
  H  H5  1  0.17610477  0.47845830  0.72101349  1
  H  H6  1  0.43121556  0.05944564  0.84776951  1
  H  H7  1  0.06878444  0.55944564  0.34776951  1
  H  H8  1  0.58128718  0.93540660  0.15753651  1
  H  H9  1  0.91871282  0.43540660  0.65753651  1
  H  H10  1  0.46707743  0.89953615  0.70411526  1
  H  H11  1  0.03292257  0.39953615  0.20411526  1
  H  H12  1  0.52705453  0.13868510  0.27205487  1
  H  H13  1  0.97294547  0.63868510  0.77205487  1
  H  H14  1  0.50446039  0.16302421  0.69596950  1
  H  H15  1  -0.00446039  0.66302421  0.19596950  1
  H  H16  1  0.51790322  0.89014961  0.32824658  1
  H  H17  1  0.98209678  0.39014961  0.82824658  1
  W  W18  1  0.47237606  0.50348061  0.49627354  1
  W  W19  1  0.02762394  0.00348061  -0.00372646  1
  N  N20  1  0.52119603  0.02967868  0.75663639  1
  N  N21  1  -0.02119603  0.52967868  0.25663639  1
  N  N22  1  0.48882637  0.98669287  0.24415298  1
  N  N23  1  0.01117363  0.48669287  0.74415298  1
  O  O24  1  0.56291480  0.47734959  0.30690152  1
  O  O25  1  0.93708520  -0.02265041  0.80690152  1
  O  O26  1  0.44512243  0.45553959  0.69131713  1
  O  O27  1  0.05487757  0.95553959  0.19131713  1
  O  O28  1  0.24262268  0.66450063  0.47513657  1
  O  O29  1  0.25737732  0.16450063  -0.02486343  1
  F  F30  1  0.32049241  0.23433386  0.46532777  1
  F  F31  1  0.17950759  0.73433386  0.96532777  1
  F  F32  1  0.66106507  0.74913970  0.52659290  1
  F  F33  1  0.83893493  0.24913970  0.02659290  1
  F  F34  1  0.76013463  0.33081422  0.53017309  1
  F  F35  1  0.73986537  0.83081422  0.03017309  1
