# generated using pymatgen
data_Ho4CrS7
_symmetry_space_group_name_H-M   'P 1'
_cell_length_a   3.78288391
_cell_length_b   6.46983833
_cell_length_c   11.30621124
_cell_angle_alpha   104.99056123
_cell_angle_beta   90.00000000
_cell_angle_gamma   73.00144195
_symmetry_Int_Tables_number   1
_chemical_formula_structural   Ho4CrS7
_chemical_formula_sum   'Ho4 Cr1 S7'
_cell_volume   254.76288645
_cell_formula_units_Z   1
loop_
 _symmetry_equiv_pos_site_id
 _symmetry_equiv_pos_as_xyz
  1  'x, y, z'
loop_
 _atom_site_type_symbol
 _atom_site_label
 _atom_site_symmetry_multiplicity
 _atom_site_fract_x
 _atom_site_fract_y
 _atom_site_fract_z
 _atom_site_occupancy
  Ho  Ho0  1  0.69344988  0.61310023  0.20788395  1
  Ho  Ho1  1  0.30723803  0.38552395  0.80140158  1
  Ho  Ho2  1  0.99828614  0.00342772  0.00757098  1
  Ho  Ho3  1  0.11316515  0.77366970  0.56270494  1
  Cr  Cr4  1  0.88476948  0.23046103  0.42508184  1
  S  S5  1  0.74786100  0.50427801  0.63279826  1
  S  S6  1  0.27299928  0.45400144  0.35249127  1
  S  S7  1  0.33584873  0.32830253  0.05220011  1
  S  S8  1  0.65958917  0.68082165  0.94744330  1
  S  S9  1  0.03076109  0.93847782  0.23128477  1
  S  S10  1  0.96387234  0.07225531  0.78526966  1
  S  S11  1  0.49215971  0.01568059  0.49386936  1
