# generated using pymatgen
data_Hf2Ga3Co
_symmetry_space_group_name_H-M   'P 1'
_cell_length_a   4.18673477
_cell_length_b   5.31689116
_cell_length_c   5.26693247
_cell_angle_alpha   92.62763244
_cell_angle_beta   113.41915937
_cell_angle_gamma   66.81382072
_symmetry_Int_Tables_number   1
_chemical_formula_structural   Hf2Ga3Co
_chemical_formula_sum   'Hf2 Ga3 Co1'
_cell_volume   98.04161802
_cell_formula_units_Z   1
loop_
 _symmetry_equiv_pos_site_id
 _symmetry_equiv_pos_as_xyz
  1  'x, y, z'
loop_
 _atom_site_type_symbol
 _atom_site_label
 _atom_site_symmetry_multiplicity
 _atom_site_fract_x
 _atom_site_fract_y
 _atom_site_fract_z
 _atom_site_occupancy
  Hf  Hf0  1  0.74859815  0.71485471  0.21205101  1
  Hf  Hf1  1  0.24967516  0.29297133  0.79232165  1
  Ga  Ga2  1  0.47700428  0.67098970  0.62499826  1
  Ga  Ga3  1  0.04103192  0.13710964  0.21917347  1
  Ga  Ga4  1  0.93917841  0.89757744  0.77593426  1
  Co  Co5  1  0.54451208  0.28649718  0.37552135  1
