# generated using pymatgen
data_InGa3N4
_symmetry_space_group_name_H-M   'P 1'
_cell_length_a   3.30560616
_cell_length_b   3.30560616
_cell_length_c   10.82516355
_cell_angle_alpha   89.99902476
_cell_angle_beta   90.00097524
_cell_angle_gamma   120.00348733
_symmetry_Int_Tables_number   1
_chemical_formula_structural   InGa3N4
_chemical_formula_sum   'In1 Ga3 N4'
_cell_volume   102.43586871
_cell_formula_units_Z   1
loop_
 _symmetry_equiv_pos_site_id
 _symmetry_equiv_pos_as_xyz
  1  'x, y, z'
loop_
 _atom_site_type_symbol
 _atom_site_label
 _atom_site_symmetry_multiplicity
 _atom_site_fract_x
 _atom_site_fract_y
 _atom_site_fract_z
 _atom_site_occupancy
  In  In0  1  0.66661689  0.33338311  0.99853361  1
  Ga  Ga1  1  0.33334522  0.66665478  0.25949077  1
  Ga  Ga2  1  0.33334552  0.66665448  0.73800878  1
  Ga  Ga3  1  0.66667427  0.33332573  0.49822357  1
  N  N4  1  0.33332193  0.66667807  0.07996264  1
  N  N5  1  0.33334555  0.66665445  0.55596526  1
  N  N6  1  0.66667551  0.33332449  0.31643630  1
  N  N7  1  0.66667511  0.33332489  0.79517906  1
