# generated using pymatgen
data_In2CuTe3I
_symmetry_space_group_name_H-M   'P 1'
_cell_length_a   6.26692205
_cell_length_b   6.26348487
_cell_length_c   7.68949366
_cell_angle_alpha   66.03881620
_cell_angle_beta   66.06425538
_cell_angle_gamma   89.89422195
_symmetry_Int_Tables_number   1
_chemical_formula_structural   In2CuTe3I
_chemical_formula_sum   'In2 Cu1 Te3 I1'
_cell_volume   247.25916616
_cell_formula_units_Z   1
loop_
 _symmetry_equiv_pos_site_id
 _symmetry_equiv_pos_as_xyz
  1  'x, y, z'
loop_
 _atom_site_type_symbol
 _atom_site_label
 _atom_site_symmetry_multiplicity
 _atom_site_fract_x
 _atom_site_fract_y
 _atom_site_fract_z
 _atom_site_occupancy
  In  In0  1  0.25441528  0.72272380  0.52659921  1
  In  In1  1  0.98117089  0.99501436  0.98325613  1
  Cu  Cu2  1  0.51890517  0.52856342  0.98912965  1
  Te  Te3  1  0.83102964  0.38079180  0.74448658  1
  Te  Te4  1  0.41194703  0.89376736  0.74784794  1
  Te  Te5  1  0.62420497  0.58332808  0.26067030  1
  I  I6  1  0.12832702  0.14581118  0.24801019  1
