# generated using pymatgen
data_CaFeO2
_symmetry_space_group_name_H-M   'P 1'
_cell_length_a   3.32690432
_cell_length_b   9.37304761
_cell_length_c   8.25864785
_cell_angle_alpha   87.72108828
_cell_angle_beta   84.19789833
_cell_angle_gamma   110.15164346
_symmetry_Int_Tables_number   1
_chemical_formula_structural   CaFeO2
_chemical_formula_sum   'Ca4 Fe4 O8'
_cell_volume   239.75945464
_cell_formula_units_Z   4
loop_
 _symmetry_equiv_pos_site_id
 _symmetry_equiv_pos_as_xyz
  1  'x, y, z'
loop_
 _atom_site_type_symbol
 _atom_site_label
 _atom_site_symmetry_multiplicity
 _atom_site_fract_x
 _atom_site_fract_y
 _atom_site_fract_z
 _atom_site_occupancy
  Ca  Ca0  1  0.35117383  0.02882027  0.31640751  1
  Ca  Ca1  1  0.64492940  0.95107525  0.71184692  1
  Ca  Ca2  1  0.09715438  0.71842221  0.11424320  1
  Ca  Ca3  1  0.89887195  0.26151361  0.91399279  1
  Fe  Fe4  1  0.45039709  0.25891711  0.59919805  1
  Fe  Fe5  1  0.20437166  0.35128002  0.27413111  1
  Fe  Fe6  1  0.79109064  0.62863055  0.75404784  1
  Fe  Fe7  1  0.54547430  0.72096017  0.42898227  1
  O  O8  1  0.07134543  0.81164020  0.54850039  1
  O  O9  1  0.59673937  0.40850562  0.76332767  1
  O  O10  1  0.39966652  0.57143451  0.26475134  1
  O  O11  1  0.92485362  0.16818300  0.47969245  1
  O  O12  1  0.26586454  0.09683187  0.80856983  1
  O  O13  1  0.62001820  0.26531770  0.17351500  1
  O  O14  1  0.73033062  0.88311143  0.21964094  1
  O  O15  1  0.37599645  0.71469250  0.85477268  1
