# generated using pymatgen
data_InAg4
_symmetry_space_group_name_H-M   'P 1'
_cell_length_a   3.04737943
_cell_length_b   3.04737943
_cell_length_c   12.10338883
_cell_angle_alpha   97.23212688
_cell_angle_beta   82.76787312
_cell_angle_gamma   120.00000000
_symmetry_Int_Tables_number   1
_chemical_formula_structural   InAg4
_chemical_formula_sum   'In1 Ag4'
_cell_volume   96.30592168
_cell_formula_units_Z   1
loop_
 _symmetry_equiv_pos_site_id
 _symmetry_equiv_pos_as_xyz
  1  'x, y, z'
loop_
 _atom_site_type_symbol
 _atom_site_label
 _atom_site_symmetry_multiplicity
 _atom_site_fract_x
 _atom_site_fract_y
 _atom_site_fract_z
 _atom_site_occupancy
  In  In0  1  0.00000000  -0.00000000  0.00000000  1
  Ag  Ag1  1  0.59733735  0.40266265  0.20798796  1
  Ag  Ag2  1  0.19944604  0.80055396  0.40166189  1
  Ag  Ag3  1  0.80055396  0.19944604  0.59833811  1
  Ag  Ag4  1  0.40266265  0.59733735  0.79201204  1
