# generated using pymatgen
data_K3U2I7O26
_symmetry_space_group_name_H-M   'P 1'
_cell_length_a   7.15195609
_cell_length_b   14.81535669
_cell_length_c   15.19660284
_cell_angle_alpha   119.51758038
_cell_angle_beta   95.63077944
_cell_angle_gamma   92.77039469
_symmetry_Int_Tables_number   1
_chemical_formula_structural   K3U2I7O26
_chemical_formula_sum   'K6 U4 I14 O52'
_cell_volume   1385.73793045
_cell_formula_units_Z   2
loop_
 _symmetry_equiv_pos_site_id
 _symmetry_equiv_pos_as_xyz
  1  'x, y, z'
loop_
 _atom_site_type_symbol
 _atom_site_label
 _atom_site_symmetry_multiplicity
 _atom_site_fract_x
 _atom_site_fract_y
 _atom_site_fract_z
 _atom_site_occupancy
  K  K0  1  0.77367421  0.92580966  0.16546982  1
  K  K1  1  0.22632579  0.07419034  0.83453018  1
  K  K2  1  0.56865556  0.40256509  0.76999111  1
  K  K3  1  0.43134444  0.59743491  0.23000889  1
  K  K4  1  0.93325239  0.47538079  0.59636997  1
  K  K5  1  0.06674761  0.52461921  0.40363003  1
  U  U6  1  0.28409017  0.84648578  0.53690052  1
  U  U7  1  0.71590983  0.15351422  0.46309948  1
  U  U8  1  0.84959904  0.70932204  0.87850947  1
  U  U9  1  0.15040096  0.29067796  0.12149053  1
  I  I10  1  0.37766690  0.73398690  0.71553151  1
  I  I11  1  0.62233310  0.26601310  0.28446849  1
  I  I12  1  0.25772930  0.90372449  0.30899443  1
  I  I13  1  0.74227070  0.09627551  0.69100557  1
  I  I14  1  0.86982866  0.76922128  0.66172364  1
  I  I15  1  0.13017134  0.23077872  0.33827636  1
  I  I16  1  0.76225046  0.84360678  0.41509927  1
  I  I17  1  0.23774954  0.15639322  0.58490073  1
  I  I18  1  0.84142427  0.59968910  0.06832006  1
  I  I19  1  0.15857573  0.40031090  0.93167994  1
  I  I20  1  0.28886555  0.97287224  0.07840518  1
  I  I21  1  0.71113445  0.02712776  0.92159482  1
  I  I22  1  0.34290612  0.66692694  0.96742061  1
  I  I23  1  0.65709388  0.33307306  0.03257939  1
  O  O24  1  0.77738918  0.70785188  0.33180804  1
  O  O25  1  0.22261082  0.29214812  0.66819196  1
  O  O26  1  0.28931595  0.93664981  0.44563386  1
  O  O27  1  0.71068405  0.06335019  0.55436614  1
  O  O28  1  0.96929023  0.88352524  0.51440182  1
  O  O29  1  0.03070977  0.11647476  0.48559818  1
  O  O30  1  0.84970324  0.64264969  0.54891516  1
  O  O31  1  0.15029676  0.35735031  0.45108484  1
  O  O32  1  0.00807183  0.85258899  0.27162155  1
  O  O33  1  0.99192817  0.14741101  0.72837845  1
  O  O34  1  0.51564523  0.45660136  0.60555786  1
  O  O35  1  0.48435477  0.54339864  0.39444214  1
  O  O36  1  0.36884517  0.87453429  0.10945517  1
  O  O37  1  0.63115483  0.12546571  0.89054483  1
  O  O38  1  0.38383876  0.78980011  0.25878888  1
  O  O39  1  0.61616124  0.21019989  0.74121112  1
  O  O40  1  0.98673129  0.73752957  0.75654957  1
  O  O41  1  0.01326871  0.26247043  0.24345043  1
  O  O42  1  0.45395952  0.77142717  0.62344255  1
  O  O43  1  0.54604048  0.22857283  0.37655745  1
  O  O44  1  0.18392986  0.71536794  0.89882685  1
  O  O45  1  0.81607014  0.28463206  0.10117315  1
  O  O46  1  0.82203760  0.56822760  0.79158087  1
  O  O47  1  0.17796240  0.43177240  0.20841913  1
  O  O48  1  0.13673820  0.03417027  0.17754882  1
  O  O49  1  0.86326180  0.96582973  0.82245118  1
  O  O50  1  0.59297199  0.83558288  0.49709302  1
  O  O51  1  0.40702801  0.16441712  0.50290698  1
  O  O52  1  0.60528576  0.64171368  0.08192034  1
  O  O53  1  0.39471424  0.35828632  0.91807966  1
  O  O54  1  0.50712758  0.06219162  0.12553017  1
  O  O55  1  0.49287242  0.93780838  0.87446983  1
  O  O56  1  0.28178115  0.59974972  0.62942982  1
  O  O57  1  0.71821885  0.40025028  0.37057018  1
  O  O58  1  0.10539213  0.82545398  0.65522102  1
  O  O59  1  0.89460787  0.17454602  0.34477898  1
  O  O60  1  0.21483742  0.71680430  0.42658741  1
  O  O61  1  0.78516258  0.28319570  0.57341259  1
  O  O62  1  0.62517868  0.71449752  0.74831107  1
  O  O63  1  0.37482132  0.28550248  0.25168893  1
  O  O64  1  0.93748550  0.68366223  0.01815211  1
  O  O65  1  0.06251450  0.31633777  0.98184789  1
  O  O66  1  0.30183997  0.52962590  0.87051518  1
  O  O67  1  0.69816003  0.47037410  0.12948482  1
  O  O68  1  0.55715275  0.70542092  0.92924705  1
  O  O69  1  0.44284725  0.29457908  0.07075295  1
  O  O70  1  0.87454083  0.85129219  0.96571632  1
  O  O71  1  0.12545917  0.14870781  0.03428368  1
  O  O72  1  0.80642459  0.47513146  0.94878133  1
  O  O73  1  0.19357541  0.52486854  0.05121867  1
  O  O74  1  0.35709592  0.97821193  0.64632451  1
  O  O75  1  0.64290408  0.02178807  0.35367549  1
