# generated using pymatgen
data_LaCuSn
_symmetry_space_group_name_H-M   'P 1'
_cell_length_a   4.49553287
_cell_length_b   4.49463853
_cell_length_c   4.37095618
_cell_angle_alpha   90.00000000
_cell_angle_beta   90.00000000
_cell_angle_gamma   120.03553170
_symmetry_Int_Tables_number   1
_chemical_formula_structural   LaCuSn
_chemical_formula_sum   'La1 Cu1 Sn1'
_cell_volume   76.45879071
_cell_formula_units_Z   1
loop_
 _symmetry_equiv_pos_site_id
 _symmetry_equiv_pos_as_xyz
  1  'x, y, z'
loop_
 _atom_site_type_symbol
 _atom_site_label
 _atom_site_symmetry_multiplicity
 _atom_site_fract_x
 _atom_site_fract_y
 _atom_site_fract_z
 _atom_site_occupancy
  La  La0  1  0.99995735  0.00003371  0.00000000  1
  Cu  Cu1  1  0.33334318  0.66660159  0.50000000  1
  Sn  Sn2  1  0.66659948  0.33336470  0.50000000  1
