# generated using pymatgen
data_Ba2YTlCr2O7
_symmetry_space_group_name_H-M   'P 1'
_cell_length_a   3.94982536
_cell_length_b   3.94983787
_cell_length_c   13.16750279
_cell_angle_alpha   90.00025421
_cell_angle_beta   89.99945785
_cell_angle_gamma   89.99598942
_symmetry_Int_Tables_number   1
_chemical_formula_structural   Ba2YTlCr2O7
_chemical_formula_sum   'Ba2 Y1 Tl1 Cr2 O7'
_cell_volume   205.42844644
_cell_formula_units_Z   1
loop_
 _symmetry_equiv_pos_site_id
 _symmetry_equiv_pos_as_xyz
  1  'x, y, z'
loop_
 _atom_site_type_symbol
 _atom_site_label
 _atom_site_symmetry_multiplicity
 _atom_site_fract_x
 _atom_site_fract_y
 _atom_site_fract_z
 _atom_site_occupancy
  Ba  Ba0  1  0.49999638  0.49998514  0.19653833  1
  Ba  Ba1  1  0.49999350  0.50000444  0.80348578  1
  Y  Y2  1  0.49999413  0.50000586  0.49999754  1
  Tl  Tl3  1  0.00000051  0.99999211  0.00001394  1
  Cr  Cr4  1  0.00003570  -0.00005145  0.36113305  1
  Cr  Cr5  1  0.00002541  0.00005464  0.63885951  1
  O  O6  1  -0.00000186  0.99999019  0.21509534  1
  O  O7  1  0.00000695  0.49999700  0.39281794  1
  O  O8  1  0.50001794  0.99998725  0.39282171  1
  O  O9  1  0.49997735  0.00001451  0.60716133  1
  O  O10  1  0.49997543  0.49998561  0.00000864  1
  O  O11  1  0.99998679  0.50003217  0.60716435  1
  O  O12  1  0.99999076  0.00000255  0.78490453  1
