# generated using pymatgen
data_ErMnFe
_symmetry_space_group_name_H-M   'P 1'
_cell_length_a   5.10661274
_cell_length_b   5.10661274
_cell_length_c   5.10661274
_cell_angle_alpha   90.01753074
_cell_angle_beta   59.69171538
_cell_angle_gamma   119.71285268
_symmetry_Int_Tables_number   1
_chemical_formula_structural   ErMnFe
_chemical_formula_sum   'Er2 Mn2 Fe2'
_cell_volume   94.14553074
_cell_formula_units_Z   2
loop_
 _symmetry_equiv_pos_site_id
 _symmetry_equiv_pos_as_xyz
  1  'x, y, z'
loop_
 _atom_site_type_symbol
 _atom_site_label
 _atom_site_symmetry_multiplicity
 _atom_site_fract_x
 _atom_site_fract_y
 _atom_site_fract_z
 _atom_site_occupancy
  Er  Er0  1  0.50000000  0.74917422  0.75082578  1
  Er  Er1  1  -0.00000000  0.00082578  0.99917422  1
  Mn  Mn2  1  0.25000000  0.87500000  0.37500000  1
  Mn  Mn3  1  0.75000000  0.37500000  0.37500000  1
  Fe  Fe4  1  0.75000000  0.37500000  0.87500000  1
  Fe  Fe5  1  0.25000000  0.37500000  0.37500000  1
