# generated using pymatgen
data_KMg2P2H31O23
_symmetry_space_group_name_H-M   'P 1'
_cell_length_a   6.60661898
_cell_length_b   6.76037058
_cell_length_c   12.39612872
_cell_angle_alpha   84.01807806
_cell_angle_beta   82.11908815
_cell_angle_gamma   89.65467419
_symmetry_Int_Tables_number   1
_chemical_formula_structural   KMg2P2H31O23
_chemical_formula_sum   'K1 Mg2 P2 H31 O23'
_cell_volume   545.41612992
_cell_formula_units_Z   1
loop_
 _symmetry_equiv_pos_site_id
 _symmetry_equiv_pos_as_xyz
  1  'x, y, z'
loop_
 _atom_site_type_symbol
 _atom_site_label
 _atom_site_symmetry_multiplicity
 _atom_site_fract_x
 _atom_site_fract_y
 _atom_site_fract_z
 _atom_site_occupancy
  K  K0  1  0.47574777  0.44741518  0.21204409  1
  Mg  Mg1  1  0.01062034  0.50127501  0.49783082  1
  Mg  Mg2  1  0.46600368  0.02687326  0.94046064  1
  P  P3  1  0.87922420  0.96051688  0.19961226  1
  P  P4  1  0.08929860  0.05332096  0.80829118  1
  H  H5  1  0.88087218  0.87190552  0.40759478  1
  H  H6  1  0.11961085  0.13241284  0.59553616  1
  H  H7  1  0.77707773  0.27755512  0.85360208  1
  H  H8  1  0.22567388  0.77843353  0.13291678  1
  H  H9  1  0.80451332  0.98199758  0.67348355  1
  H  H10  1  0.20239027  0.03086545  0.32555955  1
  H  H11  1  0.54074659  0.66455548  0.89349138  1
  H  H12  1  0.44251775  0.10289232  0.13156905  1
  H  H13  1  0.56018109  0.96915551  0.68804133  1
  H  H14  1  0.45431877  0.00407782  0.30804310  1
  H  H15  1  0.90215564  0.56800152  0.10793836  1
  H  H16  1  0.15521286  0.44071882  0.88459259  1
  H  H17  1  0.69547570  0.20968418  0.57425103  1
  H  H18  1  0.31248611  0.78374955  0.41654556  1
  H  H19  1  0.75670852  0.76729224  0.90575289  1
  H  H20  1  0.21486023  0.14374178  0.09602175  1
  H  H21  1  0.77306978  0.83126827  0.53101198  1
  H  H22  1  0.23655040  0.16334539  0.47366775  1
  H  H23  1  0.56532100  0.48646294  0.63060720  1
  H  H24  1  0.40629736  0.61043948  0.48853740  1
  H  H25  1  0.89434725  0.34621285  0.07456358  1
  H  H26  1  0.13495143  0.64793284  0.92808379  1
  H  H27  1  0.01944524  0.45535099  0.71781243  1
  H  H28  1  0.97252503  0.54799747  0.27980680  1
  H  H29  1  0.02160448  0.69630569  0.68365462  1
  H  H30  1  0.97096801  0.30088440  0.31262793  1
  H  H31  1  0.56211906  0.35548531  0.81883941  1
  H  H32  1  0.46148398  0.83079889  0.14398095  1
  H  H33  1  0.97544503  0.99027509  0.98901794  1
  H  H34  1  0.69785720  0.32936731  0.45608144  1
  H  H35  1  0.35899883  0.55273137  0.69521781  1
  O  O36  1  0.64050403  0.96168842  0.20742242  1
  O  O37  1  0.31862522  0.04212820  0.81318934  1
  O  O38  1  0.68095200  0.99821074  0.63291807  1
  O  O39  1  0.32910309  0.02419837  0.36239754  1
  O  O40  1  0.81888709  0.47283665  0.07725434  1
  O  O41  1  0.23477679  0.54503358  0.91039854  1
  O  O42  1  0.62406241  0.27357347  0.87628939  1
  O  O43  1  0.37053976  0.77976673  0.09513029  1
  O  O44  1  0.84599033  0.76431484  0.46967947  1
  O  O45  1  0.16222444  0.23461389  0.53246250  1
  O  O46  1  0.03588959  0.56437825  0.65525460  1
  O  O47  1  0.99299127  0.43466556  0.33716612  1
  O  O48  1  0.71638279  0.34874892  0.53094512  1
  O  O49  1  0.30750572  0.63555847  0.43683222  1
  O  O50  1  0.61876782  0.78930273  0.88572785  1
  O  O51  1  0.36623723  0.18129186  0.07897264  1
  O  O52  1  0.96954063  0.74804640  0.19431425  1
  O  O53  1  0.01085202  0.26831874  0.81300361  1
  O  O54  1  0.97590022  0.08985101  0.09256250  1
  O  O55  1  0.97921628  0.92073321  0.91704815  1
  O  O56  1  0.94752186  0.05065767  0.30036329  1
  O  O57  1  0.02954040  0.95905393  0.70902619  1
  O  O58  1  0.50730885  0.55172950  0.69495159  1
