# generated using pymatgen
data_Fe2AsS3
_symmetry_space_group_name_H-M   'P 1'
_cell_length_a   3.32008716
_cell_length_b   4.67442408
_cell_length_c   5.56693791
_cell_angle_alpha   92.42101633
_cell_angle_beta   90.00000000
_cell_angle_gamma   90.00000000
_symmetry_Int_Tables_number   1
_chemical_formula_structural   Fe2AsS3
_chemical_formula_sum   'Fe2 As1 S3'
_cell_volume   86.31895021
_cell_formula_units_Z   1
loop_
 _symmetry_equiv_pos_site_id
 _symmetry_equiv_pos_as_xyz
  1  'x, y, z'
loop_
 _atom_site_type_symbol
 _atom_site_label
 _atom_site_symmetry_multiplicity
 _atom_site_fract_x
 _atom_site_fract_y
 _atom_site_fract_z
 _atom_site_occupancy
  Fe  Fe0  1  0.50000000  0.49188328  0.50724778  1
  Fe  Fe1  1  -0.00000000  0.01063338  0.99239694  1
  As  As2  1  0.50000000  0.69583494  0.13496736  1
  S  S3  1  0.50000000  0.30422491  0.86669339  1
  S  S4  1  -0.00000000  0.20891523  0.36826326  1
  S  S5  1  -0.00000000  0.78850825  0.63043128  1
