# generated using pymatgen
data_FeCo(RhS2)4
_symmetry_space_group_name_H-M   'P 1'
_cell_length_a   6.86470413
_cell_length_b   6.86470413
_cell_length_c   6.86470413
_cell_angle_alpha   90.00000000
_cell_angle_beta   60.00000000
_cell_angle_gamma   120.00000000
_symmetry_Int_Tables_number   1
_chemical_formula_structural   FeCo(RhS2)4
_chemical_formula_sum   'Fe1 Co1 Rh4 S8'
_cell_volume   228.74440135
_cell_formula_units_Z   1
loop_
 _symmetry_equiv_pos_site_id
 _symmetry_equiv_pos_as_xyz
  1  'x, y, z'
loop_
 _atom_site_type_symbol
 _atom_site_label
 _atom_site_symmetry_multiplicity
 _atom_site_fract_x
 _atom_site_fract_y
 _atom_site_fract_z
 _atom_site_occupancy
  Fe  Fe0  1  0.50000000  0.75000000  0.75000000  1
  Co  Co1  1  0.00000000  -0.00000000  -0.00000000  1
  Rh  Rh2  1  0.74801451  0.37400725  0.87797824  1
  Rh  Rh3  1  0.25198549  0.37400725  0.37400725  1
  Rh  Rh4  1  0.25198549  0.87797824  0.37400725  1
  Rh  Rh5  1  0.74801451  0.37400725  0.37400725  1
  S  S6  1  0.25624391  0.12812196  0.61563413  1
  S  S7  1  0.74375609  0.12812196  0.12812196  1
  S  S8  1  0.74375609  0.61563413  0.12812196  1
  S  S9  1  0.25624391  0.12812196  0.12812196  1
  S  S10  1  0.24304421  0.62152210  0.13543369  1
  S  S11  1  0.75695579  0.62152210  0.62152210  1
  S  S12  1  0.75695579  0.13543369  0.62152210  1
  S  S13  1  0.24304421  0.62152210  0.62152210  1
