# generated using pymatgen
data_KU11(GeO19)2
_symmetry_space_group_name_H-M   'P 1'
_cell_length_a   10.34951103
_cell_length_b   10.34951171
_cell_length_c   17.41248715
_cell_angle_alpha   89.99998741
_cell_angle_beta   90.00001257
_cell_angle_gamma   59.99968630
_symmetry_Int_Tables_number   1
_chemical_formula_structural   KU11(GeO19)2
_chemical_formula_sum   'K2 U22 Ge4 O76'
_cell_volume   1615.21284513
_cell_formula_units_Z   2
loop_
 _symmetry_equiv_pos_site_id
 _symmetry_equiv_pos_as_xyz
  1  'x, y, z'
loop_
 _atom_site_type_symbol
 _atom_site_label
 _atom_site_symmetry_multiplicity
 _atom_site_fract_x
 _atom_site_fract_y
 _atom_site_fract_z
 _atom_site_occupancy
  K  K0  1  0.33330476  0.33330476  0.25000000  1
  K  K1  1  0.66669524  0.66669524  0.75000000  1
  U  U2  1  0.85821305  0.85821305  0.25000000  1
  U  U3  1  0.28356973  0.85837190  0.24996952  1
  U  U4  1  0.85837190  0.28356973  0.25003048  1
  U  U5  1  0.14178695  0.14178695  0.75000000  1
  U  U6  1  0.71643027  0.14162810  0.75003048  1
  U  U7  1  0.14162810  0.71643027  0.74996952  1
  U  U8  1  0.66666563  0.66666885  0.09941244  1
  U  U9  1  0.33333115  0.33333437  0.59941244  1
  U  U10  1  0.33333437  0.33333115  0.90058756  1
  U  U11  1  0.66666885  0.66666563  0.40058756  1
  U  U12  1  0.64320407  0.01856192  0.05913641  1
  U  U13  1  0.33823486  0.64319824  0.05914051  1
  U  U14  1  0.01857804  0.33823238  0.05914709  1
  U  U15  1  0.98143808  0.35679593  0.55913641  1
  U  U16  1  0.66176762  0.98142196  0.55914709  1
  U  U17  1  0.35680176  0.66176514  0.55914051  1
  U  U18  1  0.35679593  0.98143808  0.94086359  1
  U  U19  1  0.66176514  0.35680176  0.94085949  1
  U  U20  1  0.98142196  0.66176762  0.94085291  1
  U  U21  1  0.01856192  0.64320407  0.44086359  1
  U  U22  1  0.33823238  0.01857804  0.44085291  1
  U  U23  1  0.64319824  0.33823486  0.44085949  1
  Ge  Ge24  1  -0.00000098  -0.00000102  0.59939328  1
  Ge  Ge25  1  0.00000102  0.00000098  0.09939328  1
  Ge  Ge26  1  0.00000098  0.00000102  0.40060672  1
  Ge  Ge27  1  -0.00000102  -0.00000098  0.90060672  1
  O  O28  1  0.71389455  0.81544377  0.15458117  1
  O  O29  1  0.47066554  0.71389107  0.15458136  1
  O  O30  1  0.81544290  0.47066696  0.15458039  1
  O  O31  1  0.18455623  0.28610545  0.65458117  1
  O  O32  1  0.52933304  0.18455710  0.65458039  1
  O  O33  1  0.28610893  0.52933446  0.65458136  1
  O  O34  1  0.28610545  0.18455623  0.84541883  1
  O  O35  1  0.52933446  0.28610893  0.84541864  1
  O  O36  1  0.18455710  0.52933304  0.84541961  1
  O  O37  1  0.81544377  0.71389455  0.34541883  1
  O  O38  1  0.47066696  0.81544290  0.34541961  1
  O  O39  1  0.71389107  0.47066554  0.34541864  1
  O  O40  1  0.50832255  0.13852074  0.12950304  1
  O  O41  1  0.35316292  0.50832703  0.12950248  1
  O  O42  1  0.13850031  0.35315892  0.12949248  1
  O  O43  1  0.86147926  0.49167745  0.62950304  1
  O  O44  1  0.64684108  0.86149969  0.62949248  1
  O  O45  1  0.49167297  0.64683708  0.62950248  1
  O  O46  1  0.49167745  0.86147926  0.87049696  1
  O  O47  1  0.64683708  0.49167297  0.87049752  1
  O  O48  1  0.86149969  0.64684108  0.87050752  1
  O  O49  1  0.13852074  0.50832255  0.37049696  1
  O  O50  1  0.35315892  0.13850031  0.37050752  1
  O  O51  1  0.50832703  0.35316292  0.37049752  1
  O  O52  1  0.17226201  0.84795227  0.13017892  1
  O  O53  1  0.97977713  0.17226234  0.13017822  1
  O  O54  1  0.84795334  0.97978473  0.13017990  1
  O  O55  1  0.15204773  0.82773799  0.63017892  1
  O  O56  1  0.02021527  0.15204666  0.63017990  1
  O  O57  1  0.82773766  0.02022287  0.63017822  1
  O  O58  1  0.82773799  0.15204773  0.86982108  1
  O  O59  1  0.02022287  0.82773766  0.86982178  1
  O  O60  1  0.15204666  0.02021527  0.86982010  1
  O  O61  1  0.84795227  0.17226201  0.36982108  1
  O  O62  1  0.97978473  0.84795334  0.36982010  1
  O  O63  1  0.17226234  0.97977713  0.36982178  1
  O  O64  1  0.78107279  0.89670237  0.98404179  1
  O  O65  1  0.32222975  0.78106941  0.98404329  1
  O  O66  1  0.89669347  0.32222785  0.98403854  1
  O  O67  1  0.10329763  0.21892721  0.48404179  1
  O  O68  1  0.67777215  0.10330653  0.48403854  1
  O  O69  1  0.21893059  0.67777025  0.48404329  1
  O  O70  1  0.21892721  0.10329763  0.01595821  1
  O  O71  1  0.67777025  0.21893059  0.01595671  1
  O  O72  1  0.10330653  0.67777215  0.01596146  1
  O  O73  1  0.89670237  0.78107279  0.51595821  1
  O  O74  1  0.32222785  0.89669347  0.51596146  1
  O  O75  1  0.78106941  0.32222975  0.51595671  1
  O  O76  1  0.02050284  0.69102491  0.21716003  1
  O  O77  1  0.28847423  0.02046009  0.21716947  1
  O  O78  1  0.69092522  0.28848143  0.21714204  1
  O  O79  1  0.30897509  0.97949716  0.71716003  1
  O  O80  1  0.71151857  0.30907478  0.71714204  1
  O  O81  1  0.97953991  0.71152577  0.71716947  1
  O  O82  1  0.97949716  0.30897509  0.78283997  1
  O  O83  1  0.71152577  0.97953991  0.78283053  1
  O  O84  1  0.30907478  0.71151857  0.78285796  1
  O  O85  1  0.69102491  0.02050284  0.28283997  1
  O  O86  1  0.28848143  0.69092522  0.28285796  1
  O  O87  1  0.02046009  0.28847423  0.28283053  1
  O  O88  1  0.00000000  0.00000000  0.50000000  1
  O  O89  1  0.00000000  0.00000000  -0.00000000  1
  O  O90  1  0.86485765  0.59230271  0.03339370  1
  O  O91  1  0.54284252  0.86486092  0.03339308  1
  O  O92  1  0.59230049  0.54283892  0.03339172  1
  O  O93  1  0.40769729  0.13514235  0.53339370  1
  O  O94  1  0.45716108  0.40769951  0.53339172  1
  O  O95  1  0.13513908  0.45715748  0.53339308  1
  O  O96  1  0.13514235  0.40769729  0.96660630  1
  O  O97  1  0.45715748  0.13513908  0.96660692  1
  O  O98  1  0.40769951  0.45716108  0.96660828  1
  O  O99  1  0.59230271  0.86485765  0.46660630  1
  O  O100  1  0.54283892  0.59230049  0.46660828  1
  O  O101  1  0.86486092  0.54284252  0.46660692  1
  O  O102  1  -0.00000345  -0.00000345  0.25000000  1
  O  O103  1  0.00000345  0.00000345  0.75000000  1
