# generated using pymatgen
data_Ho2Ti12(CuO4)9
_symmetry_space_group_name_H-M   'P 1'
_cell_length_a   6.44595600
_cell_length_b   10.50399771
_cell_length_c   10.50399771
_cell_angle_alpha   120.00000000
_cell_angle_beta   90.00000000
_cell_angle_gamma   90.00000000
_symmetry_Int_Tables_number   1
_chemical_formula_structural   Ho2Ti12(CuO4)9
_chemical_formula_sum   'Ho2 Ti12 Cu9 O36'
_cell_volume   615.92411045
_cell_formula_units_Z   1
loop_
 _symmetry_equiv_pos_site_id
 _symmetry_equiv_pos_as_xyz
  1  'x, y, z'
loop_
 _atom_site_type_symbol
 _atom_site_label
 _atom_site_symmetry_multiplicity
 _atom_site_fract_x
 _atom_site_fract_y
 _atom_site_fract_z
 _atom_site_occupancy
  Ho  Ho0  1  0.00457373  0.00000000  -0.00000000  1
  Ho  Ho1  1  0.66209327  0.66666700  0.33333300  1
  Ti  Ti2  1  0.17024140  0.65269142  0.82506201  1
  Ti  Ti3  1  0.83333300  0.33333300  0.16666700  1
  Ti  Ti4  1  0.49642560  0.01397558  0.50827099  1
  Ti  Ti5  1  0.83333300  0.33333300  0.66666700  1
  Ti  Ti6  1  0.49292259  0.00000000  0.00000000  1
  Ti  Ti7  1  0.17374441  0.66666700  0.33333300  1
  Ti  Ti8  1  0.17024140  0.17237159  0.34730858  1
  Ti  Ti9  1  0.83333300  0.83333300  0.66666700  1
  Ti  Ti10  1  0.49642560  0.49429541  0.98602442  1
  Ti  Ti11  1  0.49642560  0.49172901  0.50570459  1
  Ti  Ti12  1  0.17024140  0.17493799  0.82762841  1
  Ti  Ti13  1  0.83333300  0.83333300  0.16666700  1
  Cu  Cu14  1  0.33333300  0.33333300  0.16666700  1
  Cu  Cu15  1  0.99484510  0.99672512  0.49854432  1
  Cu  Cu16  1  0.67182190  0.66994188  0.83478868  1
  Cu  Cu17  1  0.99484510  0.50145568  0.49818080  1
  Cu  Cu18  1  0.67182190  0.16521132  0.83515220  1
  Cu  Cu19  1  0.33333300  0.83333300  0.16666700  1
  Cu  Cu20  1  0.67182190  0.16484780  0.33005812  1
  Cu  Cu21  1  0.33333300  0.83333300  0.66666700  1
  Cu  Cu22  1  0.99484510  0.50181920  0.00327488  1
  O  O23  1  0.24451675  0.06379413  0.62223217  1
  O  O24  1  0.92002074  0.74463318  0.95956526  1
  O  O25  1  0.58374524  0.41000916  0.29213841  1
  O  O26  1  0.35135781  0.52621345  0.17643303  1
  O  O27  1  0.00324042  0.18522481  0.50185526  1
  O  O28  1  0.68717862  0.86033788  0.84330895  1
  O  O29  1  0.97948738  0.80632812  0.49002505  1
  O  O30  1  0.66342658  0.48144219  0.83147774  1
  O  O31  1  0.31530919  0.14045355  0.15689997  1
  O  O32  1  0.08292176  0.25665784  0.04119459  1
  O  O33  1  0.74664526  0.92203282  0.37376874  1
  O  O34  1  0.42215025  0.60287287  0.71110083  1
  O  O35  1  0.42215025  0.28889917  0.89177204  1
  O  O36  1  0.08292176  0.95880541  0.21546225  1
  O  O37  1  0.74664526  0.62623126  0.54826507  1
  O  O38  1  0.66342658  0.16852226  0.64996445  1
  O  O39  1  0.31530919  0.84310003  0.98355258  1
  O  O40  1  0.97948738  0.50997495  0.31630407  1
  O  O41  1  0.68717862  0.15669105  0.01702993  1
  O  O42  1  0.35135781  0.82356697  0.34978042  1
  O  O43  1  0.00324042  0.49814474  0.68336855  1
  O  O44  1  0.92002074  0.04043474  0.78506893  1
  O  O45  1  0.58374524  0.70786159  0.11787075  1
  O  O46  1  0.24451675  0.37776783  0.44156096  1
  O  O47  1  0.00324042  0.31663145  0.81477519  1
  O  O48  1  0.68717862  0.98297007  0.13966212  1
  O  O49  1  0.35135781  0.65021958  0.47378655  1
  O  O50  1  0.58374524  0.88212925  0.58999084  1
  O  O51  1  0.24451675  0.55843904  0.93620587  1
  O  O52  1  0.92002074  0.21493107  0.25536682  1
  O  O53  1  0.74664526  0.45173493  0.07796718  1
  O  O54  1  0.42215025  0.10822796  0.39712713  1
  O  O55  1  0.08292176  0.78453775  0.74334216  1
  O  O56  1  0.31530919  0.01644742  0.85954645  1
  O  O57  1  0.97948738  0.68369593  0.19367188  1
  O  O58  1  0.66342658  0.35003555  0.51855781  1
