# generated using pymatgen
data_Er4CrS7
_symmetry_space_group_name_H-M   'P 1'
_cell_length_a   3.76785601
_cell_length_b   6.45906297
_cell_length_c   11.26805901
_cell_angle_alpha   104.80152259
_cell_angle_beta   90.00000000
_cell_angle_gamma   73.04191542
_symmetry_Int_Tables_number   1
_chemical_formula_structural   Er4CrS7
_chemical_formula_sum   'Er4 Cr1 S7'
_cell_volume   252.77607530
_cell_formula_units_Z   1
loop_
 _symmetry_equiv_pos_site_id
 _symmetry_equiv_pos_as_xyz
  1  'x, y, z'
loop_
 _atom_site_type_symbol
 _atom_site_label
 _atom_site_symmetry_multiplicity
 _atom_site_fract_x
 _atom_site_fract_y
 _atom_site_fract_z
 _atom_site_occupancy
  Er  Er0  1  0.69378976  0.61242047  0.20588906  1
  Er  Er1  1  0.30658683  0.38682635  0.80262344  1
  Er  Er2  1  0.99875311  0.00249378  0.00667341  1
  Er  Er3  1  0.11333194  0.77333611  0.56396482  1
  Cr  Cr4  1  0.88518514  0.22962971  0.42467747  1
  S  S5  1  0.74777035  0.50445930  0.63413039  1
  S  S6  1  0.27093496  0.45813008  0.35266040  1
  S  S7  1  0.33672699  0.32654602  0.05176188  1
  S  S8  1  0.65952191  0.68095618  0.94776712  1
  S  S9  1  0.03078544  0.93842912  0.23001691  1
  S  S10  1  0.96382970  0.07234060  0.78476569  1
  S  S11  1  0.49278387  0.01443227  0.49506942  1
