# generated using pymatgen
data_ErFeNi
_symmetry_space_group_name_H-M   'P 1'
_cell_length_a   5.10127553
_cell_length_b   5.10127553
_cell_length_c   5.10127553
_cell_angle_alpha   91.57309198
_cell_angle_beta   57.25759978
_cell_angle_gamma   119.11664996
_symmetry_Int_Tables_number   1
_chemical_formula_structural   ErFeNi
_chemical_formula_sum   'Er2 Fe2 Ni2'
_cell_volume   92.39230644
_cell_formula_units_Z   2
loop_
 _symmetry_equiv_pos_site_id
 _symmetry_equiv_pos_as_xyz
  1  'x, y, z'
loop_
 _atom_site_type_symbol
 _atom_site_label
 _atom_site_symmetry_multiplicity
 _atom_site_fract_x
 _atom_site_fract_y
 _atom_site_fract_z
 _atom_site_occupancy
  Er  Er0  1  0.50000000  0.74669846  0.75330154  1
  Er  Er1  1  0.00000000  0.00330154  0.99669846  1
  Fe  Fe2  1  0.75000000  0.37500000  0.87500000  1
  Fe  Fe3  1  0.25000000  0.37500000  0.37500000  1
  Ni  Ni4  1  0.25000000  0.87500000  0.37500000  1
  Ni  Ni5  1  0.75000000  0.37500000  0.37500000  1
