# generated using pymatgen
data_TiZnPO5
_symmetry_space_group_name_H-M   'P 1'
_cell_length_a   5.44719971
_cell_length_b   7.23877809
_cell_length_c   8.15174144
_cell_angle_alpha   90.43513248
_cell_angle_beta   40.25052661
_cell_angle_gamma   105.85410849
_symmetry_Int_Tables_number   1
_chemical_formula_structural   TiZnPO5
_chemical_formula_sum   'Ti2 Zn2 P2 O10'
_cell_volume   189.06163636
_cell_formula_units_Z   2
loop_
 _symmetry_equiv_pos_site_id
 _symmetry_equiv_pos_as_xyz
  1  'x, y, z'
loop_
 _atom_site_type_symbol
 _atom_site_label
 _atom_site_symmetry_multiplicity
 _atom_site_fract_x
 _atom_site_fract_y
 _atom_site_fract_z
 _atom_site_occupancy
  Ti  Ti0  1  0.50044852  0.50006217  0.49955106  1
  Ti  Ti1  1  0.49978824  0.99998816  0.49940806  1
  Zn  Zn2  1  0.46301804  0.24667846  0.19672835  1
  Zn  Zn3  1  0.53410142  0.75416659  0.80382598  1
  P  P4  1  0.51317219  0.25190411  0.83715732  1
  P  P5  1  0.48761626  0.74820333  0.16168950  1
  O  O6  1  0.69162274  0.12960561  0.63800552  1
  O  O7  1  0.36284919  0.38290472  0.80720886  1
  O  O8  1  0.30855029  0.86990702  0.36115549  1
  O  O9  1  0.64008509  0.61770122  0.19066156  1
  O  O10  1  0.15621950  0.61697369  0.19927952  1
  O  O11  1  0.84405391  0.89080785  0.86438378  1
  O  O12  1  0.84446479  0.38230328  0.79998733  1
  O  O13  1  0.15567597  0.10932197  0.13467282  1
  O  O14  1  0.49380057  0.74986981  0.59243284  1
  O  O15  1  0.50646027  0.25028503  0.40638401  1
