# generated using pymatgen
data_Cr4CdFeS8
_symmetry_space_group_name_H-M   'P 1'
_cell_length_a   7.20559058
_cell_length_b   7.20559058
_cell_length_c   7.20559058
_cell_angle_alpha   90.00000000
_cell_angle_beta   60.00000000
_cell_angle_gamma   120.00000000
_symmetry_Int_Tables_number   1
_chemical_formula_structural   Cr4CdFeS8
_chemical_formula_sum   'Cr4 Cd1 Fe1 S8'
_cell_volume   264.54146098
_cell_formula_units_Z   1
loop_
 _symmetry_equiv_pos_site_id
 _symmetry_equiv_pos_as_xyz
  1  'x, y, z'
loop_
 _atom_site_type_symbol
 _atom_site_label
 _atom_site_symmetry_multiplicity
 _atom_site_fract_x
 _atom_site_fract_y
 _atom_site_fract_z
 _atom_site_occupancy
  Cr  Cr0  1  0.50075340  0.50113010  0.99962330  1
  Cr  Cr1  1  0.50075340  0.99962330  0.99962330  1
  Cr  Cr2  1  0.99924660  0.99962330  0.50113010  1
  Cr  Cr3  1  0.99924660  0.99962330  0.99962330  1
  Cd  Cd4  1  0.75000000  0.37500000  0.37500000  1
  Fe  Fe5  1  0.25000000  0.62500000  0.62500000  1
  S  S6  1  0.03231712  0.79847568  0.23384144  1
  S  S7  1  0.03231712  0.23384144  0.23384144  1
  S  S8  1  0.46768288  0.23384144  0.79847568  1
  S  S9  1  0.46768288  0.23384144  0.23384144  1
  S  S10  1  0.98361940  0.22542910  0.75819030  1
  S  S11  1  0.98361940  0.75819030  0.75819030  1
  S  S12  1  0.51638060  0.75819030  0.22542910  1
  S  S13  1  0.51638060  0.75819030  0.75819030  1
