# generated using pymatgen
data_Cr4InCuS8
_symmetry_space_group_name_H-M   'P 1'
_cell_length_a   7.23193596
_cell_length_b   7.12098867
_cell_length_c   7.23193596
_cell_angle_alpha   90.00000000
_cell_angle_beta   58.98759672
_cell_angle_gamma   119.49379836
_symmetry_Int_Tables_number   1
_chemical_formula_structural   Cr4InCuS8
_chemical_formula_sum   'Cr4 In1 Cu1 S8'
_cell_volume   261.27690379
_cell_formula_units_Z   1
loop_
 _symmetry_equiv_pos_site_id
 _symmetry_equiv_pos_as_xyz
  1  'x, y, z'
loop_
 _atom_site_type_symbol
 _atom_site_label
 _atom_site_symmetry_multiplicity
 _atom_site_fract_x
 _atom_site_fract_y
 _atom_site_fract_z
 _atom_site_occupancy
  Cr  Cr0  1  0.25452306  0.62726153  0.62726153  1
  Cr  Cr1  1  0.49409081  0.49082880  0.00326201  1
  Cr  Cr2  1  0.49409081  0.00326201  0.00326201  1
  Cr  Cr3  1  0.00652402  0.00326201  0.49082880  1
  In  In4  1  0.00564091  0.00282046  0.00282046  1
  Cu  Cu5  1  0.74810692  0.37405346  0.37405346  1
  S  S6  1  0.02246027  0.76751801  0.25494226  1
  S  S7  1  0.02246027  0.25494226  0.25494226  1
  S  S8  1  0.50988452  0.25494226  0.76751801  1
  S  S9  1  0.48222838  0.24111419  0.24111419  1
  S  S10  1  0.97572185  0.23074305  0.74497880  1
  S  S11  1  0.97572185  0.74497880  0.74497880  1
  S  S12  1  0.48995759  0.74497880  0.23074305  1
  S  S13  1  0.51858874  0.75929437  0.75929437  1
