# generated using pymatgen
data_Dy2Ti12(CuO4)9
_symmetry_space_group_name_H-M   'P 1'
_cell_length_a   6.46155178
_cell_length_b   10.52103022
_cell_length_c   10.52103022
_cell_angle_alpha   60.00000000
_cell_angle_beta   90.00000000
_cell_angle_gamma   90.00000000
_symmetry_Int_Tables_number   1
_chemical_formula_structural   Dy2Ti12(CuO4)9
_chemical_formula_sum   'Dy2 Ti12 Cu9 O36'
_cell_volume   619.41825004
_cell_formula_units_Z   1
loop_
 _symmetry_equiv_pos_site_id
 _symmetry_equiv_pos_as_xyz
  1  'x, y, z'
loop_
 _atom_site_type_symbol
 _atom_site_label
 _atom_site_symmetry_multiplicity
 _atom_site_fract_x
 _atom_site_fract_y
 _atom_site_fract_z
 _atom_site_occupancy
  Dy  Dy0  1  0.00447823  0.00000000  -0.00000000  1
  Dy  Dy1  1  0.66218877  0.33333300  0.33333300  1
  Ti  Ti2  1  0.83333300  0.16666700  0.16666700  1
  Ti  Ti3  1  0.49657139  0.50570983  0.50844629  1
  Ti  Ti4  1  0.17009561  0.82762317  0.82488671  1
  Ti  Ti5  1  0.83333300  0.66666700  0.66666700  1
  Ti  Ti6  1  0.49227985  -0.00000000  0.00000000  1
  Ti  Ti7  1  0.17438715  0.33333300  0.33333300  1
  Ti  Ti8  1  0.83333300  0.16666700  0.66666700  1
  Ti  Ti9  1  0.49657139  0.50844629  0.98584387  1
  Ti  Ti10  1  0.17009561  0.82488671  0.34748913  1
  Ti  Ti11  1  0.17009561  0.34748913  0.82762317  1
  Ti  Ti12  1  0.83333300  0.66666700  0.16666700  1
  Ti  Ti13  1  0.49657139  0.98584387  0.50570983  1
  Cu  Cu14  1  0.99492762  0.49829557  0.49816071  1
  Cu  Cu15  1  0.67173938  0.83503743  0.83517229  1
  Cu  Cu16  1  0.33333300  0.16666700  0.16666700  1
  Cu  Cu17  1  0.67173938  0.32978927  0.83503743  1
  Cu  Cu18  1  0.33333300  0.66666700  0.16666700  1
  Cu  Cu19  1  0.99492762  0.00354373  0.49829557  1
  Cu  Cu20  1  0.33333300  0.16666700  0.66666700  1
  Cu  Cu21  1  0.99492762  0.49816071  0.00354373  1
  Cu  Cu22  1  0.67173938  0.83517229  0.32978927  1
  O  O23  1  0.24466251  0.44144566  0.62208061  1
  O  O24  1  0.92021478  0.78506016  0.95945499  1
  O  O25  1  0.58418123  0.11761368  0.29234894  1
  O  O26  1  0.35089343  0.34997480  0.17631209  1
  O  O27  1  0.00290895  0.68328350  0.50176400  1
  O  O28  1  0.68758673  0.01702803  0.84339469  1
  O  O29  1  0.97908027  0.31630497  0.48993831  1
  O  O30  1  0.66375805  0.65004950  0.83156900  1
  O  O31  1  0.31577257  0.98335920  0.15702191  1
  O  O32  1  0.08248477  0.21572032  0.04098506  1
  O  O33  1  0.74645222  0.54827284  0.37387801  1
  O  O34  1  0.42200449  0.89188734  0.71125239  1
  O  O35  1  0.42200449  0.39685927  0.89188734  1
  O  O36  1  0.08248477  0.74329562  0.21572032  1
  O  O37  1  0.74645222  0.07784915  0.54827284  1
  O  O38  1  0.66375805  0.51838051  0.65004950  1
  O  O39  1  0.31577257  0.85961990  0.98335920  1
  O  O40  1  0.97908027  0.19375672  0.31630497  1
  O  O41  1  0.68758673  0.13957628  0.01702803  1
  O  O42  1  0.35089343  0.47371410  0.34997480  1
  O  O43  1  0.00290895  0.81495249  0.68328350  1
  O  O44  1  0.92021478  0.25548385  0.78506016  1
  O  O45  1  0.58418123  0.59003838  0.11761368  1
  O  O46  1  0.24466251  0.93647373  0.44144566  1
  O  O47  1  0.00290895  0.50176400  0.81495249  1
  O  O48  1  0.68758673  0.84339469  0.13957628  1
  O  O49  1  0.35089343  0.17631209  0.47371410  1
  O  O50  1  0.58418123  0.29234894  0.59003838  1
  O  O51  1  0.24466251  0.62208061  0.93647373  1
  O  O52  1  0.92021478  0.95945499  0.25548385  1
  O  O53  1  0.74645222  0.37387801  0.07784915  1
  O  O54  1  0.42200449  0.71125239  0.39685927  1
  O  O55  1  0.08248477  0.04098506  0.74329562  1
  O  O56  1  0.31577257  0.15702191  0.85961990  1
  O  O57  1  0.97908027  0.48993831  0.19375672  1
  O  O58  1  0.66375805  0.83156900  0.51838051  1
