# generated using pymatgen
data_Co4B
_symmetry_space_group_name_H-M   'P 1'
_cell_length_a   4.37115035
_cell_length_b   5.03944670
_cell_length_c   6.67789990
_cell_angle_alpha   90.00000000
_cell_angle_beta   90.00000000
_cell_angle_gamma   89.22471726
_symmetry_Int_Tables_number   1
_chemical_formula_structural   Co4B
_chemical_formula_sum   'Co12 B3'
_cell_volume   147.08850920
_cell_formula_units_Z   3
loop_
 _symmetry_equiv_pos_site_id
 _symmetry_equiv_pos_as_xyz
  1  'x, y, z'
loop_
 _atom_site_type_symbol
 _atom_site_label
 _atom_site_symmetry_multiplicity
 _atom_site_fract_x
 _atom_site_fract_y
 _atom_site_fract_z
 _atom_site_occupancy
  Co  Co0  1  0.34323398  0.69271167  0.06494342  1
  Co  Co1  1  0.15507755  0.17394493  0.43701160  1
  Co  Co2  1  0.65262717  0.31551387  0.55596677  1
  Co  Co3  1  0.84505203  0.81467301  0.93916068  1
  Co  Co4  1  0.65262717  0.31551387  0.94403323  1
  Co  Co5  1  0.84505203  0.81467301  0.56083932  1
  Co  Co6  1  0.34323398  0.69271167  0.43505658  1
  Co  Co7  1  0.15507755  0.17394493  0.06298840  1
  Co  Co8  1  0.86378844  0.53981859  0.25000000  1
  Co  Co9  1  0.66468428  0.02236128  0.25000000  1
  Co  Co10  1  0.13933692  0.46812505  0.75000000  1
  Co  Co11  1  0.36017693  0.97355680  0.75000000  1
  B  B12  1  0.43453908  0.37855865  0.25000000  1
  B  B13  1  0.93202509  0.11800803  0.75000000  1
  B  B14  1  0.56346780  0.61588463  0.75000000  1
