# generated using pymatgen
data_CoH6(NCl)2
_symmetry_space_group_name_H-M   'P 1'
_cell_length_a   3.83720786
_cell_length_b   5.95378292
_cell_length_c   5.95378292
_cell_angle_alpha   88.15845749
_cell_angle_beta   88.10254558
_cell_angle_gamma   91.89745442
_symmetry_Int_Tables_number   1
_chemical_formula_structural   CoH6(NCl)2
_chemical_formula_sum   'Co1 H6 N2 Cl2'
_cell_volume   135.79521385
_cell_formula_units_Z   1
loop_
 _symmetry_equiv_pos_site_id
 _symmetry_equiv_pos_as_xyz
  1  'x, y, z'
loop_
 _atom_site_type_symbol
 _atom_site_label
 _atom_site_symmetry_multiplicity
 _atom_site_fract_x
 _atom_site_fract_y
 _atom_site_fract_z
 _atom_site_occupancy
  Co  Co0  1  0.00000000  0.99916597  0.99916597  1
  H  H1  1  0.79004510  0.80895345  0.38448779  1
  H  H2  1  0.20995490  0.38448779  0.80895345  1
  H  H3  1  0.19746215  0.74549868  0.34672847  1
  H  H4  1  0.10798527  0.21357360  0.60627358  1
  H  H5  1  0.80253785  0.34672847  0.74549868  1
  H  H6  1  0.89201473  0.60627358  0.21357360  1
  N  N7  1  0.02993964  0.26493698  0.76223432  1
  N  N8  1  0.97006036  0.76223432  0.26493698  1
  Cl  Cl9  1  0.50000000  0.80864436  0.80864436  1
  Cl  Cl10  1  0.50000000  0.19550279  0.19550279  1
