# generated using pymatgen
data_Ca2LaGaCu2O7
_symmetry_space_group_name_H-M   'P 1'
_cell_length_a   5.41568677
_cell_length_b   5.57357942
_cell_length_c   11.88153139
_cell_angle_alpha   75.97296783
_cell_angle_beta   76.67726056
_cell_angle_gamma   89.93010381
_symmetry_Int_Tables_number   1
_chemical_formula_structural   Ca2LaGaCu2O7
_chemical_formula_sum   'Ca4 La2 Ga2 Cu4 O14'
_cell_volume   338.01548691
_cell_formula_units_Z   2
loop_
 _symmetry_equiv_pos_site_id
 _symmetry_equiv_pos_as_xyz
  1  'x, y, z'
loop_
 _atom_site_type_symbol
 _atom_site_label
 _atom_site_symmetry_multiplicity
 _atom_site_fract_x
 _atom_site_fract_y
 _atom_site_fract_z
 _atom_site_occupancy
  Ca  Ca0  1  0.35440648  0.31561843  0.29961988  1
  Ca  Ca1  1  0.85297343  0.88643808  0.30329543  1
  Ca  Ca2  1  0.15495946  0.12088056  0.69641186  1
  Ca  Ca3  1  0.48951879  0.50078676  0.00906357  1
  La  La4  1  0.64686343  0.67093420  0.70321890  1
  La  La5  1  0.99310347  0.99788628  0.00239800  1
  Ga  Ga6  1  0.78439561  0.31757887  0.49571419  1
  Ga  Ga7  1  0.27952429  0.68299974  0.49597935  1
  Cu  Cu8  1  0.56765414  0.07733568  0.85086192  1
  Cu  Cu9  1  0.41520874  0.92104214  0.15549436  1
  Cu  Cu10  1  0.91581327  0.42659554  0.15459239  1
  Cu  Cu11  1  0.06664799  0.56953908  0.85262825  1
  O  O12  1  0.62815841  0.11411373  0.64212826  1
  O  O13  1  0.26551680  0.89234746  0.35524980  1
  O  O14  1  0.76727516  0.25217992  0.35584611  1
  O  O15  1  0.13489924  0.74831727  0.64117296  1
  O  O16  1  0.31769456  0.81144355  0.86212132  1
  O  O17  1  0.17692822  0.18648570  0.13518125  1
  O  O18  1  0.67542641  0.18252100  0.13592797  1
  O  O19  1  0.81164278  0.81749236  0.86212150  1
  O  O20  1  0.82013358  0.32673838  0.84606288  1
  O  O21  1  0.66929283  0.67739582  0.15033693  1
  O  O22  1  0.16896681  0.67518029  0.14991062  1
  O  O23  1  0.32180519  0.32832296  0.84597123  1
  O  O24  1  0.13542195  0.36649190  0.50086534  1
  O  O25  1  0.63636896  0.63333430  0.49782574  1
