# generated using pymatgen
data_CaTaNO2
_symmetry_space_group_name_H-M   'P 1'
_cell_length_a   5.56571552
_cell_length_b   5.68551923
_cell_length_c   7.90501216
_cell_angle_alpha   90.00000000
_cell_angle_beta   89.67552991
_cell_angle_gamma   90.00000000
_symmetry_Int_Tables_number   1
_chemical_formula_structural   CaTaNO2
_chemical_formula_sum   'Ca4 Ta4 N4 O8'
_cell_volume   250.14205622
_cell_formula_units_Z   4
loop_
 _symmetry_equiv_pos_site_id
 _symmetry_equiv_pos_as_xyz
  1  'x, y, z'
loop_
 _atom_site_type_symbol
 _atom_site_label
 _atom_site_symmetry_multiplicity
 _atom_site_fract_x
 _atom_site_fract_y
 _atom_site_fract_z
 _atom_site_occupancy
  Ca  Ca0  1  0.51294126  0.54132422  0.25440907  1
  Ca  Ca1  1  0.98705874  0.04132422  0.24559093  1
  Ca  Ca2  1  0.48705874  0.45867578  0.74559093  1
  Ca  Ca3  1  0.01294126  0.95867578  0.75440907  1
  Ta  Ta4  1  0.50000000  0.00000000  -0.00000000  1
  Ta  Ta5  1  -0.00000000  0.50000000  0.50000000  1
  Ta  Ta6  1  0.50000000  0.00000000  0.50000000  1
  Ta  Ta7  1  -0.00000000  0.50000000  -0.00000000  1
  N  N8  1  0.78988031  0.78868400  0.04286563  1
  N  N9  1  0.71011969  0.28868400  0.45713437  1
  N  N10  1  0.21011969  0.21131600  0.95713437  1
  N  N11  1  0.28988031  0.71131600  0.54286563  1
  O  O12  1  0.41207362  0.97757950  0.24973058  1
  O  O13  1  0.08792638  0.47757950  0.25026942  1
  O  O14  1  0.58792638  0.02242050  0.75026942  1
  O  O15  1  0.91207362  0.52242050  0.74973058  1
  O  O16  1  0.20871014  0.20960486  0.54878068  1
  O  O17  1  0.29128986  0.70960486  0.95121932  1
  O  O18  1  0.79128986  0.79039514  0.45121932  1
  O  O19  1  0.70871014  0.29039514  0.04878068  1
