# generated using pymatgen
data_Ba3LaNb3O12
_symmetry_space_group_name_H-M   'P 1'
_cell_length_a   5.83135858
_cell_length_b   5.83135858
_cell_length_c   9.93219013
_cell_angle_alpha   72.92887765
_cell_angle_beta   72.92887765
_cell_angle_gamma   59.99999567
_symmetry_Int_Tables_number   1
_chemical_formula_structural   Ba3LaNb3O12
_chemical_formula_sum   'Ba3 La1 Nb3 O12'
_cell_volume   275.17613855
_cell_formula_units_Z   1
loop_
 _symmetry_equiv_pos_site_id
 _symmetry_equiv_pos_as_xyz
  1  'x, y, z'
loop_
 _atom_site_type_symbol
 _atom_site_label
 _atom_site_symmetry_multiplicity
 _atom_site_fract_x
 _atom_site_fract_y
 _atom_site_fract_z
 _atom_site_occupancy
  Ba  Ba0  1  0.28972998  0.28972998  0.13081006  1
  Ba  Ba1  1  0.71147210  0.71147210  0.86558369  1
  Ba  Ba2  1  0.86885565  0.86885565  0.39343305  1
  La  La3  1  0.14620357  0.14620357  0.56138929  1
  Nb  Nb4  1  0.42525017  0.42525017  0.72424948  1
  Nb  Nb5  1  0.57607558  0.57607558  0.27177325  1
  Nb  Nb6  1  0.00129519  0.00129519  0.99611442  1
  O  O7  1  0.28754225  0.79112314  0.13021147  1
  O  O8  1  0.79112314  0.79112314  0.13021147  1
  O  O9  1  0.79112314  0.28754225  0.13021147  1
  O  O10  1  0.71105203  0.20441764  0.88011269  1
  O  O11  1  0.20441764  0.20441764  0.88011269  1
  O  O12  1  0.20441764  0.71105203  0.88011269  1
  O  O13  1  0.12356987  0.62199638  0.63243737  1
  O  O14  1  0.62199638  0.62199638  0.63243737  1
  O  O15  1  0.62199638  0.12356987  0.63243737  1
  O  O16  1  0.87470105  0.37458911  0.37612073  1
  O  O17  1  0.37458911  0.37458911  0.37612073  1
  O  O18  1  0.37458911  0.87470105  0.37612073  1
