# generated using pymatgen
data_Cr4FeCu(SeS)4
_symmetry_space_group_name_H-M   'P 1'
_cell_length_a   7.22721884
_cell_length_b   7.22721884
_cell_length_c   7.22721884
_cell_angle_alpha   90.00000000
_cell_angle_beta   60.00000000
_cell_angle_gamma   120.00000000
_symmetry_Int_Tables_number   1
_chemical_formula_structural   Cr4FeCu(SeS)4
_chemical_formula_sum   'Cr4 Fe1 Cu1 Se4 S4'
_cell_volume   266.93075692
_cell_formula_units_Z   1
loop_
 _symmetry_equiv_pos_site_id
 _symmetry_equiv_pos_as_xyz
  1  'x, y, z'
loop_
 _atom_site_type_symbol
 _atom_site_label
 _atom_site_symmetry_multiplicity
 _atom_site_fract_x
 _atom_site_fract_y
 _atom_site_fract_z
 _atom_site_occupancy
  Cr  Cr0  1  0.48393701  0.47590552  0.00803149  1
  Cr  Cr1  1  0.48393701  0.00803149  0.00803149  1
  Cr  Cr2  1  0.01606299  0.00803149  0.47590552  1
  Cr  Cr3  1  0.01606299  0.00803149  0.00803149  1
  Fe  Fe4  1  0.25000000  0.62500000  0.62500000  1
  Cu  Cu5  1  0.75000000  0.37500000  0.37500000  1
  Se  Se6  1  0.98384530  0.22576795  0.75807735  1
  Se  Se7  1  0.98384530  0.75807735  0.75807735  1
  Se  Se8  1  0.51615470  0.75807735  0.22576795  1
  Se  Se9  1  0.51615470  0.75807735  0.75807735  1
  S  S10  1  0.01690918  0.77536376  0.24154541  1
  S  S11  1  0.01690918  0.24154541  0.24154541  1
  S  S12  1  0.48309082  0.24154541  0.77536376  1
  S  S13  1  0.48309082  0.24154541  0.24154541  1
