# generated using pymatgen
data_BaLa4TiCr4O15
_symmetry_space_group_name_H-M   'P 1'
_cell_length_a   3.94768545
_cell_length_b   5.60890585
_cell_length_c   14.17639507
_cell_angle_alpha   101.41721568
_cell_angle_beta   89.99951711
_cell_angle_gamma   90.00279609
_symmetry_Int_Tables_number   1
_chemical_formula_structural   BaLa4TiCr4O15
_chemical_formula_sum   'Ba1 La4 Ti1 Cr4 O15'
_cell_volume   307.68505234
_cell_formula_units_Z   1
loop_
 _symmetry_equiv_pos_site_id
 _symmetry_equiv_pos_as_xyz
  1  'x, y, z'
loop_
 _atom_site_type_symbol
 _atom_site_label
 _atom_site_symmetry_multiplicity
 _atom_site_fract_x
 _atom_site_fract_y
 _atom_site_fract_z
 _atom_site_occupancy
  Ba  Ba0  1  0.50000000  0.50000000  0.00000000  1
  La  La1  1  0.50000092  0.10297546  0.20596516  1
  La  La2  1  0.49999871  0.69924242  0.39849757  1
  La  La3  1  0.50000129  0.30075758  0.60150243  1
  La  La4  1  0.49999908  0.89702454  0.79403484  1
  Ti  Ti5  1  -0.00000000  -0.00000000  0.00000000  1
  Cr  Cr6  1  0.00001077  0.59999633  0.19996666  1
  Cr  Cr7  1  0.99997452  0.20037802  0.40083410  1
  Cr  Cr8  1  0.00002548  0.79962198  0.59916590  1
  Cr  Cr9  1  0.99998923  0.40000367  0.80003334  1
  O  O10  1  0.00010336  0.18343914  0.89628755  1
  O  O11  1  -0.00000000  -0.00000000  0.50000000  1
  O  O12  1  0.00001114  0.60014414  0.69990644  1
  O  O13  1  0.99989664  0.81656086  0.10371245  1
  O  O14  1  0.99998886  0.39985586  0.30009356  1
  O  O15  1  0.99989808  0.71284202  0.89628165  1
  O  O16  1  -0.00000000  0.50000000  0.50000000  1
  O  O17  1  0.99998045  0.09976285  0.69990924  1
  O  O18  1  0.00010192  0.28715798  0.10371835  1
  O  O19  1  0.00001955  0.90023715  0.30009076  1
  O  O20  1  0.49999908  0.39548836  0.79099570  1
  O  O21  1  0.50000109  0.19920724  0.39839265  1
  O  O22  1  0.49999891  0.80079276  0.60160735  1
  O  O23  1  0.50000000  -0.00000000  0.00000000  1
  O  O24  1  0.50000092  0.60451164  0.20900430  1
