# generated using pymatgen
data_Ca2Nd2MnNiO8
_symmetry_space_group_name_H-M   'P 1'
_cell_length_a   5.45427917
_cell_length_b   5.49512789
_cell_length_c   11.93068563
_cell_angle_alpha   90.00000000
_cell_angle_beta   90.00000000
_cell_angle_gamma   90.04808396
_symmetry_Int_Tables_number   1
_chemical_formula_structural   Ca2Nd2MnNiO8
_chemical_formula_sum   'Ca4 Nd4 Mn2 Ni2 O16'
_cell_volume   357.58592574
_cell_formula_units_Z   2
loop_
 _symmetry_equiv_pos_site_id
 _symmetry_equiv_pos_as_xyz
  1  'x, y, z'
loop_
 _atom_site_type_symbol
 _atom_site_label
 _atom_site_symmetry_multiplicity
 _atom_site_fract_x
 _atom_site_fract_y
 _atom_site_fract_z
 _atom_site_occupancy
  Ca  Ca0  1  0.98791191  0.51492704  0.86376837  1
  Ca  Ca1  1  0.51208809  0.98507296  0.86376837  1
  Ca  Ca2  1  0.01208809  0.48507296  0.13623163  1
  Ca  Ca3  1  0.48791191  0.01492704  0.13623163  1
  Nd  Nd4  1  0.48493631  0.48369646  0.64535743  1
  Nd  Nd5  1  0.01506369  0.01630354  0.64535743  1
  Nd  Nd6  1  0.51506369  0.51630354  0.35464257  1
  Nd  Nd7  1  0.98493631  0.98369646  0.35464257  1
  Mn  Mn8  1  0.50000000  0.50000000  -0.00000000  1
  Mn  Mn9  1  -0.00000000  -0.00000000  -0.00000000  1
  Ni  Ni10  1  -0.00000000  0.50000000  0.50000000  1
  Ni  Ni11  1  0.50000000  -0.00000000  0.50000000  1
  O  O12  1  0.04119610  0.45048668  0.67767106  1
  O  O13  1  0.45880390  0.04951332  0.67767106  1
  O  O14  1  0.53206422  0.54117539  0.83555046  1
  O  O15  1  0.96793578  0.95882461  0.83555046  1
  O  O16  1  0.95880390  0.54951332  0.32232894  1
  O  O17  1  0.54119610  0.95048668  0.32232894  1
  O  O18  1  0.46793578  0.45882461  0.16444954  1
  O  O19  1  0.03206422  0.04117539  0.16444954  1
  O  O20  1  0.25000000  0.25000000  0.47352445  1
  O  O21  1  0.75000000  0.75000000  0.02249324  1
  O  O22  1  0.75000000  0.75000000  0.52647555  1
  O  O23  1  0.25000000  0.25000000  0.97750676  1
  O  O24  1  0.25000000  0.75000000  0.50307561  1
  O  O25  1  0.75000000  0.25000000  0.99689433  1
  O  O26  1  0.75000000  0.25000000  0.49692439  1
  O  O27  1  0.25000000  0.75000000  0.00310567  1
