# generated using pymatgen
data_Ba2Y2FeCo2CuO10
_symmetry_space_group_name_H-M   'P 1'
_cell_length_a   5.53087644
_cell_length_b   5.53087644
_cell_length_c   8.63679007
_cell_angle_alpha   71.32541341
_cell_angle_beta   71.32541341
_cell_angle_gamma   90.00000000
_symmetry_Int_Tables_number   1
_chemical_formula_structural   Ba2Y2FeCo2CuO10
_chemical_formula_sum   'Ba2 Y2 Fe1 Co2 Cu1 O10'
_cell_volume   235.56514602
_cell_formula_units_Z   1
loop_
 _symmetry_equiv_pos_site_id
 _symmetry_equiv_pos_as_xyz
  1  'x, y, z'
loop_
 _atom_site_type_symbol
 _atom_site_label
 _atom_site_symmetry_multiplicity
 _atom_site_fract_x
 _atom_site_fract_y
 _atom_site_fract_z
 _atom_site_occupancy
  Ba  Ba0  1  0.49697855  0.49697855  0.00604289  1
  Ba  Ba1  1  0.99697855  0.99697855  0.00604289  1
  Y  Y2  1  0.24961604  0.24961604  0.50076792  1
  Y  Y3  1  0.74961604  0.74961604  0.50076792  1
  Fe  Fe4  1  0.62663926  0.12663926  0.74672147  1
  Co  Co5  1  0.86748745  0.36748745  0.26502509  1
  Co  Co6  1  0.36441746  0.86441746  0.27116509  1
  Cu  Cu7  1  0.13557014  0.63557014  0.72885972  1
  O  O8  1  0.50369582  0.00369582  0.99260835  1
  O  O9  1  0.99941610  0.49941610  0.00116780  1
  O  O10  1  0.41202126  0.91202126  0.68261614  1
  O  O11  1  0.90536261  0.40536261  0.68261614  1
  O  O12  1  0.90536261  0.91202126  0.68261614  1
  O  O13  1  0.41202126  0.40536261  0.68261614  1
  O  O14  1  0.59258172  0.09258172  0.31259157  1
  O  O15  1  0.09482671  0.59482671  0.31259157  1
  O  O16  1  0.09482671  0.09258172  0.31259157  1
  O  O17  1  0.59258172  0.59482671  0.31259157  1
