# generated using pymatgen
data_Ba4Tl4Cu2O11
_symmetry_space_group_name_H-M   'P 1'
_cell_length_a   5.56377088
_cell_length_b   5.62846843
_cell_length_c   12.18740084
_cell_angle_alpha   90.40885941
_cell_angle_beta   76.80539926
_cell_angle_gamma   90.00000000
_symmetry_Int_Tables_number   1
_chemical_formula_structural   Ba4Tl4Cu2O11
_chemical_formula_sum   'Ba4 Tl4 Cu2 O11'
_cell_volume   371.56915348
_cell_formula_units_Z   1
loop_
 _symmetry_equiv_pos_site_id
 _symmetry_equiv_pos_as_xyz
  1  'x, y, z'
loop_
 _atom_site_type_symbol
 _atom_site_label
 _atom_site_symmetry_multiplicity
 _atom_site_fract_x
 _atom_site_fract_y
 _atom_site_fract_z
 _atom_site_occupancy
  Ba  Ba0  1  0.91621019  0.50045337  0.16757961  1
  Ba  Ba1  1  0.07760432  0.49835444  0.84479137  1
  Ba  Ba2  1  0.58078985  0.99878317  0.83842030  1
  Ba  Ba3  1  0.41691093  0.00043111  0.16617814  1
  Tl  Tl4  1  0.29289439  0.50497488  0.41421121  1
  Tl  Tl5  1  0.70453050  0.51248161  0.59093899  1
  Tl  Tl6  1  0.20475228  0.98235178  0.59049543  1
  Tl  Tl7  1  0.79870733  0.01575055  0.40258533  1
  Cu  Cu8  1  0.49790163  0.50022246  0.00419674  1
  Cu  Cu9  1  0.99965279  0.99978069  0.00069442  1
  O  O10  1  0.38376832  0.50471335  0.23246336  1
  O  O11  1  0.61926216  0.49697131  0.76147568  1
  O  O12  1  0.11916782  0.99678090  0.76166436  1
  O  O13  1  0.88410236  0.99479098  0.23179529  1
  O  O14  1  0.25034144  0.25022677  0.99852048  1
  O  O15  1  0.25054068  0.74997811  0.99844884  1
  O  O16  1  0.75101048  0.74997811  0.99844884  1
  O  O17  1  0.75113808  0.25022677  0.99852048  1
  O  O18  1  0.79002770  0.43658844  0.41994460  1
  O  O19  1  0.29011649  0.05293604  0.41976702  1
  O  O20  1  0.71177025  0.94222516  0.57645950  1
