# generated using pymatgen
data_Mg4V5(TeO6)3
_symmetry_space_group_name_H-M   'P 1'
_cell_length_a   8.75280489
_cell_length_b   8.75280534
_cell_length_c   10.66940954
_cell_angle_alpha   85.77169814
_cell_angle_beta   85.77169731
_cell_angle_gamma   63.79131458
_symmetry_Int_Tables_number   1
_chemical_formula_structural   Mg4V5(TeO6)3
_chemical_formula_sum   'Mg8 V10 Te6 O36'
_cell_volume   730.59407929
_cell_formula_units_Z   2
loop_
 _symmetry_equiv_pos_site_id
 _symmetry_equiv_pos_as_xyz
  1  'x, y, z'
loop_
 _atom_site_type_symbol
 _atom_site_label
 _atom_site_symmetry_multiplicity
 _atom_site_fract_x
 _atom_site_fract_y
 _atom_site_fract_z
 _atom_site_occupancy
  Mg  Mg0  1  0.86922617  0.54688712  0.32344992  1
  Mg  Mg1  1  0.48672169  0.56219377  0.22366896  1
  Mg  Mg2  1  0.45311288  0.13077383  0.67655008  1
  Mg  Mg3  1  0.43780623  0.51327831  0.77633104  1
  Mg  Mg4  1  0.17100835  0.87811916  0.72338135  1
  Mg  Mg5  1  0.15454160  0.26069150  0.82336545  1
  Mg  Mg6  1  0.73930850  0.84545840  0.17663455  1
  Mg  Mg7  1  0.12188084  0.82899165  0.27661865  1
  V  V8  1  0.79502215  0.50022453  0.98178139  1
  V  V9  1  0.10799425  0.18786031  0.48260200  1
  V  V10  1  0.33057838  0.34002124  0.29995818  1
  V  V11  1  0.94797436  0.72232181  0.80020793  1
  V  V12  1  0.65997876  0.66942162  0.70004182  1
  V  V13  1  0.97202928  0.02797072  0.00000000  1
  V  V14  1  0.63648250  0.36351750  0.50000000  1
  V  V15  1  0.27767819  0.05202664  0.19979207  1
  V  V16  1  0.81213969  0.89200575  0.51739800  1
  V  V17  1  0.49977547  0.20497785  0.01821861  1
  Te  Te18  1  0.45804893  0.85469382  0.94777755  1
  Te  Te19  1  0.80495920  0.19586512  0.24988259  1
  Te  Te20  1  0.80413488  0.19504080  0.75011741  1
  Te  Te21  1  0.46225112  0.84996894  0.44773968  1
  Te  Te22  1  0.15003106  0.53774888  0.55226032  1
  Te  Te23  1  0.14530618  0.54195107  0.05222245  1
  O  O24  1  0.40338167  0.10776319  0.86266794  1
  O  O25  1  0.71577112  0.44795940  0.81854110  1
  O  O26  1  0.57529720  0.57730964  0.58151931  1
  O  O27  1  0.72949668  0.12712643  0.42973535  1
  O  O28  1  0.55204060  0.28422888  0.18145890  1
  O  O29  1  0.87287357  0.27050332  0.57026465  1
  O  O30  1  0.36474168  0.80784143  0.28903799  1
  O  O31  1  0.04804025  0.10149076  0.82541838  1
  O  O32  1  0.56023101  0.28935392  0.67432251  1
  O  O33  1  0.09195631  0.40930733  0.39899767  1
  O  O34  1  0.57403435  0.62688910  0.06167359  1
  O  O35  1  0.51655428  0.98256798  0.10101573  1
  O  O36  1  0.89184600  0.94465396  0.68193080  1
  O  O37  1  0.70538919  0.74775336  0.86952734  1
  O  O38  1  0.37311090  0.42596565  0.93832641  1
  O  O39  1  0.24325543  0.58419712  0.21081594  1
  O  O40  1  0.03485251  0.76458687  0.43895550  1
  O  O41  1  0.25224664  0.29461081  0.13047266  1
  O  O42  1  0.42269036  0.42470180  0.41848069  1
  O  O43  1  0.23541313  0.96514749  0.56104450  1
  O  O44  1  0.71673644  0.79562864  0.36279649  1
  O  O45  1  0.90297479  0.64426504  0.63034656  1
  O  O46  1  0.89850924  0.95195975  0.17458162  1
  O  O47  1  0.41580288  0.75674457  0.78918406  1
  O  O48  1  0.03286804  0.81374453  0.91914220  1
  O  O49  1  0.73587167  0.12006258  0.92994893  1
  O  O50  1  0.01743202  0.48344572  0.89898427  1
  O  O51  1  0.19215857  0.63525832  0.71096201  1
  O  O52  1  0.05534604  0.10815400  0.31806920  1
  O  O53  1  0.35573496  0.09702521  0.36965344  1
  O  O54  1  0.20437136  0.28326356  0.63720351  1
  O  O55  1  0.87993742  0.26412833  0.07005107  1
  O  O56  1  0.71064608  0.43976899  0.32567749  1
  O  O57  1  0.59069267  0.90804369  0.60100233  1
  O  O58  1  0.18625547  0.96713196  0.08085780  1
  O  O59  1  0.89223681  0.59661833  0.13733206  1
