# generated using pymatgen
data_BiPd6Se
_symmetry_space_group_name_H-M   'P 1'
_cell_length_a   4.59736383
_cell_length_b   4.59736383
_cell_length_c   7.92963146
_cell_angle_alpha   73.14892339
_cell_angle_beta   90.00000000
_cell_angle_gamma   120.00000000
_symmetry_Int_Tables_number   1
_chemical_formula_structural   BiPd6Se
_chemical_formula_sum   'Bi1 Pd6 Se1'
_cell_volume   136.77193411
_cell_formula_units_Z   1
loop_
 _symmetry_equiv_pos_site_id
 _symmetry_equiv_pos_as_xyz
  1  'x, y, z'
loop_
 _atom_site_type_symbol
 _atom_site_label
 _atom_site_symmetry_multiplicity
 _atom_site_fract_x
 _atom_site_fract_y
 _atom_site_fract_z
 _atom_site_occupancy
  Bi  Bi0  1  -0.00000000  -0.00000000  0.00000000  1
  Pd  Pd1  1  0.61499564  0.22999129  0.15501307  1
  Pd  Pd2  1  0.13253082  0.26506163  0.60240755  1
  Pd  Pd3  1  0.86746918  0.73493837  0.39759245  1
  Pd  Pd4  1  0.38500436  0.77000871  0.84498693  1
  Pd  Pd5  1  0.25641018  0.51282035  0.23076947  1
  Pd  Pd6  1  0.74358982  0.48717965  0.76923053  1
  Se  Se7  1  0.50000000  -0.00000000  0.50000000  1
