# generated using pymatgen
data_Ba2ScAlO5
_symmetry_space_group_name_H-M   'P 1'
_cell_length_a   5.88229390
_cell_length_b   5.88229390
_cell_length_c   14.61090680
_cell_angle_alpha   90.00668703
_cell_angle_beta   89.99331297
_cell_angle_gamma   120.69984471
_symmetry_Int_Tables_number   1
_chemical_formula_structural   Ba2ScAlO5
_chemical_formula_sum   'Ba6 Sc3 Al3 O15'
_cell_volume   434.70551218
_cell_formula_units_Z   3
loop_
 _symmetry_equiv_pos_site_id
 _symmetry_equiv_pos_as_xyz
  1  'x, y, z'
loop_
 _atom_site_type_symbol
 _atom_site_label
 _atom_site_symmetry_multiplicity
 _atom_site_fract_x
 _atom_site_fract_y
 _atom_site_fract_z
 _atom_site_occupancy
  Ba  Ba0  1  0.00363454  0.99636546  0.75450391  1
  Ba  Ba1  1  0.98455860  0.01544140  0.25276883  1
  Ba  Ba2  1  0.66790602  0.33209398  0.09972847  1
  Ba  Ba3  1  0.33118505  0.66881495  0.93386847  1
  Ba  Ba4  1  0.33447486  0.66552514  0.55986967  1
  Ba  Ba5  1  0.66718752  0.33281248  0.40287605  1
  Sc  Sc6  1  0.99830804  0.00169196  0.49117320  1
  Sc  Sc7  1  0.00164287  0.99835713  0.01183475  1
  Sc  Sc8  1  0.66120491  0.33879509  0.63949215  1
  Al  Al9  1  0.31269117  0.68730883  0.34509678  1
  Al  Al10  1  0.31152200  0.68847800  0.15334184  1
  Al  Al11  1  0.64579535  0.35420465  0.87107115  1
  O  O12  1  0.84955227  0.66779218  0.57546662  1
  O  O13  1  0.84719607  0.15280393  0.60231488  1
  O  O14  1  0.33220782  0.15044773  0.57546662  1
  O  O15  1  0.17705107  0.35829401  0.41023760  1
  O  O16  1  0.16065170  0.83934830  0.40742241  1
  O  O17  1  0.64170599  0.82294893  0.41023760  1
  O  O18  1  0.16913191  0.36176625  0.08613094  1
  O  O19  1  0.15758109  0.84241891  0.09369321  1
  O  O20  1  0.63823375  0.83086809  0.08613094  1
  O  O21  1  0.83656216  0.66468963  0.92537310  1
  O  O22  1  0.81938330  0.18061670  0.87670728  1
  O  O23  1  0.33531037  0.16343784  0.92537310  1
  O  O24  1  0.56901349  0.43098651  0.76203273  1
  O  O25  1  0.49612812  0.92982004  0.24889386  1
  O  O26  1  0.07017996  0.50387188  0.24889386  1
