# generated using pymatgen
data_Ba3Nd3Co6O17
_symmetry_space_group_name_H-M   'P 1'
_cell_length_a   5.63312068
_cell_length_b   8.89722210
_cell_length_c   8.60202621
_cell_angle_alpha   114.29461902
_cell_angle_beta   70.88714686
_cell_angle_gamma   108.45538827
_symmetry_Int_Tables_number   1
_chemical_formula_structural   Ba3Nd3Co6O17
_chemical_formula_sum   'Ba3 Nd3 Co6 O17'
_cell_volume   362.91331749
_cell_formula_units_Z   1
loop_
 _symmetry_equiv_pos_site_id
 _symmetry_equiv_pos_as_xyz
  1  'x, y, z'
loop_
 _atom_site_type_symbol
 _atom_site_label
 _atom_site_symmetry_multiplicity
 _atom_site_fract_x
 _atom_site_fract_y
 _atom_site_fract_z
 _atom_site_occupancy
  Ba  Ba0  1  0.16597155  0.33471740  0.00277530  1
  Ba  Ba1  1  0.50069545  0.99861560  0.99722470  1
  Ba  Ba2  1  0.83333300  0.66666700  -0.00000000  1
  Nd  Nd3  1  0.00773469  0.51610629  0.50063691  1
  Nd  Nd4  1  0.33333300  0.16666700  0.50000000  1
  Nd  Nd5  1  0.65893231  0.81722671  0.49936309  1
  Co  Co6  1  0.08679406  0.91918376  0.74559565  1
  Co  Co7  1  0.41549645  0.57756307  0.74656917  1
  Co  Co8  1  0.75247259  0.24820307  0.74325890  1
  Co  Co9  1  0.25116955  0.75577093  0.25343083  1
  Co  Co10  1  0.57987294  0.41414924  0.25440435  1
  Co  Co11  1  0.91419441  0.08512993  0.25674110  1
  O  O12  1  0.75548027  0.73996767  0.72356793  1
  O  O13  1  0.08240229  0.39716373  0.71315206  1
  O  O14  1  0.45205783  0.07785386  0.70389200  1
  O  O15  1  0.26091847  0.73996767  0.72356793  1
  O  O16  1  0.60161037  0.39716373  0.71315206  1
  O  O17  1  0.92190403  0.07785386  0.70389200  1
  O  O18  1  0.91118573  0.59336633  0.27643207  1
  O  O19  1  0.21460917  0.25547914  0.29610800  1
  O  O20  1  0.58426471  0.93616927  0.28684794  1
  O  O21  1  0.40574753  0.59336633  0.27643207  1
  O  O22  1  0.74476297  0.25547914  0.29610800  1
  O  O23  1  0.06505663  0.93616927  0.28684794  1
  O  O24  1  0.33333300  0.66666700  -0.00000000  1
  O  O25  1  0.65697936  0.33289711  0.01893940  1
  O  O26  1  0.00968764  0.00043589  0.98106060  1
  O  O27  1  0.50157813  0.50159497  0.49843871  1
  O  O28  1  0.16508887  0.83173803  0.50156129  1
