# generated using pymatgen
data_Ag(OsO3)2
_symmetry_space_group_name_H-M   'P 1'
_cell_length_a   7.22508038
_cell_length_b   7.24009111
_cell_length_c   7.26300973
_cell_angle_alpha   90.00000000
_cell_angle_beta   59.82618957
_cell_angle_gamma   120.06874977
_symmetry_Int_Tables_number   1
_chemical_formula_structural   Ag(OsO3)2
_chemical_formula_sum   'Ag2 Os4 O12'
_cell_volume   267.66273018
_cell_formula_units_Z   2
loop_
 _symmetry_equiv_pos_site_id
 _symmetry_equiv_pos_as_xyz
  1  'x, y, z'
loop_
 _atom_site_type_symbol
 _atom_site_label
 _atom_site_symmetry_multiplicity
 _atom_site_fract_x
 _atom_site_fract_y
 _atom_site_fract_z
 _atom_site_occupancy
  Ag  Ag0  1  0.55725550  0.06901293  0.47137225  1
  Ag  Ag1  1  0.44274450  0.51175743  0.52862775  1
  Os  Os2  1  0.50464566  0.49124136  0.99767717  1
  Os  Os3  1  0.49535434  0.98659569  0.00232283  1
  Os  Os4  1  0.00000000  0.99572997  0.50000000  1
  Os  Os5  1  0.00000000  0.99572997  0.00000000  1
  O  O6  1  0.85157919  0.92762041  0.32421040  1
  O  O7  1  0.61476849  0.30055979  0.94261575  1
  O  O8  1  0.24809829  0.93711954  0.94261199  1
  O  O9  1  0.25080126  0.31931022  0.32331452  1
  O  O10  1  0.25080126  0.31931022  0.92588422  1
  O  O11  1  0.24809829  0.93711954  0.30928972  1
  O  O12  1  0.14842081  0.07604121  0.67578960  1
  O  O13  1  0.38523151  0.68579130  0.05738425  1
  O  O14  1  0.74919874  0.06850896  0.07411578  1
  O  O15  1  0.75190171  0.68902125  0.69071028  1
  O  O16  1  0.75190171  0.68902125  0.05738801  1
  O  O17  1  0.74919874  0.06850896  0.67668548  1
