# generated using pymatgen
data_CaAl2O4
_symmetry_space_group_name_H-M   'P 1'
_cell_length_a   2.89957647
_cell_length_b   9.00017894
_cell_length_c   10.41070175
_cell_angle_alpha   90.00000000
_cell_angle_beta   90.00000000
_cell_angle_gamma   90.00000000
_symmetry_Int_Tables_number   1
_chemical_formula_structural   CaAl2O4
_chemical_formula_sum   'Ca4 Al8 O16'
_cell_volume   271.68503407
_cell_formula_units_Z   4
loop_
 _symmetry_equiv_pos_site_id
 _symmetry_equiv_pos_as_xyz
  1  'x, y, z'
loop_
 _atom_site_type_symbol
 _atom_site_label
 _atom_site_symmetry_multiplicity
 _atom_site_fract_x
 _atom_site_fract_y
 _atom_site_fract_z
 _atom_site_occupancy
  O  O0  1  0.25000000  0.07734542  0.07186584  1
  O  O1  1  0.75000000  0.92265458  0.92813416  1
  O  O2  1  0.25000000  0.57734542  0.42813416  1
  O  O3  1  0.75000000  0.42265458  0.57186584  1
  O  O4  1  0.25000000  0.97360144  0.71546780  1
  O  O5  1  0.75000000  0.02639856  0.28453220  1
  O  O6  1  0.25000000  0.47360144  0.78453220  1
  O  O7  1  0.75000000  0.52639856  0.21546780  1
  O  O8  1  0.25000000  0.38572953  0.01963317  1
  O  O9  1  0.75000000  0.61427047  0.98036683  1
  O  O10  1  0.25000000  0.88572953  0.48036683  1
  O  O11  1  0.75000000  0.11427047  0.51963317  1
  O  O12  1  0.75000000  0.20319062  0.84620995  1
  O  O13  1  0.25000000  0.79680938  0.15379005  1
  O  O14  1  0.75000000  0.70319062  0.65379005  1
  O  O15  1  0.25000000  0.29680938  0.34620995  1
  Al  Al16  1  0.25000000  0.08127838  0.39706742  1
  Al  Al17  1  0.75000000  0.91872162  0.60293258  1
  Al  Al18  1  0.25000000  0.58127838  0.10293258  1
  Al  Al19  1  0.75000000  0.41872162  0.89706742  1
  Al  Al20  1  0.25000000  0.06181234  0.88900724  1
  Al  Al21  1  0.75000000  0.93818766  0.11099276  1
  Al  Al22  1  0.25000000  0.56181234  0.61099276  1
  Al  Al23  1  0.75000000  0.43818766  0.38900724  1
  Ca  Ca24  1  0.25000000  0.74224372  0.84458637  1
  Ca  Ca25  1  0.75000000  0.25775628  0.15541363  1
  Ca  Ca26  1  0.25000000  0.24224372  0.65541363  1
  Ca  Ca27  1  0.75000000  0.75775628  0.34458637  1
