# generated using pymatgen
data_Ba2CaTb2Ti3(CuO7)2
_symmetry_space_group_name_H-M   'P 1'
_cell_length_a   3.90531689
_cell_length_b   3.90531689
_cell_length_c   19.87926658
_cell_angle_alpha   90.00000000
_cell_angle_beta   90.00000000
_cell_angle_gamma   89.98499321
_symmetry_Int_Tables_number   1
_chemical_formula_structural   Ba2CaTb2Ti3(CuO7)2
_chemical_formula_sum   'Ba2 Ca1 Tb2 Ti3 Cu2 O14'
_cell_volume   303.18862365
_cell_formula_units_Z   1
loop_
 _symmetry_equiv_pos_site_id
 _symmetry_equiv_pos_as_xyz
  1  'x, y, z'
loop_
 _atom_site_type_symbol
 _atom_site_label
 _atom_site_symmetry_multiplicity
 _atom_site_fract_x
 _atom_site_fract_y
 _atom_site_fract_z
 _atom_site_occupancy
  Ba  Ba0  1  0.50000000  0.50000000  0.81291117  1
  Ba  Ba1  1  0.50000000  0.50000000  0.18434038  1
  Ca  Ca2  1  0.50000000  0.50000000  0.61096689  1
  Tb  Tb3  1  0.50000000  0.50000000  0.99942657  1
  Tb  Tb4  1  0.50000000  0.50000000  0.40112698  1
  Ti  Ti5  1  0.00000000  0.00000000  0.70135166  1
  Ti  Ti6  1  0.00000000  0.00000000  0.30107669  1
  Ti  Ti7  1  0.00000000  0.00000000  0.50075696  1
  Cu  Cu8  1  -0.00000000  -0.00000000  0.91782733  1
  Cu  Cu9  1  0.00000000  0.00000000  0.08123452  1
  O  O10  1  0.00000000  0.50000000  0.69134611  1
  O  O11  1  0.50000000  0.00000000  0.31331915  1
  O  O12  1  0.00000000  0.50000000  0.31331915  1
  O  O13  1  0.50000000  0.00000000  0.69134611  1
  O  O14  1  -0.00000000  0.50000000  0.92741593  1
  O  O15  1  0.50000000  -0.00000000  0.07311371  1
  O  O16  1  -0.00000000  0.50000000  0.07311371  1
  O  O17  1  0.50000000  0.00000000  0.92741593  1
  O  O18  1  0.00000000  0.00000000  0.79482184  1
  O  O19  1  0.00000000  0.00000000  0.20660818  1
  O  O20  1  0.00000000  0.00000000  0.59484019  1
  O  O21  1  0.00000000  0.00000000  0.40151900  1
  O  O22  1  0.00000000  0.50000000  0.49040091  1
  O  O23  1  0.50000000  0.00000000  0.49040091  1
