# generated using pymatgen
data_MgFeSiO5
_symmetry_space_group_name_H-M   'P 1'
_cell_length_a   5.35096269
_cell_length_b   6.92963238
_cell_length_c   8.49059718
_cell_angle_alpha   89.92090665
_cell_angle_beta   37.31880315
_cell_angle_gamma   75.16190410
_symmetry_Int_Tables_number   1
_chemical_formula_structural   MgFeSiO5
_chemical_formula_sum   'Mg2 Fe2 Si2 O10'
_cell_volume   173.16317312
_cell_formula_units_Z   2
loop_
 _symmetry_equiv_pos_site_id
 _symmetry_equiv_pos_as_xyz
  1  'x, y, z'
loop_
 _atom_site_type_symbol
 _atom_site_label
 _atom_site_symmetry_multiplicity
 _atom_site_fract_x
 _atom_site_fract_y
 _atom_site_fract_z
 _atom_site_occupancy
  Mg  Mg0  1  0.50340059  0.23230878  0.66594664  1
  Mg  Mg1  1  0.50681746  0.73085722  0.31936970  1
  Fe  Fe2  1  0.49955769  0.48581382  0.99585228  1
  Fe  Fe3  1  0.49938622  0.98587484  0.99544400  1
  Si  Si4  1  0.49915177  0.23586548  0.32436657  1
  Si  Si5  1  0.49676810  0.73578163  0.66843848  1
  O  O6  1  0.27829395  0.10755237  0.32672474  1
  O  O7  1  0.72321786  0.36448276  0.10501587  1
  O  O8  1  0.71574597  0.86638546  0.66550917  1
  O  O9  1  0.27096418  0.60956411  0.89011828  1
  O  O10  1  0.85938791  0.57141585  0.36051279  1
  O  O11  1  0.14099210  0.89550599  0.71619383  1
  O  O12  1  0.13894082  0.39881916  0.63225156  1
  O  O13  1  0.85721426  0.07486222  0.27404601  1
  O  O14  1  0.49595914  0.73608017  0.08543163  1
  O  O15  1  0.50093399  0.23596114  0.90679242  1
