# generated using pymatgen
data_NaSnN
_symmetry_space_group_name_H-M   'P 1'
_cell_length_a   3.36694749
_cell_length_b   3.36694749
_cell_length_c   11.02375604
_cell_angle_alpha   90.00000000
_cell_angle_beta   90.00000000
_cell_angle_gamma   120.00000007
_symmetry_Int_Tables_number   1
_chemical_formula_structural   NaSnN
_chemical_formula_sum   'Na2 Sn2 N2'
_cell_volume   108.22632510
_cell_formula_units_Z   2
loop_
 _symmetry_equiv_pos_site_id
 _symmetry_equiv_pos_as_xyz
  1  'x, y, z'
loop_
 _atom_site_type_symbol
 _atom_site_label
 _atom_site_symmetry_multiplicity
 _atom_site_fract_x
 _atom_site_fract_y
 _atom_site_fract_z
 _atom_site_occupancy
  N  N0  1  0.33333333  0.66666667  0.59935330  1
  N  N1  1  0.66666667  0.33333333  0.09935330  1
  Na  Na2  1  0.33333333  0.66666667  0.24446879  1
  Na  Na3  1  0.66666667  0.33333333  0.74446879  1
  Sn  Sn4  1  0.00000000  0.00000000  0.50081791  1
  Sn  Sn5  1  0.00000000  0.00000000  0.00081791  1
