# generated using pymatgen
data_Ba2Li3Ho3(WO4)8
_symmetry_space_group_name_H-M   'P 1'
_cell_length_a   5.27256566
_cell_length_b   6.96511164
_cell_length_c   19.10555741
_cell_angle_alpha   89.55079037
_cell_angle_beta   88.87215740
_cell_angle_gamma   112.53522474
_symmetry_Int_Tables_number   1
_chemical_formula_structural   Ba2Li3Ho3(WO4)8
_chemical_formula_sum   'Ba2 Li3 Ho3 W8 O32'
_cell_volume   647.84338802
_cell_formula_units_Z   1
loop_
 _symmetry_equiv_pos_site_id
 _symmetry_equiv_pos_as_xyz
  1  'x, y, z'
loop_
 _atom_site_type_symbol
 _atom_site_label
 _atom_site_symmetry_multiplicity
 _atom_site_fract_x
 _atom_site_fract_y
 _atom_site_fract_z
 _atom_site_occupancy
  Ba  Ba0  1  0.02718388  0.06138701  0.26154941  1
  Ba  Ba1  1  0.97207151  0.93928440  0.74145616  1
  Li  Li2  1  0.32406863  0.63131194  0.25633893  1
  Li  Li3  1  0.67669311  0.36595032  0.74451304  1
  Li  Li4  1  0.13929050  0.28647670  0.46170192  1
  Ho  Ho5  1  0.15332168  0.29396475  0.03371763  1
  Ho  Ho6  1  0.85711609  0.70736641  0.52906532  1
  Ho  Ho7  1  0.84743626  0.70649768  0.96778633  1
  W  W8  1  0.44894769  0.88067014  0.40697988  1
  W  W9  1  0.42055150  0.87509225  0.09442648  1
  W  W10  1  0.54964588  0.12038265  0.59185267  1
  W  W11  1  0.57847863  0.12371512  0.90607898  1
  W  W12  1  0.73741255  0.47561758  0.34914453  1
  W  W13  1  0.75366868  0.48031853  0.15376080  1
  W  W14  1  0.26410172  0.52257416  0.65200451  1
  W  W15  1  0.24833039  0.51987184  0.84713481  1
  O  O16  1  0.50828621  0.67068177  0.45437738  1
  O  O17  1  0.17454480  0.65566084  0.04235801  1
  O  O18  1  0.53027091  0.35145533  0.54958914  1
  O  O19  1  0.82653828  0.34339959  0.95715115  1
  O  O20  1  0.92082564  0.41145822  0.27394532  1
  O  O21  1  0.45804344  0.40206944  0.21175049  1
  O  O22  1  0.07962593  0.59168672  0.72493383  1
  O  O23  1  0.53825315  0.59734235  0.78676873  1
  O  O24  1  0.26865330  0.82445555  0.32397614  1
  O  O25  1  0.55413981  0.82676061  0.17525152  1
  O  O26  1  0.72231613  0.16879297  0.67584979  1
  O  O27  1  0.44696599  0.17350914  0.82490379  1
  O  O28  1  0.77323998  0.09798167  0.39024541  1
  O  O29  1  0.31762722  0.09525258  0.10327044  1
  O  O30  1  0.21171680  0.90709995  0.60842715  1
  O  O31  1  0.68311655  0.90439089  0.89604928  1
  O  O32  1  0.92904015  0.52905905  0.43046805  1
  O  O33  1  0.60054363  0.51921280  0.06895964  1
  O  O34  1  0.07326043  0.48947669  0.57230851  1
  O  O35  1  0.40184146  0.48028779  0.93118778  1
  O  O36  1  0.22485857  0.95532676  0.46618292  1
  O  O37  1  0.73620029  0.96033383  0.03611621  1
  O  O38  1  0.76135617  0.02481254  0.53731204  1
  O  O39  1  0.26227298  0.03858679  0.96355629  1
  O  O40  1  0.39086161  0.28745311  0.36225814  1
  O  O41  1  0.90576284  0.28956294  0.13175182  1
  O  O42  1  0.61717997  0.70792328  0.63635174  1
  O  O43  1  0.09377192  0.70947752  0.86809310  1
  O  O44  1  0.68535364  0.70518129  0.31854694  1
  O  O45  1  0.02642094  0.72920521  0.17187476  1
  O  O46  1  0.30337147  0.28815843  0.68151045  1
  O  O47  1  0.97542112  0.27346290  0.82716263  1
