# generated using pymatgen
data_NaTiP2O7
_symmetry_space_group_name_H-M   'P 1'
_cell_length_a   7.47974890
_cell_length_b   8.03656930
_cell_length_c   9.84832129
_cell_angle_alpha   90.00000000
_cell_angle_beta   111.67182548
_cell_angle_gamma   90.00000000
_symmetry_Int_Tables_number   1
_chemical_formula_structural   NaTiP2O7
_chemical_formula_sum   'Na4 Ti4 P8 O28'
_cell_volume   550.15179053
_cell_formula_units_Z   4
loop_
 _symmetry_equiv_pos_site_id
 _symmetry_equiv_pos_as_xyz
  1  'x, y, z'
loop_
 _atom_site_type_symbol
 _atom_site_label
 _atom_site_symmetry_multiplicity
 _atom_site_fract_x
 _atom_site_fract_y
 _atom_site_fract_z
 _atom_site_occupancy
  O  O0  1  0.87352031  0.34261896  0.93776626  1
  O  O1  1  0.12647969  0.84261896  0.56223374  1
  O  O2  1  0.12647969  0.65738104  0.06223374  1
  O  O3  1  0.87352031  0.15738104  0.43776626  1
  O  O4  1  0.36946576  0.60688575  0.60254286  1
  O  O5  1  0.63053424  0.10688575  0.89745714  1
  O  O6  1  0.63053424  0.39311425  0.39745714  1
  O  O7  1  0.36946576  0.89311425  0.10254286  1
  O  O8  1  0.18192762  0.28537175  0.61756544  1
  O  O9  1  0.81807238  0.78537175  0.88243456  1
  O  O10  1  0.81807238  0.71462825  0.38243456  1
  O  O11  1  0.18192762  0.21462825  0.11756544  1
  O  O12  1  0.98844960  0.58249666  0.63543133  1
  O  O13  1  0.01155040  0.08249666  0.86456867  1
  O  O14  1  0.01155040  0.41750334  0.36456867  1
  O  O15  1  0.98844960  0.91750334  0.13543133  1
  O  O16  1  0.53394554  0.08673936  0.35116275  1
  O  O17  1  0.46605446  0.58673936  0.14883725  1
  O  O18  1  0.46605446  0.91326064  0.64883725  1
  O  O19  1  0.53394554  0.41326064  0.85116275  1
  O  O20  1  0.30730538  0.79974521  0.38666889  1
  O  O21  1  0.69269462  0.29974521  0.11333111  1
  O  O22  1  0.69269462  0.20025479  0.61333111  1
  O  O23  1  0.30730538  0.70025479  0.88666889  1
  O  O24  1  0.17583301  0.13713474  0.39118873  1
  O  O25  1  0.82416699  0.63713474  0.10881127  1
  O  O26  1  0.82416699  0.86286526  0.60881127  1
  O  O27  1  0.17583301  0.36286526  0.89118873  1
  Na  Na28  1  0.28441393  0.02243963  0.79003175  1
  Na  Na29  1  0.71558607  0.52243963  0.70996825  1
  Na  Na30  1  0.71558607  0.97756037  0.20996825  1
  Na  Na31  1  0.28441393  0.47756037  0.29003175  1
  P  P32  1  0.67212683  0.28691124  0.95349575  1
  P  P33  1  0.32787317  0.78691124  0.54650425  1
  P  P34  1  0.32787317  0.71308876  0.04650425  1
  P  P35  1  0.67212683  0.21308876  0.45349575  1
  P  P36  1  0.07060486  0.24384186  0.95434820  1
  P  P37  1  0.92939514  0.74384186  0.54565180  1
  P  P38  1  0.92939514  0.75615814  0.04565180  1
  P  P39  1  0.07060486  0.25615814  0.45434820  1
  Ti  Ti40  1  0.26096551  0.49058744  0.74950368  1
  Ti  Ti41  1  0.73903449  0.99058744  0.75049632  1
  Ti  Ti42  1  0.73903449  0.50941256  0.25049632  1
  Ti  Ti43  1  0.26096551  0.00941256  0.24950368  1
