# generated using pymatgen
data_Pr2NiO4
_symmetry_space_group_name_H-M   'P 1'
_cell_length_a   5.44626304
_cell_length_b   5.69797650
_cell_length_c   6.73203717
_cell_angle_alpha   90.00000000
_cell_angle_beta   113.86000766
_cell_angle_gamma   90.00000000
_symmetry_Int_Tables_number   1
_chemical_formula_structural   Pr2NiO4
_chemical_formula_sum   'Pr4 Ni2 O8'
_cell_volume   191.05870278
_cell_formula_units_Z   2
loop_
 _symmetry_equiv_pos_site_id
 _symmetry_equiv_pos_as_xyz
  1  'x, y, z'
loop_
 _atom_site_type_symbol
 _atom_site_label
 _atom_site_symmetry_multiplicity
 _atom_site_fract_x
 _atom_site_fract_y
 _atom_site_fract_z
 _atom_site_occupancy
  O  O0  1  0.32108143  0.43154244  0.64216286  1
  O  O1  1  0.67891857  0.56845756  0.35783714  1
  O  O2  1  0.17891857  0.93154244  0.35783714  1
  O  O3  1  0.82108143  0.06845756  0.64216286  1
  O  O4  1  0.26971651  0.25000000  0.03943303  1
  O  O5  1  0.23028349  0.75000000  0.96056697  1
  O  O6  1  0.76971651  0.25000000  0.03943303  1
  O  O7  1  0.73028349  0.75000000  0.96056697  1
  Ni  Ni8  1  0.50000000  0.50000000  0.00000000  1
  Ni  Ni9  1  0.00000000  0.00000000  0.00000000  1
  Pr  Pr10  1  0.13692731  0.51638271  0.27385462  1
  Pr  Pr11  1  0.86307269  0.48361729  0.72614538  1
  Pr  Pr12  1  0.36307269  0.01638271  0.72614538  1
  Pr  Pr13  1  0.63692731  0.98361729  0.27385462  1
