# generated using pymatgen
data_YbMnGe
_symmetry_space_group_name_H-M   'P 1'
_cell_length_a   4.23664312
_cell_length_b   7.19543647
_cell_length_c   7.61825852
_cell_angle_alpha   90.00000000
_cell_angle_beta   90.00000000
_cell_angle_gamma   90.00000000
_symmetry_Int_Tables_number   1
_chemical_formula_structural   YbMnGe
_chemical_formula_sum   'Yb4 Mn4 Ge4'
_cell_volume   232.23877455
_cell_formula_units_Z   4
loop_
 _symmetry_equiv_pos_site_id
 _symmetry_equiv_pos_as_xyz
  1  'x, y, z'
loop_
 _atom_site_type_symbol
 _atom_site_label
 _atom_site_symmetry_multiplicity
 _atom_site_fract_x
 _atom_site_fract_y
 _atom_site_fract_z
 _atom_site_occupancy
  Yb  Yb0  1  0.75000000  0.98962146  0.31655111  1
  Yb  Yb1  1  0.25000000  0.01037854  0.68344889  1
  Yb  Yb2  1  0.25000000  0.51037854  0.81655111  1
  Yb  Yb3  1  0.75000000  0.48962146  0.18344889  1
  Mn  Mn4  1  0.75000000  0.87044795  0.94295201  1
  Mn  Mn5  1  0.25000000  0.62955205  0.44295201  1
  Mn  Mn6  1  0.75000000  0.37044795  0.55704799  1
  Mn  Mn7  1  0.25000000  0.12955205  0.05704799  1
  Ge  Ge8  1  0.75000000  0.21323416  0.88806354  1
  Ge  Ge9  1  0.25000000  0.78676584  0.11193646  1
  Ge  Ge10  1  0.25000000  0.28676584  0.38806354  1
  Ge  Ge11  1  0.75000000  0.71323416  0.61193646  1
