# generated using pymatgen
data_Zr5Al3
_symmetry_space_group_name_H-M   'P 1'
_cell_length_a   8.34531173
_cell_length_b   8.34531173
_cell_length_c   5.54183551
_cell_angle_alpha   90.00000000
_cell_angle_beta   90.00000000
_cell_angle_gamma   120.00000003
_symmetry_Int_Tables_number   1
_chemical_formula_structural   Zr5Al3
_chemical_formula_sum   'Zr10 Al6'
_cell_volume   334.24844123
_cell_formula_units_Z   2
loop_
 _symmetry_equiv_pos_site_id
 _symmetry_equiv_pos_as_xyz
  1  'x, y, z'
loop_
 _atom_site_type_symbol
 _atom_site_label
 _atom_site_symmetry_multiplicity
 _atom_site_fract_x
 _atom_site_fract_y
 _atom_site_fract_z
 _atom_site_occupancy
  Al  Al0  1  0.60694827  0.00000000  0.25000000  1
  Al  Al1  1  0.60694827  0.60694827  0.75000000  1
  Al  Al2  1  0.00000000  0.39305173  0.75000000  1
  Al  Al3  1  0.00000000  0.60694827  0.25000000  1
  Al  Al4  1  0.39305173  0.39305173  0.25000000  1
  Al  Al5  1  0.39305173  0.00000000  0.75000000  1
  Zr  Zr6  1  0.33333333  0.66666667  0.00000000  1
  Zr  Zr7  1  0.66666667  0.33333333  0.50000000  1
  Zr  Zr8  1  0.66666667  0.33333333  0.00000000  1
  Zr  Zr9  1  0.33333333  0.66666667  0.50000000  1
  Zr  Zr10  1  0.23886194  0.00000000  0.25000000  1
  Zr  Zr11  1  0.23886194  0.23886194  0.75000000  1
  Zr  Zr12  1  0.00000000  0.76113806  0.75000000  1
  Zr  Zr13  1  0.00000000  0.23886194  0.25000000  1
  Zr  Zr14  1  0.76113806  0.76113806  0.25000000  1
  Zr  Zr15  1  0.76113806  0.00000000  0.75000000  1
