# generated using pymatgen
data_Mg3Cr2(SiO4)3
_symmetry_space_group_name_H-M   'P 1'
_cell_length_a   10.18417516
_cell_length_b   10.18417516
_cell_length_c   10.18417516
_cell_angle_alpha   109.47122061
_cell_angle_beta   109.47122062
_cell_angle_gamma   109.47122064
_symmetry_Int_Tables_number   1
_chemical_formula_structural   Mg3Cr2(SiO4)3
_chemical_formula_sum   'Mg12 Cr8 Si12 O48'
_cell_volume   813.12195960
_cell_formula_units_Z   4
loop_
 _symmetry_equiv_pos_site_id
 _symmetry_equiv_pos_as_xyz
  1  'x, y, z'
loop_
 _atom_site_type_symbol
 _atom_site_label
 _atom_site_symmetry_multiplicity
 _atom_site_fract_x
 _atom_site_fract_y
 _atom_site_fract_z
 _atom_site_occupancy
  O  O0  1  0.71147446  0.69112821  0.08759089  1
  O  O1  1  0.69112821  0.10353731  0.97965374  1
  O  O2  1  0.62388357  0.71147446  0.52034626  1
  O  O3  1  0.52034626  0.62388357  0.71147446  1
  O  O4  1  0.08759089  0.87611643  0.39646269  1
  O  O5  1  0.39646269  0.08759089  0.87611643  1
  O  O6  1  0.10353731  0.97965374  0.69112821  1
  O  O7  1  0.62388357  0.41240911  0.10353731  1
  O  O8  1  0.52034626  0.39646269  0.80887179  1
  O  O9  1  0.87611643  0.97965374  0.78852554  1
  O  O10  1  0.41240911  0.10353731  0.62388357  1
  O  O11  1  0.80887179  0.52034626  0.39646269  1
  O  O12  1  0.97965374  0.78852554  0.87611643  1
  O  O13  1  0.08759089  0.71147446  0.69112821  1
  O  O14  1  0.69112821  0.08759089  0.71147446  1
  O  O15  1  0.10353731  0.62388357  0.41240911  1
  O  O16  1  0.80887179  0.78852554  0.41240911  1
  O  O17  1  0.39646269  0.80887179  0.52034626  1
  O  O18  1  0.41240911  0.80887179  0.78852554  1
  O  O19  1  0.78852554  0.87611643  0.97965374  1
  O  O20  1  0.78852554  0.41240911  0.80887179  1
  O  O21  1  0.87611643  0.39646269  0.08759089  1
  O  O22  1  0.97965374  0.69112821  0.10353731  1
  O  O23  1  0.71147446  0.52034626  0.62388357  1
  O  O24  1  0.28852554  0.30887179  0.91240911  1
  O  O25  1  0.30887179  0.89646269  0.02034626  1
  O  O26  1  0.37611643  0.28852554  0.47965374  1
  O  O27  1  0.47965374  0.37611643  0.28852554  1
  O  O28  1  0.91240911  0.12388357  0.60353731  1
  O  O29  1  0.60353731  0.91240911  0.12388357  1
  O  O30  1  0.89646269  0.02034626  0.30887179  1
  O  O31  1  0.37611643  0.58759089  0.89646269  1
  O  O32  1  0.47965374  0.60353731  0.19112821  1
  O  O33  1  0.12388357  0.02034626  0.21147446  1
  O  O34  1  0.58759089  0.89646269  0.37611643  1
  O  O35  1  0.19112821  0.47965374  0.60353731  1
  O  O36  1  0.02034626  0.21147446  0.12388357  1
  O  O37  1  0.91240911  0.28852554  0.30887179  1
  O  O38  1  0.30887179  0.91240911  0.28852554  1
  O  O39  1  0.89646269  0.37611643  0.58759089  1
  O  O40  1  0.19112821  0.21147446  0.58759089  1
  O  O41  1  0.60353731  0.19112821  0.47965374  1
  O  O42  1  0.58759089  0.19112821  0.21147446  1
  O  O43  1  0.21147446  0.12388357  0.02034626  1
  O  O44  1  0.21147446  0.58759089  0.19112821  1
  O  O45  1  0.12388357  0.60353731  0.91240911  1
  O  O46  1  0.02034626  0.30887179  0.89646269  1
  O  O47  1  0.28852554  0.47965374  0.37611643  1
  Mg  Mg48  1  0.25000000  0.37500000  0.12500000  1
  Mg  Mg49  1  0.37500000  0.75000000  0.12500000  1
  Mg  Mg50  1  0.12500000  0.25000000  0.37500000  1
  Mg  Mg51  1  0.37500000  0.12500000  0.25000000  1
  Mg  Mg52  1  0.12500000  0.37500000  0.75000000  1
  Mg  Mg53  1  0.75000000  0.12500000  0.37500000  1
  Mg  Mg54  1  0.75000000  0.62500000  0.87500000  1
  Mg  Mg55  1  0.62500000  0.25000000  0.87500000  1
  Mg  Mg56  1  0.87500000  0.75000000  0.62500000  1
  Mg  Mg57  1  0.62500000  0.87500000  0.75000000  1
  Mg  Mg58  1  0.87500000  0.62500000  0.25000000  1
  Mg  Mg59  1  0.25000000  0.87500000  0.62500000  1
  Si  Si60  1  0.75000000  0.87500000  0.12500000  1
  Si  Si61  1  0.37500000  0.25000000  0.62500000  1
  Si  Si62  1  0.62500000  0.37500000  0.25000000  1
  Si  Si63  1  0.12500000  0.75000000  0.87500000  1
  Si  Si64  1  0.12500000  0.87500000  0.25000000  1
  Si  Si65  1  0.87500000  0.12500000  0.75000000  1
  Si  Si66  1  0.75000000  0.37500000  0.62500000  1
  Si  Si67  1  0.37500000  0.62500000  0.75000000  1
  Si  Si68  1  0.25000000  0.62500000  0.37500000  1
  Si  Si69  1  0.62500000  0.75000000  0.37500000  1
  Si  Si70  1  0.87500000  0.25000000  0.12500000  1
  Si  Si71  1  0.25000000  0.12500000  0.87500000  1
  Cr  Cr72  1  0.50000000  0.50000000  0.50000000  1
  Cr  Cr73  1  0.50000000  0.50000000  0.00000000  1
  Cr  Cr74  1  0.50000000  0.00000000  0.50000000  1
  Cr  Cr75  1  0.50000000  0.00000000  0.00000000  1
  Cr  Cr76  1  0.00000000  0.00000000  0.50000000  1
  Cr  Cr77  1  0.00000000  0.50000000  0.00000000  1
  Cr  Cr78  1  0.00000000  0.00000000  0.00000000  1
  Cr  Cr79  1  0.00000000  0.50000000  0.50000000  1
