# generated using pymatgen
data_Na2Ca2Ta3O10
_symmetry_space_group_name_H-M   'P 1'
_cell_length_a   3.98863299
_cell_length_b   3.98863227
_cell_length_c   14.63452728
_cell_angle_alpha   97.83285756
_cell_angle_beta   97.83285556
_cell_angle_gamma   89.98760538
_symmetry_Int_Tables_number   1
_chemical_formula_structural   Na2Ca2Ta3O10
_chemical_formula_sum   'Na2 Ca2 Ta3 O10'
_cell_volume   228.45921715
_cell_formula_units_Z   1
loop_
 _symmetry_equiv_pos_site_id
 _symmetry_equiv_pos_as_xyz
  1  'x, y, z'
loop_
 _atom_site_type_symbol
 _atom_site_label
 _atom_site_symmetry_multiplicity
 _atom_site_fract_x
 _atom_site_fract_y
 _atom_site_fract_z
 _atom_site_occupancy
  Na  Na0  1  0.71184256  0.71184284  0.42391490  1
  Na  Na1  1  0.28815744  0.28815716  0.57608510  1
  Ca  Ca2  1  0.57589196  0.57589152  0.15195002  1
  Ca  Ca3  1  0.42410804  0.42410848  0.84804998  1
  Ta  Ta4  1  0.85656766  0.85656791  0.71289872  1
  Ta  Ta5  1  0.14343234  0.14343209  0.28710128  1
  Ta  Ta6  1  0.00000000  0.00000000  0.00000000  1
  O  O7  1  0.06866796  0.06866841  0.13720491  1
  O  O8  1  0.20851813  0.20851812  0.41694056  1
  O  O9  1  0.93133204  0.93133159  0.86279509  1
  O  O10  1  0.13304078  0.63313839  0.26646410  1
  O  O11  1  0.63313851  0.13304010  0.26646407  1
  O  O12  1  0.36686149  0.86695990  0.73353593  1
  O  O13  1  0.79148187  0.79148188  0.58305944  1
  O  O14  1  0.86695922  0.36686161  0.73353590  1
  O  O15  1  0.00000000  0.50000000  0.00000000  1
  O  O16  1  0.50000000  0.00000000  0.00000000  1
