# generated using pymatgen
data_La4Co3O10
_symmetry_space_group_name_H-M   'P 1'
_cell_length_a   3.88561758
_cell_length_b   3.88451869
_cell_length_c   14.35764599
_cell_angle_alpha   97.79444204
_cell_angle_beta   97.64562466
_cell_angle_gamma   90.44091823
_symmetry_Int_Tables_number   1
_chemical_formula_structural   La4Co3O10
_chemical_formula_sum   'La4 Co3 O10'
_cell_volume   212.72669224
_cell_formula_units_Z   1
loop_
 _symmetry_equiv_pos_site_id
 _symmetry_equiv_pos_as_xyz
  1  'x, y, z'
loop_
 _atom_site_type_symbol
 _atom_site_label
 _atom_site_symmetry_multiplicity
 _atom_site_fract_x
 _atom_site_fract_y
 _atom_site_fract_z
 _atom_site_occupancy
  O  O0  1  0.21936040  0.21738090  0.43599162  1
  O  O1  1  0.78328087  0.78135271  0.56421674  1
  O  O2  1  0.85763953  0.35932201  0.72003687  1
  O  O3  1  0.64076100  0.14160486  0.27958954  1
  O  O4  1  0.13743902  0.63922351  0.27998131  1
  O  O5  1  0.36082873  0.86180880  0.72039961  1
  O  O6  1  0.07040345  0.06648800  0.13637272  1
  O  O7  1  0.50062775  0.00039777  0.99993776  1
  O  O8  1  0.93214216  0.93197060  0.86351405  1
  O  O9  1  0.99932587  0.49953909  0.99996084  1
  Co  Co10  1  0.14161934  0.13884488  0.28020787  1
  Co  Co11  1  0.86098989  0.85869923  0.71968133  1
  Co  Co12  1  0.00077370  0.99946769  0.00001975  1
  La  La13  1  0.43433370  0.43260945  0.86630411  1
  La  La14  1  0.57204049  0.56241351  0.13381274  1
  La  La15  1  0.29574167  0.30549176  0.60231547  1
  La  La16  1  0.69269148  0.70338390  0.39765786  1
