# generated using pymatgen
data_Sr2AlGaCo2O7
_symmetry_space_group_name_H-M   'P 1'
_cell_length_a   5.40979783
_cell_length_b   5.62386889
_cell_length_c   11.81593066
_cell_angle_alpha   103.53606466
_cell_angle_beta   103.14661586
_cell_angle_gamma   90.22827800
_symmetry_Int_Tables_number   1
_chemical_formula_structural   Sr2AlGaCo2O7
_chemical_formula_sum   'Sr4 Al2 Ga2 Co4 O14'
_cell_volume   339.72005291
_cell_formula_units_Z   2
loop_
 _symmetry_equiv_pos_site_id
 _symmetry_equiv_pos_as_xyz
  1  'x, y, z'
loop_
 _atom_site_type_symbol
 _atom_site_label
 _atom_site_symmetry_multiplicity
 _atom_site_fract_x
 _atom_site_fract_y
 _atom_site_fract_z
 _atom_site_occupancy
  Sr  Sr0  1  0.14934446  0.17067617  0.29879772  1
  Sr  Sr1  1  0.85080719  0.82695195  0.70060073  1
  Sr  Sr2  1  0.64994911  0.62510958  0.29980973  1
  Sr  Sr3  1  0.34896633  0.37142611  0.69944055  1
  Al  Al4  1  0.50823081  0.49871824  0.00328259  1
  Al  Al5  1  0.00566416  0.00437368  0.00188551  1
  Ga  Ga6  1  0.21595095  0.82017852  0.50039707  1
  Ga  Ga7  1  0.71592555  0.17608652  0.49748647  1
  Co  Co8  1  0.43933135  0.94355900  0.86948078  1
  Co  Co9  1  0.06805289  0.56804497  0.12675732  1
  Co  Co10  1  0.94679065  0.44128820  0.88490367  1
  Co  Co11  1  0.57099458  0.05670576  0.13463910  1
  O  O12  1  0.87341551  0.22817639  0.10660043  1
  O  O13  1  0.86748809  0.87222920  0.49984854  1
  O  O14  1  0.37592812  0.37520357  0.10722903  1
  O  O15  1  0.85240609  0.37330156  0.64760210  1
  O  O16  1  0.62570089  0.28351061  0.88610003  1
  O  O17  1  0.12002789  0.10676818  0.88525520  1
  O  O18  1  0.36737846  0.12372751  0.49962744  1
  O  O19  1  0.26468974  0.61160593  0.89551950  1
  O  O20  1  0.76729261  0.77840710  0.89575911  1
  O  O21  1  0.35297572  0.78500008  0.65617644  1
  O  O22  1  0.19928887  0.62766966  0.34727054  1
  O  O23  1  0.69643037  0.21223546  0.34269451  1
  O  O24  1  0.72892093  0.72580528  0.11728214  1
  O  O25  1  0.22871769  0.89056876  0.11534277  1
