# generated using pymatgen
data_La2NiO4
_symmetry_space_group_name_H-M   'P 1'
_cell_length_a   5.52693371
_cell_length_b   5.70213018
_cell_length_c   6.80339947
_cell_angle_alpha   90.00000000
_cell_angle_beta   113.96566504
_cell_angle_gamma   90.00000000
_symmetry_Int_Tables_number   1
_chemical_formula_structural   La2NiO4
_chemical_formula_sum   'La4 Ni2 O8'
_cell_volume   195.92655261
_cell_formula_units_Z   2
loop_
 _symmetry_equiv_pos_site_id
 _symmetry_equiv_pos_as_xyz
  1  'x, y, z'
loop_
 _atom_site_type_symbol
 _atom_site_label
 _atom_site_symmetry_multiplicity
 _atom_site_fract_x
 _atom_site_fract_y
 _atom_site_fract_z
 _atom_site_occupancy
  O  O0  1  0.32057518  0.43419688  0.64115152  1
  O  O1  1  0.67942554  0.56580376  0.35884870  1
  O  O2  1  0.17942485  0.93419629  0.35884853  1
  O  O3  1  0.82057587  0.06580436  0.64115169  1
  O  O4  1  0.26846225  0.24999970  0.03692324  1
  O  O5  1  0.23153777  0.74999911  0.96307680  1
  O  O6  1  0.76846092  0.24999970  0.03692280  1
  O  O7  1  0.73153846  0.74999911  0.96307697  1
  Ni  Ni8  1  0.50000069  0.49999941  0.00000017  1
  Ni  Ni9  1  0.00000000  0.00000000  0.00000000  1
  La  La10  1  0.86280538  0.48506905  0.72561144  1
  La  La11  1  0.13719332  0.51492977  0.27438816  1
  La  La12  1  0.36280671  0.01493036  0.72561188  1
  La  La13  1  0.63719401  0.98507028  0.27438833  1
