# generated using pymatgen
data_La2MoO6
_symmetry_space_group_name_H-M   'P 1'
_cell_length_a   5.65506273
_cell_length_b   6.18973665
_cell_length_c   8.05063310
_cell_angle_alpha   90.00000000
_cell_angle_beta   94.86761282
_cell_angle_gamma   90.00000000
_symmetry_Int_Tables_number   1
_chemical_formula_structural   La2MoO6
_chemical_formula_sum   'La4 Mo2 O12'
_cell_volume   280.78278937
_cell_formula_units_Z   2
loop_
 _symmetry_equiv_pos_site_id
 _symmetry_equiv_pos_as_xyz
  1  'x, y, z'
loop_
 _atom_site_type_symbol
 _atom_site_label
 _atom_site_symmetry_multiplicity
 _atom_site_fract_x
 _atom_site_fract_y
 _atom_site_fract_z
 _atom_site_occupancy
  O  O0  1  0.85599595  0.06865137  0.27937597  1
  O  O1  1  0.86074022  0.26313905  0.58498680  1
  O  O2  1  0.78403436  0.34230033  0.94965573  1
  O  O3  1  0.71596526  0.84230090  0.55034414  1
  O  O4  1  0.63925940  0.76313962  0.91501307  1
  O  O5  1  0.64400368  0.56865194  0.22062372  1
  O  O6  1  0.14400264  0.93134815  0.72062432  1
  O  O7  1  0.13926014  0.73686047  0.41501355  1
  O  O8  1  0.21596423  0.65769919  0.05034456  1
  O  O9  1  0.35599669  0.43134759  0.77937663  1
  O  O10  1  0.36073919  0.23685991  0.08498723  1
  O  O11  1  0.28403510  0.15770023  0.44965621  1
  Mo  Mo12  1  0.49999929  0.50000057  0.00000006  1
  Mo  Mo13  1  0.99999996  0.00000000  0.49999946  1
  La  La14  1  0.53345598  0.08142819  0.74332073  1
  La  La15  1  0.96654364  0.58142876  0.75667914  1
  La  La16  1  0.46654439  0.91857133  0.25667962  1
  La  La17  1  0.03345665  0.41857077  0.24331995  1
