# generated using pymatgen
data_LiTiPO4F
_symmetry_space_group_name_H-M   'P 1'
_cell_length_a   5.24987607
_cell_length_b   5.44137825
_cell_length_c   7.49272011
_cell_angle_alpha   109.49633546
_cell_angle_beta   106.20522392
_cell_angle_gamma   98.78891213
_symmetry_Int_Tables_number   1
_chemical_formula_structural   LiTiPO4F
_chemical_formula_sum   'Li2 Ti2 P2 O8 F2'
_cell_volume   186.46409494
_cell_formula_units_Z   2
loop_
 _symmetry_equiv_pos_site_id
 _symmetry_equiv_pos_as_xyz
  1  'x, y, z'
loop_
 _atom_site_type_symbol
 _atom_site_label
 _atom_site_symmetry_multiplicity
 _atom_site_fract_x
 _atom_site_fract_y
 _atom_site_fract_z
 _atom_site_occupancy
  Li  Li0  1  0.91863341  0.57173357  0.18632154  1
  Li  Li1  1  0.08136659  0.42826643  0.81367846  1
  Ti  Ti2  1  0.00000000  0.00000000  0.00000000  1
  Ti  Ti3  1  0.50000000  0.50000000  0.50000000  1
  P  P4  1  0.43925557  0.12136320  0.76126287  1
  P  P5  1  0.56074443  0.87863680  0.23873713  1
  O  O6  1  0.72165132  0.84329487  0.08917597  1
  O  O7  1  0.64965942  0.68475617  0.34356413  1
  O  O8  1  0.35034058  0.31524383  0.65643587  1
  O  O9  1  0.64409056  0.17233446  0.38876925  1
  O  O10  1  0.27834868  0.15670513  0.91082403  1
  O  O11  1  0.35590944  0.82766554  0.61123075  1
  O  O12  1  0.24560426  0.77373248  0.11230935  1
  O  O13  1  0.75439574  0.22626752  0.88769065  1
  F  F14  1  0.13285564  0.33772638  0.26304852  1
  F  F15  1  0.86714436  0.66227362  0.73695148  1
