# generated using pymatgen
data_Ti2O3
_symmetry_space_group_name_H-M   'P 1'
_cell_length_a   2.91297770
_cell_length_b   5.11337000
_cell_length_c   16.08926483
_cell_angle_alpha   90.00000000
_cell_angle_beta   90.00000000
_cell_angle_gamma   106.54924838
_symmetry_Int_Tables_number   1
_chemical_formula_structural   Ti2O3
_chemical_formula_sum   'Ti8 O12'
_cell_volume   229.72422411
_cell_formula_units_Z   4
loop_
 _symmetry_equiv_pos_site_id
 _symmetry_equiv_pos_as_xyz
  1  'x, y, z'
loop_
 _atom_site_type_symbol
 _atom_site_label
 _atom_site_symmetry_multiplicity
 _atom_site_fract_x
 _atom_site_fract_y
 _atom_site_fract_z
 _atom_site_occupancy
  Ti  Ti0  1  0.85577144  0.71154589  0.04058426  1
  Ti  Ti1  1  0.14422656  0.28845311  0.95941574  1
  Ti  Ti2  1  0.85577144  0.71154589  0.45941574  1
  Ti  Ti3  1  0.14422656  0.28845311  0.54058426  1
  Ti  Ti4  1  0.39563719  0.79127338  0.64276072  1
  Ti  Ti5  1  0.60436281  0.20872662  0.35724028  1
  Ti  Ti6  1  0.60436281  0.20872662  0.14275972  1
  Ti  Ti7  1  0.39563719  0.79127338  0.85723928  1
  O  O8  1  0.49999900  0.00000000  0.50000000  1
  O  O9  1  0.49999900  0.00000000  0.00000000  1
  O  O10  1  0.02979565  0.05959130  0.85657928  1
  O  O11  1  0.97020435  0.94040870  0.14342172  1
  O  O12  1  0.97020435  0.94040870  0.35657828  1
  O  O13  1  0.02979565  0.05959130  0.64342172  1
  O  O14  1  0.77741903  0.55484105  0.91340440  1
  O  O15  1  0.22257997  0.44515995  0.08659560  1
  O  O16  1  0.22257997  0.44515995  0.41340440  1
  O  O17  1  0.77741903  0.55484105  0.58659560  1
  O  O18  1  0.33900224  0.67800447  0.75000000  1
  O  O19  1  0.66099576  0.32199453  0.25000000  1
