# generated using pymatgen
data_Fe7C3
_symmetry_space_group_name_H-M   'P 1'
_cell_length_a   4.51734404
_cell_length_b   6.85711195
_cell_length_c   11.76210685
_cell_angle_alpha   90.00000000
_cell_angle_beta   90.00000000
_cell_angle_gamma   90.00000000
_symmetry_Int_Tables_number   1
_chemical_formula_structural   Fe7C3
_chemical_formula_sum   'Fe28 C12'
_cell_volume   364.34224312
_cell_formula_units_Z   4
loop_
 _symmetry_equiv_pos_site_id
 _symmetry_equiv_pos_as_xyz
  1  'x, y, z'
loop_
 _atom_site_type_symbol
 _atom_site_label
 _atom_site_symmetry_multiplicity
 _atom_site_fract_x
 _atom_site_fract_y
 _atom_site_fract_z
 _atom_site_occupancy
  Fe  Fe0  1  0.94200125  0.56374705  0.19095867  1
  Fe  Fe1  1  0.05799875  0.43625295  0.80904133  1
  Fe  Fe2  1  0.42303626  0.75000000  0.12790316  1
  Fe  Fe3  1  0.69777269  0.75000000  0.80059778  1
  Fe  Fe4  1  0.80222731  0.25000000  0.30059778  1
  Fe  Fe5  1  0.30222731  0.25000000  0.19940222  1
  Fe  Fe6  1  0.94200125  0.93625295  0.19095867  1
  Fe  Fe7  1  0.27542796  0.25000000  0.41228423  1
  Fe  Fe8  1  0.22457204  0.75000000  0.91228423  1
  Fe  Fe9  1  0.44200125  0.56374705  0.30904133  1
  Fe  Fe10  1  0.25241913  0.06633046  0.01615286  1
  Fe  Fe11  1  0.05799875  0.06374705  0.80904133  1
  Fe  Fe12  1  0.44200125  0.93625295  0.30904133  1
  Fe  Fe13  1  0.57696374  0.25000000  0.87209684  1
  Fe  Fe14  1  0.74758087  0.56633046  0.98384714  1
  Fe  Fe15  1  0.24758087  0.93366954  0.51615286  1
  Fe  Fe16  1  0.19777269  0.75000000  0.69940222  1
  Fe  Fe17  1  0.74758087  0.93366954  0.98384714  1
  Fe  Fe18  1  0.24758087  0.56633046  0.51615286  1
  Fe  Fe19  1  0.55799875  0.06374705  0.69095867  1
  Fe  Fe20  1  0.77542796  0.25000000  0.08771577  1
  Fe  Fe21  1  0.92303626  0.75000000  0.37209684  1
  Fe  Fe22  1  0.72457204  0.75000000  0.58771577  1
  Fe  Fe23  1  0.25241913  0.43366954  0.01615286  1
  Fe  Fe24  1  0.75241913  0.43366954  0.48384714  1
  Fe  Fe25  1  0.07696374  0.25000000  0.62790316  1
  Fe  Fe26  1  0.75241913  0.06633046  0.48384714  1
  Fe  Fe27  1  0.55799875  0.43625295  0.69095867  1
  C  C28  1  0.04355453  0.02607166  0.35206756  1
  C  C29  1  0.95644547  0.97392834  0.64793244  1
  C  C30  1  0.54355453  0.47392834  0.14793244  1
  C  C31  1  0.46738009  0.25000000  0.56133866  1
  C  C32  1  0.45644547  0.97392834  0.85206756  1
  C  C33  1  0.45644547  0.52607166  0.85206756  1
  C  C34  1  0.04355453  0.47392834  0.35206756  1
  C  C35  1  0.96738009  0.25000000  0.93866134  1
  C  C36  1  0.95644547  0.52607166  0.64793244  1
  C  C37  1  0.03261991  0.75000000  0.06133866  1
  C  C38  1  0.53261991  0.75000000  0.43866134  1
  C  C39  1  0.54355453  0.02607166  0.14793244  1
