# generated using pymatgen
data_V2(SO4)3
_symmetry_space_group_name_H-M   'P 1'
_cell_length_a   7.71633781
_cell_length_b   7.71633780
_cell_length_c   8.66907834
_cell_angle_alpha   69.74449100
_cell_angle_beta   110.25550896
_cell_angle_gamma   115.16018328
_symmetry_Int_Tables_number   1
_chemical_formula_structural   V2(SO4)3
_chemical_formula_sum   'V4 S6 O24'
_cell_volume   426.09921478
_cell_formula_units_Z   2
loop_
 _symmetry_equiv_pos_site_id
 _symmetry_equiv_pos_as_xyz
  1  'x, y, z'
loop_
 _atom_site_type_symbol
 _atom_site_label
 _atom_site_symmetry_multiplicity
 _atom_site_fract_x
 _atom_site_fract_y
 _atom_site_fract_z
 _atom_site_occupancy
  O  O0  1  0.13055435  0.96568744  0.88562593  1
  O  O1  1  0.03431256  0.86944565  0.38562593  1
  O  O2  1  0.09135326  0.46050112  0.92380160  1
  O  O3  1  0.37690390  0.72958104  0.83061133  1
  O  O4  1  0.13346439  0.53185710  0.63801372  1
  O  O5  1  0.53949888  0.90864674  0.42380160  1
  O  O6  1  0.78087432  0.90713719  0.81991772  1
  O  O7  1  0.35202052  0.39195350  0.88197578  1
  O  O8  1  0.27041896  0.62309610  0.33061133  1
  O  O9  1  0.46814290  0.86653561  0.13801372  1
  O  O10  1  0.09286281  0.21912568  0.31991772  1
  O  O11  1  0.39195350  0.35202052  0.61802422  1
  O  O12  1  0.60804650  0.64797948  0.38197578  1
  O  O13  1  0.90713719  0.78087432  0.68008228  1
  O  O14  1  0.53185710  0.13346439  0.86198628  1
  O  O15  1  0.72958104  0.37690390  0.66938867  1
  O  O16  1  0.64797948  0.60804650  0.11802422  1
  O  O17  1  0.21912568  0.09286281  0.18008228  1
  O  O18  1  0.46050112  0.09135326  0.57619840  1
  O  O19  1  0.86653561  0.46814290  0.36198628  1
  O  O20  1  0.62309610  0.27041896  0.16938867  1
  O  O21  1  0.90864674  0.53949888  0.07619840  1
  O  O22  1  0.96568744  0.13055435  0.61437407  1
  O  O23  1  0.86944565  0.03431256  0.11437407  1
  S  S24  1  0.23709657  0.52230060  0.83204357  1
  S  S25  1  0.47769940  0.76290343  0.33204357  1
  S  S26  1  0.94616096  0.94616096  0.75000000  1
  S  S27  1  0.05383904  0.05383904  0.25000000  1
  S  S28  1  0.52230060  0.23709657  0.66795643  1
  S  S29  1  0.76290343  0.47769940  0.16795643  1
  V  V30  1  0.61974304  0.87212942  0.98001877  1
  V  V31  1  0.12787058  0.38025696  0.48001877  1
  V  V32  1  0.87212942  0.61974304  0.51998123  1
  V  V33  1  0.38025696  0.12787058  0.01998123  1
