# generated using pymatgen
data_Na6PbO4
_symmetry_space_group_name_H-M   'P 1'
_cell_length_a   9.78566978
_cell_length_b   9.78567060
_cell_length_c   9.78567055
_cell_angle_alpha   109.47121826
_cell_angle_beta   109.47121998
_cell_angle_gamma   109.47122273
_symmetry_Int_Tables_number   1
_chemical_formula_structural   Na6PbO4
_chemical_formula_sum   'Na24 Pb4 O16'
_cell_volume   721.35634113
_cell_formula_units_Z   4
loop_
 _symmetry_equiv_pos_site_id
 _symmetry_equiv_pos_as_xyz
  1  'x, y, z'
loop_
 _atom_site_type_symbol
 _atom_site_label
 _atom_site_symmetry_multiplicity
 _atom_site_fract_x
 _atom_site_fract_y
 _atom_site_fract_z
 _atom_site_occupancy
  Na  Na0  1  0.00000000  0.72476084  0.46751870  1
  Na  Na1  1  0.53248130  0.53248130  0.25724214  1
  Na  Na2  1  0.21973439  0.00000000  0.45357393  1
  Na  Na3  1  0.46751870  1.00000000  0.72476084  1
  Na  Na4  1  0.76616046  0.54642607  0.54642607  1
  Na  Na5  1  0.74275786  0.27523916  0.27523916  1
  Na  Na6  1  0.78026561  0.78026561  0.23383954  1
  Na  Na7  1  0.45357393  1.00000000  0.21973439  1
  Na  Na8  1  0.23383954  0.78026561  0.78026561  1
  Na  Na9  1  0.00000000  0.21973439  0.45357393  1
  Na  Na10  1  1.00000000  0.46751870  0.72476084  1
  Na  Na11  1  0.54642607  0.76616046  0.54642607  1
  Na  Na12  1  0.72476084  0.00000000  0.46751870  1
  Na  Na13  1  0.27523916  0.27523916  0.74275786  1
  Na  Na14  1  0.53248130  0.25724214  0.53248130  1
  Na  Na15  1  0.46751870  0.72476084  1.00000000  1
  Na  Na16  1  0.72476084  0.46751870  0.00000000  1
  Na  Na17  1  0.45357393  0.21973439  1.00000000  1
  Na  Na18  1  0.00000000  0.45357393  0.21973439  1
  Na  Na19  1  0.25724214  0.53248130  0.53248130  1
  Na  Na20  1  0.54642607  0.54642607  0.76616046  1
  Na  Na21  1  0.78026561  0.23383954  0.78026561  1
  Na  Na22  1  0.21973439  0.45357393  0.00000000  1
  Na  Na23  1  0.27523916  0.74275786  0.27523916  1
  Pb  Pb24  1  0.25392856  0.25392856  0.25392856  1
  Pb  Pb25  1  0.00000000  0.74607144  0.00000000  1
  Pb  Pb26  1  0.00000000  0.00000000  0.74607144  1
  Pb  Pb27  1  0.74607144  1.00000000  1.00000000  1
  O  O28  1  0.28646949  0.51762811  0.28646949  1
  O  O29  1  0.50000000  0.50000000  0.00000000  1
  O  O30  1  0.76884138  0.48237189  0.76884138  1
  O  O31  1  0.28646949  0.28646949  0.51762811  1
  O  O32  1  0.76884138  0.76884138  0.48237189  1
  O  O33  1  0.23115862  0.71353051  0.00000000  1
  O  O34  1  0.51762811  0.28646949  0.28646949  1
  O  O35  1  1.00000000  0.71353051  0.23115862  1
  O  O36  1  0.50000000  0.00000000  0.50000000  1
  O  O37  1  0.71353051  1.00000000  0.23115862  1
  O  O38  1  0.23115862  0.00000000  0.71353051  1
  O  O39  1  0.71353051  0.23115862  1.00000000  1
  O  O40  1  0.48237189  0.76884138  0.76884138  1
  O  O41  1  0.00000000  0.00000000  0.00000000  1
  O  O42  1  0.00000000  0.23115862  0.71353051  1
  O  O43  1  0.00000000  0.50000000  0.50000000  1
