# generated using pymatgen
data_As2S2F3
_symmetry_space_group_name_H-M   'P 1'
_cell_length_a   6.15822471
_cell_length_b   9.96248499
_cell_length_c   20.20033976
_cell_angle_alpha   90.00000000
_cell_angle_beta   90.00000000
_cell_angle_gamma   90.00000000
_symmetry_Int_Tables_number   1
_chemical_formula_structural   As2S2F3
_chemical_formula_sum   'As16 S16 F24'
_cell_volume   1239.31551371
_cell_formula_units_Z   8
loop_
 _symmetry_equiv_pos_site_id
 _symmetry_equiv_pos_as_xyz
  1  'x, y, z'
loop_
 _atom_site_type_symbol
 _atom_site_label
 _atom_site_symmetry_multiplicity
 _atom_site_fract_x
 _atom_site_fract_y
 _atom_site_fract_z
 _atom_site_occupancy
  F  F0  1  0.25047120  0.75000000  0.21589481  1
  F  F1  1  0.25047120  0.25000000  0.28410519  1
  F  F2  1  0.74952880  0.25000000  0.78410519  1
  F  F3  1  0.74952880  0.75000000  0.71589481  1
  F  F4  1  0.72123149  0.75000000  0.11197883  1
  F  F5  1  0.72123149  0.25000000  0.38802117  1
  F  F6  1  0.27876851  0.25000000  0.88802117  1
  F  F7  1  0.27876851  0.75000000  0.61197883  1
  F  F8  1  0.39417673  0.37555078  0.78567218  1
  F  F9  1  0.39417673  0.62444922  0.71432782  1
  F  F10  1  0.60582327  0.87555078  0.21432782  1
  F  F11  1  0.60582327  0.12444922  0.28567218  1
  F  F12  1  0.60582327  0.62444922  0.21432782  1
  F  F13  1  0.60582327  0.37555078  0.28567218  1
  F  F14  1  0.39417673  0.12444922  0.78567218  1
  F  F15  1  0.39417673  0.87555078  0.71432782  1
  F  F16  1  0.36601822  0.87603892  0.11381191  1
  F  F17  1  0.36601822  0.12396108  0.38618809  1
  F  F18  1  0.36601822  0.62396108  0.11381191  1
  F  F19  1  0.63398178  0.62396108  0.61381191  1
  F  F20  1  0.36601822  0.37603892  0.38618809  1
  F  F21  1  0.63398178  0.12396108  0.88618809  1
  F  F22  1  0.63398178  0.87603892  0.61381191  1
  F  F23  1  0.63398178  0.37603892  0.88618809  1
  S  S24  1  0.69099131  0.75000000  0.86327918  1
  S  S25  1  0.69099131  0.25000000  0.63672082  1
  S  S26  1  0.30900869  0.25000000  0.13672082  1
  S  S27  1  0.30900869  0.75000000  0.36327918  1
  S  S28  1  0.69103769  0.75000000  0.96294053  1
  S  S29  1  0.69103769  0.25000000  0.53705947  1
  S  S30  1  0.30896231  0.25000000  0.03705947  1
  S  S31  1  0.30896231  0.75000000  0.46294053  1
  S  S32  1  0.14198638  0.57659293  0.92320671  1
  S  S33  1  0.85801362  0.92340707  0.42320671  1
  S  S34  1  0.85801362  0.07659293  0.07679329  1
  S  S35  1  0.85801362  0.42340707  0.07679329  1
  S  S36  1  0.14198638  0.07659293  0.57679329  1
  S  S37  1  0.14198638  0.92340707  0.92320671  1
  S  S38  1  0.85801362  0.57659293  0.42320671  1
  S  S39  1  0.14198638  0.42340707  0.57679329  1
  As  As40  1  0.00157984  0.37687283  0.67445181  1
  As  As41  1  0.00157984  0.62312717  0.82554819  1
  As  As42  1  0.99842016  0.87687283  0.32554819  1
  As  As43  1  0.99842016  0.12312717  0.17445181  1
  As  As44  1  0.99842016  0.62312717  0.32554819  1
  As  As45  1  0.99842016  0.37687283  0.17445181  1
  As  As46  1  0.00157984  0.12312717  0.67445181  1
  As  As47  1  0.00157984  0.87687283  0.82554819  1
  As  As48  1  0.94488652  0.75000000  0.49110119  1
  As  As49  1  0.94488652  0.25000000  0.00889881  1
  As  As50  1  0.05511348  0.25000000  0.50889881  1
  As  As51  1  0.05511348  0.75000000  0.99110119  1
  As  As52  1  0.48723225  0.75000000  0.16362889  1
  As  As53  1  0.48723225  0.25000000  0.33637111  1
  As  As54  1  0.51276775  0.25000000  0.83637111  1
  As  As55  1  0.51276775  0.75000000  0.66362889  1
