# generated using pymatgen
data_Sr2YAlV2O7
_symmetry_space_group_name_H-M   'P 1'
_cell_length_a   11.74095323
_cell_length_b   11.74095323
_cell_length_c   11.74095323
_cell_angle_alpha   40.26934374
_cell_angle_beta   151.37520620
_cell_angle_gamma   152.28089040
_symmetry_Int_Tables_number   1
_chemical_formula_structural   Sr2YAlV2O7
_chemical_formula_sum   'Sr4 Y2 Al2 V4 O14'
_cell_volume   359.93967184
_cell_formula_units_Z   2
loop_
 _symmetry_equiv_pos_site_id
 _symmetry_equiv_pos_as_xyz
  1  'x, y, z'
loop_
 _atom_site_type_symbol
 _atom_site_label
 _atom_site_symmetry_multiplicity
 _atom_site_fract_x
 _atom_site_fract_y
 _atom_site_fract_z
 _atom_site_occupancy
  Sr  Sr0  1  0.03642706  0.85502469  0.86755639  1
  Sr  Sr1  1  0.98746830  0.16887067  0.13244361  1
  Sr  Sr2  1  0.03642706  0.66887067  0.68140237  1
  Sr  Sr3  1  0.98746830  0.35502469  0.31859763  1
  Y  Y4  1  0.01091716  0.51091716  0.50000000  1
  Y  Y5  1  0.01091716  0.01091716  -0.00000000  1
  Al  Al6  1  0.56738238  0.74097237  0.32641001  1
  Al  Al7  1  0.41456237  0.24097237  0.67358999  1
  V  V8  1  0.52071574  0.44502180  0.92496928  1
  V  V9  1  0.52005052  0.59574646  0.07503072  1
  V  V10  1  0.52071574  0.09574646  0.57569494  1
  V  V11  1  0.52005052  0.94502180  0.42430506  1
  O  O12  1  0.01015295  0.93473513  0.57541782  1
  O  O13  1  0.35931730  0.43473513  0.42458218  1
  O  O14  1  0.44025962  0.16298240  0.14358051  1
  O  O15  1  0.01940289  0.29668011  0.85641949  1
  O  O16  1  0.44025962  0.79668011  0.77727722  1
  O  O17  1  0.01940289  0.66298240  0.22272278  1
  O  O18  1  0.61446760  0.74553804  0.72257173  1
  O  O19  1  0.02296731  0.89189486  0.27742827  1
  O  O20  1  0.61446760  0.39189486  0.36892855  1
  O  O21  1  0.02296731  0.24553804  0.63107145  1
  O  O22  1  0.47674689  0.85625390  0.26138449  1
  O  O23  1  0.59486941  0.21536140  0.73861551  1
  O  O24  1  0.47674689  0.71536140  0.12049299  1
  O  O25  1  0.59486941  0.35625390  0.87950701  1
