# generated using pymatgen
data_Mn3As2
_symmetry_space_group_name_H-M   'P 1'
_cell_length_a   3.48131586
_cell_length_b   6.66496699
_cell_length_c   6.75644330
_cell_angle_alpha   80.83612312
_cell_angle_beta   75.07055894
_cell_angle_gamma   74.86078341
_symmetry_Int_Tables_number   1
_chemical_formula_structural   Mn3As2
_chemical_formula_sum   'Mn6 As4'
_cell_volume   145.50706205
_cell_formula_units_Z   2
loop_
 _symmetry_equiv_pos_site_id
 _symmetry_equiv_pos_as_xyz
  1  'x, y, z'
loop_
 _atom_site_type_symbol
 _atom_site_label
 _atom_site_symmetry_multiplicity
 _atom_site_fract_x
 _atom_site_fract_y
 _atom_site_fract_z
 _atom_site_occupancy
  Mn  Mn0  1  0.69572756  0.93475072  0.67379416  1
  Mn  Mn1  1  0.30427244  0.06524928  0.32620584  1
  Mn  Mn2  1  0.60721236  0.69511490  0.09046039  1
  Mn  Mn3  1  0.39278764  0.30488510  0.90953961  1
  Mn  Mn4  1  0.50000000  0.50000000  0.50000000  1
  Mn  Mn5  1  0.00000000  0.00000000  0.00000000  1
  As  As6  1  0.93995335  0.77514473  0.34494857  1
  As  As7  1  0.06004665  0.22485527  0.65505143  1
  As  As8  1  0.75046055  0.31988319  0.17919571  1
  As  As9  1  0.24953945  0.68011681  0.82080429  1
