# generated using pymatgen
data_Sn(PO3)3
_symmetry_space_group_name_H-M   'P 1'
_cell_length_a   8.84940557
_cell_length_b   8.94935746
_cell_length_c   9.09892020
_cell_angle_alpha   90.00000000
_cell_angle_beta   90.00000000
_cell_angle_gamma   90.00000000
_symmetry_Int_Tables_number   1
_chemical_formula_structural   Sn(PO3)3
_chemical_formula_sum   'Sn4 P12 O36'
_cell_volume   720.60257679
_cell_formula_units_Z   4
loop_
 _symmetry_equiv_pos_site_id
 _symmetry_equiv_pos_as_xyz
  1  'x, y, z'
loop_
 _atom_site_type_symbol
 _atom_site_label
 _atom_site_symmetry_multiplicity
 _atom_site_fract_x
 _atom_site_fract_y
 _atom_site_fract_z
 _atom_site_occupancy
  O  O0  1  0.04241660  0.78327922  0.65700741  1
  O  O1  1  0.08655542  0.88123827  0.91587537  1
  O  O2  1  0.10980836  0.60712129  0.11543232  1
  O  O3  1  0.12691602  0.19333510  0.63985429  1
  O  O4  1  0.12528758  0.40424330  0.31830496  1
  O  O5  1  0.13934106  0.46157815  0.74016382  1
  O  O6  1  0.15059950  0.84077293  0.40881756  1
  O  O7  1  0.19457628  0.09512815  0.14448161  1
  O  O8  1  0.23699470  0.36264598  0.06167048  1
  O  O9  1  0.26300530  0.63735402  0.56167048  1
  O  O10  1  0.30542372  0.90487185  0.64448161  1
  O  O11  1  0.34940050  0.15922707  0.90881756  1
  O  O12  1  0.36065894  0.53842185  0.24016382  1
  O  O13  1  0.37471242  0.59575670  0.81830496  1
  O  O14  1  0.37308398  0.80666490  0.13985429  1
  O  O15  1  0.39019164  0.39287871  0.61543232  1
  O  O16  1  0.41344458  0.11876173  0.41587537  1
  O  O17  1  0.45758340  0.21672078  0.15700741  1
  O  O18  1  0.54241660  0.71672078  0.34299259  1
  O  O19  1  0.58655542  0.61876173  0.08412463  1
  O  O20  1  0.60980836  0.89287871  0.88456768  1
  O  O21  1  0.62691602  0.30666490  0.36014571  1
  O  O22  1  0.62528758  0.09575670  0.68169504  1
  O  O23  1  0.63934106  0.03842185  0.25983618  1
  O  O24  1  0.65059950  0.65922707  0.59118244  1
  O  O25  1  0.69457628  0.40487185  0.85551839  1
  O  O26  1  0.73699470  0.13735402  0.93832952  1
  O  O27  1  0.76300530  0.86264598  0.43832952  1
  O  O28  1  0.80542372  0.59512815  0.35551839  1
  O  O29  1  0.84940050  0.34077293  0.09118244  1
  O  O30  1  0.86065894  0.96157815  0.75983618  1
  O  O31  1  0.87471242  0.90424330  0.18169504  1
  O  O32  1  0.87308398  0.69333510  0.86014571  1
  O  O33  1  0.89019164  0.10712129  0.38456768  1
  O  O34  1  0.91344458  0.38123827  0.58412463  1
  O  O35  1  0.95758340  0.28327922  0.84299259  1
  P  P36  1  0.03260870  0.32470148  0.68876014  1
  P  P37  1  0.19593278  0.48191792  0.18774543  1
  P  P38  1  0.19593380  0.80559198  0.56306800  1
  P  P39  1  0.30406620  0.19440802  0.06306800  1
  P  P40  1  0.30406722  0.51808208  0.68774543  1
  P  P41  1  0.46739130  0.67529852  0.18876014  1
  P  P42  1  0.53260870  0.17529852  0.31123986  1
  P  P43  1  0.69593278  0.01808208  0.81225457  1
  P  P44  1  0.69593380  0.69440802  0.43693200  1
  P  P45  1  0.80406620  0.30559198  0.93693200  1
  P  P46  1  0.80406722  0.98191792  0.31225457  1
  P  P47  1  0.96739130  0.82470148  0.81123986  1
  Sn  Sn48  1  0.12729086  0.85659747  0.15413009  1
  Sn  Sn49  1  0.37270914  0.14340253  0.65413009  1
  Sn  Sn50  1  0.62729086  0.64340253  0.84586991  1
  Sn  Sn51  1  0.87270914  0.35659747  0.34586991  1
