# generated using pymatgen
data_RbCrI3
_symmetry_space_group_name_H-M   'P 1'
_cell_length_a   8.11166505
_cell_length_b   8.11166505
_cell_length_c   14.42091645
_cell_angle_alpha   84.76938679
_cell_angle_beta   84.76938679
_cell_angle_gamma   60.11999555
_symmetry_Int_Tables_number   1
_chemical_formula_structural   RbCrI3
_chemical_formula_sum   'Rb4 Cr4 I12'
_cell_volume   818.17218696
_cell_formula_units_Z   4
loop_
 _symmetry_equiv_pos_site_id
 _symmetry_equiv_pos_as_xyz
  1  'x, y, z'
loop_
 _atom_site_type_symbol
 _atom_site_label
 _atom_site_symmetry_multiplicity
 _atom_site_fract_x
 _atom_site_fract_y
 _atom_site_fract_z
 _atom_site_occupancy
  Cr  Cr0  1  0.03292928  0.96529741  0.75031157  1
  Cr  Cr1  1  0.03470259  0.96707072  0.24968843  1
  Cr  Cr2  1  0.06731196  0.93268804  0.50000000  1
  Cr  Cr3  1  0.99620083  0.00379917  0.00000000  1
  Rb  Rb4  1  0.68022963  0.65203940  0.88215564  1
  Rb  Rb5  1  0.34796060  0.31977037  0.11784436  1
  Rb  Rb6  1  0.70860174  0.61463192  0.38057589  1
  Rb  Rb7  1  0.38536808  0.29139826  0.61942411  1
  I  I8  1  0.85578864  0.81114437  0.16417343  1
  I  I9  1  0.18885563  0.14421136  0.83582657  1
  I  I10  1  0.21682566  0.11789039  0.33634930  1
  I  I11  1  0.88210961  0.78317434  0.66365070  1
  I  I12  1  0.38822849  0.78148079  0.60250670  1
  I  I13  1  0.21851921  0.61177151  0.39749330  1
  I  I14  1  0.31798701  0.84103313  0.10622304  1
  I  I15  1  0.15896687  0.68201299  0.89377696  1
  I  I16  1  0.90148939  0.25135532  0.60817295  1
  I  I17  1  0.74864468  0.09851061  0.39182705  1
  I  I18  1  0.84163369  0.32335359  0.10371097  1
  I  I19  1  0.67664641  0.15836631  0.89628903  1
