# generated using pymatgen
data_Na2TiCl4
_symmetry_space_group_name_H-M   'P 1'
_cell_length_a   3.76420353
_cell_length_b   6.99893771
_cell_length_c   12.24448843
_cell_angle_alpha   90.00000000
_cell_angle_beta   90.00000000
_cell_angle_gamma   90.00000000
_symmetry_Int_Tables_number   1
_chemical_formula_structural   Na2TiCl4
_chemical_formula_sum   'Na4 Ti2 Cl8'
_cell_volume   322.58626426
_cell_formula_units_Z   2
loop_
 _symmetry_equiv_pos_site_id
 _symmetry_equiv_pos_as_xyz
  1  'x, y, z'
loop_
 _atom_site_type_symbol
 _atom_site_label
 _atom_site_symmetry_multiplicity
 _atom_site_fract_x
 _atom_site_fract_y
 _atom_site_fract_z
 _atom_site_occupancy
  Na  Na0  1  0.00000000  0.41694643  0.31797338  1
  Na  Na1  1  0.00000000  0.58305357  0.68202662  1
  Na  Na2  1  0.00000000  0.91694643  0.18202662  1
  Na  Na3  1  0.00000000  0.08305357  0.81797338  1
  Cl  Cl4  1  0.00000000  0.26206731  0.04225427  1
  Cl  Cl5  1  0.50000000  0.87668052  0.69588850  1
  Cl  Cl6  1  0.50000000  0.12331948  0.30411150  1
  Cl  Cl7  1  0.50000000  0.37668052  0.80411150  1
  Cl  Cl8  1  0.50000000  0.62331948  0.19588850  1
  Cl  Cl9  1  0.00000000  0.76206731  0.45774573  1
  Cl  Cl10  1  0.00000000  0.23793269  0.54225427  1
  Cl  Cl11  1  0.00000000  0.73793269  0.95774573  1
  Ti  Ti12  1  0.50000000  0.00000000  0.50000000  1
  Ti  Ti13  1  0.50000000  0.50000000  0.00000000  1
