# generated using pymatgen
data_Cu7PSe6
_symmetry_space_group_name_H-M   'P 1'
_cell_length_a   7.16623689
_cell_length_b   10.12249061
_cell_length_c   14.44256281
_cell_angle_alpha   90.00000000
_cell_angle_beta   90.00000000
_cell_angle_gamma   90.00000000
_symmetry_Int_Tables_number   1
_chemical_formula_structural   Cu7PSe6
_chemical_formula_sum   'Cu28 P4 Se24'
_cell_volume   1047.66589833
_cell_formula_units_Z   4
loop_
 _symmetry_equiv_pos_site_id
 _symmetry_equiv_pos_as_xyz
  1  'x, y, z'
loop_
 _atom_site_type_symbol
 _atom_site_label
 _atom_site_symmetry_multiplicity
 _atom_site_fract_x
 _atom_site_fract_y
 _atom_site_fract_z
 _atom_site_occupancy
  P  P0  1  0.75203256  0.25323187  0.12574098  1
  P  P1  1  0.24796744  0.75323187  0.87425902  1
  P  P2  1  0.74796744  0.25323187  0.62574098  1
  P  P3  1  0.25203256  0.75323187  0.37425902  1
  Cu  Cu4  1  0.45900674  0.00384851  0.23296095  1
  Cu  Cu5  1  0.54099326  0.50384851  0.76703905  1
  Cu  Cu6  1  0.04099326  0.00384851  0.73296095  1
  Cu  Cu7  1  0.95900674  0.50384851  0.26703905  1
  Cu  Cu8  1  0.41418085  0.04500142  0.76711305  1
  Cu  Cu9  1  0.58581915  0.54500142  0.23288695  1
  Cu  Cu10  1  0.08581915  0.04500142  0.26711305  1
  Cu  Cu11  1  0.91418085  0.54500142  0.73288695  1
  Cu  Cu12  1  0.77832767  0.74485566  0.28729592  1
  Cu  Cu13  1  0.22167233  0.24485566  0.71270408  1
  Cu  Cu14  1  0.72167233  0.74485566  0.78729592  1
  Cu  Cu15  1  0.27832767  0.24485566  0.21270408  1
  Cu  Cu16  1  0.07388096  0.08538183  0.95905209  1
  Cu  Cu17  1  0.92611904  0.58538183  0.04094791  1
  Cu  Cu18  1  0.42611904  0.08538183  0.45905209  1
  Cu  Cu19  1  0.57388096  0.58538183  0.54094791  1
  Cu  Cu20  1  0.93900754  0.92620748  0.55597461  1
  Cu  Cu21  1  0.06099246  0.42620748  0.44402539  1
  Cu  Cu22  1  0.56099246  0.92620748  0.05597461  1
  Cu  Cu23  1  0.43900754  0.42620748  0.94402539  1
  Cu  Cu24  1  0.01936692  0.36060835  0.85046397  1
  Cu  Cu25  1  0.98063308  0.86060835  0.14953603  1
  Cu  Cu26  1  0.48063308  0.36060835  0.35046397  1
  Cu  Cu27  1  0.51936692  0.86060835  0.64953603  1
  Cu  Cu28  1  0.81381045  0.27224853  0.37866061  1
  Cu  Cu29  1  0.18618955  0.77224853  0.62133939  1
  Cu  Cu30  1  0.68618955  0.27224853  0.87866061  1
  Cu  Cu31  1  0.31381045  0.77224853  0.12133939  1
  Se  Se32  1  0.75121646  0.11624682  0.00342363  1
  Se  Se33  1  0.24878354  0.61624682  0.99657637  1
  Se  Se34  1  0.74878354  0.11624682  0.50342363  1
  Se  Se35  1  0.25121646  0.61624682  0.49657637  1
  Se  Se36  1  0.25403026  0.62365526  0.24832058  1
  Se  Se37  1  0.74596974  0.12365526  0.75167942  1
  Se  Se38  1  0.24596974  0.62365526  0.74832058  1
  Se  Se39  1  0.75403026  0.12365526  0.25167942  1
  Se  Se40  1  0.50843102  0.87834001  0.37253165  1
  Se  Se41  1  0.49156898  0.37834001  0.62746835  1
  Se  Se42  1  0.99156898  0.87834001  0.87253165  1
  Se  Se43  1  0.00843102  0.37834001  0.12746835  1
  Se  Se44  1  0.50972330  0.87619468  0.88034604  1
  Se  Se45  1  0.49027670  0.37619468  0.11965396  1
  Se  Se46  1  0.99027670  0.87619468  0.38034604  1
  Se  Se47  1  0.00972330  0.37619468  0.61965396  1
  Se  Se48  1  0.71580014  0.73068018  0.12232871  1
  Se  Se49  1  0.28419986  0.23068018  0.87767129  1
  Se  Se50  1  0.78419986  0.73068018  0.62232871  1
  Se  Se51  1  0.21580014  0.23068018  0.37767129  1
  Se  Se52  1  0.73314725  0.50749941  0.38963610  1
  Se  Se53  1  0.26685275  0.00749941  0.61036390  1
  Se  Se54  1  0.76685275  0.50749941  0.88963610  1
  Se  Se55  1  0.23314725  0.00749941  0.11036390  1
