# generated using pymatgen
data_Ag2SO3
_symmetry_space_group_name_H-M   'P 1'
_cell_length_a   4.71789742
_cell_length_b   8.11016018
_cell_length_c   9.79091950
_cell_angle_alpha   90.00000000
_cell_angle_beta   94.84681080
_cell_angle_gamma   90.00000000
_symmetry_Int_Tables_number   1
_chemical_formula_structural   Ag2SO3
_chemical_formula_sum   'Ag8 S4 O12'
_cell_volume   373.28939775
_cell_formula_units_Z   4
loop_
 _symmetry_equiv_pos_site_id
 _symmetry_equiv_pos_as_xyz
  1  'x, y, z'
loop_
 _atom_site_type_symbol
 _atom_site_label
 _atom_site_symmetry_multiplicity
 _atom_site_fract_x
 _atom_site_fract_y
 _atom_site_fract_z
 _atom_site_occupancy
  O  O0  1  0.96942383  0.12060864  0.62690800  1
  O  O1  1  0.53057617  0.62060864  0.87309200  1
  O  O2  1  0.03057617  0.87939136  0.37309200  1
  O  O3  1  0.46942383  0.37939136  0.12690800  1
  O  O4  1  0.16926866  0.19659743  0.97539069  1
  O  O5  1  0.33073134  0.69659743  0.52460931  1
  O  O6  1  0.83073134  0.80340257  0.02460931  1
  O  O7  1  0.07702248  0.22423560  0.21682867  1
  O  O8  1  0.57702248  0.27576440  0.71682867  1
  O  O9  1  0.92297752  0.77576440  0.78317133  1
  O  O10  1  0.42297752  0.72423560  0.28317133  1
  O  O11  1  0.66926866  0.30340257  0.47539069  1
  S  S12  1  0.31402825  0.21198345  0.12066097  1
  S  S13  1  0.68597175  0.78801655  0.87933903  1
  S  S14  1  0.18597175  0.71198345  0.37933903  1
  S  S15  1  0.81402825  0.28801655  0.62066097  1
  Ag  Ag16  1  0.30671801  0.11277356  0.43436955  1
  Ag  Ag17  1  0.80671801  0.38722644  0.93436955  1
  Ag  Ag18  1  0.69328199  0.88722644  0.56563045  1
  Ag  Ag19  1  0.19328199  0.61277356  0.06563045  1
  Ag  Ag20  1  0.36609551  0.02138653  0.79856236  1
  Ag  Ag21  1  0.13390449  0.52138653  0.70143764  1
  Ag  Ag22  1  0.63390449  0.97861347  0.20143764  1
  Ag  Ag23  1  0.86609551  0.47861347  0.29856236  1
