# generated using pymatgen
data_Co(PO3)4
_symmetry_space_group_name_H-M   'P 1'
_cell_length_a   5.22412001
_cell_length_b   13.41057177
_cell_length_c   7.44874683
_cell_angle_alpha   90.00000000
_cell_angle_beta   98.70822593
_cell_angle_gamma   90.00000000
_symmetry_Int_Tables_number   1
_chemical_formula_structural   Co(PO3)4
_chemical_formula_sum   'Co2 P8 O24'
_cell_volume   515.83178019
_cell_formula_units_Z   2
loop_
 _symmetry_equiv_pos_site_id
 _symmetry_equiv_pos_as_xyz
  1  'x, y, z'
loop_
 _atom_site_type_symbol
 _atom_site_label
 _atom_site_symmetry_multiplicity
 _atom_site_fract_x
 _atom_site_fract_y
 _atom_site_fract_z
 _atom_site_occupancy
  O  O0  1  0.70697771  0.38853760  0.49923487  1
  O  O1  1  0.94903408  0.23020455  0.04714557  1
  O  O2  1  0.05096592  0.73020423  0.95285470  1
  O  O3  1  0.04551707  0.88589604  0.76719039  1
  O  O4  1  0.97011706  0.64763819  0.23734079  1
  O  O5  1  0.06270705  0.51416227  0.47642615  1
  O  O6  1  0.16679684  0.38852119  0.94835795  1
  O  O7  1  0.19050954  0.34009584  0.55021077  1
  O  O8  1  0.19922900  0.68672399  0.56016485  1
  O  O9  1  0.28828975  0.14084626  0.50220367  1
  O  O10  1  0.29302228  0.88853728  0.50076540  1
  O  O11  1  0.36745418  0.28298920  0.22858641  1
  O  O12  1  0.34909002  0.58888512  0.07779914  1
  O  O13  1  0.38314856  0.75281451  0.23827400  1
  O  O14  1  0.61685144  0.25281408  0.76172627  1
  O  O15  1  0.02988293  0.14763851  0.76265948  1
  O  O16  1  0.63254582  0.78298888  0.77141386  1
  O  O17  1  0.95448285  0.38589636  0.23280850  1
  O  O18  1  0.71171025  0.64084669  0.49779660  1
  O  O19  1  0.80077099  0.18672356  0.43983542  1
  O  O20  1  0.80949046  0.84009627  0.44978950  1
  O  O21  1  0.83320315  0.88852087  0.05164232  1
  O  O22  1  0.93729287  0.01416259  0.52357274  1
  O  O23  1  0.65090997  0.08888544  0.92220113  1
  P  P24  1  0.86670148  0.82638255  0.89131049  1
  P  P25  1  0.97483874  0.40099892  0.44831221  1
  P  P26  1  0.98192730  0.62827053  0.45364219  1
  P  P27  1  0.02516125  0.90099860  0.55168806  1
  P  P28  1  0.13329851  0.32638287  0.10868978  1
  P  P29  1  0.20152219  0.67906731  0.12863872  1
  P  P30  1  0.79847780  0.17906763  0.87136155  1
  P  P31  1  0.01807270  0.12827010  0.54635808  1
  Co  Co32  1  0.50798462  0.76604693  0.51181180  1
  Co  Co33  1  0.49201530  0.26604725  0.48818710  1
