# generated using pymatgen
data_U3Cu2Sb3
_symmetry_space_group_name_H-M   'P 1'
_cell_length_a   4.40444308
_cell_length_b   4.40444307
_cell_length_c   22.55585491
_cell_angle_alpha   90.00000000
_cell_angle_beta   90.00000000
_cell_angle_gamma   120.00000004
_symmetry_Int_Tables_number   1
_chemical_formula_structural   U3Cu2Sb3
_chemical_formula_sum   'U6 Cu4 Sb6'
_cell_volume   378.94128800
_cell_formula_units_Z   2
loop_
 _symmetry_equiv_pos_site_id
 _symmetry_equiv_pos_as_xyz
  1  'x, y, z'
loop_
 _atom_site_type_symbol
 _atom_site_label
 _atom_site_symmetry_multiplicity
 _atom_site_fract_x
 _atom_site_fract_y
 _atom_site_fract_z
 _atom_site_occupancy
  Cu  Cu0  1  0.00000000  0.00000000  0.18750993  1
  Cu  Cu1  1  0.00000000  0.00000000  0.68750993  1
  Cu  Cu2  1  0.00000000  0.00000000  0.81249007  1
  Cu  Cu3  1  0.00000000  0.00000000  0.31249007  1
  Sb  Sb4  1  0.66666667  0.33333333  0.15967813  1
  Sb  Sb5  1  0.66666667  0.33333333  0.34032187  1
  Sb  Sb6  1  0.33333333  0.66666667  0.84032187  1
  Sb  Sb7  1  0.00000000  0.00000000  0.50000000  1
  Sb  Sb8  1  0.33333333  0.66666667  0.65967813  1
  Sb  Sb9  1  0.00000000  0.00000000  0.00000000  1
  U  U10  1  0.33333333  0.66666667  0.42152213  1
  U  U11  1  0.66666667  0.33333333  0.57847787  1
  U  U12  1  0.33333333  0.66666667  0.07847787  1
  U  U13  1  0.66666667  0.33333333  0.75000000  1
  U  U14  1  0.33333333  0.66666667  0.25000000  1
  U  U15  1  0.66666667  0.33333333  0.92152213  1
