# generated using pymatgen
data_Ni5(P3O11)2
_symmetry_space_group_name_H-M   'P 1'
_cell_length_a   12.68320806
_cell_length_b   6.62833733
_cell_length_c   10.41195708
_cell_angle_alpha   90.00000000
_cell_angle_beta   104.88968585
_cell_angle_gamma   90.00000000
_symmetry_Int_Tables_number   1
_chemical_formula_structural   Ni5(P3O11)2
_chemical_formula_sum   'Ni10 P12 O44'
_cell_volume   845.92732692
_cell_formula_units_Z   2
loop_
 _symmetry_equiv_pos_site_id
 _symmetry_equiv_pos_as_xyz
  1  'x, y, z'
loop_
 _atom_site_type_symbol
 _atom_site_label
 _atom_site_symmetry_multiplicity
 _atom_site_fract_x
 _atom_site_fract_y
 _atom_site_fract_z
 _atom_site_occupancy
  O  O0  1  0.85037259  0.54937413  0.17634705  1
  O  O1  1  0.99270476  0.20975132  0.13778180  1
  O  O2  1  0.99780609  0.28405523  0.35735027  1
  O  O3  1  0.99270402  0.29024890  0.63778164  1
  O  O4  1  0.99780617  0.21594499  0.85735036  1
  O  O5  1  0.84304908  0.92023106  0.23427771  1
  O  O6  1  0.84015337  0.54821879  0.44672691  1
  O  O7  1  0.73678831  0.19441188  0.05982442  1
  O  O8  1  0.85037268  0.95062654  0.67634714  1
  O  O9  1  0.84304834  0.57976961  0.73427755  1
  O  O10  1  0.00729545  0.79024912  0.86221892  1
  O  O11  1  0.00219411  0.71594521  0.64264947  1
  O  O12  1  0.00729536  0.70975155  0.36221882  1
  O  O13  1  0.00219403  0.78405546  0.14265035  1
  O  O14  1  0.14962760  0.45062632  0.82365269  1
  O  O15  1  0.15695112  0.07976938  0.76572203  1
  O  O16  1  0.15984683  0.45178166  0.55327380  1
  O  O17  1  0.26321188  0.80558857  0.94017532  1
  O  O18  1  0.14962752  0.04937390  0.32365260  1
  O  O19  1  0.15695103  0.42023084  0.26572194  1
  O  O20  1  0.24098574  0.76851045  0.67434976  1
  O  O21  1  0.15984675  0.04821857  0.05327371  1
  O  O22  1  0.26321180  0.69441210  0.44017522  1
  O  O23  1  0.38382154  0.20723044  0.93672087  1
  O  O24  1  0.24098566  0.73149022  0.17434967  1
  O  O25  1  0.36483569  0.49600843  0.63851656  1
  O  O26  1  0.37665975  0.11325456  0.65006227  1
  O  O27  1  0.75901446  0.23149000  0.32565095  1
  O  O28  1  0.38382145  0.29276824  0.43672078  1
  O  O29  1  0.36483561  0.00399179  0.13851744  1
  O  O30  1  0.37665967  0.38674566  0.15006218  1
  O  O31  1  0.46012782  0.68270156  0.36074681  1
  O  O32  1  0.53987238  0.31729888  0.63925293  1
  O  O33  1  0.62334053  0.61325324  0.84993757  1
  O  O34  1  0.63516459  0.99600865  0.86148328  1
  O  O35  1  0.61617874  0.70723067  0.56327896  1
  O  O36  1  0.53987230  0.18270134  0.13925284  1
  O  O37  1  0.62334045  0.88674589  0.34993747  1
  O  O38  1  0.63516451  0.50399202  0.36148318  1
  O  O39  1  0.75901372  0.26851022  0.82565079  1
  O  O40  1  0.61617866  0.79276846  0.06327887  1
  O  O41  1  0.73678840  0.30558835  0.55982452  1
  O  O42  1  0.84015345  0.95178188  0.94672701  1
  O  O43  1  0.46012708  0.81729911  0.86074664  1
  P  P44  1  0.25142310  0.60552610  0.57346035  1
  P  P45  1  0.25142302  0.89447457  0.07346124  1
  P  P46  1  0.41686277  0.29544566  0.58871888  1
  P  P47  1  0.58313669  0.79544588  0.91128070  1
  P  P48  1  0.41686350  0.20455456  0.08871904  1
  P  P49  1  0.08506223  0.23787602  0.27404060  1
  P  P50  1  0.58313661  0.70455325  0.41128061  1
  P  P51  1  0.74857718  0.10552587  0.92653948  1
  P  P52  1  0.74857710  0.39447435  0.42653939  1
  P  P53  1  0.91493797  0.76212442  0.72595914  1
  P  P54  1  0.08506149  0.26212420  0.77404044  1
  P  P55  1  0.91493789  0.73787625  0.22595904  1
  Ni  Ni56  1  0.86506867  0.24814011  0.21253758  1
  Ni  Ni57  1  0.86506876  0.25186011  0.71253767  1
  Ni  Ni58  1  0.67529911  0.00881060  0.20036907  1
  Ni  Ni59  1  0.67529919  0.49118963  0.70036916  1
  Ni  Ni60  1  0.32470018  0.50881082  0.29963032  1
  Ni  Ni61  1  0.32470026  0.99118985  0.79963042  1
  Ni  Ni62  1  0.13493145  0.74814033  0.28746305  1
  Ni  Ni63  1  0.00000000  0.00000000  0.00000000  1
  Ni  Ni64  1  0.13493153  0.75186034  0.78746314  1
  Ni  Ni65  1  0.00000008  0.50000022  0.50000009  1
