# generated using pymatgen
data_Na2Ti3Cl8
_symmetry_space_group_name_H-M   'P 1'
_cell_length_a   7.92797077
_cell_length_b   7.92797108
_cell_length_c   7.92797164
_cell_angle_alpha   54.79821257
_cell_angle_beta   54.79821119
_cell_angle_gamma   54.79820944
_symmetry_Int_Tables_number   1
_chemical_formula_structural   Na2Ti3Cl8
_chemical_formula_sum   'Na2 Ti3 Cl8'
_cell_volume   309.66801579
_cell_formula_units_Z   1
loop_
 _symmetry_equiv_pos_site_id
 _symmetry_equiv_pos_as_xyz
  1  'x, y, z'
loop_
 _atom_site_type_symbol
 _atom_site_label
 _atom_site_symmetry_multiplicity
 _atom_site_fract_x
 _atom_site_fract_y
 _atom_site_fract_z
 _atom_site_occupancy
  Na  Na0  1  0.15866035  0.15866035  0.15866035  1
  Na  Na1  1  0.84133965  0.84133965  0.84133965  1
  Ti  Ti2  1  0.50000000  0.50000000  0.00000000  1
  Ti  Ti3  1  0.00000000  0.50000000  0.50000000  1
  Ti  Ti4  1  0.50000000  0.00000000  0.50000000  1
  Cl  Cl5  1  0.40511414  0.40511414  0.40511414  1
  Cl  Cl6  1  0.59488586  0.59488586  0.59488586  1
  Cl  Cl7  1  0.10084675  0.57869384  0.10084675  1
  Cl  Cl8  1  0.10084675  0.10084675  0.57869384  1
  Cl  Cl9  1  0.57869384  0.10084675  0.10084675  1
  Cl  Cl10  1  0.42130616  0.89915325  0.89915325  1
  Cl  Cl11  1  0.89915325  0.42130616  0.89915325  1
  Cl  Cl12  1  0.89915325  0.89915325  0.42130616  1
