# generated using pymatgen
data_AlCu(WO4)2
_symmetry_space_group_name_H-M   'P 1'
_cell_length_a   5.07214968
_cell_length_b   5.72937216
_cell_length_c   5.85504626
_cell_angle_alpha   109.57539969
_cell_angle_beta   118.81891335
_cell_angle_gamma   89.26610244
_symmetry_Int_Tables_number   1
_chemical_formula_structural   AlCu(WO4)2
_chemical_formula_sum   'Al1 Cu1 W2 O8'
_cell_volume   138.16176937
_cell_formula_units_Z   1
loop_
 _symmetry_equiv_pos_site_id
 _symmetry_equiv_pos_as_xyz
  1  'x, y, z'
loop_
 _atom_site_type_symbol
 _atom_site_label
 _atom_site_symmetry_multiplicity
 _atom_site_fract_x
 _atom_site_fract_y
 _atom_site_fract_z
 _atom_site_occupancy
  Al  Al0  1  0.62457163  0.72319838  0.09966724  1
  Cu  Cu1  1  0.12629091  0.22521970  0.10089337  1
  W  W2  1  0.87430492  0.40710312  0.59811587  1
  W  W3  1  0.37490721  0.03896360  0.60110272  1
  O  O4  1  0.19392621  0.66051932  0.87932081  1
  O  O5  1  0.64122606  0.54725486  0.34079024  1
  O  O6  1  0.17002439  0.18459190  0.80211472  1
  O  O7  1  0.59168758  0.03631684  0.38754927  1
  O  O8  1  0.60748095  0.89861546  0.85816008  1
  O  O9  1  0.05509891  0.78557958  0.31985735  1
  O  O10  1  0.07902392  0.26152868  0.39692218  1
  O  O11  1  0.65745532  0.40960756  0.81160116  1
