# generated using pymatgen
data_AgIO4
_symmetry_space_group_name_H-M   'P 1'
_cell_length_a   5.44964564
_cell_length_b   5.44964565
_cell_length_c   7.18613050
_cell_angle_alpha   112.28277740
_cell_angle_beta   112.28277736
_cell_angle_gamma   90.00000010
_symmetry_Int_Tables_number   1
_chemical_formula_structural   AgIO4
_chemical_formula_sum   'Ag2 I2 O8'
_cell_volume   180.13919824
_cell_formula_units_Z   2
loop_
 _symmetry_equiv_pos_site_id
 _symmetry_equiv_pos_as_xyz
  1  'x, y, z'
loop_
 _atom_site_type_symbol
 _atom_site_label
 _atom_site_symmetry_multiplicity
 _atom_site_fract_x
 _atom_site_fract_y
 _atom_site_fract_z
 _atom_site_occupancy
  O  O0  1  0.19449073  0.55894741  0.91294638  1
  O  O1  1  0.35399897  0.69449073  0.41294638  1
  O  O2  1  0.05894741  0.21845566  0.41294638  1
  O  O3  1  0.71845566  0.85399897  0.91294638  1
  O  O4  1  0.28154434  0.14600103  0.08705362  1
  O  O5  1  0.94105259  0.78154434  0.58705362  1
  O  O6  1  0.64600103  0.30550927  0.58705362  1
  O  O7  1  0.80550927  0.44105259  0.08705362  1
  Ag  Ag8  1  0.37500000  0.12500000  0.75000000  1
  Ag  Ag9  1  0.62500000  0.87500000  0.25000000  1
  I  I10  1  0.12500000  0.37500000  0.25000000  1
  I  I11  1  0.87500000  0.62500000  0.75000000  1
