# generated using pymatgen
data_CaMoAsO5
_symmetry_space_group_name_H-M   'P 1'
_cell_length_a   8.26134301
_cell_length_b   6.14430223
_cell_length_c   9.45534754
_cell_angle_alpha   91.14652535
_cell_angle_beta   94.93658347
_cell_angle_gamma   97.10582208
_symmetry_Int_Tables_number   1
_chemical_formula_structural   CaMoAsO5
_chemical_formula_sum   'Ca4 Mo4 As4 O20'
_cell_volume   474.27402160
_cell_formula_units_Z   4
loop_
 _symmetry_equiv_pos_site_id
 _symmetry_equiv_pos_as_xyz
  1  'x, y, z'
loop_
 _atom_site_type_symbol
 _atom_site_label
 _atom_site_symmetry_multiplicity
 _atom_site_fract_x
 _atom_site_fract_y
 _atom_site_fract_z
 _atom_site_occupancy
  Ca  Ca0  1  0.93693291  0.72347264  0.10206262  1
  Ca  Ca1  1  0.58358293  0.25759038  0.58406671  1
  Ca  Ca2  1  0.44375426  0.74669335  0.87122879  1
  Ca  Ca3  1  0.09556857  0.26596458  0.43538754  1
  Mo  Mo4  1  0.00250224  0.43971277  0.77058646  1
  Mo  Mo5  1  0.48318882  0.56429024  0.23859671  1
  Mo  Mo6  1  0.49628933  0.04139184  0.23130609  1
  Mo  Mo7  1  0.02445576  0.94731409  0.74975853  1
  As  As8  1  0.64996564  0.32717531  0.95227749  1
  As  As9  1  0.85362555  0.66477871  0.44841043  1
  As  As10  1  0.11950933  0.20656086  0.08532700  1
  As  As11  1  0.33403801  0.79487434  0.52796810  1
  O  O12  1  0.86035928  0.15334040  0.78292480  1
  O  O13  1  0.65427369  0.86329814  0.27150716  1
  O  O14  1  0.30769132  0.27518191  0.18355667  1
  O  O15  1  0.17827180  0.71140678  0.76038061  1
  O  O16  1  0.52971650  0.39014097  0.80018535  1
  O  O17  1  0.98489319  0.59234661  0.32277649  1
  O  O18  1  0.99198892  0.10556777  0.20804542  1
  O  O19  1  0.49874132  0.88999391  0.65523002  1
  O  O20  1  0.52258354  0.08611021  0.02134588  1
  O  O21  1  0.97945158  0.91285181  0.53778555  1
  O  O22  1  0.07878424  0.43888106  0.99720215  1
  O  O23  1  0.40606817  0.55334279  0.44231473  1
  O  O24  1  0.60248101  0.56877519  0.05724963  1
  O  O25  1  0.89516535  0.43604531  0.56842759  1
  O  O26  1  0.11491445  0.98524099  0.97062392  1
  O  O27  1  0.38686219  0.04107099  0.41497696  1
  O  O28  1  0.87979823  0.66282524  0.82899849  1
  O  O29  1  0.61501922  0.32167095  0.30979669  1
  O  O30  1  0.33465800  0.77506467  0.16955622  1
  O  O31  1  0.15486265  0.25702715  0.70013922  1
