# generated using pymatgen
data_Al2CuO4
_symmetry_space_group_name_H-M   'P 1'
_cell_length_a   5.74969514
_cell_length_b   5.74969490
_cell_length_c   17.33098047
_cell_angle_alpha   60.16847691
_cell_angle_beta   60.16847637
_cell_angle_gamma   60.00710487
_symmetry_Int_Tables_number   1
_chemical_formula_structural   Al2CuO4
_chemical_formula_sum   'Al12 Cu6 O24'
_cell_volume   406.18365689
_cell_formula_units_Z   6
loop_
 _symmetry_equiv_pos_site_id
 _symmetry_equiv_pos_as_xyz
  1  'x, y, z'
loop_
 _atom_site_type_symbol
 _atom_site_label
 _atom_site_symmetry_multiplicity
 _atom_site_fract_x
 _atom_site_fract_y
 _atom_site_fract_z
 _atom_site_occupancy
  Al  Al0  1  0.49704788  0.49704804  0.16718024  1
  Al  Al1  1  0.49698969  0.00437768  0.16720843  1
  Al  Al2  1  0.49813413  0.49813403  0.50091519  1
  Al  Al3  1  0.00437764  0.49698976  0.16720841  1
  Al  Al4  1  0.87868334  0.87868343  0.28798411  1
  Al  Al5  1  0.50055799  0.50055787  0.66608409  1
  Al  Al6  1  0.49805152  0.00110108  0.50092508  1
  Al  Al7  1  0.49943423  0.49943430  0.83272321  1
  Al  Al8  1  0.00110114  0.49805146  0.50092509  1
  Al  Al9  1  0.49945599  0.00290171  0.83274461  1
  Al  Al10  1  0.00290164  0.49945607  0.83274459  1
  Al  Al11  1  0.87551508  0.87551512  0.95781714  1
  Cu  Cu12  1  0.12602218  0.12602183  0.04061763  1
  Cu  Cu13  1  0.49744517  0.49744502  0.00253697  1
  Cu  Cu14  1  0.12278997  0.12279028  0.37719429  1
  Cu  Cu15  1  0.12593860  0.12593846  0.70737929  1
  Cu  Cu16  1  0.49564491  0.49564480  0.33767326  1
  Cu  Cu17  1  0.87554426  0.87554400  0.62444642  1
  O  O18  1  0.25359113  0.25359116  0.09386376  1
  O  O19  1  0.26250571  0.26250578  0.23750965  1
  O  O20  1  0.25366480  0.71118534  0.09382820  1
  O  O21  1  0.71118530  0.25366493  0.09382825  1
  O  O22  1  0.25220875  0.25220890  0.42806078  1
  O  O23  1  0.27009400  0.75387576  0.24071988  1
  O  O24  1  0.74271775  0.74271797  0.09061533  1
  O  O25  1  0.26390361  0.26390324  0.56951181  1
  O  O26  1  0.25224204  0.71139592  0.42802941  1
  O  O27  1  0.75387588  0.27009407  0.24071989  1
  O  O28  1  0.71139593  0.25224206  0.42802940  1
  O  O29  1  0.75390431  0.75390440  0.24070036  1
  O  O30  1  0.29970740  0.73577661  0.57631484  1
  O  O31  1  0.26643225  0.26643238  0.75373014  1
  O  O32  1  0.74931250  0.74931263  0.41736124  1
  O  O33  1  0.73577679  0.29970725  0.57631487  1
  O  O34  1  0.26489895  0.26489904  0.90175872  1
  O  O35  1  0.26630819  0.70581448  0.75379188  1
  O  O36  1  0.70581447  0.26630822  0.75379191  1
  O  O37  1  0.73569561  0.73569545  0.57635452  1
  O  O38  1  0.26115596  0.75465261  0.90985836  1
  O  O39  1  0.72868960  0.72868973  0.77127835  1
  O  O40  1  0.75465256  0.26115600  0.90985835  1
  O  O41  1  0.75463117  0.75463114  0.90986207  1
