# generated using pymatgen
data_NbHO3
_symmetry_space_group_name_H-M   'P 1'
_cell_length_a   6.72474348
_cell_length_b   6.79742287
_cell_length_c   6.74155745
_cell_angle_alpha   109.88038735
_cell_angle_beta   109.23209098
_cell_angle_gamma   109.75693761
_symmetry_Int_Tables_number   1
_chemical_formula_structural   NbHO3
_chemical_formula_sum   'Nb4 H4 O12'
_cell_volume   235.87376414
_cell_formula_units_Z   4
loop_
 _symmetry_equiv_pos_site_id
 _symmetry_equiv_pos_as_xyz
  1  'x, y, z'
loop_
 _atom_site_type_symbol
 _atom_site_label
 _atom_site_symmetry_multiplicity
 _atom_site_fract_x
 _atom_site_fract_y
 _atom_site_fract_z
 _atom_site_occupancy
  H  H0  1  0.67913848  0.94761978  0.62830846  1
  H  H1  1  0.36152492  0.31230302  0.05327294  1
  H  H2  1  0.74785773  0.69650395  0.05313795  1
  H  H3  1  0.94604131  0.25703103  0.30432314  1
  Nb  Nb4  1  -0.00315579  0.46798632  0.00977715  1
  Nb  Nb5  1  0.52079702  0.49299237  0.52093254  1
  Nb  Nb6  1  0.48209579  0.96334221  0.99409260  1
  Nb  Nb7  1  0.03533613  0.01268923  0.52839495  1
  O  O8  1  0.20956330  0.90866646  0.70215056  1
  O  O9  1  0.10486214  0.28755927  0.80967739  1
  O  O10  1  0.18852284  0.48861336  0.29447083  1
  O  O11  1  0.29350482  0.79592597  0.08649126  1
  O  O12  1  0.52034505  0.70774594  0.80655070  1
  O  O13  1  0.28619591  0.20504539  0.48923567  1
  O  O14  1  0.70541922  0.82584892  0.52436664  1
  O  O15  1  0.47580754  0.29932920  0.17930373  1
  O  O16  1  0.70923429  0.18825040  0.89578690  1
  O  O17  1  0.79435062  0.49843384  0.70117977  1
  O  O18  1  0.88160484  0.70633188  0.18304254  1
  O  O19  1  0.81695384  0.12178144  0.29550426  1
