# generated using pymatgen
data_LiCuPO4
_symmetry_space_group_name_H-M   'P 1'
_cell_length_a   6.10418354
_cell_length_b   10.64581881
_cell_length_c   5.21380860
_cell_angle_alpha   90.00000000
_cell_angle_beta   90.00000000
_cell_angle_gamma   90.00000000
_symmetry_Int_Tables_number   1
_chemical_formula_structural   LiCuPO4
_chemical_formula_sum   'Li4 Cu4 P4 O16'
_cell_volume   338.81430464
_cell_formula_units_Z   4
loop_
 _symmetry_equiv_pos_site_id
 _symmetry_equiv_pos_as_xyz
  1  'x, y, z'
loop_
 _atom_site_type_symbol
 _atom_site_label
 _atom_site_symmetry_multiplicity
 _atom_site_fract_x
 _atom_site_fract_y
 _atom_site_fract_z
 _atom_site_occupancy
  Li  Li0  1  0.51831068  0.82705435  0.29950816  1
  Li  Li1  1  0.01831068  0.17294565  0.70049184  1
  Li  Li2  1  0.51831068  0.32705435  0.20049184  1
  Li  Li3  1  0.01831068  0.67294565  0.79950816  1
  Cu  Cu4  1  0.74578437  0.58508055  0.18219975  1
  Cu  Cu5  1  0.24578437  0.41491945  0.81780025  1
  Cu  Cu6  1  0.74578437  0.08508055  0.31780025  1
  Cu  Cu7  1  0.24578437  0.91491945  0.68219975  1
  P  P8  1  0.74751086  0.92796407  0.80466133  1
  P  P9  1  0.24751086  0.57203593  0.30466133  1
  P  P10  1  0.74751086  0.42796407  0.69533867  1
  P  P11  1  0.24751086  0.07203593  0.19533867  1
  O  O12  1  0.95357020  0.34980436  0.77448486  1
  O  O13  1  0.22507642  0.57030287  0.60014546  1
  O  O14  1  0.54646788  0.86013870  0.68152776  1
  O  O15  1  0.45357020  0.65019564  0.22551514  1
  O  O16  1  0.76317860  0.56439025  0.79695625  1
  O  O17  1  0.54646788  0.36013870  0.81847224  1
  O  O18  1  0.45357020  0.15019564  0.27448486  1
  O  O19  1  0.26317860  0.93560975  0.29695625  1
  O  O20  1  0.22507642  0.07030287  0.89985454  1
  O  O21  1  0.72507642  0.92969713  0.10014546  1
  O  O22  1  0.26317860  0.43560975  0.20304375  1
  O  O23  1  0.04646788  0.13986130  0.31847224  1
  O  O24  1  0.04646788  0.63986130  0.18152776  1
  O  O25  1  0.95357020  0.84980436  0.72551514  1
  O  O26  1  0.72507642  0.42969713  0.39985454  1
  O  O27  1  0.76317860  0.06439025  0.70304375  1
