# generated using pymatgen
data_MnH2SO4
_symmetry_space_group_name_H-M   'P 1'
_cell_length_a   4.91394516
_cell_length_b   6.02437249
_cell_length_c   12.38945055
_cell_angle_alpha   90.00000000
_cell_angle_beta   90.00000000
_cell_angle_gamma   93.56022407
_symmetry_Int_Tables_number   1
_chemical_formula_structural   MnH2SO4
_chemical_formula_sum   'Mn4 H8 S4 O16'
_cell_volume   366.06246921
_cell_formula_units_Z   4
loop_
 _symmetry_equiv_pos_site_id
 _symmetry_equiv_pos_as_xyz
  1  'x, y, z'
loop_
 _atom_site_type_symbol
 _atom_site_label
 _atom_site_symmetry_multiplicity
 _atom_site_fract_x
 _atom_site_fract_y
 _atom_site_fract_z
 _atom_site_occupancy
  H  H0  1  0.59480492  0.42441468  0.89582994  1
  H  H1  1  0.90519508  0.07558532  0.39582994  1
  H  H2  1  0.40519508  0.57558532  0.10417006  1
  H  H3  1  0.09480492  0.92441468  0.60417006  1
  H  H4  1  0.46601791  0.23835533  0.97307461  1
  H  H5  1  0.03398209  0.26164467  0.47307461  1
  H  H6  1  0.53398209  0.76164467  0.02692539  1
  H  H7  1  0.96601791  0.73835533  0.52692539  1
  O  O8  1  0.44291661  0.48375546  0.67655079  1
  O  O9  1  0.05708339  0.01624454  0.17655079  1
  O  O10  1  0.55708339  0.51624454  0.32344921  1
  O  O11  1  0.94291661  0.98375546  0.82344921  1
  O  O12  1  0.91680057  0.58550094  0.83739347  1
  O  O13  1  0.58319943  0.91449906  0.33739347  1
  O  O14  1  0.08319943  0.41449906  0.16260653  1
  O  O15  1  0.41680057  0.08550094  0.66260653  1
  O  O16  1  0.36259184  0.79578989  0.86942817  1
  O  O17  1  0.13740816  0.70421011  0.36942817  1
  O  O18  1  0.63740816  0.20421011  0.13057183  1
  O  O19  1  0.86259184  0.29578989  0.63057183  1
  O  O20  1  0.93560556  0.81861874  0.59416079  1
  O  O21  1  0.56439444  0.68138126  0.09416079  1
  O  O22  1  0.06439444  0.18138126  0.40583921  1
  O  O23  1  0.43560556  0.31861874  0.90583921  1
  S  S24  1  0.05987427  0.79535462  0.89510448  1
  S  S25  1  0.44012573  0.70464538  0.39510448  1
  S  S26  1  0.94012573  0.20464538  0.10489552  1
  S  S27  1  0.55987427  0.29535462  0.60489552  1
  Mn  Mn28  1  0.12814209  0.30178129  0.77523375  1
  Mn  Mn29  1  0.37185791  0.19821871  0.27523375  1
  Mn  Mn30  1  0.87185791  0.69821871  0.22476625  1
  Mn  Mn31  1  0.62814209  0.80178129  0.72476625  1
