# generated using pymatgen
data_CaNbO3
_symmetry_space_group_name_H-M   'P 1'
_cell_length_a   5.55886586
_cell_length_b   5.71631657
_cell_length_c   7.98312060
_cell_angle_alpha   90.00000000
_cell_angle_beta   90.00000000
_cell_angle_gamma   90.00000000
_symmetry_Int_Tables_number   1
_chemical_formula_structural   CaNbO3
_chemical_formula_sum   'Ca4 Nb4 O12'
_cell_volume   253.67353239
_cell_formula_units_Z   4
loop_
 _symmetry_equiv_pos_site_id
 _symmetry_equiv_pos_as_xyz
  1  'x, y, z'
loop_
 _atom_site_type_symbol
 _atom_site_label
 _atom_site_symmetry_multiplicity
 _atom_site_fract_x
 _atom_site_fract_y
 _atom_site_fract_z
 _atom_site_occupancy
  O  O0  1  0.80095201  0.20329666  0.54553637  1
  O  O1  1  0.30095201  0.29670334  0.45446363  1
  O  O2  1  0.69904799  0.70329666  0.95446363  1
  O  O3  1  0.19904799  0.79670334  0.04553637  1
  O  O4  1  0.19904799  0.79670334  0.45446363  1
  O  O5  1  0.69904799  0.70329666  0.54553637  1
  O  O6  1  0.30095201  0.29670334  0.04553637  1
  O  O7  1  0.80095201  0.20329666  0.95446363  1
  O  O8  1  0.58759881  0.97227650  0.25000000  1
  O  O9  1  0.08759881  0.52772350  0.75000000  1
  O  O10  1  0.91240119  0.47227650  0.25000000  1
  O  O11  1  0.41240119  0.02772350  0.75000000  1
  Ca  Ca12  1  0.00871831  0.05194794  0.25000000  1
  Ca  Ca13  1  0.50871831  0.44805206  0.75000000  1
  Ca  Ca14  1  0.49128169  0.55194794  0.25000000  1
  Ca  Ca15  1  0.99128169  0.94805206  0.75000000  1
  Nb  Nb16  1  0.50000000  0.00000000  0.00000000  1
  Nb  Nb17  1  0.00000000  0.50000000  0.00000000  1
  Nb  Nb18  1  0.00000000  0.50000000  0.50000000  1
  Nb  Nb19  1  0.50000000  0.00000000  0.50000000  1
