# generated using pymatgen
data_Mn4(PO4)3
_symmetry_space_group_name_H-M   'P 1'
_cell_length_a   6.31950183
_cell_length_b   15.21965146
_cell_length_c   9.99864381
_cell_angle_alpha   90.00000000
_cell_angle_beta   90.00000000
_cell_angle_gamma   90.00000000
_symmetry_Int_Tables_number   1
_chemical_formula_structural   Mn4(PO4)3
_chemical_formula_sum   'Mn16 P12 O48'
_cell_volume   961.67571335
_cell_formula_units_Z   4
loop_
 _symmetry_equiv_pos_site_id
 _symmetry_equiv_pos_as_xyz
  1  'x, y, z'
loop_
 _atom_site_type_symbol
 _atom_site_label
 _atom_site_symmetry_multiplicity
 _atom_site_fract_x
 _atom_site_fract_y
 _atom_site_fract_z
 _atom_site_occupancy
  O  O0  1  0.89552312  0.52113347  0.78920688  1
  O  O1  1  0.89552312  0.97886653  0.78920688  1
  O  O2  1  0.90959388  0.16235126  0.35400018  1
  O  O3  1  0.83630894  0.94017873  0.46727445  1
  O  O4  1  0.83630894  0.55982227  0.46727445  1
  O  O5  1  0.80349749  0.36291849  0.75934389  1
  O  O6  1  0.80349749  0.13708151  0.75934389  1
  O  O7  1  0.74848737  0.75000000  0.62721484  1
  O  O8  1  0.75151363  0.25000000  0.12721484  1
  O  O9  1  0.69650351  0.86291749  0.25934489  1
  O  O10  1  0.69650351  0.63708251  0.25934489  1
  O  O11  1  0.66369006  0.44017873  0.96727445  1
  O  O12  1  0.96146364  0.90678811  0.04019115  1
  O  O13  1  0.96146364  0.59321189  0.04019115  1
  O  O14  1  0.96069509  0.25000000  0.55538820  1
  O  O15  1  0.90959388  0.33764774  0.35400018  1
  O  O16  1  0.03853536  0.09321189  0.95980885  1
  O  O17  1  0.03853536  0.40678811  0.95980885  1
  O  O18  1  0.03930591  0.75000000  0.44461180  1
  O  O19  1  0.09040712  0.66235126  0.64599982  1
  O  O20  1  0.09040712  0.83764874  0.64599982  1
  O  O21  1  0.10447688  0.02113347  0.21079312  1
  O  O22  1  0.10447688  0.47886653  0.21079312  1
  O  O23  1  0.16369006  0.05982127  0.53272555  1
  O  O24  1  0.16369006  0.44017873  0.53272555  1
  O  O25  1  0.19650351  0.63708251  0.24065611  1
  O  O26  1  0.19650351  0.86291749  0.24065611  1
  O  O27  1  0.25151363  0.25000000  0.37278516  1
  O  O28  1  0.24848737  0.75000000  0.87278516  1
  O  O29  1  0.66369006  0.05982127  0.96727445  1
  O  O30  1  0.30349849  0.36291849  0.74065511  1
  O  O31  1  0.33630894  0.55982227  0.03272555  1
  O  O32  1  0.33630894  0.94017873  0.03272555  1
  O  O33  1  0.39552312  0.52113347  0.71079212  1
  O  O34  1  0.39552312  0.97886653  0.71079212  1
  O  O35  1  0.40959188  0.16235126  0.14599982  1
  O  O36  1  0.40959188  0.33764774  0.14599982  1
  O  O37  1  0.46069409  0.25000000  0.94461180  1
  O  O38  1  0.46146464  0.59321189  0.45980985  1
  O  O39  1  0.46146464  0.90678811  0.45980985  1
  O  O40  1  0.53853536  0.09321189  0.54019115  1
  O  O41  1  0.53853536  0.40678811  0.54019115  1
  O  O42  1  0.53930591  0.75000000  0.05538920  1
  O  O43  1  0.59040712  0.66235126  0.85400018  1
  O  O44  1  0.59040712  0.83764874  0.85400018  1
  O  O45  1  0.60447688  0.02113347  0.28920688  1
  O  O46  1  0.60447688  0.47886653  0.28920688  1
  O  O47  1  0.30349849  0.13708151  0.74065511  1
  P  P48  1  0.01238161  0.25000000  0.40261594  1
  P  P49  1  0.14776415  0.56719622  0.13501429  1
  P  P50  1  0.14776415  0.93280478  0.13501429  1
  P  P51  1  0.35223585  0.06719522  0.63501429  1
  P  P52  1  0.35223585  0.43280478  0.63501429  1
  P  P53  1  0.48761939  0.75000000  0.90261494  1
  P  P54  1  0.51238161  0.25000000  0.09738506  1
  P  P55  1  0.64776315  0.56719622  0.36498571  1
  P  P56  1  0.64776315  0.93280478  0.36498571  1
  P  P57  1  0.85223585  0.06719522  0.86498471  1
  P  P58  1  0.85223585  0.43280478  0.86498471  1
  P  P59  1  0.98761939  0.75000000  0.59738406  1
  Mn  Mn60  1  0.85508780  0.38165794  0.56615239  1
  Mn  Mn61  1  0.85508780  0.11834206  0.56615239  1
  Mn  Mn62  1  0.83390545  0.39701456  0.15991778  1
  Mn  Mn63  1  0.83390545  0.10298644  0.15991778  1
  Mn  Mn64  1  0.66609355  0.89701356  0.65991778  1
  Mn  Mn65  1  0.66609355  0.60298644  0.65991778  1
  Mn  Mn66  1  0.64491120  0.88165794  0.06615239  1
  Mn  Mn67  1  0.64491120  0.61834206  0.06615239  1
  Mn  Mn68  1  0.35508880  0.38165794  0.93384861  1
  Mn  Mn69  1  0.35508880  0.11834206  0.93384861  1
  Mn  Mn70  1  0.33390545  0.39701456  0.34008222  1
  Mn  Mn71  1  0.33390545  0.10298644  0.34008222  1
  Mn  Mn72  1  0.16609355  0.89701356  0.84008222  1
  Mn  Mn73  1  0.16609355  0.60298644  0.84008222  1
  Mn  Mn74  1  0.14491120  0.88165794  0.43384761  1
  Mn  Mn75  1  0.14491120  0.61834206  0.43384761  1
