# generated using pymatgen
data_Ba(CeS2)2
_symmetry_space_group_name_H-M   'P 1'
_cell_length_a   7.67219645
_cell_length_b   7.67219679
_cell_length_c   7.67219697
_cell_angle_alpha   109.33211851
_cell_angle_beta   109.33211144
_cell_angle_gamma   109.74978706
_symmetry_Int_Tables_number   1
_chemical_formula_structural   Ba(CeS2)2
_chemical_formula_sum   'Ba2 Ce4 S8'
_cell_volume   347.63990445
_cell_formula_units_Z   2
loop_
 _symmetry_equiv_pos_site_id
 _symmetry_equiv_pos_as_xyz
  1  'x, y, z'
loop_
 _atom_site_type_symbol
 _atom_site_label
 _atom_site_symmetry_multiplicity
 _atom_site_fract_x
 _atom_site_fract_y
 _atom_site_fract_z
 _atom_site_occupancy
  Ba  Ba0  1  0.62500000  0.37500000  0.25000000  1
  Ba  Ba1  1  0.87500000  0.12500000  0.75000000  1
  Ce  Ce2  1  0.12704787  0.75000000  0.87704787  1
  Ce  Ce3  1  0.25000000  0.62704787  0.37704787  1
  Ce  Ce4  1  0.37295213  0.25000000  0.62295213  1
  Ce  Ce5  1  0.75000000  0.87295213  0.12295213  1
  S  S6  1  0.01803435  0.85730650  0.49548131  1
  S  S7  1  0.02255304  0.36182519  0.50451869  1
  S  S8  1  0.14269350  0.13817481  0.16072785  1
  S  S9  1  0.35730650  0.51803435  0.99548131  1
  S  S10  1  0.48196565  0.97744696  0.83927215  1
  S  S11  1  0.63817481  0.64269350  0.66072785  1
  S  S12  1  0.47744696  0.98196565  0.33927215  1
  S  S13  1  0.86182519  0.52255304  0.00451869  1
