# generated using pymatgen
data_Li3Ni2(PO4)3
_symmetry_space_group_name_H-M   'P 1'
_cell_length_a   8.98881672
_cell_length_b   8.98881644
_cell_length_c   8.98881688
_cell_angle_alpha   56.21193960
_cell_angle_beta   56.21194088
_cell_angle_gamma   56.21194294
_symmetry_Int_Tables_number   1
_chemical_formula_structural   Li3Ni2(PO4)3
_chemical_formula_sum   'Li6 Ni4 P6 O24'
_cell_volume   468.53594151
_cell_formula_units_Z   2
loop_
 _symmetry_equiv_pos_site_id
 _symmetry_equiv_pos_as_xyz
  1  'x, y, z'
loop_
 _atom_site_type_symbol
 _atom_site_label
 _atom_site_symmetry_multiplicity
 _atom_site_fract_x
 _atom_site_fract_y
 _atom_site_fract_z
 _atom_site_occupancy
  Li  Li0  1  0.73345173  0.07865372  0.33764965  1
  Li  Li1  1  0.26654827  0.92134628  0.66235035  1
  Li  Li2  1  0.66235035  0.26654827  0.92134628  1
  Li  Li3  1  0.92134628  0.66235035  0.26654827  1
  Li  Li4  1  0.33764965  0.73345173  0.07865372  1
  Li  Li5  1  0.07865372  0.33764965  0.73345173  1
  Ni  Ni6  1  0.14409354  0.14409354  0.14409354  1
  Ni  Ni7  1  0.65276597  0.65276597  0.65276597  1
  Ni  Ni8  1  0.34723403  0.34723403  0.34723403  1
  Ni  Ni9  1  0.85590646  0.85590646  0.85590646  1
  P  P10  1  0.04346572  0.74613325  0.45834942  1
  P  P11  1  0.74613325  0.45834942  0.04346572  1
  P  P12  1  0.95653428  0.25386675  0.54165058  1
  P  P13  1  0.54165058  0.95653428  0.25386675  1
  P  P14  1  0.25386675  0.54165058  0.95653428  1
  P  P15  1  0.45834942  0.04346572  0.74613325  1
  O  O16  1  0.84724760  0.79083498  0.45725972  1
  O  O17  1  0.46846150  0.50152674  0.83240024  1
  O  O18  1  0.74645607  0.86153427  0.12956236  1
  O  O19  1  0.98951816  0.19477014  0.39230668  1
  O  O20  1  0.49847326  0.16759976  0.53153850  1
  O  O21  1  0.13846573  0.87043764  0.25354393  1
  O  O22  1  0.79083498  0.45725972  0.84724760  1
  O  O23  1  0.80522986  0.60769332  0.01048184  1
  O  O24  1  0.83240024  0.46846150  0.50152674  1
  O  O25  1  0.54274028  0.15275240  0.20916502  1
  O  O26  1  0.12956236  0.74645607  0.86153427  1
  O  O27  1  0.87043764  0.25354393  0.13846573  1
  O  O28  1  0.50152674  0.83240024  0.46846150  1
  O  O29  1  0.39230668  0.98951816  0.19477014  1
  O  O30  1  0.60769332  0.01048184  0.80522986  1
  O  O31  1  0.16759976  0.53153850  0.49847326  1
  O  O32  1  0.15275240  0.20916502  0.54274028  1
  O  O33  1  0.25354393  0.13846573  0.87043764  1
  O  O34  1  0.86153427  0.12956236  0.74645607  1
  O  O35  1  0.19477014  0.39230668  0.98951816  1
  O  O36  1  0.01048184  0.80522986  0.60769332  1
  O  O37  1  0.45725972  0.84724760  0.79083498  1
  O  O38  1  0.53153850  0.49847326  0.16759976  1
  O  O39  1  0.20916502  0.54274028  0.15275240  1
