# generated using pymatgen
data_Zn(FeO2)2
_symmetry_space_group_name_H-M   'P 1'
_cell_length_a   6.04578804
_cell_length_b   6.05531676
_cell_length_c   6.05531642
_cell_angle_alpha   59.99999515
_cell_angle_beta   59.94784812
_cell_angle_gamma   59.94784869
_symmetry_Int_Tables_number   1
_chemical_formula_structural   Zn(FeO2)2
_chemical_formula_sum   'Zn2 Fe4 O8'
_cell_volume   156.62778993
_cell_formula_units_Z   2
loop_
 _symmetry_equiv_pos_site_id
 _symmetry_equiv_pos_as_xyz
  1  'x, y, z'
loop_
 _atom_site_type_symbol
 _atom_site_label
 _atom_site_symmetry_multiplicity
 _atom_site_fract_x
 _atom_site_fract_y
 _atom_site_fract_z
 _atom_site_occupancy
  Zn  Zn0  1  0.99076416  0.00307828  0.00307828  1
  Zn  Zn1  1  0.12327626  0.62557425  0.62557425  1
  Fe  Fe2  1  0.26079311  0.24640230  0.24640230  1
  Fe  Fe3  1  0.62824141  0.11873905  0.62650977  1
  Fe  Fe4  1  0.62824141  0.62650977  0.11873805  1
  Fe  Fe5  1  0.62824141  0.62650977  0.62650977  1
  O  O6  1  0.39170575  0.37690256  0.37690256  1
  O  O7  1  0.39170575  0.37690256  0.85448912  1
  O  O8  1  0.39170575  0.85448912  0.37690256  1
  O  O9  1  0.85780453  0.38073149  0.38073149  1
  O  O10  1  0.40076877  0.86640974  0.86640974  1
  O  O11  1  0.85225190  0.40515347  0.87129732  1
  O  O12  1  0.85225190  0.87129732  0.40515347  1
  O  O13  1  0.85225190  0.87129732  0.87129732  1
