# generated using pymatgen
data_Li2Mo(PO4)2
_symmetry_space_group_name_H-M   'P 1'
_cell_length_a   8.14273635
_cell_length_b   5.50055892
_cell_length_c   6.52412676
_cell_angle_alpha   90.00000000
_cell_angle_beta   91.81433194
_cell_angle_gamma   90.00000000
_symmetry_Int_Tables_number   1
_chemical_formula_structural   Li2Mo(PO4)2
_chemical_formula_sum   'Li4 Mo2 P4 O16'
_cell_volume   292.06654032
_cell_formula_units_Z   2
loop_
 _symmetry_equiv_pos_site_id
 _symmetry_equiv_pos_as_xyz
  1  'x, y, z'
loop_
 _atom_site_type_symbol
 _atom_site_label
 _atom_site_symmetry_multiplicity
 _atom_site_fract_x
 _atom_site_fract_y
 _atom_site_fract_z
 _atom_site_occupancy
  Li  Li0  1  0.92289640  0.25000000  0.71108363  1
  Li  Li1  1  0.75382344  0.75000000  0.48741717  1
  Li  Li2  1  0.25451906  0.25000000  0.48602558  1
  Li  Li3  1  0.42270572  0.75000000  0.71242633  1
  Mo  Mo4  1  0.75357789  0.75000000  0.00563189  1
  Mo  Mo5  1  0.25347320  0.25000000  0.00555754  1
  P  P6  1  0.89874178  0.25000000  0.23900874  1
  P  P7  1  0.09568101  0.75000000  0.76267567  1
  P  P8  1  0.39865673  0.75000000  0.23953902  1
  P  P9  1  0.59574536  0.25000000  0.76223807  1
  O  O10  1  0.50159094  0.75000000  0.43551801  1
  O  O11  1  0.99499880  0.75000000  0.96375212  1
  O  O12  1  0.48687878  0.25000000  0.57460334  1
  O  O13  1  0.28775749  0.51791155  0.22449765  1
  O  O14  1  0.21521819  0.97717326  0.77445419  1
  O  O15  1  0.78777052  0.48201438  0.22432931  1
  O  O16  1  0.28775749  0.98208845  0.22449765  1
  O  O17  1  0.98656075  0.75000000  0.57523045  1
  O  O18  1  0.00209117  0.25000000  0.43464170  1
  O  O19  1  0.78777052  0.01798562  0.22432931  1
  O  O20  1  0.49484835  0.25000000  0.96316118  1
  O  O21  1  0.71525182  0.47724396  0.77419761  1
  O  O22  1  0.21521819  0.52282674  0.77445419  1
  O  O23  1  0.50685409  0.75000000  0.04024733  1
  O  O24  1  0.71525182  0.02275604  0.77419761  1
  O  O25  1  0.00668951  0.25000000  0.03952471  1
