# generated using pymatgen
data_Mn2SiS4
_symmetry_space_group_name_H-M   'P 1'
_cell_length_a   5.94295202
_cell_length_b   7.45596356
_cell_length_c   12.74021977
_cell_angle_alpha   90.00000000
_cell_angle_beta   90.00000000
_cell_angle_gamma   90.00000000
_symmetry_Int_Tables_number   1
_chemical_formula_structural   Mn2SiS4
_chemical_formula_sum   'Mn8 Si4 S16'
_cell_volume   564.52466344
_cell_formula_units_Z   4
loop_
 _symmetry_equiv_pos_site_id
 _symmetry_equiv_pos_as_xyz
  1  'x, y, z'
loop_
 _atom_site_type_symbol
 _atom_site_label
 _atom_site_symmetry_multiplicity
 _atom_site_fract_x
 _atom_site_fract_y
 _atom_site_fract_z
 _atom_site_occupancy
  Si  Si0  1  0.40813496  0.25000000  0.91003374  1
  Si  Si1  1  0.59186504  0.75000000  0.08996626  1
  Si  Si2  1  0.09186504  0.25000000  0.41003374  1
  Si  Si3  1  0.90813496  0.75000000  0.58996626  1
  S  S4  1  0.74623423  0.52395351  0.16688535  1
  S  S5  1  0.24623423  0.47604649  0.33311465  1
  S  S6  1  0.25376577  0.02395351  0.83311465  1
  S  S7  1  0.75376577  0.97604649  0.66688535  1
  S  S8  1  0.24623423  0.02395351  0.33311465  1
  S  S9  1  0.25376577  0.47604649  0.83311465  1
  S  S10  1  0.74623423  0.97604649  0.16688535  1
  S  S11  1  0.75376577  0.52395351  0.66688535  1
  S  S12  1  0.26548728  0.75000000  0.59259199  1
  S  S13  1  0.76548728  0.25000000  0.90740801  1
  S  S14  1  0.73451272  0.25000000  0.40740801  1
  S  S15  1  0.23451272  0.75000000  0.09259199  1
  S  S16  1  0.76279856  0.75000000  0.43471128  1
  S  S17  1  0.26279856  0.25000000  0.06528872  1
  S  S18  1  0.23720144  0.25000000  0.56528872  1
  S  S19  1  0.73720144  0.75000000  0.93471128  1
  Mn  Mn20  1  0.00785998  0.75000000  0.26854527  1
  Mn  Mn21  1  0.50785998  0.25000000  0.23145473  1
  Mn  Mn22  1  0.99214002  0.25000000  0.73145473  1
  Mn  Mn23  1  0.49214002  0.75000000  0.76854527  1
  Mn  Mn24  1  0.50000000  0.50000000  0.50000000  1
  Mn  Mn25  1  0.00000000  0.50000000  0.00000000  1
  Mn  Mn26  1  0.50000000  0.00000000  0.50000000  1
  Mn  Mn27  1  0.00000000  0.00000000  0.00000000  1
