# generated using pymatgen
data_LiCoP2O7
_symmetry_space_group_name_H-M   'P 1'
_cell_length_a   8.68611383
_cell_length_b   8.11301663
_cell_length_c   5.03657779
_cell_angle_alpha   108.08587761
_cell_angle_beta   90.00654913
_cell_angle_gamma   69.01247322
_symmetry_Int_Tables_number   1
_chemical_formula_structural   LiCoP2O7
_chemical_formula_sum   'Li2 Co2 P4 O14'
_cell_volume   312.53429689
_cell_formula_units_Z   2
loop_
 _symmetry_equiv_pos_site_id
 _symmetry_equiv_pos_as_xyz
  1  'x, y, z'
loop_
 _atom_site_type_symbol
 _atom_site_label
 _atom_site_symmetry_multiplicity
 _atom_site_fract_x
 _atom_site_fract_y
 _atom_site_fract_z
 _atom_site_occupancy
  Li  Li0  1  0.95665385  0.89843996  0.36868234  1
  Li  Li1  1  0.45664743  0.89840026  0.02963796  1
  Co  Co2  1  0.50354337  0.49847797  0.98705090  1
  Co  Co3  1  0.00351713  0.49851549  0.01144038  1
  P  P4  1  0.68907923  0.69329946  0.45121375  1
  P  P5  1  0.18903141  0.69325647  0.74201410  1
  P  P6  1  0.30790397  0.30129878  0.55708769  1
  P  P7  1  0.80794604  0.30133066  0.24430632  1
  O  O8  1  0.35048761  0.69309095  0.88315568  1
  O  O9  1  0.15163583  0.30943061  0.72124033  1
  O  O10  1  0.74477583  0.49670400  0.51543243  1
  O  O11  1  0.56587483  0.68494506  0.22292663  1
  O  O12  1  0.44321708  0.31467191  0.75457179  1
  O  O13  1  0.61668787  0.84945542  0.71929288  1
  O  O14  1  0.86658260  0.13986361  0.34701827  1
  O  O15  1  0.85049036  0.69316661  0.30993352  1
  O  O16  1  0.65161815  0.30942807  0.08837923  1
  O  O17  1  0.36646716  0.13978455  0.29292957  1
  O  O18  1  0.94315238  0.31471957  0.06004118  1
  O  O19  1  0.06582999  0.68496621  0.96196804  1
  O  O20  1  0.24467797  0.49664394  0.48123810  1
  O  O21  1  0.11666591  0.84941143  0.63008990  1
