# generated using pymatgen
data_Li2Cr(PO4)2
_symmetry_space_group_name_H-M   'P 1'
_cell_length_a   4.63710765
_cell_length_b   5.06668771
_cell_length_c   13.78452948
_cell_angle_alpha   84.37452778
_cell_angle_beta   90.00000000
_cell_angle_gamma   62.76716829
_symmetry_Int_Tables_number   1
_chemical_formula_structural   Li2Cr(PO4)2
_chemical_formula_sum   'Li4 Cr2 P4 O16'
_cell_volume   286.21012788
_cell_formula_units_Z   2
loop_
 _symmetry_equiv_pos_site_id
 _symmetry_equiv_pos_as_xyz
  1  'x, y, z'
loop_
 _atom_site_type_symbol
 _atom_site_label
 _atom_site_symmetry_multiplicity
 _atom_site_fract_x
 _atom_site_fract_y
 _atom_site_fract_z
 _atom_site_occupancy
  Li  Li0  1  0.05338050  0.02684016  0.26427562  1
  Li  Li1  1  0.70148518  0.67271645  0.15979902  1
  Li  Li2  1  0.62579737  0.67271645  0.65979802  1
  Li  Li3  1  0.91977834  0.02684016  0.76427462  1
  O  O4  1  0.02897811  0.63336165  0.57898684  1
  O  O5  1  0.86517816  0.87276735  0.38124248  1
  O  O6  1  0.18612204  0.08935011  0.62344495  1
  O  O7  1  0.15401090  0.34055880  0.19885319  1
  O  O8  1  0.21494327  0.21715751  0.02733272  1
  O  O9  1  0.26205249  0.87276735  0.88124248  1
  O  O10  1  0.33765925  0.63336165  0.07898684  1
  O  O11  1  0.95255316  0.34398128  0.41288069  1
  O  O12  1  0.50543030  0.34055880  0.69885219  1
  O  O13  1  0.78504167  0.77023729  0.96875622  1
  O  O14  1  0.72452885  0.08935011  0.12344495  1
  O  O15  1  0.44472005  0.77023729  0.46875622  1
  O  O16  1  0.70346456  0.34398128  0.91288069  1
  O  O17  1  0.51630115  0.71445336  0.28673922  1
  O  O18  1  0.76924549  0.71445136  0.78674022  1
  O  O19  1  0.56789822  0.21715751  0.52733272  1
  P  P20  1  0.35458794  0.32184697  0.11047536  1
  P  P21  1  0.64141890  0.66979554  0.88485895  1
  P  P22  1  0.32356608  0.32184697  0.61047536  1
  P  P23  1  0.68878656  0.66979554  0.38485895  1
  Cr  Cr24  1  0.00005414  0.99148755  0.49594674  1
  Cr  Cr25  1  0.00845931  0.99148755  0.99594674  1
