# generated using pymatgen
data_VPO5
_symmetry_space_group_name_H-M   'P 1'
_cell_length_a   7.29588770
_cell_length_b   10.45392696
_cell_length_c   5.05235998
_cell_angle_alpha   90.00000000
_cell_angle_beta   65.84758123
_cell_angle_gamma   90.00000000
_symmetry_Int_Tables_number   1
_chemical_formula_structural   VPO5
_chemical_formula_sum   'V4 P4 O20'
_cell_volume   351.61373307
_cell_formula_units_Z   4
loop_
 _symmetry_equiv_pos_site_id
 _symmetry_equiv_pos_as_xyz
  1  'x, y, z'
loop_
 _atom_site_type_symbol
 _atom_site_label
 _atom_site_symmetry_multiplicity
 _atom_site_fract_x
 _atom_site_fract_y
 _atom_site_fract_z
 _atom_site_occupancy
  O  O0  1  0.04413066  0.78111191  0.63256936  1
  O  O1  1  0.14916755  0.32333574  0.88670686  1
  O  O2  1  0.00426772  0.95887326  0.27606140  1
  O  O3  1  0.15983369  0.57162437  0.75252557  1
  O  O4  1  0.15695157  0.41660327  0.34490364  1
  O  O5  1  0.34305043  0.91660327  0.65509536  1
  O  O6  1  0.34016531  0.07162537  0.24747443  1
  O  O7  1  0.49573228  0.45887326  0.72393860  1
  O  O8  1  0.35083245  0.82333474  0.11329414  1
  O  O9  1  0.45586834  0.28111291  0.36743064  1
  O  O10  1  0.54413166  0.71888809  0.63256936  1
  O  O11  1  0.64916855  0.17666526  0.88670586  1
  O  O12  1  0.50426772  0.54112674  0.27606240  1
  O  O13  1  0.65983369  0.92837563  0.75252657  1
  O  O14  1  0.95586834  0.21888709  0.36743164  1
  O  O15  1  0.84304943  0.58339673  0.65509636  1
  O  O16  1  0.84016631  0.42837463  0.24747243  1
  O  O17  1  0.99573228  0.04112674  0.72393860  1
  O  O18  1  0.85083345  0.67666526  0.11329314  1
  O  O19  1  0.65695057  0.08339773  0.34490464  1
  P  P20  1  0.02767046  0.34947989  0.21675226  1
  P  P21  1  0.47233054  0.84947989  0.78324674  1
  P  P22  1  0.52767046  0.15052011  0.21675126  1
  P  P23  1  0.97232954  0.65052011  0.78324774  1
  V  V24  1  0.17597449  0.92645622  0.42626714  1
  V  V25  1  0.32402551  0.42645522  0.57373286  1
  V  V26  1  0.67597549  0.57354378  0.42626714  1
  V  V27  1  0.82402451  0.07354478  0.57373186  1
