# generated using pymatgen
data_SrSm2Nb2O9
_symmetry_space_group_name_H-M   'P 1'
_cell_length_a   5.60580868
_cell_length_b   5.66322475
_cell_length_c   12.95737935
_cell_angle_alpha   90.00000000
_cell_angle_beta   102.49282099
_cell_angle_gamma   90.00000000
_symmetry_Int_Tables_number   1
_chemical_formula_structural   SrSm2Nb2O9
_chemical_formula_sum   'Sr2 Sm4 Nb4 O18'
_cell_volume   401.61767371
_cell_formula_units_Z   2
loop_
 _symmetry_equiv_pos_site_id
 _symmetry_equiv_pos_as_xyz
  1  'x, y, z'
loop_
 _atom_site_type_symbol
 _atom_site_label
 _atom_site_symmetry_multiplicity
 _atom_site_fract_x
 _atom_site_fract_y
 _atom_site_fract_z
 _atom_site_occupancy
  Sr  Sr0  1  0.24776516  0.12465773  1.00000000  1
  Sr  Sr1  1  0.75223484  0.62465773  0.00000000  1
  Sm  Sm2  1  0.98922285  0.48618068  0.40968016  1
  Sm  Sm3  1  0.01077715  -0.01381932  0.59031984  1
  Sm  Sm4  1  0.42045731  -0.01381932  0.40968016  1
  Sm  Sm5  1  0.57954269  0.48618068  0.59031984  1
  Nb  Nb6  1  0.16244026  0.60967376  0.83228455  1
  Nb  Nb7  1  0.83755974  0.10967376  0.16771545  1
  Nb  Nb8  1  0.66984429  0.10967376  0.83228455  1
  Nb  Nb9  1  0.33015571  0.60967376  0.16771545  1
  O  O10  1  0.31102933  0.58339879  0.00000000  1
  O  O11  1  0.68897067  0.08339879  1.00000000  1
  O  O12  1  -0.01505461  0.61273641  0.69044137  1
  O  O13  1  1.01505461  1.11273641  0.30955863  1
  O  O14  1  0.70549598  1.11273641  0.69044137  1
  O  O15  1  0.29450402  0.61273641  0.30955863  1
  O  O16  1  0.25471545  0.24452461  0.51775708  1
  O  O17  1  0.74528455  0.74452461  0.48224292  1
  O  O18  1  0.26304163  0.74452461  0.51775708  1
  O  O19  1  0.73695837  0.24452461  0.48224292  1
  O  O20  1  0.91412396  0.36325077  0.87161704  1
  O  O21  1  0.08587604  0.86325077  0.12838296  1
  O  O22  1  0.95749308  0.86325077  0.87161704  1
  O  O23  1  0.04250692  0.36325077  0.12838296  1
  O  O24  1  0.56518488  0.31466052  0.18104694  1
  O  O25  1  0.43481512  0.81466052  0.81895306  1
  O  O26  1  0.61586206  0.81466052  0.18104694  1
  O  O27  1  0.38413794  0.31466052  0.81895306  1
