# generated using pymatgen
data_CoO2
_symmetry_space_group_name_H-M   'P 1'
_cell_length_a   5.66420569
_cell_length_b   5.66420534
_cell_length_c   5.56889657
_cell_angle_alpha   119.44492094
_cell_angle_beta   119.44492994
_cell_angle_gamma   91.70906352
_symmetry_Int_Tables_number   1
_chemical_formula_structural   CoO2
_chemical_formula_sum   'Co4 O8'
_cell_volume   126.51180965
_cell_formula_units_Z   4
loop_
 _symmetry_equiv_pos_site_id
 _symmetry_equiv_pos_as_xyz
  1  'x, y, z'
loop_
 _atom_site_type_symbol
 _atom_site_label
 _atom_site_symmetry_multiplicity
 _atom_site_fract_x
 _atom_site_fract_y
 _atom_site_fract_z
 _atom_site_occupancy
  Co  Co0  1  0.50000000  0.50000100  0.00000100  1
  Co  Co1  1  0.00000100  0.00000000  0.50000000  1
  Co  Co2  1  0.00000200  0.50000100  0.00000100  1
  Co  Co3  1  0.00000000  0.50000100  0.50000100  1
  O  O4  1  0.76511008  0.73488992  0.02569628  1
  O  O5  1  0.20915767  0.73963956  0.47439862  1
  O  O6  1  0.23488992  0.26511008  0.97430272  1
  O  O7  1  0.23964056  0.70915767  0.97439862  1
  O  O8  1  0.79084333  0.26036044  0.52560138  1
  O  O9  1  0.23488992  0.26511008  0.52569628  1
  O  O10  1  0.76036144  0.29084133  0.02560138  1
  O  O11  1  0.76511208  0.73488992  0.47430472  1
