# generated using pymatgen
data_V2CuS4
_symmetry_space_group_name_H-M   'P 1'
_cell_length_a   6.98089442
_cell_length_b   6.98089442
_cell_length_c   6.98089442
_cell_angle_alpha   59.99999998
_cell_angle_beta   60.00000000
_cell_angle_gamma   59.99999995
_symmetry_Int_Tables_number   1
_chemical_formula_structural   V2CuS4
_chemical_formula_sum   'V4 Cu2 S8'
_cell_volume   240.55711742
_cell_formula_units_Z   2
loop_
 _symmetry_equiv_pos_site_id
 _symmetry_equiv_pos_as_xyz
  1  'x, y, z'
loop_
 _atom_site_type_symbol
 _atom_site_label
 _atom_site_symmetry_multiplicity
 _atom_site_fract_x
 _atom_site_fract_y
 _atom_site_fract_z
 _atom_site_occupancy
  S  S0  1  0.25607353  0.73177941  0.25607353  1
  S  S1  1  0.74392647  0.74392647  0.74392647  1
  S  S2  1  0.25607353  0.25607353  0.25607353  1
  S  S3  1  0.74392647  0.74392647  0.26822059  1
  S  S4  1  0.26822059  0.74392647  0.74392647  1
  S  S5  1  0.25607353  0.25607353  0.73177941  1
  S  S6  1  0.73177941  0.25607353  0.25607353  1
  S  S7  1  0.74392647  0.26822059  0.74392647  1
  V  V8  1  0.50000000  0.50000000  0.00000000  1
  V  V9  1  0.00000000  0.50000000  0.50000000  1
  V  V10  1  0.50000000  0.50000000  0.50000000  1
  V  V11  1  0.50000000  0.00000000  0.50000000  1
  Cu  Cu12  1  0.12500000  0.12500000  0.12500000  1
  Cu  Cu13  1  0.87500000  0.87500000  0.87500000  1
