# generated using pymatgen
data_AlFe(WO4)2
_symmetry_space_group_name_H-M   'P 1'
_cell_length_a   5.08683346
_cell_length_b   5.73033199
_cell_length_c   6.12314112
_cell_angle_alpha   102.89665843
_cell_angle_beta   122.18277300
_cell_angle_gamma   91.79683237
_symmetry_Int_Tables_number   1
_chemical_formula_structural   AlFe(WO4)2
_chemical_formula_sum   'Al1 Fe1 W2 O8'
_cell_volume   144.78865501
_cell_formula_units_Z   1
loop_
 _symmetry_equiv_pos_site_id
 _symmetry_equiv_pos_as_xyz
  1  'x, y, z'
loop_
 _atom_site_type_symbol
 _atom_site_label
 _atom_site_symmetry_multiplicity
 _atom_site_fract_x
 _atom_site_fract_y
 _atom_site_fract_z
 _atom_site_occupancy
  Al  Al0  1  0.63491009  0.66109339  0.04528359  1
  Fe  Fe1  1  0.11369708  0.21361022  0.09922649  1
  W  W2  1  0.86300859  0.41261416  0.59085925  1
  W  W3  1  0.35507706  0.04723483  0.60744679  1
  O  O4  1  0.21951597  0.65839641  0.86863780  1
  O  O5  1  0.60300426  0.52966538  0.30285936  1
  O  O6  1  0.15517225  0.16512596  0.79276983  1
  O  O7  1  0.53359532  0.08619530  0.40543050  1
  O  O8  1  0.65528776  0.90911969  0.86677092  1
  O  O9  1  0.04272997  0.79701147  0.33675869  1
  O  O10  1  0.10667494  0.29764433  0.42416170  1
  O  O11  1  0.71332673  0.40078686  0.85589108  1
