# generated using pymatgen
data_V2MoO8
_symmetry_space_group_name_H-M   'P 1'
_cell_length_a   3.77605086
_cell_length_b   3.90943494
_cell_length_c   9.94036207
_cell_angle_alpha   90.13298580
_cell_angle_beta   100.94776959
_cell_angle_gamma   90.00004582
_symmetry_Int_Tables_number   1
_chemical_formula_structural   V2MoO8
_chemical_formula_sum   'V2 Mo1 O8'
_cell_volume   144.07086363
_cell_formula_units_Z   1
loop_
 _symmetry_equiv_pos_site_id
 _symmetry_equiv_pos_as_xyz
  1  'x, y, z'
loop_
 _atom_site_type_symbol
 _atom_site_label
 _atom_site_symmetry_multiplicity
 _atom_site_fract_x
 _atom_site_fract_y
 _atom_site_fract_z
 _atom_site_occupancy
  Mo  Mo0  1  0.99999736  -0.00000526  0.99999702  1
  V  V1  1  0.81019114  0.91173063  0.62042167  1
  V  V2  1  0.18980580  0.08824810  0.37957145  1
  O  O3  1  0.50000223  0.00000348  0.00000368  1
  O  O4  1  0.00000090  0.50000541  0.00000124  1
  O  O5  1  0.81139466  0.49374298  0.62279397  1
  O  O6  1  0.18860516  0.50627653  0.37720705  1
  O  O7  1  0.90133759  0.99454383  0.80265510  1
  O  O8  1  0.09866430  0.00545892  0.19734795  1
  O  O9  1  0.70913748  0.00759504  0.41829075  1
  O  O10  1  0.29086339  0.99240035  0.58171112  1
