# generated using pymatgen
data_GaH20C2S2NO14
_symmetry_space_group_name_H-M   'P 1'
_cell_length_a   6.51158132
_cell_length_b   10.62989220
_cell_length_c   11.79942828
_cell_angle_alpha   90.00000000
_cell_angle_beta   99.84169910
_cell_angle_gamma   90.00000000
_symmetry_Int_Tables_number   1
_chemical_formula_structural   GaH20C2S2NO14
_chemical_formula_sum   'Ga2 H40 C4 S4 N2 O28'
_cell_volume   804.70670296
_cell_formula_units_Z   2
loop_
 _symmetry_equiv_pos_site_id
 _symmetry_equiv_pos_as_xyz
  1  'x, y, z'
loop_
 _atom_site_type_symbol
 _atom_site_label
 _atom_site_symmetry_multiplicity
 _atom_site_fract_x
 _atom_site_fract_y
 _atom_site_fract_z
 _atom_site_occupancy
  Ga  Ga0  1  0.99128720  0.74532188  0.49909930  1
  Ga  Ga1  1  0.49128720  0.25467812  0.99909930  1
  H  H2  1  0.73719431  0.19775349  0.49504110  1
  H  H3  1  0.35827055  0.06738962  0.85762147  1
  H  H4  1  0.80045288  0.27185524  0.88055517  1
  H  H5  1  0.23719431  0.80224651  0.99504110  1
  H  H6  1  0.71648102  0.41267180  0.90376852  1
  H  H7  1  0.82979865  0.22227766  0.15883165  1
  H  H8  1  0.15606918  0.28342032  0.84164048  1
  H  H9  1  0.85827055  0.93261038  0.35762147  1
  H  H10  1  0.94238860  0.68358435  0.12165168  1
  H  H11  1  0.81787614  0.69373447  0.91562604  1
  H  H12  1  0.98322926  0.85040822  0.11965902  1
  H  H13  1  0.72362012  0.78773218  0.08296690  1
  H  H14  1  0.36938395  0.44744035  0.11325325  1
  H  H15  1  0.64321397  0.25256173  0.35135798  1
  H  H16  1  0.21648102  0.58732820  0.40376852  1
  H  H17  1  0.30045288  0.72814476  0.38055517  1
  H  H18  1  0.30868672  0.40412592  0.82688608  1
  H  H19  1  0.44238860  0.31641565  0.62165168  1
  H  H20  1  0.16942626  0.63927754  0.96991153  1
  H  H21  1  0.32979865  0.77772234  0.65883165  1
  H  H22  1  0.48322926  0.14959178  0.61965902  1
  H  H23  1  0.12679871  0.56255617  0.64238244  1
  H  H24  1  0.14321397  0.74743827  0.85135798  1
  H  H25  1  0.87156781  0.85003885  0.91576184  1
  H  H26  1  0.67137682  0.10569795  0.17544434  1
  H  H27  1  0.61695014  0.06111339  0.88447038  1
  H  H28  1  0.17137682  0.89430205  0.67544434  1
  H  H29  1  0.18168223  0.23107240  0.11556194  1
  H  H30  1  0.80868672  0.59587408  0.32688608  1
  H  H31  1  0.86938395  0.55255965  0.61325325  1
  H  H32  1  0.68168223  0.76892760  0.61556194  1
  H  H33  1  0.37156781  0.14996115  0.41576184  1
  H  H34  1  0.66942626  0.36072246  0.46991153  1
  H  H35  1  0.31787614  0.30626553  0.41562604  1
  H  H36  1  0.22362012  0.21226782  0.58296690  1
  H  H37  1  0.77795070  0.90677174  0.59505962  1
  H  H38  1  0.62679871  0.43744383  0.14238244  1
  H  H39  1  0.11695014  0.93888661  0.38447038  1
  H  H40  1  0.27795070  0.09322826  0.09505962  1
  H  H41  1  0.65606918  0.71657968  0.34164048  1
  C  C42  1  0.13287046  0.73606177  0.94242918  1
  C  C43  1  0.63287046  0.26393823  0.44242918  1
  C  C44  1  0.88875527  0.77211137  0.07948993  1
  C  C45  1  0.38875527  0.22788863  0.57948993  1
  S  S46  1  0.93126012  0.06450192  0.76528691  1
  S  S47  1  0.56064411  0.57154697  0.73635435  1
  S  S48  1  0.06064411  0.42845303  0.23635435  1
  S  S49  1  0.43126012  0.93549808  0.26528691  1
  N  N50  1  0.41469180  0.23550609  0.45672862  1
  N  N51  1  0.91469180  0.76449391  0.95672862  1
  O  O52  1  0.25638981  0.18164530  0.06242919  1
  O  O53  1  0.82436320  0.00060449  0.85260578  1
  O  O54  1  0.69872832  0.17625170  0.12397945  1
  O  O55  1  0.44450045  0.79762965  0.29140032  1
  O  O56  1  0.72890872  0.32313268  0.93352663  1
  O  O57  1  0.19872832  0.82374830  0.62397945  1
  O  O58  1  0.64677063  0.98859208  0.27196649  1
  O  O59  1  0.68873656  0.55506089  0.85352688  1
  O  O60  1  0.22890872  0.67686732  0.43352663  1
  O  O61  1  0.84564527  0.47828001  0.23718580  1
  O  O62  1  0.81218197  0.04400286  0.64799245  1
  O  O63  1  0.94450045  0.20237035  0.79140032  1
  O  O64  1  0.75638981  0.81835470  0.56242919  1
  O  O65  1  0.15778345  0.49526912  0.14879850  1
  O  O66  1  0.54758113  0.71012132  0.71009134  1
  O  O67  1  0.04758113  0.28987868  0.21009134  1
  O  O68  1  0.49942574  0.41576498  0.08562158  1
  O  O69  1  0.32436320  0.99939551  0.35260578  1
  O  O70  1  0.34564527  0.52171999  0.73718580  1
  O  O71  1  0.48758763  0.09693887  0.90940585  1
  O  O72  1  0.31218197  0.95599714  0.14799245  1
  O  O73  1  0.77687213  0.66439016  0.37973103  1
  O  O74  1  0.65778345  0.50473088  0.64879850  1
  O  O75  1  0.27687213  0.33560984  0.87973103  1
  O  O76  1  0.98758763  0.90306113  0.40940585  1
  O  O77  1  0.18873656  0.44493911  0.35352688  1
  O  O78  1  0.99942574  0.58423502  0.58562158  1
  O  O79  1  0.14677063  0.01140792  0.77196649  1
