# generated using pymatgen
data_AlCo(WO4)2
_symmetry_space_group_name_H-M   'P 1'
_cell_length_a   5.05992438
_cell_length_b   5.74262531
_cell_length_c   5.98455292
_cell_angle_alpha   104.88440506
_cell_angle_beta   121.31627435
_cell_angle_gamma   90.14514411
_symmetry_Int_Tables_number   1
_chemical_formula_structural   AlCo(WO4)2
_chemical_formula_sum   'Al1 Co1 W2 O8'
_cell_volume   141.61290541
_cell_formula_units_Z   1
loop_
 _symmetry_equiv_pos_site_id
 _symmetry_equiv_pos_as_xyz
  1  'x, y, z'
loop_
 _atom_site_type_symbol
 _atom_site_label
 _atom_site_symmetry_multiplicity
 _atom_site_fract_x
 _atom_site_fract_y
 _atom_site_fract_z
 _atom_site_occupancy
  Al  Al0  1  0.62183157  0.77833265  0.14506865  1
  Co  Co1  1  0.16332653  0.32163392  0.12878104  1
  W  W2  1  0.89005929  0.39123189  0.59327602  1
  W  W3  1  0.38462660  0.02727503  0.60207689  1
  O  O4  1  0.20327039  0.63966627  0.86302193  1
  O  O5  1  0.59325422  0.53716365  0.33181924  1
  O  O6  1  0.14522313  0.15403139  0.78725841  1
  O  O7  1  0.54521524  0.04332283  0.34696896  1
  O  O8  1  0.62413776  0.89835022  0.88121781  1
  O  O9  1  0.03763021  0.76455477  0.32336505  1
  O  O10  1  0.08035411  0.25824093  0.39050867  1
  O  O11  1  0.70707095  0.36469247  0.80273432  1
