# generated using pymatgen
data_SiO2
_symmetry_space_group_name_H-M   'P 1'
_cell_length_a   4.93388089
_cell_length_b   7.18389734
_cell_length_c   7.00450120
_cell_angle_alpha   122.92115773
_cell_angle_beta   83.64618556
_cell_angle_gamma   109.08100705
_symmetry_Int_Tables_number   1
_chemical_formula_structural   SiO2
_chemical_formula_sum   'Si4 O8'
_cell_volume   196.24951748
_cell_formula_units_Z   4
loop_
 _symmetry_equiv_pos_site_id
 _symmetry_equiv_pos_as_xyz
  1  'x, y, z'
loop_
 _atom_site_type_symbol
 _atom_site_label
 _atom_site_symmetry_multiplicity
 _atom_site_fract_x
 _atom_site_fract_y
 _atom_site_fract_z
 _atom_site_occupancy
  Si  Si0  1  0.89625401  0.42259718  0.94907260  1
  Si  Si1  1  0.04448649  0.95917504  0.20083516  1
  Si  Si2  1  0.31002117  0.13632392  0.88909696  1
  Si  Si3  1  0.55655628  0.13020358  0.50309666  1
  O  O4  1  0.39047830  0.98212781  0.62286053  1
  O  O5  1  0.02738643  0.70083980  0.13504653  1
  O  O6  1  0.11016088  0.97003674  0.97299632  1
  O  O7  1  0.30617948  0.16204118  0.40009699  1
  O  O8  1  0.14572192  0.30567950  0.90333791  1
  O  O9  1  0.62082541  0.30047209  0.04452389  1
  O  O10  1  0.73874617  0.99925843  0.29190249  1
  O  O11  1  0.77623346  0.37674674  0.71038595  1
