# generated using pymatgen
data_Na3AlF6
_symmetry_space_group_name_H-M   'P 1'
_cell_length_a   5.82212787
_cell_length_b   5.69065166
_cell_length_c   5.69065166
_cell_angle_alpha   58.30591688
_cell_angle_beta   59.23274047
_cell_angle_gamma   59.23274046
_symmetry_Int_Tables_number   1
_chemical_formula_structural   Na3AlF6
_chemical_formula_sum   'Na3 Al1 F6'
_cell_volume   130.02106107
_cell_formula_units_Z   1
loop_
 _symmetry_equiv_pos_site_id
 _symmetry_equiv_pos_as_xyz
  1  'x, y, z'
loop_
 _atom_site_type_symbol
 _atom_site_label
 _atom_site_symmetry_multiplicity
 _atom_site_fract_x
 _atom_site_fract_y
 _atom_site_fract_z
 _atom_site_occupancy
  F  F0  1  0.78207031  0.76428955  0.23571045  1
  F  F1  1  0.78207031  0.23571045  0.76428955  1
  F  F2  1  0.21792969  0.76428955  0.23571045  1
  F  F3  1  0.21792969  0.23571045  0.76428955  1
  F  F4  1  0.22622165  0.77377835  0.77377835  1
  F  F5  1  0.77377835  0.22622165  0.22622165  1
  Na  Na6  1  0.21859564  0.28140436  0.28140436  1
  Na  Na7  1  0.78140436  0.71859564  0.71859564  1
  Na  Na8  1  0.50000000  0.50000000  0.50000000  1
  Al  Al9  1  0.00000000  0.00000000  0.00000000  1
