# generated using pymatgen
data_Ga(MoSe2)4
_symmetry_space_group_name_H-M   'P 1'
_cell_length_a   7.28172128
_cell_length_b   7.28172128
_cell_length_c   7.28172128
_cell_angle_alpha   60.00000001
_cell_angle_beta   59.99999999
_cell_angle_gamma   60.00000001
_symmetry_Int_Tables_number   1
_chemical_formula_structural   Ga(MoSe2)4
_chemical_formula_sum   'Ga1 Mo4 Se8'
_cell_volume   273.01540746
_cell_formula_units_Z   1
loop_
 _symmetry_equiv_pos_site_id
 _symmetry_equiv_pos_as_xyz
  1  'x, y, z'
loop_
 _atom_site_type_symbol
 _atom_site_label
 _atom_site_symmetry_multiplicity
 _atom_site_fract_x
 _atom_site_fract_y
 _atom_site_fract_z
 _atom_site_occupancy
  Ga  Ga0  1  0.00000000  0.00000000  0.00000000  1
  Se  Se1  1  0.13727153  0.58818542  0.13727153  1
  Se  Se2  1  0.58818542  0.13727153  0.13727153  1
  Se  Se3  1  0.13727153  0.13727153  0.58818542  1
  Se  Se4  1  0.63552297  0.63552297  0.63552297  1
  Se  Se5  1  0.63552297  0.63552297  0.09343108  1
  Se  Se6  1  0.09343108  0.63552297  0.63552297  1
  Se  Se7  1  0.63552297  0.09343108  0.63552297  1
  Se  Se8  1  0.13727153  0.13727153  0.13727153  1
  Mo  Mo9  1  0.39996004  0.80011988  0.39996004  1
  Mo  Mo10  1  0.80011988  0.39996004  0.39996004  1
  Mo  Mo11  1  0.39996004  0.39996004  0.80011988  1
  Mo  Mo12  1  0.39996004  0.39996004  0.39996004  1
