# generated using pymatgen
data_FeS3(NCl2)2
_symmetry_space_group_name_H-M   'P 1'
_cell_length_a   11.83525551
_cell_length_b   12.66152579
_cell_length_c   14.41256325
_cell_angle_alpha   102.03890239
_cell_angle_beta   90.00000000
_cell_angle_gamma   90.00000000
_symmetry_Int_Tables_number   1
_chemical_formula_structural   FeS3(NCl2)2
_chemical_formula_sum   'Fe8 S24 N16 Cl32'
_cell_volume   2112.25584345
_cell_formula_units_Z   8
loop_
 _symmetry_equiv_pos_site_id
 _symmetry_equiv_pos_as_xyz
  1  'x, y, z'
loop_
 _atom_site_type_symbol
 _atom_site_label
 _atom_site_symmetry_multiplicity
 _atom_site_fract_x
 _atom_site_fract_y
 _atom_site_fract_z
 _atom_site_occupancy
  Fe  Fe0  1  0.64731407  0.96670423  0.26461174  1
  Fe  Fe1  1  0.19711373  0.44601701  0.23236011  1
  Fe  Fe2  1  0.80288627  0.55398299  0.76763989  1
  Fe  Fe3  1  0.69711373  0.55398299  0.26763989  1
  Fe  Fe4  1  0.14731407  0.03329577  0.23538826  1
  Fe  Fe5  1  0.85268593  0.96670423  0.76461174  1
  Fe  Fe6  1  0.30288627  0.44601701  0.73236011  1
  Fe  Fe7  1  0.35268593  0.03329577  0.73538826  1
  S  S8  1  0.46936337  0.26191450  0.07045795  1
  S  S9  1  0.53063663  0.73808550  0.92954205  1
  S  S10  1  0.01879361  0.22884749  0.94862236  1
  S  S11  1  0.85673148  0.12990114  0.48308049  1
  S  S12  1  0.87336980  0.28475520  0.43322850  1
  S  S13  1  0.84236877  0.36011115  0.03193460  1
  S  S14  1  0.35673148  0.87009886  0.01691951  1
  S  S15  1  0.96936337  0.73808550  0.42954205  1
  S  S16  1  0.14395896  0.79666043  0.91945927  1
  S  S17  1  0.85604104  0.20333957  0.08054073  1
  S  S18  1  0.35604104  0.79666043  0.41945927  1
  S  S19  1  0.98120639  0.77115251  0.05137764  1
  S  S20  1  0.37336980  0.71524480  0.06677150  1
  S  S21  1  0.03063663  0.26191450  0.57045795  1
  S  S22  1  0.65763123  0.36011115  0.53193460  1
  S  S23  1  0.15763123  0.63988885  0.96806540  1
  S  S24  1  0.64395896  0.20333957  0.58054073  1
  S  S25  1  0.62663020  0.28475520  0.93322850  1
  S  S26  1  0.64326852  0.12990114  0.98308049  1
  S  S27  1  0.14326852  0.87009886  0.51691951  1
  S  S28  1  0.34236877  0.63988885  0.46806540  1
  S  S29  1  0.51879361  0.77115251  0.55137764  1
  S  S30  1  0.48120639  0.22884749  0.44862236  1
  S  S31  1  0.12663020  0.71524480  0.56677150  1
  N  N32  1  0.94977903  0.33809359  0.96354390  1
  N  N33  1  0.03985998  0.84665185  0.44374589  1
  N  N34  1  0.02011960  0.67191548  0.50150451  1
  N  N35  1  0.46368127  0.83945598  0.48258233  1
  N  N36  1  0.46014002  0.84665185  0.94374589  1
  N  N37  1  0.55022097  0.33809359  0.46354390  1
  N  N38  1  0.52011960  0.32808452  0.99849549  1
  N  N39  1  0.05022097  0.66190641  0.03645610  1
  N  N40  1  0.44977903  0.66190641  0.53645610  1
  N  N41  1  0.47988040  0.67191548  0.00150451  1
  N  N42  1  0.97988040  0.32808452  0.49849549  1
  N  N43  1  0.53985998  0.15334815  0.05625411  1
  N  N44  1  0.53631873  0.16054402  0.51741767  1
  N  N45  1  0.96368127  0.16054402  0.01741767  1
  N  N46  1  0.03631873  0.83945598  0.98258233  1
  N  N47  1  0.96014002  0.15334815  0.55625411  1
  Cl  Cl48  1  0.19731814  0.85756287  0.18835843  1
  Cl  Cl49  1  0.03734795  0.96618218  0.77722341  1
  Cl  Cl50  1  0.77402496  0.87901222  0.86324959  1
  Cl  Cl51  1  0.68604467  0.37641019  0.20043617  1
  Cl  Cl52  1  0.83399446  0.62279117  0.19688193  1
  Cl  Cl53  1  0.81395533  0.37641019  0.70043617  1
  Cl  Cl54  1  0.23771021  0.43173701  0.08034103  1
  Cl  Cl55  1  0.16600554  0.37720883  0.80311807  1
  Cl  Cl56  1  0.53278547  0.62727575  0.25034934  1
  Cl  Cl57  1  0.80551054  0.90640052  0.61537702  1
  Cl  Cl58  1  0.30551054  0.09359948  0.88462298  1
  Cl  Cl59  1  0.46721453  0.37272425  0.74965066  1
  Cl  Cl60  1  0.19448946  0.09359948  0.38462298  1
  Cl  Cl61  1  0.30268186  0.85756287  0.68835843  1
  Cl  Cl62  1  0.72597504  0.87901222  0.36324959  1
  Cl  Cl63  1  0.46265205  0.96618218  0.27722341  1
  Cl  Cl64  1  0.73771021  0.56826299  0.41965897  1
  Cl  Cl65  1  0.66600554  0.62279117  0.69688193  1
  Cl  Cl66  1  0.76228979  0.56826299  0.91965897  1
  Cl  Cl67  1  0.69448946  0.90640052  0.11537702  1
  Cl  Cl68  1  0.22597504  0.12098778  0.13675041  1
  Cl  Cl69  1  0.26228979  0.43173701  0.58034103  1
  Cl  Cl70  1  0.53734795  0.03381782  0.72277659  1
  Cl  Cl71  1  0.96265205  0.03381782  0.22277659  1
  Cl  Cl72  1  0.33399446  0.37720883  0.30311807  1
  Cl  Cl73  1  0.31395533  0.62358981  0.79956383  1
  Cl  Cl74  1  0.96721453  0.62727575  0.75034934  1
  Cl  Cl75  1  0.69731814  0.14243713  0.31164157  1
  Cl  Cl76  1  0.18604467  0.62358981  0.29956383  1
  Cl  Cl77  1  0.80268186  0.14243713  0.81164157  1
  Cl  Cl78  1  0.03278547  0.37272425  0.24965066  1
  Cl  Cl79  1  0.27402496  0.12098778  0.63675041  1
