# generated using pymatgen
data_SrV13O18
_symmetry_space_group_name_H-M   'P 1'
_cell_length_a   7.99473072
_cell_length_b   7.99473086
_cell_length_c   7.99473079
_cell_angle_alpha   110.69090505
_cell_angle_beta   110.69090545
_cell_angle_gamma   110.69091456
_symmetry_Int_Tables_number   1
_chemical_formula_structural   SrV13O18
_chemical_formula_sum   'Sr1 V13 O18'
_cell_volume   374.54590735
_cell_formula_units_Z   1
loop_
 _symmetry_equiv_pos_site_id
 _symmetry_equiv_pos_as_xyz
  1  'x, y, z'
loop_
 _atom_site_type_symbol
 _atom_site_label
 _atom_site_symmetry_multiplicity
 _atom_site_fract_x
 _atom_site_fract_y
 _atom_site_fract_z
 _atom_site_occupancy
  Sr  Sr0  1  0.00000000  0.00000000  0.00000000  1
  V  V1  1  0.50000000  0.50000000  0.50000000  1
  V  V2  1  0.07208682  0.87939019  0.56390083  1
  V  V3  1  0.56390083  0.07208682  0.87939019  1
  V  V4  1  0.87939019  0.56390083  0.07208682  1
  V  V5  1  0.92791318  0.12060981  0.43609917  1
  V  V6  1  0.43609917  0.92791318  0.12060981  1
  V  V7  1  0.12060981  0.43609917  0.92791318  1
  V  V8  1  0.60054172  0.65772586  0.23284663  1
  V  V9  1  0.23284663  0.60054172  0.65772586  1
  V  V10  1  0.65772586  0.23284663  0.60054172  1
  V  V11  1  0.39945828  0.34227414  0.76715337  1
  V  V12  1  0.76715337  0.39945828  0.34227414  1
  V  V13  1  0.34227414  0.76715337  0.39945828  1
  O  O14  1  0.50338001  0.22732695  0.33127732  1
  O  O15  1  0.33127732  0.50338001  0.22732695  1
  O  O16  1  0.22732695  0.33127732  0.50338001  1
  O  O17  1  0.49661999  0.77267305  0.66872268  1
  O  O18  1  0.66872268  0.49661999  0.77267305  1
  O  O19  1  0.77267305  0.66872268  0.49661999  1
  O  O20  1  0.87828478  0.82655903  0.26078343  1
  O  O21  1  0.26078343  0.87828478  0.82655903  1
  O  O22  1  0.82655903  0.26078343  0.87828478  1
  O  O23  1  0.12171522  0.17344097  0.73921657  1
  O  O24  1  0.73921657  0.12171522  0.17344097  1
  O  O25  1  0.17344097  0.73921657  0.12171522  1
  O  O26  1  0.61685663  0.94790446  0.40273715  1
  O  O27  1  0.40273715  0.61685663  0.94790446  1
  O  O28  1  0.94790446  0.40273715  0.61685663  1
  O  O29  1  0.38314337  0.05209554  0.59726285  1
  O  O30  1  0.59726285  0.38314337  0.05209554  1
  O  O31  1  0.05209554  0.59726285  0.38314337  1
