# generated using pymatgen
data_Ca3SiO5
_symmetry_space_group_name_H-M   'P 1'
_cell_length_a   7.15941375
_cell_length_b   7.15941299
_cell_length_c   9.59815907
_cell_angle_alpha   89.93425635
_cell_angle_beta   111.98353959
_cell_angle_gamma   119.97916025
_symmetry_Int_Tables_number   1
_chemical_formula_structural   Ca3SiO5
_chemical_formula_sum   'Ca9 Si3 O15'
_cell_volume   384.43736094
_cell_formula_units_Z   3
loop_
 _symmetry_equiv_pos_site_id
 _symmetry_equiv_pos_as_xyz
  1  'x, y, z'
loop_
 _atom_site_type_symbol
 _atom_site_label
 _atom_site_symmetry_multiplicity
 _atom_site_fract_x
 _atom_site_fract_y
 _atom_site_fract_z
 _atom_site_occupancy
  Ca  Ca0  1  0.51354811  0.49641123  0.00995934  1
  Ca  Ca1  1  0.43659105  0.71791839  0.67638382  1
  Ca  Ca2  1  0.02952347  0.74040062  0.31842666  1
  Ca  Ca3  1  0.57802604  0.28890319  0.31842666  1
  Ca  Ca4  1  0.03140312  0.28902237  0.32042549  1
  Ca  Ca5  1  0.95846542  0.23979276  0.67638382  1
  Ca  Ca6  1  0.51531559  0.01477268  0.01230266  1
  Ca  Ca7  1  0.96020919  0.71811534  0.67832453  1
  Ca  Ca8  1  0.99752998  0.49698607  0.01230266  1
  Si  Si9  1  0.56217613  0.77922352  0.34139966  1
  Si  Si10  1  0.43052839  0.21468602  0.64521441  1
  Si  Si11  1  0.00006656  0.99948251  0.99954907  1
  O  O12  1  0.30139383  0.14998235  0.45137718  1
  O  O13  1  0.91794431  0.14523414  0.06317845  1
  O  O14  1  0.26040497  0.62958969  0.88999466  1
  O  O15  1  0.35051260  0.98705552  0.71265251  1
  O  O16  1  0.00277184  0.50175539  0.50452723  1
  O  O17  1  0.76629527  0.38196643  0.14826270  1
  O  O18  1  0.29097100  0.14352189  0.05876391  1
  O  O19  1  0.27059709  0.63500336  0.28054446  1
  O  O20  1  0.87202842  0.93949315  0.81152157  1
  O  O21  1  0.64554110  0.00994738  0.28054446  1
  O  O22  1  0.64196480  0.63308446  0.27504926  1
  O  O23  1  0.72559698  0.36213991  0.71265251  1
  O  O24  1  0.34954828  0.36215197  0.71169925  1
  O  O25  1  0.69090243  0.83906575  0.52996819  1
  O  O26  1  0.91524202  0.76779290  0.05876391  1
