# generated using pymatgen
data_Al5(CuO4)3
_symmetry_space_group_name_H-M   'P 1'
_cell_length_a   17.31619671
_cell_length_b   5.79439197
_cell_length_c   5.76564588
_cell_angle_alpha   60.16397964
_cell_angle_beta   60.03678636
_cell_angle_gamma   60.26510218
_symmetry_Int_Tables_number   1
_chemical_formula_structural   Al5(CuO4)3
_chemical_formula_sum   'Al10 Cu6 O24'
_cell_volume   410.50153128
_cell_formula_units_Z   2
loop_
 _symmetry_equiv_pos_site_id
 _symmetry_equiv_pos_as_xyz
  1  'x, y, z'
loop_
 _atom_site_type_symbol
 _atom_site_label
 _atom_site_symmetry_multiplicity
 _atom_site_fract_x
 _atom_site_fract_y
 _atom_site_fract_z
 _atom_site_occupancy
  Al  Al0  1  0.16423441  0.00436622  0.50146578  1
  Al  Al1  1  0.83576559  0.99563378  0.49853422  1
  Al  Al2  1  0.33407481  0.49328599  0.50224429  1
  Al  Al3  1  0.66592519  0.50671401  0.49775571  1
  Al  Al4  1  0.16384673  0.50218563  0.00495148  1
  Al  Al5  1  0.50000000  0.50000000  0.00000000  1
  Al  Al6  1  0.83615327  0.49781437  0.99504852  1
  Al  Al7  1  0.16384673  0.50218563  0.50132370  1
  Al  Al8  1  0.50000000  0.50000000  0.50000000  1
  Al  Al9  1  0.83615327  0.49781437  0.49867630  1
  Cu  Cu10  1  0.04305309  0.12222032  0.12431071  1
  Cu  Cu11  1  0.37979185  0.12327223  0.11867612  1
  Cu  Cu12  1  0.70593168  0.12317021  0.12951687  1
  Cu  Cu13  1  0.29406832  0.87682979  0.87048313  1
  Cu  Cu14  1  0.62020815  0.87672777  0.88132388  1
  Cu  Cu15  1  0.95694691  0.87777968  0.87568929  1
  O  O16  1  0.24528270  0.73605146  0.73368810  1
  O  O17  1  0.58560129  0.70743529  0.75652839  1
  O  O18  1  0.90188812  0.75783020  0.75695997  1
  O  O19  1  0.09811188  0.24216980  0.72045553  1
  O  O20  1  0.41439871  0.29256471  0.72076756  1
  O  O21  1  0.75471730  0.26394854  0.70558665  1
  O  O22  1  0.09781717  0.72055708  0.24299621  1
  O  O23  1  0.42051183  0.71170521  0.26337964  1
  O  O24  1  0.75462704  0.70558764  0.26526512  1
  O  O25  1  0.23661527  0.26370521  0.26322449  1
  O  O26  1  0.57328628  0.29054672  0.24479672  1
  O  O27  1  0.90470187  0.26258078  0.26165730  1
  O  O28  1  0.24537296  0.29441236  0.73473488  1
  O  O29  1  0.57948817  0.28829479  0.73662036  1
  O  O30  1  0.90218283  0.27944292  0.75700379  1
  O  O31  1  0.09529813  0.73741922  0.73834270  1
  O  O32  1  0.42671372  0.70945328  0.75520328  1
  O  O33  1  0.76338473  0.73629479  0.73677551  1
  O  O34  1  0.09811188  0.24216980  0.24304003  1
  O  O35  1  0.41439871  0.29256471  0.24347161  1
  O  O36  1  0.75471730  0.26394854  0.26631190  1
  O  O37  1  0.24528270  0.73605146  0.29441335  1
  O  O38  1  0.58560129  0.70743529  0.27923244  1
  O  O39  1  0.90188812  0.75783020  0.27954447  1
