# generated using pymatgen
data_K2Mo2P2O11
_symmetry_space_group_name_H-M   'P 1'
_cell_length_a   9.10446929
_cell_length_b   9.44774998
_cell_length_c   11.12085228
_cell_angle_alpha   90.00000000
_cell_angle_beta   90.00000000
_cell_angle_gamma   90.00000000
_symmetry_Int_Tables_number   1
_chemical_formula_structural   K2Mo2P2O11
_chemical_formula_sum   'K8 Mo8 P8 O44'
_cell_volume   956.57956538
_cell_formula_units_Z   4
loop_
 _symmetry_equiv_pos_site_id
 _symmetry_equiv_pos_as_xyz
  1  'x, y, z'
loop_
 _atom_site_type_symbol
 _atom_site_label
 _atom_site_symmetry_multiplicity
 _atom_site_fract_x
 _atom_site_fract_y
 _atom_site_fract_z
 _atom_site_occupancy
  K  K0  1  0.01050889  0.70247846  0.58540957  1
  K  K1  1  0.98949111  0.29752154  0.41459043  1
  K  K2  1  0.48949111  0.20247846  0.41459043  1
  K  K3  1  0.48949111  0.79752154  0.08540957  1
  K  K4  1  0.01050889  0.29752154  0.91459043  1
  K  K5  1  0.51050889  0.79752154  0.58540957  1
  K  K6  1  0.51050889  0.20247846  0.91459043  1
  K  K7  1  0.98949111  0.70247846  0.08540957  1
  Mo  Mo8  1  0.22843306  0.07789734  0.15403498  1
  Mo  Mo9  1  0.77156694  0.07789734  0.65403498  1
  Mo  Mo10  1  0.72843306  0.42210266  0.15403498  1
  Mo  Mo11  1  0.22843306  0.92210266  0.34596502  1
  Mo  Mo12  1  0.27156694  0.42210266  0.65403498  1
  Mo  Mo13  1  0.27156694  0.57789734  0.84596502  1
  Mo  Mo14  1  0.77156694  0.92210266  0.84596502  1
  Mo  Mo15  1  0.72843306  0.57789734  0.34596502  1
  P  P16  1  0.17406730  0.07039814  0.62752259  1
  P  P17  1  0.32593270  0.57039814  0.37247741  1
  P  P18  1  0.32593270  0.42960186  0.12752159  1
  P  P19  1  0.17406730  0.92960186  0.87247741  1
  P  P20  1  0.67406730  0.57039814  0.87247741  1
  P  P21  1  0.82593270  0.07039814  0.12752159  1
  P  P22  1  0.67406730  0.42960186  0.62752259  1
  P  P23  1  0.82593270  0.92960186  0.37247741  1
  O  O24  1  0.80195387  0.12801467  0.82446310  1
  O  O25  1  0.51301551  0.39175481  0.64419735  1
  O  O26  1  0.98698449  0.89175481  0.35580265  1
  O  O27  1  0.30195387  0.62801467  0.67553690  1
  O  O28  1  0.26267968  0.50000000  0.25000000  1
  O  O29  1  0.73732032  0.50000000  0.75000000  1
  O  O30  1  0.80195387  0.87198533  0.67553690  1
  O  O31  1  0.27194671  0.19940105  0.60341435  1
  O  O32  1  0.77194671  0.30059895  0.60341435  1
  O  O33  1  0.69831242  0.45174938  0.96528977  1
  O  O34  1  0.19804613  0.12801467  0.32446310  1
  O  O35  1  0.30168758  0.45174938  0.46528977  1
  O  O36  1  0.27194671  0.80059895  0.89658565  1
  O  O37  1  0.22805329  0.69940105  0.39658565  1
  O  O38  1  0.72805329  0.80059895  0.39658565  1
  O  O39  1  0.72805329  0.19940105  0.10341435  1
  O  O40  1  0.23732032  0.00000000  0.75000000  1
  O  O41  1  0.41760756  0.07866854  0.13726590  1
  O  O42  1  0.91760756  0.57866854  0.36273410  1
  O  O43  1  0.22805329  0.30059895  0.10341435  1
  O  O44  1  0.19831242  0.04825062  0.96528977  1
  O  O45  1  0.69804613  0.37198533  0.32446310  1
  O  O46  1  0.48698449  0.39175481  0.14419735  1
  O  O47  1  0.98698449  0.10824519  0.14419735  1
  O  O48  1  0.19831242  0.95174938  0.53471023  1
  O  O49  1  0.08239244  0.42133146  0.63726590  1
  O  O50  1  0.58239244  0.92133146  0.86273410  1
  O  O51  1  0.77194671  0.69940105  0.89658565  1
  O  O52  1  0.69831242  0.54825062  0.53471023  1
  O  O53  1  0.41760756  0.92133146  0.36273410  1
  O  O54  1  0.51301551  0.60824519  0.85580265  1
  O  O55  1  0.80168758  0.04825062  0.46528977  1
  O  O56  1  0.80168758  0.95174938  0.03471023  1
  O  O57  1  0.69804613  0.62801467  0.17553690  1
  O  O58  1  0.19804613  0.87198533  0.17553690  1
  O  O59  1  0.48698449  0.60824519  0.35580265  1
  O  O60  1  0.01301551  0.89175481  0.85580265  1
  O  O61  1  0.58239244  0.07866854  0.63726590  1
  O  O62  1  0.30195387  0.37198533  0.82446310  1
  O  O63  1  0.08239244  0.57866854  0.86273410  1
  O  O64  1  0.91760756  0.42133146  0.13726590  1
  O  O65  1  0.01301551  0.10824519  0.64419735  1
  O  O66  1  0.76267968  0.00000000  0.25000000  1
  O  O67  1  0.30168758  0.54825062  0.03471023  1
