# generated using pymatgen
data_Zn(CO2)2
_symmetry_space_group_name_H-M   'P 1'
_cell_length_a   5.31173078
_cell_length_b   5.38437936
_cell_length_c   5.94604321
_cell_angle_alpha   112.36054365
_cell_angle_beta   90.00000000
_cell_angle_gamma   90.00000000
_symmetry_Int_Tables_number   1
_chemical_formula_structural   Zn(CO2)2
_chemical_formula_sum   'Zn2 C4 O8'
_cell_volume   157.27201661
_cell_formula_units_Z   2
loop_
 _symmetry_equiv_pos_site_id
 _symmetry_equiv_pos_as_xyz
  1  'x, y, z'
loop_
 _atom_site_type_symbol
 _atom_site_label
 _atom_site_symmetry_multiplicity
 _atom_site_fract_x
 _atom_site_fract_y
 _atom_site_fract_z
 _atom_site_occupancy
  Zn  Zn0  1  0.00000000  0.00000000  0.00000000  1
  Zn  Zn1  1  0.50000000  0.50000000  0.50000000  1
  C  C2  1  0.88762053  0.45561994  0.90998179  1
  C  C3  1  0.38762053  0.04438006  0.59001821  1
  C  C4  1  0.61237947  0.95561994  0.40998179  1
  C  C5  1  0.11237947  0.54438006  0.09001821  1
  O  O6  1  0.69914446  0.72179391  0.36075037  1
  O  O7  1  0.19914446  0.77820609  0.13924963  1
  O  O8  1  0.19541599  0.37704141  0.17582520  1
  O  O9  1  0.30085554  0.27820609  0.63924963  1
  O  O10  1  0.30458401  0.87704141  0.67582520  1
  O  O11  1  0.69541599  0.12295859  0.32417480  1
  O  O12  1  0.80085554  0.22179391  0.86075037  1
  O  O13  1  0.80458401  0.62295859  0.82417480  1
