# generated using pymatgen
data_PbS
_symmetry_space_group_name_H-M   'P 1'
_cell_length_a   4.25427898
_cell_length_b   4.25427819
_cell_length_c   22.43860298
_cell_angle_alpha   93.84784169
_cell_angle_beta   93.84784125
_cell_angle_gamma   90.17182733
_symmetry_Int_Tables_number   1
_chemical_formula_structural   PbS
_chemical_formula_sum   'Pb2 S2'
_cell_volume   404.27336821
_cell_formula_units_Z   2
loop_
 _symmetry_equiv_pos_site_id
 _symmetry_equiv_pos_as_xyz
  1  'x, y, z'
loop_
 _atom_site_type_symbol
 _atom_site_label
 _atom_site_symmetry_multiplicity
 _atom_site_fract_x
 _atom_site_fract_y
 _atom_site_fract_z
 _atom_site_occupancy
  Pb  Pb0  1  0.72628103  0.72999901  0.93744091  1
  Pb  Pb1  1  0.27000099  0.27371897  0.06255909  1
  S  S2  1  0.21132753  0.24820955  0.94203334  1
  S  S3  1  0.75179045  0.78867247  0.05796666  1
