# generated using pymatgen
data_TeH20C6(NCl3)2
_symmetry_space_group_name_H-M   'P 1'
_cell_length_a   12.55800460
_cell_length_b   12.55800460
_cell_length_c   12.55800460
_cell_angle_alpha   90.00000000
_cell_angle_beta   90.00000000
_cell_angle_gamma   90.00000000
_symmetry_Int_Tables_number   1
_chemical_formula_structural   TeH20C6(NCl3)2
_chemical_formula_sum   'Te4 H80 C24 N8 Cl24'
_cell_volume   1980.44102142
_cell_formula_units_Z   4
loop_
 _symmetry_equiv_pos_site_id
 _symmetry_equiv_pos_as_xyz
  1  'x, y, z'
loop_
 _atom_site_type_symbol
 _atom_site_label
 _atom_site_symmetry_multiplicity
 _atom_site_fract_x
 _atom_site_fract_y
 _atom_site_fract_z
 _atom_site_occupancy
  Te  Te0  1  0.00000000  0.00000000  0.00000000  1
  Te  Te1  1  0.00000000  0.50000000  0.50000000  1
  Te  Te2  1  0.50000000  0.50000000  0.00000000  1
  Te  Te3  1  0.50000000  0.00000000  0.50000000  1
  H  H4  1  0.92732911  0.75814205  0.69695453  1
  H  H5  1  0.26424605  0.36076505  0.20082643  1
  H  H6  1  0.84626062  0.34845597  0.86981353  1
  H  H7  1  0.75814205  0.80304547  0.42732911  1
  H  H8  1  0.74185795  0.19695453  0.92732911  1
  H  H9  1  0.79917357  0.73575395  0.63923495  1
  H  H10  1  0.63018647  0.34626062  0.34845597  1
  H  H11  1  0.63923495  0.79917357  0.73575395  1
  H  H12  1  0.63018647  0.15373938  0.84845597  1
  H  H13  1  0.13018647  0.15373938  0.65154403  1
  H  H14  1  0.34845597  0.86981353  0.84626062  1
  H  H15  1  0.80304547  0.42732911  0.75814205  1
  H  H16  1  0.36981353  0.65373938  0.65154403  1
  H  H17  1  0.15154403  0.13018647  0.34626062  1
  H  H18  1  0.24185795  0.30304547  0.07267089  1
  H  H19  1  0.23575395  0.63923495  0.70082643  1
  H  H20  1  0.65628792  0.34371208  0.84371208  1
  H  H21  1  0.84371208  0.65628792  0.34371208  1
  H  H22  1  0.25814205  0.69695453  0.57267089  1
  H  H23  1  0.74185795  0.30304547  0.42732911  1
  H  H24  1  0.19695453  0.57267089  0.24185795  1
  H  H25  1  0.84626062  0.15154403  0.36981353  1
  H  H26  1  0.34626062  0.15154403  0.13018647  1
  H  H27  1  0.34371208  0.65628792  0.15628792  1
  H  H28  1  0.65154403  0.13018647  0.15373938  1
  H  H29  1  0.24185795  0.19695453  0.57267089  1
  H  H30  1  0.65373938  0.84845597  0.86981353  1
  H  H31  1  0.29917357  0.76424605  0.36076505  1
  H  H32  1  0.42732911  0.74185795  0.30304547  1
  H  H33  1  0.13923495  0.70082643  0.26424605  1
  H  H34  1  0.86981353  0.65373938  0.84845597  1
  H  H35  1  0.75814205  0.69695453  0.92732911  1
  H  H36  1  0.19695453  0.92732911  0.74185795  1
  H  H37  1  0.15628792  0.34371208  0.65628792  1
  H  H38  1  0.65628792  0.15628792  0.34371208  1
  H  H39  1  0.57267089  0.25814205  0.69695453  1
  H  H40  1  0.25814205  0.80304547  0.07267089  1
  H  H41  1  0.15154403  0.36981353  0.84626062  1
  H  H42  1  0.34626062  0.34845597  0.63018647  1
  H  H43  1  0.84845597  0.86981353  0.65373938  1
  H  H44  1  0.15373938  0.65154403  0.13018647  1
  H  H45  1  0.70082643  0.23575395  0.63923495  1
  H  H46  1  0.26424605  0.13923495  0.70082643  1
  H  H47  1  0.57267089  0.24185795  0.19695453  1
  H  H48  1  0.36076505  0.29917357  0.76424605  1
  H  H49  1  0.86981353  0.84626062  0.34845597  1
  H  H50  1  0.13018647  0.34626062  0.15154403  1
  H  H51  1  0.76424605  0.36076505  0.29917357  1
  H  H52  1  0.73575395  0.86076505  0.29917357  1
  H  H53  1  0.80304547  0.07267089  0.25814205  1
  H  H54  1  0.65154403  0.36981353  0.65373938  1
  H  H55  1  0.20082643  0.23575395  0.86076505  1
  H  H56  1  0.76424605  0.13923495  0.79917357  1
  H  H57  1  0.70082643  0.26424605  0.13923495  1
  H  H58  1  0.79917357  0.76424605  0.13923495  1
  H  H59  1  0.30304547  0.42732911  0.74185795  1
  H  H60  1  0.69695453  0.57267089  0.25814205  1
  H  H61  1  0.23575395  0.86076505  0.20082643  1
  H  H62  1  0.86076505  0.20082643  0.23575395  1
  H  H63  1  0.69695453  0.92732911  0.75814205  1
  H  H64  1  0.84845597  0.63018647  0.15373938  1
  H  H65  1  0.65373938  0.65154403  0.36981353  1
  H  H66  1  0.84371208  0.84371208  0.84371208  1
  H  H67  1  0.63923495  0.70082643  0.23575395  1
  H  H68  1  0.20082643  0.26424605  0.36076505  1
  H  H69  1  0.34371208  0.84371208  0.65628792  1
  H  H70  1  0.92732911  0.74185795  0.19695453  1
  H  H71  1  0.30304547  0.07267089  0.24185795  1
  H  H72  1  0.15373938  0.84845597  0.63018647  1
  H  H73  1  0.42732911  0.75814205  0.80304547  1
  H  H74  1  0.29917357  0.73575395  0.86076505  1
  H  H75  1  0.07267089  0.25814205  0.80304547  1
  H  H76  1  0.86076505  0.29917357  0.73575395  1
  H  H77  1  0.73575395  0.63923495  0.79917357  1
  H  H78  1  0.36981353  0.84626062  0.15154403  1
  H  H79  1  0.07267089  0.24185795  0.30304547  1
  H  H80  1  0.13923495  0.79917357  0.76424605  1
  H  H81  1  0.34845597  0.63018647  0.34626062  1
  H  H82  1  0.36076505  0.20082643  0.26424605  1
  H  H83  1  0.15628792  0.15628792  0.15628792  1
  C  C84  1  0.71008360  0.18845490  0.84666208  1
  C  C85  1  0.21008360  0.18845490  0.65333792  1
  C  C86  1  0.31154510  0.34666208  0.71008360  1
  C  C87  1  0.15333792  0.21008360  0.31154510  1
  C  C88  1  0.34666208  0.78991640  0.81154510  1
  C  C89  1  0.71008360  0.31154510  0.34666208  1
  C  C90  1  0.18845490  0.84666208  0.71008360  1
  C  C91  1  0.65333792  0.21008360  0.18845490  1
  C  C92  1  0.21008360  0.31154510  0.15333792  1
  C  C93  1  0.68845490  0.65333792  0.28991640  1
  C  C94  1  0.18845490  0.65333792  0.21008360  1
  C  C95  1  0.84666208  0.71008360  0.18845490  1
  C  C96  1  0.28991640  0.81154510  0.15333792  1
  C  C97  1  0.68845490  0.84666208  0.78991640  1
  C  C98  1  0.28991640  0.68845490  0.65333792  1
  C  C99  1  0.81154510  0.34666208  0.78991640  1
  C  C100  1  0.81154510  0.15333792  0.28991640  1
  C  C101  1  0.31154510  0.15333792  0.21008360  1
  C  C102  1  0.78991640  0.68845490  0.84666208  1
  C  C103  1  0.84666208  0.78991640  0.68845490  1
  C  C104  1  0.15333792  0.28991640  0.81154510  1
  C  C105  1  0.65333792  0.28991640  0.68845490  1
  C  C106  1  0.78991640  0.81154510  0.34666208  1
  C  C107  1  0.34666208  0.71008360  0.31154510  1
  N  N108  1  0.20395029  0.29604971  0.70395029  1
  N  N109  1  0.70395029  0.20395029  0.29604971  1
  N  N110  1  0.20395029  0.20395029  0.20395029  1
  N  N111  1  0.29604971  0.79604971  0.70395029  1
  N  N112  1  0.70395029  0.29604971  0.79604971  1
  N  N113  1  0.29604971  0.70395029  0.20395029  1
  N  N114  1  0.79604971  0.70395029  0.29604971  1
  N  N115  1  0.79604971  0.79604971  0.79604971  1
  Cl  Cl116  1  0.03485672  0.52569720  0.70048522  1
  Cl  Cl117  1  0.02569720  0.79951478  0.96514328  1
  Cl  Cl118  1  0.47430280  0.29951478  0.96514328  1
  Cl  Cl119  1  0.53485672  0.97430280  0.29951478  1
  Cl  Cl120  1  0.97430280  0.29951478  0.53485672  1
  Cl  Cl121  1  0.79951478  0.53485672  0.52569720  1
  Cl  Cl122  1  0.52569720  0.79951478  0.53485672  1
  Cl  Cl123  1  0.70048522  0.46514328  0.02569720  1
  Cl  Cl124  1  0.79951478  0.96514328  0.02569720  1
  Cl  Cl125  1  0.29951478  0.96514328  0.47430280  1
  Cl  Cl126  1  0.96514328  0.02569720  0.79951478  1
  Cl  Cl127  1  0.47430280  0.20048522  0.46514328  1
  Cl  Cl128  1  0.53485672  0.52569720  0.79951478  1
  Cl  Cl129  1  0.29951478  0.53485672  0.97430280  1
  Cl  Cl130  1  0.70048522  0.03485672  0.52569720  1
  Cl  Cl131  1  0.52569720  0.70048522  0.03485672  1
  Cl  Cl132  1  0.96514328  0.47430280  0.29951478  1
  Cl  Cl133  1  0.20048522  0.03485672  0.97430280  1
  Cl  Cl134  1  0.46514328  0.02569720  0.70048522  1
  Cl  Cl135  1  0.20048522  0.46514328  0.47430280  1
  Cl  Cl136  1  0.03485672  0.97430280  0.20048522  1
  Cl  Cl137  1  0.97430280  0.20048522  0.03485672  1
  Cl  Cl138  1  0.46514328  0.47430280  0.20048522  1
  Cl  Cl139  1  0.02569720  0.70048522  0.46514328  1
