# generated using pymatgen
data_Be3Fe2(SiO4)3
_symmetry_space_group_name_H-M   'P 1'
_cell_length_a   7.49301474
_cell_length_b   8.04748190
_cell_length_c   13.88430366
_cell_angle_alpha   89.68242706
_cell_angle_beta   90.00000000
_cell_angle_gamma   90.00000000
_symmetry_Int_Tables_number   1
_chemical_formula_structural   Be3Fe2(SiO4)3
_chemical_formula_sum   'Be12 Fe8 Si12 O48'
_cell_volume   837.20926816
_cell_formula_units_Z   4
loop_
 _symmetry_equiv_pos_site_id
 _symmetry_equiv_pos_as_xyz
  1  'x, y, z'
loop_
 _atom_site_type_symbol
 _atom_site_label
 _atom_site_symmetry_multiplicity
 _atom_site_fract_x
 _atom_site_fract_y
 _atom_site_fract_z
 _atom_site_occupancy
  Be  Be0  1  0.83765752  0.92599127  0.76833581  1
  Be  Be1  1  0.65964686  0.93564462  0.40244134  1
  Be  Be2  1  0.15964786  0.56435538  0.09755866  1
  Be  Be3  1  0.34035214  0.06435438  0.59755866  1
  Be  Be4  1  0.84035214  0.43564462  0.90244134  1
  Be  Be5  1  0.15835571  0.61019139  0.41727858  1
  Be  Be6  1  0.65835571  0.88980861  0.08272142  1
  Be  Be7  1  0.84164429  0.38980761  0.58272142  1
  Be  Be8  1  0.34164329  0.11019139  0.91727858  1
  Be  Be9  1  0.66234248  0.42599127  0.26833581  1
  Be  Be10  1  0.16234248  0.07400773  0.23166419  1
  Be  Be11  1  0.33765852  0.57400873  0.73166419  1
  Fe  Fe12  1  0.46695143  0.25252442  0.09395131  1
  Fe  Fe13  1  0.03304857  0.75252542  0.59395131  1
  Fe  Fe14  1  0.53304957  0.74747558  0.90604869  1
  Fe  Fe15  1  0.96695143  0.24747458  0.40604869  1
  Fe  Fe16  1  0.54836849  0.25527688  0.43304258  1
  Fe  Fe17  1  0.04836949  0.24472212  0.06695742  1
  Fe  Fe18  1  0.45163151  0.74472312  0.56695742  1
  Fe  Fe19  1  0.95163051  0.75527788  0.93304258  1
  Si  Si20  1  0.22283956  0.92491224  0.76633306  1
  Si  Si21  1  0.72283956  0.57508776  0.73366694  1
  Si  Si22  1  0.77716044  0.07508676  0.23366694  1
  Si  Si23  1  0.27716144  0.42491224  0.26633306  1
  Si  Si24  1  0.72977883  0.11265633  0.92087410  1
  Si  Si25  1  0.22977883  0.38734467  0.57912590  1
  Si  Si26  1  0.27022117  0.88734367  0.07912590  1
  Si  Si27  1  0.77022017  0.61265633  0.42087410  1
  Si  Si28  1  0.23191439  0.43683946  0.90337948  1
  Si  Si29  1  0.73191539  0.06315954  0.59662052  1
  Si  Si30  1  0.76808561  0.56316054  0.09662052  1
  Si  Si31  1  0.26808461  0.93683946  0.40337948  1
  O  O32  1  0.13004724  0.74482231  0.03768174  1
  O  O33  1  0.03129651  0.89623513  0.82476286  1
  O  O34  1  0.53129651  0.60376487  0.67523714  1
  O  O35  1  0.96870349  0.10376487  0.17523714  1
  O  O36  1  0.46870249  0.39623413  0.32476286  1
  O  O37  1  0.53314858  0.17529002  0.96334938  1
  O  O38  1  0.03314858  0.32470998  0.53665162  1
  O  O39  1  0.46685142  0.82470998  0.03665062  1
  O  O40  1  0.96685042  0.67529002  0.46334838  1
  O  O41  1  0.03487899  0.53021802  0.89298672  1
  O  O42  1  0.53487899  0.96978198  0.60701328  1
  O  O43  1  0.96512101  0.46978298  0.10701328  1
  O  O44  1  0.12709163  0.07474169  0.35304740  1
  O  O45  1  0.62709063  0.42525931  0.14695260  1
  O  O46  1  0.87290937  0.92525831  0.64695260  1
  O  O47  1  0.37290937  0.57474169  0.85304740  1
  O  O48  1  0.63004824  0.75517769  0.46231826  1
  O  O49  1  0.46512201  0.03021802  0.39298672  1
  O  O50  1  0.36995276  0.24482231  0.53768174  1
  O  O51  1  0.86995276  0.25517669  0.96231826  1
  O  O52  1  0.76605145  0.08021544  0.47547242  1
  O  O53  1  0.62751879  0.07031819  0.14490039  1
  O  O54  1  0.87248121  0.57031719  0.64490039  1
  O  O55  1  0.37248021  0.92968181  0.85509961  1
  O  O56  1  0.73304279  0.42614436  0.80849914  1
  O  O57  1  0.23304279  0.07385464  0.69150086  1
  O  O58  1  0.26695721  0.57385564  0.19150086  1
  O  O59  1  0.76695621  0.92614436  0.30849914  1
  O  O60  1  0.73323593  0.07322790  0.80918855  1
  O  O61  1  0.23323593  0.42677310  0.69081145  1
  O  O62  1  0.26676307  0.92677210  0.19081145  1
  O  O63  1  0.76676407  0.57322790  0.30918855  1
  O  O64  1  0.23868420  0.25142200  0.86647987  1
  O  O65  1  0.73868320  0.24857800  0.63352113  1
  O  O66  1  0.76131680  0.74857700  0.13352013  1
  O  O67  1  0.26131680  0.75142300  0.36647887  1
  O  O68  1  0.73351468  0.74882573  0.80301516  1
  O  O69  1  0.23351368  0.75117427  0.69698484  1
  O  O70  1  0.26648532  0.25117327  0.19698484  1
  O  O71  1  0.76648632  0.24882673  0.30301516  1
  O  O72  1  0.77246363  0.93062934  0.97823623  1
  O  O73  1  0.27246263  0.56937066  0.52176377  1
  O  O74  1  0.22753637  0.06937066  0.02176377  1
  O  O75  1  0.72753737  0.43062834  0.47823623  1
  O  O76  1  0.73394955  0.58021444  0.97547242  1
  O  O77  1  0.23394955  0.91978456  0.52452758  1
  O  O78  1  0.26605045  0.41978556  0.02452758  1
  O  O79  1  0.12751879  0.42968181  0.35509961  1
