# generated using pymatgen
data_Si4H2O9
_symmetry_space_group_name_H-M   'P 1'
_cell_length_a   15.47568296
_cell_length_b   15.47477551
_cell_length_c   15.48417591
_cell_angle_alpha   151.39142387
_cell_angle_beta   151.40155257
_cell_angle_gamma   40.89184379
_symmetry_Int_Tables_number   1
_chemical_formula_structural   Si4H2O9
_chemical_formula_sum   'Si16 H8 O36'
_cell_volume   848.12090768
_cell_formula_units_Z   4
loop_
 _symmetry_equiv_pos_site_id
 _symmetry_equiv_pos_as_xyz
  1  'x, y, z'
loop_
 _atom_site_type_symbol
 _atom_site_label
 _atom_site_symmetry_multiplicity
 _atom_site_fract_x
 _atom_site_fract_y
 _atom_site_fract_z
 _atom_site_occupancy
  Si  Si0  1  0.95431674  0.04495573  0.49932070  1
  Si  Si1  1  0.54604062  0.45543275  0.50144532  1
  Si  Si2  1  0.20473636  0.79495888  0.99905284  1
  Si  Si3  1  0.79553940  0.20541412  0.00070974  1
  Si  Si4  1  0.95550333  0.45422473  0.90964091  1
  Si  Si5  1  0.54450900  0.04622462  0.09022257  1
  Si  Si6  1  0.20517441  0.20384225  0.40946164  1
  Si  Si7  1  0.79476899  0.79577419  0.59080571  1
  Si  Si8  1  0.17620024  0.47417697  0.29758183  1
  Si  Si9  1  0.17553570  0.87912985  0.70291578  1
  Si  Si10  1  0.57359091  0.37219550  0.79764766  1
  Si  Si11  1  0.57563108  0.77770254  0.20553668  1
  Si  Si12  1  0.52664415  0.82362479  0.70235624  1
  Si  Si13  1  0.12118293  0.82422890  0.29765673  1
  Si  Si14  1  0.62875954  0.42574809  0.20216851  1
  Si  Si15  1  0.22360295  0.42652294  0.79774753  1
  H  H16  1  0.22102263  0.24274903  0.22254310  1
  H  H17  1  0.04774574  0.03182200  0.83269510  1
  H  H18  1  0.70461481  0.22096897  0.67375829  1
  H  H19  1  0.55803219  0.99847109  0.28297101  1
  H  H20  1  0.77407786  0.96447762  0.98342281  1
  H  H21  1  0.98115173  0.79067463  0.01680560  1
  H  H22  1  0.76921354  0.45933717  0.48323329  1
  H  H23  1  0.97598091  0.28601398  0.51671707  1
  O  O24  1  0.12074212  0.30395061  0.16410379  1
  O  O25  1  0.13979844  0.94661573  0.82905050  1
  O  O26  1  0.61076138  0.30497647  0.67299639  1
  O  O27  1  0.64427511  0.94881221  0.35404982  1
  O  O28  1  0.69314383  0.85836134  0.81019071  1
  O  O29  1  0.04829708  0.88276554  0.18992176  1
  O  O30  1  0.70145753  0.36718337  0.30983157  1
  O  O31  1  0.05716712  0.39184804  0.69020756  1
  O  O32  1  0.21380159  0.63202119  0.93370458  1
  O  O33  1  0.69839523  0.27954105  0.06627993  1
  O  O34  1  0.05095780  0.97032784  0.43294031  1
  O  O35  1  0.53686064  0.61814136  0.56655001  1
  O  O36  1  0.21413772  0.27973016  0.58233266  1
  O  O37  1  0.69742290  0.63159940  0.41720780  1
  O  O38  1  0.05289256  0.61839295  0.08330570  1
  O  O39  1  0.53607124  0.96991589  0.91763146  1
  O  O40  1  0.36870062  0.78560870  0.06543945  1
  O  O41  1  0.71932549  0.30301892  0.93426573  1
  O  O42  1  0.03059271  0.94757389  0.56593665  1
  O  O43  1  0.38233595  0.46621618  0.43621205  1
  O  O44  1  0.36785710  0.30158259  0.58136275  1
  O  O45  1  0.71990376  0.78604143  0.41822807  1
  O  O46  1  0.02958951  0.46291739  0.08094666  1
  O  O47  1  0.38222810  0.94888933  0.91959887  1
  O  O48  1  0.33961609  0.83986670  0.50029664  1
  O  O49  1  0.41033198  0.41042021  0.99995880  1
  O  O50  1  0.16104276  0.66031921  0.50025522  1
  O  O51  1  0.58777379  0.59119572  -0.00030141  1
  O  O52  1  0.01358482  0.24998028  0.23763581  1
  O  O53  1  0.01249205  0.77586502  0.76226540  1
  O  O54  1  0.73777503  0.47394547  0.73763925  1
  O  O55  1  0.73581850  0.00048114  0.26289885  1
  O  O56  1  0.74951442  0.98754371  0.76319803  1
  O  O57  1  0.22441709  0.98592482  0.23647715  1
  O  O58  1  0.52557060  0.26405791  0.26335538  1
  O  O59  1  0.00075559  0.26263489  0.73716347  1
