# generated using pymatgen
data_Sr(H8O5)2
_symmetry_space_group_name_H-M   'P 1'
_cell_length_a   6.95410233
_cell_length_b   6.37467159
_cell_length_c   5.76633313
_cell_angle_alpha   91.17248878
_cell_angle_beta   92.16967610
_cell_angle_gamma   89.62683558
_symmetry_Int_Tables_number   1
_chemical_formula_structural   Sr(H8O5)2
_chemical_formula_sum   'Sr1 H16 O10'
_cell_volume   255.38127859
_cell_formula_units_Z   1
loop_
 _symmetry_equiv_pos_site_id
 _symmetry_equiv_pos_as_xyz
  1  'x, y, z'
loop_
 _atom_site_type_symbol
 _atom_site_label
 _atom_site_symmetry_multiplicity
 _atom_site_fract_x
 _atom_site_fract_y
 _atom_site_fract_z
 _atom_site_occupancy
  Sr  Sr0  1  0.99416110  0.98827471  0.99645807  1
  H  H1  1  0.31668789  0.29367108  0.73892692  1
  H  H2  1  0.12665465  0.41239625  0.74701668  1
  H  H3  1  0.64324196  0.68603997  0.68645072  1
  H  H4  1  0.80099799  0.79307049  0.54789325  1
  H  H5  1  0.67926474  0.07642629  0.70776065  1
  H  H6  1  0.64150618  0.33473053  0.69045064  1
  H  H7  1  0.31182904  0.66627659  0.72691160  1
  H  H8  1  0.17083402  0.75778764  0.55065623  1
  H  H9  1  0.69740985  0.63740242  0.27648223  1
  H  H10  1  0.91518998  0.57990418  0.26081684  1
  H  H11  1  0.19987826  0.22964482  0.42411747  1
  H  H12  1  0.36437796  0.32650687  0.28536236  1
  H  H13  1  0.35932250  0.68640019  0.29349085  1
  H  H14  1  0.31134858  0.94042476  0.29330532  1
  H  H15  1  0.82018762  0.22084512  0.46023440  1
  H  H16  1  0.70363081  0.31062150  0.25457403  1
  O  O17  1  0.50843492  0.50482596  0.61360657  1
  O  O18  1  0.50823200  0.51406558  0.35247889  1
  O  O19  1  0.17693641  0.26680772  0.74300514  1
  O  O20  1  0.74096441  0.80872370  0.70050477  1
  O  O21  1  0.73948906  0.21569543  0.73957617  1
  O  O22  1  0.17792140  0.72446629  0.71989032  1
  O  O23  1  0.83023629  0.70189224  0.25053631  1
  O  O24  1  0.26292300  0.21036318  0.27491959  1
  O  O25  1  0.25198230  0.79936935  0.27158582  1
  O  O26  1  0.82535208  0.23413116  0.28735116  1
