# generated using pymatgen
data_Li3Mo2P5O18
_symmetry_space_group_name_H-M   'P 1'
_cell_length_a   9.56500173
_cell_length_b   10.66950206
_cell_length_c   6.64260058
_cell_angle_alpha   92.49590397
_cell_angle_beta   92.45094541
_cell_angle_gamma   96.59671309
_symmetry_Int_Tables_number   1
_chemical_formula_structural   Li3Mo2P5O18
_chemical_formula_sum   'Li6 Mo4 P10 O36'
_cell_volume   671.99595407
_cell_formula_units_Z   2
loop_
 _symmetry_equiv_pos_site_id
 _symmetry_equiv_pos_as_xyz
  1  'x, y, z'
loop_
 _atom_site_type_symbol
 _atom_site_label
 _atom_site_symmetry_multiplicity
 _atom_site_fract_x
 _atom_site_fract_y
 _atom_site_fract_z
 _atom_site_occupancy
  Li  Li0  1  0.06777051  0.86334090  0.98008775  1
  Li  Li1  1  0.19475602  0.66761865  0.12671879  1
  Li  Li2  1  0.24890414  0.59307105  0.54631398  1
  Li  Li3  1  0.75109586  0.40692895  0.45368602  1
  Li  Li4  1  0.80524398  0.33238135  0.87328121  1
  Li  Li5  1  0.93222949  0.13665910  0.01991225  1
  Mo  Mo6  1  0.23169993  0.04729943  0.67014756  1
  Mo  Mo7  1  0.35585444  0.40709840  0.22892885  1
  Mo  Mo8  1  0.64414556  0.59290160  0.77107115  1
  Mo  Mo9  1  0.76830007  0.95270057  0.32985244  1
  P  P10  1  0.03798674  0.79327977  0.48414836  1
  P  P11  1  0.01584616  0.39946631  0.22349560  1
  P  P12  1  0.27892873  0.09764771  0.16548086  1
  P  P13  1  0.41659215  0.82146331  0.82765012  1
  P  P14  1  0.40834542  0.35576782  0.72415280  1
  P  P15  1  0.59165558  0.64423218  0.27584720  1
  P  P16  1  0.58340785  0.17853669  0.17234988  1
  P  P17  1  0.72107127  0.90235229  0.83451914  1
  P  P18  1  0.98415384  0.60053369  0.77650440  1
  P  P19  1  0.96201326  0.20672023  0.51585164  1
  O  O20  1  0.01669930  0.68768817  0.96310976  1
  O  O21  1  0.08051309  0.89691973  0.66045614  1
  O  O22  1  0.05727692  0.31218681  0.41171936  1
  O  O23  1  0.10168699  0.52879084  0.71401987  1
  O  O24  1  0.06302848  0.15157182  0.66946936  1
  O  O25  1  0.16273916  0.74248083  0.39538649  1
  O  O26  1  0.16327705  0.48360206  0.21747832  1
  O  O27  1  0.18299233  0.03714915  0.98651004  1
  O  O28  1  0.31860269  0.80114196  0.99511746  1
  O  O29  1  0.25315779  0.23615192  0.19973085  1
  O  O30  1  0.25369183  0.02778712  0.35601121  1
  O  O31  1  0.36954578  0.91717156  0.67341110  1
  O  O32  1  0.35280861  0.40881854  0.92200660  1
  O  O33  1  0.34349129  0.41857331  0.53987498  1
  O  O34  1  0.37318251  0.21121035  0.69888950  1
  O  O35  1  0.42964105  0.59864394  0.26600334  1
  O  O36  1  0.45642932  0.69794517  0.72381997  1
  O  O37  1  0.43361117  0.09906405  0.08658121  1
  O  O38  1  0.56638883  0.90093595  0.91341879  1
  O  O39  1  0.54357068  0.30205483  0.27618003  1
  O  O40  1  0.57035895  0.40135606  0.73399666  1
  O  O41  1  0.62681749  0.78878965  0.30111050  1
  O  O42  1  0.65650871  0.58142669  0.46012502  1
  O  O43  1  0.64719139  0.59118146  0.07799340  1
  O  O44  1  0.63045422  0.08282844  0.32658890  1
  O  O45  1  0.74630817  0.97221288  0.64398879  1
  O  O46  1  0.74684221  0.76384808  0.80026915  1
  O  O47  1  0.68139731  0.19885804  0.00488254  1
  O  O48  1  0.81700767  0.96285085  0.01348996  1
  O  O49  1  0.83672295  0.51639794  0.78252168  1
  O  O50  1  0.83726084  0.25751917  0.60461351  1
  O  O51  1  0.93697152  0.84842818  0.33053064  1
  O  O52  1  0.89831301  0.47120916  0.28598013  1
  O  O53  1  0.94272308  0.68781319  0.58828064  1
  O  O54  1  0.91948691  0.10308027  0.33954386  1
  O  O55  1  0.98330070  0.31231183  0.03689024  1
