# generated using pymatgen
data_Al(HO)3
_symmetry_space_group_name_H-M   'P 1'
_cell_length_a   8.78207514
_cell_length_b   5.08629415
_cell_length_c   9.38424318
_cell_angle_alpha   89.30588167
_cell_angle_beta   89.51309729
_cell_angle_gamma   89.56016903
_symmetry_Int_Tables_number   1
_chemical_formula_structural   Al(HO)3
_chemical_formula_sum   'Al8 H24 O24'
_cell_volume   419.11949717
_cell_formula_units_Z   8
loop_
 _symmetry_equiv_pos_site_id
 _symmetry_equiv_pos_as_xyz
  1  'x, y, z'
loop_
 _atom_site_type_symbol
 _atom_site_label
 _atom_site_symmetry_multiplicity
 _atom_site_fract_x
 _atom_site_fract_y
 _atom_site_fract_z
 _atom_site_occupancy
  Al  Al0  1  0.83072806  0.03033777  0.50604430  1
  Al  Al1  1  0.32955511  0.47204821  0.48481143  1
  Al  Al2  1  0.15915549  0.50543160  0.98797534  1
  Al  Al3  1  0.67647902  0.99930269  0.01909030  1
  Al  Al4  1  0.15662680  0.98085564  0.49065188  1
  Al  Al5  1  0.66304735  0.52484706  0.50427654  1
  Al  Al6  1  0.82302891  0.47732384  0.01903165  1
  Al  Al7  1  0.34396068  0.02241042  0.98361112  1
  H  H8  1  0.45933181  0.81543898  0.61247237  1
  H  H9  1  0.97021163  0.67371791  0.39115595  1
  H  H10  1  0.54016991  0.32971810  0.88408734  1
  H  H11  1  0.00497071  0.36026311  0.21259496  1
  H  H12  1  0.54070763  0.34279857  0.28410446  1
  H  H13  1  0.02903280  0.33160405  0.60965851  1
  H  H14  1  0.50483476  0.73670635  0.17395190  1
  H  H15  1  0.96566886  0.82610977  0.89112961  1
  H  H16  1  0.88456050  0.64949467  0.67761597  1
  H  H17  1  0.38179947  0.90799972  0.34378121  1
  H  H18  1  0.10918296  0.14098120  0.81911154  1
  H  H19  1  0.21409794  0.28700249  0.27640434  1
  H  H20  1  0.61024434  0.15649024  0.68136427  1
  H  H21  1  0.81202374  0.80840590  0.22283137  1
  H  H22  1  0.39319357  0.64119706  0.83391156  1
  H  H23  1  0.30736639  0.16644197  0.69376492  1
  H  H24  1  0.77098066  0.31575453  0.29259973  1
  H  H25  1  0.70502598  0.70425180  0.80568458  1
  H  H26  1  0.21876722  0.80815379  0.21631756  1
  H  H27  1  0.07701136  0.93260905  0.12128547  1
  H  H28  1  0.59539125  0.97684289  0.38653993  1
  H  H29  1  0.19856716  0.67711264  0.69459830  1
  H  H30  1  0.42118423  0.41049940  0.09945562  1
  H  H31  1  0.80084783  0.19776939  0.80183689  1
  O  O32  1  0.47981797  0.62657614  0.60192459  1
  O  O33  1  0.98576153  0.86479039  0.39160428  1
  O  O34  1  0.51606640  0.14094014  0.88397755  1
  O  O35  1  0.01068037  0.35158061  0.10888618  1
  O  O36  1  0.50715262  0.36311851  0.38498270  1
  O  O37  1  0.00800611  0.14209315  0.60836408  1
  O  O38  1  0.49086216  0.88270877  0.10858868  1
  O  O39  1  0.98960696  0.63683290  0.89269604  1
  O  O40  1  0.80144077  0.72166961  0.62039895  1
  O  O41  1  0.29454417  0.79400329  0.36195298  1
  O  O42  1  0.19273248  0.20821801  0.87639001  1
  O  O43  1  0.68473849  0.29808707  0.12981411  1
  O  O44  1  0.18327103  0.29613568  0.37706520  1
  O  O45  1  0.69338387  0.22646320  0.62254132  1
  O  O46  1  0.82045878  0.79742236  0.11927528  1
  O  O47  1  0.30310346  0.71830922  0.87992967  1
  O  O48  1  0.32209951  0.14571873  0.59067584  1
  O  O49  1  0.81377357  0.34598682  0.39210664  1
  O  O50  1  0.67566181  0.67139590  0.90564582  1
  O  O51  1  0.17641364  0.83783106  0.11257774  1
  O  O52  1  0.67804615  0.84944205  0.40042088  1
  O  O53  1  0.17271582  0.65325978  0.59377792  1
  O  O54  1  0.31885241  0.33499770  0.09385542  1
  O  O55  1  0.82974978  0.16564210  0.90162919  1
