# generated using pymatgen
data_CoCu2GeS4
_symmetry_space_group_name_H-M   'P 1'
_cell_length_a   5.27136868
_cell_length_b   5.27131418
_cell_length_c   6.46549277
_cell_angle_alpha   114.05934020
_cell_angle_beta   114.06008768
_cell_angle_gamma   90.00619885
_symmetry_Int_Tables_number   1
_chemical_formula_structural   CoCu2GeS4
_chemical_formula_sum   'Co1 Cu2 Ge1 S4'
_cell_volume   146.78575953
_cell_formula_units_Z   1
loop_
 _symmetry_equiv_pos_site_id
 _symmetry_equiv_pos_as_xyz
  1  'x, y, z'
loop_
 _atom_site_type_symbol
 _atom_site_label
 _atom_site_symmetry_multiplicity
 _atom_site_fract_x
 _atom_site_fract_y
 _atom_site_fract_z
 _atom_site_occupancy
  Co  Co0  1  0.99995156  0.99994934  0.99994685  1
  Cu  Cu1  1  0.25000147  0.74999870  0.49998238  1
  Cu  Cu2  1  0.74999010  0.24999467  0.49999629  1
  Ge  Ge3  1  0.49999300  0.49999213  0.00000897  1
  S  S4  1  0.62860458  0.12142063  0.75001620  1
  S  S5  1  0.12143025  0.62861144  0.75001306  1
  S  S6  1  0.37144535  0.37145315  0.25001805  1
  S  S7  1  0.87858370  0.87857995  0.25001820  1
