# generated using pymatgen
data_KLa(PO3)4
_symmetry_space_group_name_H-M   'P 1'
_cell_length_a   7.08786944
_cell_length_b   7.08786964
_cell_length_c   13.88453352
_cell_angle_alpha   90.00000000
_cell_angle_beta   90.00000000
_cell_angle_gamma   111.25853066
_symmetry_Int_Tables_number   1
_chemical_formula_structural   KLa(PO3)4
_chemical_formula_sum   'K2 La2 P8 O24'
_cell_volume   650.06555150
_cell_formula_units_Z   2
loop_
 _symmetry_equiv_pos_site_id
 _symmetry_equiv_pos_as_xyz
  1  'x, y, z'
loop_
 _atom_site_type_symbol
 _atom_site_label
 _atom_site_symmetry_multiplicity
 _atom_site_fract_x
 _atom_site_fract_y
 _atom_site_fract_z
 _atom_site_occupancy
  K  K0  1  0.18944241  0.81055759  0.76415409  1
  K  K1  1  0.81055759  0.18944241  0.26415409  1
  La  La2  1  0.38738773  0.61261227  0.24442982  1
  La  La3  1  0.61261227  0.38738773  0.74442982  1
  P  P4  1  0.75289310  0.86232192  0.05353945  1
  P  P5  1  0.06571802  0.29779044  0.84494183  1
  P  P6  1  0.86232192  0.75289310  0.55353945  1
  P  P7  1  0.29779044  0.06571802  0.34494183  1
  P  P8  1  0.93428198  0.70220956  0.34494183  1
  P  P9  1  0.13767808  0.24710690  0.05353945  1
  P  P10  1  0.70220956  0.93428198  0.84494183  1
  P  P11  1  0.24710690  0.13767808  0.55353945  1
  O  O12  1  0.94985586  0.41668141  0.80046104  1
  O  O13  1  0.17713699  0.30462595  0.53113836  1
  O  O14  1  0.27690203  0.33915930  0.80937524  1
  O  O15  1  0.30462595  0.17713699  0.03113836  1
  O  O16  1  0.32739999  0.05311768  0.45778111  1
  O  O17  1  0.41340544  0.16413333  0.62715001  1
  O  O18  1  0.16413333  0.41340544  0.12715001  1
  O  O19  1  0.82286301  0.69537405  0.03113836  1
  O  O20  1  0.58659456  0.83586667  0.12715001  1
  O  O21  1  0.94688232  0.67260001  0.45778111  1
  O  O22  1  0.05311768  0.32739999  0.95778111  1
  O  O23  1  0.33915930  0.27690203  0.30937524  1
  O  O24  1  0.93027136  0.06972864  0.09069199  1
  O  O25  1  0.69537405  0.82286301  0.53113836  1
  O  O26  1  0.83586667  0.58659456  0.62715001  1
  O  O27  1  0.66084070  0.72309797  0.80937524  1
  O  O28  1  0.94376162  0.05623838  0.82725002  1
  O  O29  1  0.05014414  0.58331859  0.30046104  1
  O  O30  1  0.58331859  0.05014414  0.80046104  1
  O  O31  1  0.05623838  0.94376162  0.32725002  1
  O  O32  1  0.06972864  0.93027136  0.59069199  1
  O  O33  1  0.67260001  0.94688232  0.95778111  1
  O  O34  1  0.41668141  0.94985586  0.30046104  1
  O  O35  1  0.72309797  0.66084070  0.30937524  1
