# generated using pymatgen
data_Mg(BiO2)4
_symmetry_space_group_name_H-M   'P 1'
_cell_length_a   3.43467439
_cell_length_b   9.72126009
_cell_length_c   7.00318436
_cell_angle_alpha   76.81973458
_cell_angle_beta   75.81275195
_cell_angle_gamma   79.81983570
_symmetry_Int_Tables_number   1
_chemical_formula_structural   Mg(BiO2)4
_chemical_formula_sum   'Mg1 Bi4 O8'
_cell_volume   218.91148206
_cell_formula_units_Z   1
loop_
 _symmetry_equiv_pos_site_id
 _symmetry_equiv_pos_as_xyz
  1  'x, y, z'
loop_
 _atom_site_type_symbol
 _atom_site_label
 _atom_site_symmetry_multiplicity
 _atom_site_fract_x
 _atom_site_fract_y
 _atom_site_fract_z
 _atom_site_occupancy
  Mg  Mg0  1  0.30437159  0.20319102  0.18781061  1
  Bi  Bi1  1  0.62835781  0.12843835  0.61492116  1
  Bi  Bi2  1  0.11800345  0.53789922  0.22724909  1
  Bi  Bi3  1  0.87656974  0.43732969  0.80923619  1
  Bi  Bi4  1  0.37018134  0.82332991  0.43687450  1
  O  O5  1  0.87974567  0.69066543  0.55034974  1
  O  O6  1  0.45087279  0.23293387  0.86514740  1
  O  O7  1  0.55806536  0.69022428  0.19460882  1
  O  O8  1  0.12561505  0.26489812  0.48366217  1
  O  O9  1  0.15531768  0.98538409  0.70403747  1
  O  O10  1  0.75847197  0.35284021  0.13005156  1
  O  O11  1  0.80375291  0.06788487  0.32424711  1
  O  O12  1  0.26815562  0.56108994  0.90245019  1
