# generated using pymatgen
data_PCN2Cl3
_symmetry_space_group_name_H-M   'P 1'
_cell_length_a   10.38931830
_cell_length_b   11.34117550
_cell_length_c   15.76946945
_cell_angle_alpha   99.82852046
_cell_angle_beta   90.00000000
_cell_angle_gamma   90.00000000
_symmetry_Int_Tables_number   1
_chemical_formula_structural   PCN2Cl3
_chemical_formula_sum   'P12 C12 N24 Cl36'
_cell_volume   1830.79976426
_cell_formula_units_Z   12
loop_
 _symmetry_equiv_pos_site_id
 _symmetry_equiv_pos_as_xyz
  1  'x, y, z'
loop_
 _atom_site_type_symbol
 _atom_site_label
 _atom_site_symmetry_multiplicity
 _atom_site_fract_x
 _atom_site_fract_y
 _atom_site_fract_z
 _atom_site_occupancy
  P  P0  1  0.33792117  0.15190029  0.92256337  1
  P  P1  1  0.16207883  0.65190029  0.92256337  1
  P  P2  1  0.66207883  0.84809971  0.07743663  1
  P  P3  1  0.20236873  0.00748207  0.64946683  1
  P  P4  1  0.70236873  0.49251793  0.35053317  1
  P  P5  1  0.83792117  0.34809971  0.07743663  1
  P  P6  1  0.37707290  0.88958201  0.29048077  1
  P  P7  1  0.87707290  0.61041799  0.70951923  1
  P  P8  1  0.62292710  0.11041799  0.70951923  1
  P  P9  1  0.79763127  0.99251793  0.35053317  1
  P  P10  1  0.29763127  0.50748207  0.64946683  1
  P  P11  1  0.12292710  0.38958201  0.29048077  1
  C  C12  1  0.03169014  0.25246088  0.15784520  1
  C  C13  1  0.83447303  0.85041566  0.19659268  1
  C  C14  1  0.46830986  0.75246088  0.15784520  1
  C  C15  1  0.44495049  0.96882749  0.61966562  1
  C  C16  1  0.55504951  0.03117251  0.38033438  1
  C  C17  1  0.96830986  0.74753912  0.84215480  1
  C  C18  1  0.94495049  0.53117251  0.38033438  1
  C  C19  1  0.33447303  0.64958434  0.80340732  1
  C  C20  1  0.66552697  0.35041566  0.19659268  1
  C  C21  1  0.16552697  0.14958434  0.80340732  1
  C  C22  1  0.05504951  0.46882749  0.61966562  1
  C  C23  1  0.53169014  0.24753912  0.84215480  1
  N  N24  1  0.51294490  0.93470790  0.32951449  1
  N  N25  1  0.38726307  0.76486108  0.22345000  1
  N  N26  1  0.48705510  0.06529210  0.67048551  1
  N  N27  1  0.96532283  0.33689281  0.13146493  1
  N  N28  1  0.28146809  0.56380574  0.74828653  1
  N  N29  1  0.11273693  0.26486108  0.22345000  1
  N  N30  1  0.32532533  0.93375121  0.60617971  1
  N  N31  1  0.79589033  0.80931717  0.11749086  1
  N  N32  1  0.29589033  0.69068283  0.88250914  1
  N  N33  1  0.17467467  0.43375121  0.60617971  1
  N  N34  1  0.67467467  0.06624879  0.39382029  1
  N  N35  1  0.71853191  0.43619426  0.25171347  1
  N  N36  1  0.82532533  0.56624879  0.39382029  1
  N  N37  1  0.03467717  0.66310719  0.86853507  1
  N  N38  1  0.70410967  0.30931717  0.11749086  1
  N  N39  1  0.53467717  0.83689281  0.13146493  1
  N  N40  1  0.98705510  0.43470790  0.32951449  1
  N  N41  1  0.01294490  0.56529210  0.67048551  1
  N  N42  1  0.88726307  0.73513892  0.77655000  1
  N  N43  1  0.61273693  0.23513892  0.77655000  1
  N  N44  1  0.20410967  0.19068283  0.88250914  1
  N  N45  1  0.78146809  0.93619426  0.25171347  1
  N  N46  1  0.21853191  0.06380574  0.74828653  1
  N  N47  1  0.46532283  0.16310719  0.86853507  1
  Cl  Cl48  1  0.16660517  0.48191213  0.94235956  1
  Cl  Cl49  1  0.97309718  0.77770254  0.22732841  1
  Cl  Cl50  1  0.02690282  0.22229746  0.77267159  1
  Cl  Cl51  1  0.74476415  0.14661362  0.61829354  1
  Cl  Cl52  1  0.15348391  0.12717359  0.57356538  1
  Cl  Cl53  1  0.05805409  0.62802017  0.44102618  1
  Cl  Cl54  1  0.02004729  0.10297125  0.10274640  1
  Cl  Cl55  1  0.55676130  0.61105000  0.36478749  1
  Cl  Cl56  1  0.34320392  0.24692636  0.04240379  1
  Cl  Cl57  1  0.24476415  0.35338638  0.38170646  1
  Cl  Cl58  1  0.65348391  0.37282641  0.42643462  1
  Cl  Cl59  1  0.44323870  0.38895000  0.63521251  1
  Cl  Cl60  1  0.21495769  0.51608687  0.23740555  1
  Cl  Cl61  1  0.75523585  0.64661362  0.61829354  1
  Cl  Cl62  1  0.66660517  0.01808787  0.05764044  1
  Cl  Cl63  1  0.65679608  0.75307364  0.95759621  1
  Cl  Cl64  1  0.33339483  0.98191213  0.94235956  1
  Cl  Cl65  1  0.47995271  0.60297125  0.10274640  1
  Cl  Cl66  1  0.05676130  0.88895000  0.63521251  1
  Cl  Cl67  1  0.15679608  0.74692636  0.04240379  1
  Cl  Cl68  1  0.84651609  0.87282641  0.42643462  1
  Cl  Cl69  1  0.52004729  0.39702875  0.89725360  1
  Cl  Cl70  1  0.28504231  0.01608687  0.23740555  1
  Cl  Cl71  1  0.78504231  0.48391313  0.76259445  1
  Cl  Cl72  1  0.44194591  0.12802017  0.44102618  1
  Cl  Cl73  1  0.94323870  0.11105000  0.36478749  1
  Cl  Cl74  1  0.94194591  0.37197983  0.55897382  1
  Cl  Cl75  1  0.34651609  0.62717359  0.57356538  1
  Cl  Cl76  1  0.47309718  0.72229746  0.77267159  1
  Cl  Cl77  1  0.97995271  0.89702875  0.89725360  1
  Cl  Cl78  1  0.25523585  0.85338638  0.38170646  1
  Cl  Cl79  1  0.83339483  0.51808787  0.05764044  1
  Cl  Cl80  1  0.52690282  0.27770254  0.22732841  1
  Cl  Cl81  1  0.71495769  0.98391313  0.76259445  1
  Cl  Cl82  1  0.84320392  0.25307364  0.95759621  1
  Cl  Cl83  1  0.55805409  0.87197983  0.55897382  1
