# generated using pymatgen
data_AgSbO3
_symmetry_space_group_name_H-M   'P 1'
_cell_length_a   8.34807410
_cell_length_b   8.10239651
_cell_length_c   16.33988688
_cell_angle_alpha   108.77864838
_cell_angle_beta   109.62474153
_cell_angle_gamma   109.32234471
_symmetry_Int_Tables_number   1
_chemical_formula_structural   AgSbO3
_chemical_formula_sum   'Ag12 Sb12 O36'
_cell_volume   857.91005571
_cell_formula_units_Z   12
loop_
 _symmetry_equiv_pos_site_id
 _symmetry_equiv_pos_as_xyz
  1  'x, y, z'
loop_
 _atom_site_type_symbol
 _atom_site_label
 _atom_site_symmetry_multiplicity
 _atom_site_fract_x
 _atom_site_fract_y
 _atom_site_fract_z
 _atom_site_occupancy
  Ag  Ag0  1  0.99428862  0.65959379  0.50068585  1
  Ag  Ag1  1  0.19693504  0.19772067  0.64499711  1
  Ag  Ag2  1  0.96928441  0.88177531  0.92589417  1
  Ag  Ag3  1  0.00313226  0.00203905  0.15841593  1
  Ag  Ag4  1  0.57383873  0.58764510  0.79045436  1
  Ag  Ag5  1  0.02524281  0.32700169  0.00269707  1
  Ag  Ag6  1  0.21081421  0.98431704  0.46058423  1
  Ag  Ag7  1  0.60155044  0.60336305  0.29856830  1
  Ag  Ag8  1  0.90888867  0.07183728  0.44313871  1
  Ag  Ag9  1  0.37805857  0.01856401  0.01051333  1
  Ag  Ag10  1  0.60970036  0.99896453  0.50624247  1
  Ag  Ag11  1  0.70514643  0.98263391  0.98339142  1
  Sb  Sb12  1  0.15610151  0.49890340  0.83680296  1
  Sb  Sb13  1  0.32713287  0.84238321  0.75123985  1
  Sb  Sb14  1  0.15977431  0.49308693  0.33215981  1
  Sb  Sb15  1  0.50441968  0.34435451  0.92171840  1
  Sb  Sb16  1  0.48816755  0.65064191  0.58352557  1
  Sb  Sb17  1  0.33696237  0.83407368  0.24634650  1
  Sb  Sb18  1  0.66166170  0.16201921  0.75154486  1
  Sb  Sb19  1  0.49477209  0.33399520  0.42016434  1
  Sb  Sb20  1  0.50832383  0.67032937  0.08385544  1
  Sb  Sb21  1  0.84211307  0.50361585  0.66911232  1
  Sb  Sb22  1  0.66833428  0.17001055  0.25197986  1
  Sb  Sb23  1  0.84829359  0.51307289  0.17079456  1
  O  O24  1  0.04170796  0.71591634  0.66331762  1
  O  O25  1  0.29011175  0.67513018  0.98269347  1
  O  O26  1  0.00496940  0.36404222  0.68633551  1
  O  O27  1  0.37250949  0.71638228  0.83777105  1
  O  O28  1  0.28851496  0.33971036  0.81528644  1
  O  O29  1  0.05127376  0.72362803  0.16576506  1
  O  O30  1  0.33449647  0.61914768  0.65209623  1
  O  O31  1  0.33793679  0.05091171  0.86405596  1
  O  O32  1  0.27635975  0.65750187  0.47891195  1
  O  O33  1  0.62715980  0.00051136  0.82206818  1
  O  O34  1  0.00317189  0.36708478  0.18160919  1
  O  O35  1  0.35529024  0.34128960  0.50199251  1
  O  O36  1  0.35896768  0.00930665  0.68238501  1
  O  O37  1  0.65082318  0.94547838  0.64300079  1
  O  O38  1  0.38036346  0.70991603  0.33504042  1
  O  O39  1  0.65438149  0.38339721  0.85137815  1
  O  O40  1  0.27675422  0.31818171  0.30868507  1
  O  O41  1  0.70577537  0.66007944  0.69097092  1
  O  O42  1  0.34067833  0.61507775  0.14629076  1
  O  O43  1  0.62975615  0.28650927  0.66648169  1
  O  O44  1  0.34518094  0.04007893  0.35878496  1
  O  O45  1  0.63722825  0.99288315  0.31611763  1
  O  O46  1  0.61653043  0.63005662  0.49876426  1
  O  O47  1  0.00268805  0.64714796  0.82111242  1
  O  O48  1  0.37544975  0.37023731  0.00562377  1
  O  O49  1  0.37274352  0.00630216  0.18167967  1
  O  O50  1  0.71496569  0.33224540  0.52263561  1
  O  O51  1  0.66991798  0.96533899  0.14030962  1
  O  O52  1  0.66681453  0.38729576  0.35910057  1
  O  O53  1  0.94982413  0.29335985  0.84247688  1
  O  O54  1  0.72662640  0.68432839  0.19356358  1
  O  O55  1  0.63139141  0.30594228  0.17112478  1
  O  O56  1  0.64140575  0.65097123  0.00048758  1
  O  O57  1  0.01133077  0.64779065  0.32365510  1
  O  O58  1  0.72101423  0.33806776  0.02370721  1
  O  O59  1  0.95094864  0.28680855  0.33589299  1
