# generated using pymatgen
data_K3Cu(CN)4
_symmetry_space_group_name_H-M   'P 1'
_cell_length_a   8.07742567
_cell_length_b   8.07742566
_cell_length_c   8.07742566
_cell_angle_alpha   75.58064928
_cell_angle_beta   75.58064934
_cell_angle_gamma   75.58064930
_symmetry_Int_Tables_number   1
_chemical_formula_structural   K3Cu(CN)4
_chemical_formula_sum   'K6 Cu2 C8 N8'
_cell_volume   484.40637740
_cell_formula_units_Z   2
loop_
 _symmetry_equiv_pos_site_id
 _symmetry_equiv_pos_as_xyz
  1  'x, y, z'
loop_
 _atom_site_type_symbol
 _atom_site_label
 _atom_site_symmetry_multiplicity
 _atom_site_fract_x
 _atom_site_fract_y
 _atom_site_fract_z
 _atom_site_occupancy
  C  C0  1  0.50837090  0.36506984  0.73371881  1
  C  C1  1  0.73371881  0.50837090  0.36506984  1
  C  C2  1  0.88423329  0.88423329  0.88423329  1
  C  C3  1  0.38423329  0.38423329  0.38423329  1
  C  C4  1  0.36506984  0.73371881  0.50837090  1
  C  C5  1  0.86506984  0.00837090  0.23371881  1
  C  C6  1  0.00837090  0.23371881  0.86506984  1
  C  C7  1  0.23371881  0.86506984  0.00837090  1
  N  N8  1  0.78186169  0.00684231  0.37688512  1
  N  N9  1  0.28186169  0.87688512  0.50684231  1
  N  N10  1  0.50684231  0.28186169  0.87688512  1
  N  N11  1  0.87688512  0.50684231  0.28186169  1
  N  N12  1  0.81513563  0.81513563  0.81513563  1
  N  N13  1  0.31513563  0.31513563  0.31513563  1
  N  N14  1  0.37688512  0.78186169  0.00684231  1
  N  N15  1  0.00684231  0.37688512  0.78186169  1
  K  K16  1  0.50065699  0.00910269  0.66661830  1
  K  K17  1  0.00910269  0.66661830  0.50065699  1
  K  K18  1  0.66661830  0.50065699  0.00910269  1
  K  K19  1  0.16661830  0.50910269  0.00065699  1
  K  K20  1  0.50910269  0.00065699  0.16661830  1
  K  K21  1  0.00065699  0.16661830  0.50910269  1
  Cu  Cu22  1  0.49870445  0.49870445  0.49870445  1
  Cu  Cu23  1  0.99870445  0.99870445  0.99870445  1
