# generated using pymatgen
data_ZnNi3P3O13
_symmetry_space_group_name_H-M   'P 1'
_cell_length_a   6.22817657
_cell_length_b   7.39979733
_cell_length_c   10.40621586
_cell_angle_alpha   99.93306753
_cell_angle_beta   90.00000000
_cell_angle_gamma   90.00000000
_symmetry_Int_Tables_number   1
_chemical_formula_structural   ZnNi3P3O13
_chemical_formula_sum   'Zn2 Ni6 P6 O26'
_cell_volume   472.40467134
_cell_formula_units_Z   2
loop_
 _symmetry_equiv_pos_site_id
 _symmetry_equiv_pos_as_xyz
  1  'x, y, z'
loop_
 _atom_site_type_symbol
 _atom_site_label
 _atom_site_symmetry_multiplicity
 _atom_site_fract_x
 _atom_site_fract_y
 _atom_site_fract_z
 _atom_site_occupancy
  Zn  Zn0  1  0.75000000  0.62853366  0.14807537  1
  Zn  Zn1  1  0.25000000  0.37146634  0.85192463  1
  Ni  Ni2  1  0.25000000  0.36082773  0.20451755  1
  Ni  Ni3  1  0.75000000  0.63917227  0.79548245  1
  Ni  Ni4  1  0.25000000  0.76386978  0.44282147  1
  Ni  Ni5  1  0.50000000  -0.00000000  -0.00000000  1
  Ni  Ni6  1  0.75000000  0.23613022  0.55717853  1
  Ni  Ni7  1  -0.00000000  -0.00000000  -0.00000000  1
  P  P8  1  0.25000000  0.20675734  0.48419775  1
  P  P9  1  0.75000000  0.79324266  0.51580225  1
  P  P10  1  0.25000000  0.73610231  0.76527536  1
  P  P11  1  0.75000000  0.26389769  0.23472464  1
  P  P12  1  0.75000000  0.31506537  0.87553313  1
  P  P13  1  0.25000000  0.68493463  0.12446687  1
  O  O14  1  0.75000000  0.37029802  0.73794969  1
  O  O15  1  0.55936152  0.76018650  0.41904476  1
  O  O16  1  0.25000000  0.80031824  0.63487004  1
  O  O17  1  0.53738790  0.21302793  0.89257602  1
  O  O18  1  0.75000000  0.64830501  0.60522670  1
  O  O19  1  0.75000000  0.87380836  0.90406891  1
  O  O20  1  0.25000000  0.35169499  0.39477330  1
  O  O21  1  0.03738790  0.78697207  0.10742398  1
  O  O22  1  0.25000000  0.01513766  0.39928244  1
  O  O23  1  0.75000000  0.98486234  0.60071756  1
  O  O24  1  0.06304152  0.60504410  0.78971959  1
  O  O25  1  0.25000000  0.12619164  0.09593109  1
  O  O26  1  0.56304152  0.39495590  0.21028041  1
  O  O27  1  0.75000000  0.51034264  0.96175110  1
  O  O28  1  0.75000000  0.19968176  0.36512996  1
  O  O29  1  0.46261210  0.78697207  0.10742398  1
  O  O30  1  0.94063848  0.76018650  0.41904476  1
  O  O31  1  0.44063848  0.23981350  0.58095524  1
  O  O32  1  0.43695848  0.60504410  0.78971959  1
  O  O33  1  0.25000000  0.62970198  0.26205031  1
  O  O34  1  0.75000000  0.09166114  0.12396194  1
  O  O35  1  0.25000000  0.90833886  0.87603806  1
  O  O36  1  0.93695848  0.39495590  0.21028041  1
  O  O37  1  0.96261210  0.21302793  0.89257602  1
  O  O38  1  0.05936152  0.23981350  0.58095524  1
  O  O39  1  0.25000000  0.48965736  0.03824890  1
