# generated using pymatgen
data_Mg(Mo3Se4)2
_symmetry_space_group_name_H-M   'P 1'
_cell_length_a   6.85717077
_cell_length_b   6.83197879
_cell_length_c   13.69604421
_cell_angle_alpha   93.17031134
_cell_angle_beta   93.23755985
_cell_angle_gamma   93.37630904
_symmetry_Int_Tables_number   1
_chemical_formula_structural   Mg(Mo3Se4)2
_chemical_formula_sum   'Mg2 Mo12 Se16'
_cell_volume   638.38944750
_cell_formula_units_Z   2
loop_
 _symmetry_equiv_pos_site_id
 _symmetry_equiv_pos_as_xyz
  1  'x, y, z'
loop_
 _atom_site_type_symbol
 _atom_site_label
 _atom_site_symmetry_multiplicity
 _atom_site_fract_x
 _atom_site_fract_y
 _atom_site_fract_z
 _atom_site_occupancy
  Mg  Mg0  1  0.11173488  0.95315063  0.47280051  1
  Mg  Mg1  1  0.94526641  0.11163789  0.97713646  1
  Mo  Mo2  1  0.23637624  0.41751694  0.77426695  1
  Mo  Mo3  1  0.23357970  0.41614435  0.27272857  1
  Mo  Mo4  1  0.41759151  0.54781197  0.61670565  1
  Mo  Mo5  1  0.45391698  0.76512059  0.79184793  1
  Mo  Mo6  1  0.41522859  0.54783860  0.11892944  1
  Mo  Mo7  1  0.45450762  0.76539208  0.29146804  1
  Mo  Mo8  1  0.54497493  0.23731543  0.70824645  1
  Mo  Mo9  1  0.58249543  0.45364890  0.88320227  1
  Mo  Mo10  1  0.54921364  0.23516733  0.20754384  1
  Mo  Mo11  1  0.58719304  0.45404698  0.38192041  1
  Mo  Mo12  1  0.76471601  0.58829383  0.72617036  1
  Mo  Mo13  1  0.76882900  0.58631197  0.22714290  1
  Se  Se14  1  0.12955273  0.73387943  0.68631887  1
  Se  Se15  1  0.13064121  0.73215321  0.18846321  1
  Se  Se16  1  0.27021331  0.62422751  0.93649650  1
  Se  Se17  1  0.21238502  0.22127432  0.60972191  1
  Se  Se18  1  0.26629104  0.61686692  0.43640859  1
  Se  Se19  1  0.21846073  0.21099254  0.11138144  1
  Se  Se20  1  0.37428726  0.12915910  0.86794399  1
  Se  Se21  1  0.37585119  0.12974929  0.36584878  1
  Se  Se22  1  0.62313419  0.87292166  0.63353894  1
  Se  Se23  1  0.62908167  0.87141712  0.13470089  1
  Se  Se24  1  0.78554440  0.77989566  0.89313481  1
  Se  Se25  1  0.73051175  0.37756396  0.56477803  1
  Se  Se26  1  0.78209617  0.78755173  0.39150263  1
  Se  Se27  1  0.73421318  0.37825264  0.06520345  1
  Se  Se28  1  0.87300692  0.26790973  0.80945224  1
  Se  Se29  1  0.87140523  0.26878768  0.31284595  1
