# generated using pymatgen
data_La5V3S6O7
_symmetry_space_group_name_H-M   'P 1'
_cell_length_a   3.82626851
_cell_length_b   10.33267338
_cell_length_c   18.11131183
_cell_angle_alpha   90.01246133
_cell_angle_beta   89.94609941
_cell_angle_gamma   90.09099110
_symmetry_Int_Tables_number   1
_chemical_formula_structural   La5V3S6O7
_chemical_formula_sum   'La10 V6 S12 O14'
_cell_volume   716.04003148
_cell_formula_units_Z   2
loop_
 _symmetry_equiv_pos_site_id
 _symmetry_equiv_pos_as_xyz
  1  'x, y, z'
loop_
 _atom_site_type_symbol
 _atom_site_label
 _atom_site_symmetry_multiplicity
 _atom_site_fract_x
 _atom_site_fract_y
 _atom_site_fract_z
 _atom_site_occupancy
  La  La0  1  0.24975786  0.22992933  0.75172242  1
  La  La1  1  0.24998343  0.03137841  0.13466255  1
  La  La2  1  0.24966569  0.58395079  0.91287038  1
  La  La3  1  0.74981718  0.41057410  0.08491307  1
  La  La4  1  0.75035289  0.97431043  0.86423118  1
  La  La5  1  0.24970954  0.02701236  0.36469152  1
  La  La6  1  0.75026740  0.41636900  0.41307117  1
  La  La7  1  0.74977481  0.96837032  0.63426413  1
  La  La8  1  0.25000044  0.58974348  0.58544067  1
  La  La9  1  0.75026875  0.77064266  0.25205202  1
  V  V10  1  0.75006948  0.75251021  0.05697058  1
  V  V11  1  0.75093313  0.75122331  0.44316187  1
  V  V12  1  0.24994553  0.24730145  0.55694427  1
  V  V13  1  0.75015228  0.68817409  0.75009844  1
  V  V14  1  0.24984194  0.31193675  0.24995907  1
  V  V15  1  0.24742614  0.24688582  0.94442878  1
  S  S16  1  0.25026963  0.85039883  0.98771165  1
  S  S17  1  0.74991502  0.14226069  0.24967625  1
  S  S18  1  0.24964690  0.53898387  0.74927061  1
  S  S19  1  0.74774535  0.35396314  0.86913080  1
  S  S20  1  0.25154141  0.64530678  0.36857280  1
  S  S21  1  0.75005398  0.35165026  0.63078586  1
  S  S22  1  0.75378000  0.14554590  0.01558770  1
  S  S23  1  0.74961314  0.14986501  0.48775726  1
  S  S24  1  0.25005789  0.85778141  0.74959784  1
  S  S25  1  0.75031328  0.46096472  0.24937653  1
  S  S26  1  0.24828362  0.85348986  0.51507743  1
  S  S27  1  0.25010876  0.64795114  0.13096856  1
  O  O28  1  0.75003073  0.88712991  0.12624478  1
  O  O29  1  0.25019596  0.90325145  0.24827286  1
  O  O30  1  0.24990191  0.11271261  0.62590810  1
  O  O31  1  0.75002544  0.70750813  0.85140748  1
  O  O32  1  0.74966674  0.89562329  0.37020320  1
  O  O33  1  0.74971894  0.60882121  0.99892965  1
  O  O34  1  0.74971232  0.09690369  0.74804115  1
  O  O35  1  0.24994320  0.29208827  0.35157196  1
  O  O36  1  0.25033401  0.28835927  0.14938788  1
  O  O37  1  0.75004590  0.59601723  0.50488259  1
  O  O38  1  0.25033583  0.40416369  0.00431387  1
  O  O39  1  0.74976382  0.71196646  0.64935806  1
  O  O40  1  0.25084272  0.10554870  0.86958651  1
  O  O41  1  0.25018702  0.39142898  0.49889551  1
