# generated using pymatgen
data_Ru2S4Cl13
_symmetry_space_group_name_H-M   'P 1'
_cell_length_a   9.17895205
_cell_length_b   15.58107831
_cell_length_c   33.96740807
_cell_angle_alpha   90.00000000
_cell_angle_beta   96.19333937
_cell_angle_gamma   90.00000000
_symmetry_Int_Tables_number   1
_chemical_formula_structural   Ru2S4Cl13
_chemical_formula_sum   'Ru16 S32 Cl104'
_cell_volume   4829.59640691
_cell_formula_units_Z   8
loop_
 _symmetry_equiv_pos_site_id
 _symmetry_equiv_pos_as_xyz
  1  'x, y, z'
loop_
 _atom_site_type_symbol
 _atom_site_label
 _atom_site_symmetry_multiplicity
 _atom_site_fract_x
 _atom_site_fract_y
 _atom_site_fract_z
 _atom_site_occupancy
  Ru  Ru0  1  0.11742381  0.72088638  0.50426059  1
  Ru  Ru1  1  0.98259621  0.56389529  0.23173989  1
  Ru  Ru2  1  0.41501577  0.78623790  0.91919544  1
  Ru  Ru3  1  0.85420863  0.94297764  0.75203470  1
  Ru  Ru4  1  0.48259621  0.93610471  0.73173989  1
  Ru  Ru5  1  0.58498423  0.21376210  0.08080456  1
  Ru  Ru6  1  0.01740379  0.43610471  0.76826011  1
  Ru  Ru7  1  0.88257619  0.27911362  0.49573941  1
  Ru  Ru8  1  0.51740379  0.06389529  0.26826011  1
  Ru  Ru9  1  0.64579137  0.44297764  0.74796530  1
  Ru  Ru10  1  0.08498423  0.28623790  0.58080456  1
  Ru  Ru11  1  0.35420863  0.55702236  0.25203470  1
  Ru  Ru12  1  0.38257619  0.22088638  0.99573941  1
  Ru  Ru13  1  0.14579137  0.05702236  0.24796530  1
  Ru  Ru14  1  0.91501577  0.71376210  0.41919544  1
  Ru  Ru15  1  0.61742381  0.77911362  0.00426059  1
  S  S16  1  -0.00646748  0.87244047  0.80050263  1
  S  S17  1  0.49353252  0.62755953  0.30050263  1
  S  S18  1  0.49246057  0.21377671  0.93871530  1
  S  S19  1  0.27118989  0.60921998  0.51995533  1
  S  S20  1  0.87880956  0.45147949  0.89224635  1
  S  S21  1  0.14639817  0.53452351  0.28966527  1
  S  S22  1  -0.01485429  0.05744000  0.76318917  1
  S  S23  1  0.12119044  0.54852051  0.10775365  1
  S  S24  1  0.50753943  0.78622329  0.06128470  1
  S  S25  1  0.51485429  0.55744000  0.73681083  1
  S  S26  1  0.88572420  0.79555025  0.36467494  1
  S  S27  1  0.22881011  0.10921998  0.98004467  1
  S  S28  1  0.00646748  0.12755953  0.19949737  1
  S  S29  1  0.50646748  0.37244047  0.69949737  1
  S  S30  1  0.11427580  0.20444975  0.63532506  1
  S  S31  1  0.37880956  0.04852051  0.39224635  1
  S  S32  1  0.77118989  0.89078002  0.01995533  1
  S  S33  1  0.38572420  0.70444975  0.86467494  1
  S  S34  1  0.27872022  0.81809717  0.53110895  1
  S  S35  1  0.35360183  0.03452351  0.21033473  1
  S  S36  1  0.77872022  0.68190283  0.03110895  1
  S  S37  1  0.85360183  0.46547649  0.71033473  1
  S  S38  1  0.61427580  0.29555025  0.13532506  1
  S  S39  1  0.00753943  0.71377671  0.56128470  1
  S  S40  1  0.64639817  0.96547649  0.78966527  1
  S  S41  1  0.22127978  0.31809717  0.96889105  1
  S  S42  1  0.99246057  0.28622329  0.43871530  1
  S  S43  1  0.72127978  0.18190283  0.46889105  1
  S  S44  1  0.62119044  0.95147949  0.60775365  1
  S  S45  1  0.01485429  0.94256000  0.23681083  1
  S  S46  1  0.48514571  0.44256000  0.26318917  1
  S  S47  1  0.72881011  0.39078002  0.48004467  1
  Cl  Cl48  1  0.66131087  0.71518039  0.41475894  1
  Cl  Cl49  1  0.10163684  0.11451218  0.14689133  1
  Cl  Cl50  1  0.61461491  0.10068062  0.33219372  1
  Cl  Cl51  1  0.13697772  0.40951935  0.30666362  1
  Cl  Cl52  1  0.48001088  0.61288774  0.20185461  1
  Cl  Cl53  1  0.21193979  0.05496537  0.42659117  1
  Cl  Cl54  1  0.13968026  0.07628484  0.62270063  1
  Cl  Cl55  1  0.67528937  0.76863926  0.93493775  1
  Cl  Cl56  1  0.38538509  0.89931938  0.66780628  1
  Cl  Cl57  1  0.22178693  0.89068297  0.04689576  1
  Cl  Cl58  1  0.10542566  0.12797115  0.92590446  1
  Cl  Cl59  1  0.17276775  0.47674453  0.20355220  1
  Cl  Cl60  1  0.27821307  0.39068297  0.45310424  1
  Cl  Cl61  1  0.83122619  0.32493987  0.76649115  1
  Cl  Cl62  1  0.12679746  0.78466259  0.60694483  1
  Cl  Cl63  1  0.10294469  0.06651002  0.81770188  1
  Cl  Cl64  1  0.03789827  0.59327945  0.58682051  1
  Cl  Cl65  1  0.16250655  0.34460463  0.73804007  1
  Cl  Cl66  1  0.98001088  0.88711226  0.70185461  1
  Cl  Cl67  1  0.81136014  0.05852642  0.47077191  1
  Cl  Cl68  1  0.67276775  0.02325547  0.70355220  1
  Cl  Cl69  1  0.39457434  0.62797115  0.57409554  1
  Cl  Cl70  1  0.43316102  0.89862607  0.87506600  1
  Cl  Cl71  1  0.87320254  0.21533741  0.39305517  1
  Cl  Cl72  1  0.56696091  0.39060305  0.51679622  1
  Cl  Cl73  1  0.08140680  0.18244093  0.52623423  1
  Cl  Cl74  1  0.94998287  0.57350245  0.89798098  1
  Cl  Cl75  1  0.16877381  0.67506013  0.23350885  1
  Cl  Cl76  1  0.43303909  0.60939695  0.48320378  1
  Cl  Cl77  1  0.78806021  0.94503463  0.57340883  1
  Cl  Cl78  1  0.83749345  0.65539537  0.26195993  1
  Cl  Cl79  1  0.33749345  0.84460463  0.76195993  1
  Cl  Cl80  1  0.63968026  0.42371516  0.12270063  1
  Cl  Cl81  1  0.47177542  0.75731285  0.29235218  1
  Cl  Cl82  1  0.89836316  0.88548782  0.85310867  1
  Cl  Cl83  1  0.72178693  0.60931703  0.54689576  1
  Cl  Cl84  1  0.44655427  0.83687508  0.49627411  1
  Cl  Cl85  1  0.52822458  0.24268715  0.70764782  1
  Cl  Cl86  1  0.83868913  0.21518039  0.08524106  1
  Cl  Cl87  1  0.41859320  0.68244093  0.97376577  1
  Cl  Cl88  1  0.82723225  0.52325547  0.79644780  1
  Cl  Cl89  1  0.77821307  0.10931703  0.95310424  1
  Cl  Cl90  1  0.86031974  0.92371516  0.37729937  1
  Cl  Cl91  1  0.33868913  0.28481961  0.58524106  1
  Cl  Cl92  1  0.82471063  0.26863926  0.56506225  1
  Cl  Cl93  1  0.53789827  0.90672055  0.08682051  1
  Cl  Cl94  1  0.32471063  0.23136074  0.06506225  1
  Cl  Cl95  1  0.66250655  0.15539537  0.23804007  1
  Cl  Cl96  1  0.62679746  0.71533741  0.10694483  1
  Cl  Cl97  1  0.32856422  0.04919697  0.73667570  1
  Cl  Cl98  1  0.60294469  0.43348998  0.31770188  1
  Cl  Cl99  1  0.39836316  0.61451218  0.35310867  1
  Cl  Cl100  1  0.91859320  0.81755907  0.47376577  1
  Cl  Cl101  1  0.88538509  0.60068062  0.16780628  1
  Cl  Cl102  1  0.17143578  0.54919697  0.76332430  1
  Cl  Cl103  1  0.58140680  0.31755907  0.02623423  1
  Cl  Cl104  1  0.67143578  0.95080303  0.26332430  1
  Cl  Cl105  1  0.55001713  0.07350245  0.60201902  1
  Cl  Cl106  1  0.89457434  0.87202885  0.07409554  1
  Cl  Cl107  1  0.97177542  0.74268715  0.79235218  1
  Cl  Cl108  1  0.37320254  0.28466259  0.89305517  1
  Cl  Cl109  1  0.05001713  0.42649755  0.10201902  1
  Cl  Cl110  1  0.60163684  0.38548782  0.64689133  1
  Cl  Cl111  1  0.02822458  0.25731285  0.20764782  1
  Cl  Cl112  1  0.33122619  0.17506013  0.26649115  1
  Cl  Cl113  1  0.11461491  0.39931938  0.83219372  1
  Cl  Cl114  1  0.16131087  0.78481961  0.91475894  1
  Cl  Cl115  1  0.94472208  0.61114346  0.47396518  1
  Cl  Cl116  1  0.05527792  0.38885654  0.52603482  1
  Cl  Cl117  1  0.51998912  0.38711226  0.79814539  1
  Cl  Cl118  1  0.57933746  0.69987959  0.83867954  1
  Cl  Cl119  1  0.56683898  0.10137393  0.12493400  1
  Cl  Cl120  1  0.39705531  0.56651002  0.68229812  1
  Cl  Cl121  1  0.55344573  0.16312492  0.50372589  1
  Cl  Cl122  1  0.93303909  0.89060305  0.98320378  1
  Cl  Cl123  1  0.82856422  0.45080303  0.23667570  1
  Cl  Cl124  1  0.86302228  0.59048065  0.69333638  1
  Cl  Cl125  1  0.92066254  0.19987959  0.66132046  1
  Cl  Cl126  1  0.71193979  0.44503463  0.92659117  1
  Cl  Cl127  1  0.96210173  0.40672055  0.41317949  1
  Cl  Cl128  1  0.32723225  0.97674453  0.29644780  1
  Cl  Cl129  1  0.36302228  0.90951935  0.19333638  1
  Cl  Cl130  1  0.06683898  0.39862607  0.62493400  1
  Cl  Cl131  1  0.01998912  0.11288774  0.29814539  1
  Cl  Cl132  1  0.93316102  0.60137393  0.37506600  1
  Cl  Cl133  1  0.18863986  0.94147358  0.52922809  1
  Cl  Cl134  1  0.05344573  0.33687508  0.00372589  1
  Cl  Cl135  1  0.44472208  0.88885654  0.97396518  1
  Cl  Cl136  1  0.89705531  0.93348998  0.18229812  1
  Cl  Cl137  1  0.17528937  0.73136074  0.43493775  1
  Cl  Cl138  1  0.68863986  0.55852642  0.02922809  1
  Cl  Cl139  1  0.94655427  0.66312492  0.99627411  1
  Cl  Cl140  1  0.44998287  0.92649755  0.39798098  1
  Cl  Cl141  1  0.60542566  0.37202885  0.42590446  1
  Cl  Cl142  1  0.36031974  0.57628484  0.87729937  1
  Cl  Cl143  1  0.66877381  0.82493987  0.73350885  1
  Cl  Cl144  1  0.55527792  0.11114346  0.02603482  1
  Cl  Cl145  1  0.28806021  0.55496537  0.07340883  1
  Cl  Cl146  1  0.31136014  0.44147358  0.97077191  1
  Cl  Cl147  1  0.63697772  0.09048065  0.80666362  1
  Cl  Cl148  1  0.46210173  0.09327945  0.91317949  1
  Cl  Cl149  1  0.42066254  0.30012041  0.16132046  1
  Cl  Cl150  1  0.06696091  0.10939695  0.01679622  1
  Cl  Cl151  1  0.07933746  0.80012041  0.33867954  1
