# generated using pymatgen
data_Ho14(PbS8)3
_symmetry_space_group_name_H-M   'P 1'
_cell_length_a   7.27092182
_cell_length_b   7.27187815
_cell_length_c   21.82828360
_cell_angle_alpha   109.21903213
_cell_angle_beta   109.23548370
_cell_angle_gamma   109.90716735
_symmetry_Int_Tables_number   1
_chemical_formula_structural   Ho14(PbS8)3
_chemical_formula_sum   'Ho14 Pb3 S24'
_cell_volume   888.98967897
_cell_formula_units_Z   1
loop_
 _symmetry_equiv_pos_site_id
 _symmetry_equiv_pos_as_xyz
  1  'x, y, z'
loop_
 _atom_site_type_symbol
 _atom_site_label
 _atom_site_symmetry_multiplicity
 _atom_site_fract_x
 _atom_site_fract_y
 _atom_site_fract_z
 _atom_site_occupancy
  Ho  Ho0  1  0.10391968  0.73630510  0.94731396  1
  Ho  Ho1  1  0.25127880  0.60716777  0.78869028  1
  Ho  Ho2  1  0.13918848  0.75789286  0.62814960  1
  Ho  Ho3  1  0.37551035  0.25284729  0.87150955  1
  Ho  Ho4  1  0.25734058  0.62450583  0.46217693  1
  Ho  Ho5  1  0.11404267  0.74444167  0.28723314  1
  Ho  Ho6  1  0.74495176  0.88457409  0.71256631  1
  Ho  Ho7  1  0.40036762  0.26202401  0.55471269  1
  Ho  Ho8  1  0.86966659  0.11567866  0.91328310  1
  Ho  Ho9  1  0.24907242  0.61779305  0.12181803  1
  Ho  Ho10  1  0.75682498  0.88685875  0.37995714  1
  Ho  Ho11  1  0.38158682  0.25059365  0.21134472  1
  Ho  Ho12  1  0.88106402  0.13197348  0.58821666  1
  Ho  Ho13  1  0.73937716  0.87011406  0.03866024  1
  Pb  Pb14  1  0.62593292  0.38001821  0.41887592  1
  Pb  Pb15  1  0.61715372  0.36626277  0.07964361  1
  Pb  Pb16  1  0.87814823  0.12678768  0.25061900  1
  S  S17  1  0.00912217  0.87473897  0.83507919  1
  S  S18  1  0.49077323  0.98375481  0.94691564  1
  S  S19  1  0.12720578  0.12772077  0.71295476  1
  S  S20  1  0.35277302  0.50730770  0.66788782  1
  S  S21  1  0.64682383  0.65069989  0.88530415  1
  S  S22  1  0.49514684  0.98802846  0.78786986  1
  S  S23  1  0.14579314  0.13180963  0.38549503  1
  S  S24  1  0.36100468  0.52006580  0.33262515  1
  S  S25  1  0.49870371  0.99266867  0.61676248  1
  S  S26  1  0.64325245  0.64929777  0.55354902  1
  S  S27  1  0.87133455  0.50534090  0.66591730  1
  S  S28  1  0.50767275  0.99598843  0.45962178  1
  S  S29  1  0.47855797  0.98703119  0.11513677  1
  S  S30  1  0.00735691  0.35162764  0.83286014  1
  S  S31  1  0.12104431  0.12747427  0.04179360  1
  S  S32  1  0.35015355  0.50160859  0.99567940  1
  S  S33  1  0.48624296  0.98399185  0.28367922  1
  S  S34  1  0.63528278  0.63633305  0.21683490  1
  S  S35  1  0.01393094  0.88188551  0.50623224  1
  S  S36  1  0.87109269  0.52492137  0.33873216  1
  S  S37  1  0.01522787  0.36105079  0.50394665  1
  S  S38  1  0.01040620  0.85410822  0.16179189  1
  S  S39  1  0.86740563  0.49457446  0.99527664  1
  S  S40  1  0.01839021  0.35840036  0.16647934  1
