# generated using pymatgen
data_K2S5
_symmetry_space_group_name_H-M   'P 1'
_cell_length_a   6.81682921
_cell_length_b   8.73230668
_cell_length_c   14.52978145
_cell_angle_alpha   90.00000000
_cell_angle_beta   90.00000000
_cell_angle_gamma   90.00000000
_symmetry_Int_Tables_number   1
_chemical_formula_structural   K2S5
_chemical_formula_sum   'K8 S20'
_cell_volume   864.90911683
_cell_formula_units_Z   4
loop_
 _symmetry_equiv_pos_site_id
 _symmetry_equiv_pos_as_xyz
  1  'x, y, z'
loop_
 _atom_site_type_symbol
 _atom_site_label
 _atom_site_symmetry_multiplicity
 _atom_site_fract_x
 _atom_site_fract_y
 _atom_site_fract_z
 _atom_site_occupancy
  K  K0  1  0.87343958  0.66659772  0.89317657  1
  K  K1  1  0.05186905  0.96851692  0.30603875  1
  K  K2  1  0.44813095  0.03148308  0.80603875  1
  K  K3  1  0.62656042  0.33340228  0.39317657  1
  K  K4  1  0.94813095  0.46851692  0.19396125  1
  K  K5  1  0.37343958  0.83340228  0.10682343  1
  K  K6  1  0.12656042  0.16659772  0.60682343  1
  K  K7  1  0.55186905  0.53148308  0.69396125  1
  S  S8  1  0.88391325  0.64457432  0.39700852  1
  S  S9  1  0.14516861  0.55116578  0.42957978  1
  S  S10  1  0.61608675  0.35542568  0.89700852  1
  S  S11  1  0.11608675  0.14457432  0.10299148  1
  S  S12  1  0.91516427  0.98372738  0.78044535  1
  S  S13  1  0.15167749  0.32771964  0.39195805  1
  S  S14  1  0.38391325  0.85542568  0.60299148  1
  S  S15  1  0.35483139  0.44883422  0.92957978  1
  S  S16  1  0.12117303  0.33573215  0.82465704  1
  S  S17  1  0.65167749  0.17228036  0.60804195  1
  S  S18  1  0.62117303  0.16426785  0.17534296  1
  S  S19  1  0.08483573  0.48372738  0.71955465  1
  S  S20  1  0.41516427  0.51627262  0.21955465  1
  S  S21  1  0.37882697  0.66426785  0.32465704  1
  S  S22  1  0.58483573  0.01627262  0.28044535  1
  S  S23  1  0.34832251  0.67228036  0.89195805  1
  S  S24  1  0.64516861  0.94883422  0.57042022  1
  S  S25  1  0.87882697  0.83573215  0.67534296  1
  S  S26  1  0.84832251  0.82771964  0.10804195  1
  S  S27  1  0.85483139  0.05116578  0.07042022  1
