# generated using pymatgen
data_Rb
_symmetry_space_group_name_H-M   'P 1'
_cell_length_a   8.11232188
_cell_length_b   12.09529027
_cell_length_c   12.25900991
_cell_angle_alpha   40.00028335
_cell_angle_beta   68.88312861
_cell_angle_gamma   71.77381594
_symmetry_Int_Tables_number   1
_chemical_formula_structural   Rb
_chemical_formula_sum   Rb8
_cell_volume   719.91092334
_cell_formula_units_Z   8
loop_
 _symmetry_equiv_pos_site_id
 _symmetry_equiv_pos_as_xyz
  1  'x, y, z'
loop_
 _atom_site_type_symbol
 _atom_site_label
 _atom_site_symmetry_multiplicity
 _atom_site_fract_x
 _atom_site_fract_y
 _atom_site_fract_z
 _atom_site_occupancy
  Rb  Rb0  1  0.55817634  0.71240019  0.15797261  1
  Rb  Rb1  1  0.92923965  0.83296539  0.29834730  1
  Rb  Rb2  1  0.68847162  0.10584534  0.51593486  1
  Rb  Rb3  1  0.43491903  0.29952447  0.82622211  1
  Rb  Rb4  1  0.30495859  0.89359606  0.48930743  1
  Rb  Rb5  1  0.81000263  0.47227040  0.89720274  1
  Rb  Rb6  1  0.06439660  0.15994855  0.71017066  1
  Rb  Rb7  1  0.18135055  0.51521559  0.11143028  1
