# generated using pymatgen
data_UTa2O7
_symmetry_space_group_name_H-M   'P 1'
_cell_length_a   7.44549888
_cell_length_b   7.44549866
_cell_length_c   7.48781008
_cell_angle_alpha   59.81183040
_cell_angle_beta   59.81183141
_cell_angle_gamma   59.35636313
_symmetry_Int_Tables_number   1
_chemical_formula_structural   UTa2O7
_chemical_formula_sum   'U2 Ta4 O14'
_cell_volume   291.23336825
_cell_formula_units_Z   2
loop_
 _symmetry_equiv_pos_site_id
 _symmetry_equiv_pos_as_xyz
  1  'x, y, z'
loop_
 _atom_site_type_symbol
 _atom_site_label
 _atom_site_symmetry_multiplicity
 _atom_site_fract_x
 _atom_site_fract_y
 _atom_site_fract_z
 _atom_site_occupancy
  U  U0  1  0.62500000  0.62500000  0.12500000  1
  U  U1  1  0.62500000  0.62500000  0.62500000  1
  Ta  Ta2  1  0.12500000  0.12500000  0.12500000  1
  Ta  Ta3  1  0.12500000  0.12500000  0.62500000  1
  Ta  Ta4  1  0.12500000  0.62500000  0.12500000  1
  Ta  Ta5  1  0.62500000  0.12500000  0.12500000  1
  O  O6  1  0.06987198  0.06987198  0.43012802  1
  O  O7  1  0.04100077  0.44813961  0.06876435  1
  O  O8  1  0.04100077  0.44813961  0.44209527  1
  O  O9  1  0.44813961  0.04100077  0.06876435  1
  O  O10  1  0.44632668  0.44632668  0.05367332  1
  O  O11  1  0.20899923  0.80186039  0.18123565  1
  O  O12  1  0.18012802  0.18012802  0.81987198  1
  O  O13  1  0.44813961  0.04100077  0.44209527  1
  O  O14  1  0.80186039  0.20899923  0.18123565  1
  O  O15  1  0.20899923  0.80186039  0.80790473  1
  O  O16  1  0.53811974  0.53811974  0.46188026  1
  O  O17  1  0.80186039  0.20899923  0.80790473  1
  O  O18  1  0.80367332  0.80367332  0.19632668  1
  O  O19  1  0.71188026  0.71188026  0.78811974  1
