# generated using pymatgen
data_Gd7Ti8O26
_symmetry_space_group_name_H-M   'P 1'
_cell_length_a   7.21672182
_cell_length_b   14.47264799
_cell_length_c   12.43051042
_cell_angle_alpha   30.47189739
_cell_angle_beta   55.89210486
_cell_angle_gamma   61.34398330
_symmetry_Int_Tables_number   1
_chemical_formula_structural   Gd7Ti8O26
_chemical_formula_sum   'Gd7 Ti8 O26'
_cell_volume   545.11496105
_cell_formula_units_Z   1
loop_
 _symmetry_equiv_pos_site_id
 _symmetry_equiv_pos_as_xyz
  1  'x, y, z'
loop_
 _atom_site_type_symbol
 _atom_site_label
 _atom_site_symmetry_multiplicity
 _atom_site_fract_x
 _atom_site_fract_y
 _atom_site_fract_z
 _atom_site_occupancy
  Gd  Gd0  1  0.99474281  0.25398791  0.98765277  1
  Gd  Gd1  1  0.98401558  0.52990197  0.98097375  1
  Gd  Gd2  1  0.48319566  0.99576422  0.98177259  1
  Gd  Gd3  1  0.00707563  0.74462814  0.02723374  1
  Gd  Gd4  1  0.48900292  0.48894545  0.02832209  1
  Gd  Gd5  1  0.99841634  0.23208322  0.51374979  1
  Gd  Gd6  1  0.98171363  0.76514272  0.48590934  1
  Ti  Ti7  1  0.02058305  0.99580946  0.48889977  1
  Ti  Ti8  1  0.49716353  0.29070874  0.96119627  1
  Ti  Ti9  1  0.97454463  0.53151466  0.49119431  1
  Ti  Ti10  1  0.51343752  0.74669596  0.99692150  1
  Ti  Ti11  1  0.55111963  0.24047864  0.48712559  1
  Ti  Ti12  1  0.50643105  0.50000764  0.50229434  1
  Ti  Ti13  1  0.48654665  0.71424412  0.53764896  1
  Ti  Ti14  1  0.49296657  0.99381089  0.50061789  1
  O  O15  1  0.19850684  0.17745541  0.18302315  1
  O  O16  1  0.11339936  0.50305252  0.13331977  1
  O  O17  1  0.57127704  0.20207677  0.17524628  1
  O  O18  1  0.38880256  0.21773040  0.42844547  1
  O  O19  1  0.19968132  0.64833161  0.21789323  1
  O  O20  1  0.59901920  0.49565736  0.16655554  1
  O  O21  1  0.16544349  0.50665393  0.58017654  1
  O  O22  1  0.12512790  0.00506395  0.12735112  1
  O  O23  1  0.54302568  0.30540861  0.57069820  1
  O  O24  1  0.57808321  0.69219180  0.18202899  1
  O  O25  1  0.85309717  0.20849268  0.40823580  1
  O  O26  1  0.43583045  0.72170667  0.39712001  1
  O  O27  1  0.17127636  0.79610199  0.57310674  1
  O  O28  1  0.43784281  0.28293832  0.83553020  1
  O  O29  1  0.83130436  0.48426888  0.44109203  1
  O  O30  1  0.38697973  0.50146101  0.85451328  1
  O  O31  1  0.17409366  0.00048860  0.57762701  1
  O  O32  1  0.81485262  0.31683778  0.81631440  1
  O  O33  1  0.81443456  0.71828718  0.41128735  1
  O  O34  1  0.57145538  0.81645688  0.55100335  1
  O  O35  1  0.42040491  0.78894594  0.83489285  1
  O  O36  1  0.86672708  0.50330882  0.87344888  1
  O  O37  1  0.81060039  0.00402510  0.43252132  1
  O  O38  1  0.45984360  0.99616885  0.80421878  1
  O  O39  1  0.83378237  0.79537269  0.82583887  1
  O  O40  1  0.85286275  0.00019955  0.87614212  1
