# generated using pymatgen
data_Li7Nb8O24
_symmetry_space_group_name_H-M   'P 1'
_cell_length_a   22.17861521
_cell_length_b   14.87455215
_cell_length_c   9.75690176
_cell_angle_alpha   27.31111478
_cell_angle_beta   51.43976162
_cell_angle_gamma   38.57016584
_symmetry_Int_Tables_number   1
_chemical_formula_structural   Li7Nb8O24
_chemical_formula_sum   'Li14 Nb16 O48'
_cell_volume   891.66683305
_cell_formula_units_Z   2
loop_
 _symmetry_equiv_pos_site_id
 _symmetry_equiv_pos_as_xyz
  1  'x, y, z'
loop_
 _atom_site_type_symbol
 _atom_site_label
 _atom_site_symmetry_multiplicity
 _atom_site_fract_x
 _atom_site_fract_y
 _atom_site_fract_z
 _atom_site_occupancy
  Li  Li0  1  0.18671489  0.50161462  0.24933526  1
  Li  Li1  1  0.06234794  0.50075070  0.74920842  1
  Li  Li2  1  0.06259236  0.99846403  0.25322590  1
  Li  Li3  1  0.43811151  0.49939357  0.24959827  1
  Li  Li4  1  0.31264269  0.50030647  0.74950212  1
  Li  Li5  1  0.31343343  0.99869660  0.24928281  1
  Li  Li6  1  0.56156657  0.50130340  0.75071719  1
  Li  Li7  1  0.56235731  0.99969353  0.25049788  1
  Li  Li8  1  0.43688849  0.00060643  0.75040173  1
  Li  Li9  1  0.93652172  0.50271875  0.24689654  1
  Li  Li10  1  0.81240764  0.50153597  0.74677410  1
  Li  Li11  1  0.81265206  0.99924930  0.25079158  1
  Li  Li12  1  0.68828511  0.99838538  0.75066474  1
  Li  Li13  1  0.93847828  0.99728125  0.75310346  1
  Nb  Nb14  1  0.00218818  0.99817583  0.99955174  1
  Nb  Nb15  1  0.25015196  0.00036158  0.00289798  1
  Nb  Nb16  1  0.12564129  0.48996394  0.01147290  1
  Nb  Nb17  1  0.50210297  0.99859488  0.99869422  1
  Nb  Nb18  1  0.37289703  0.50140512  0.00130578  1
  Nb  Nb19  1  0.25019102  0.50671882  0.49400698  1
  Nb  Nb20  1  0.74935871  0.01003606  0.98852710  1
  Nb  Nb21  1  0.12217411  0.00257093  0.50020123  1
  Nb  Nb22  1  0.62484804  0.49963842  0.99710202  1
  Nb  Nb23  1  0.50253808  0.49357165  0.50231621  1
  Nb  Nb24  1  0.37246192  0.00642835  0.49768379  1
  Nb  Nb25  1  0.87281182  0.50182417  0.00044826  1
  Nb  Nb26  1  0.75282589  0.49742907  0.49979877  1
  Nb  Nb27  1  0.62480898  0.99328118  0.50599302  1
  Nb  Nb28  1  0.00179926  0.49330264  0.50856050  1
  Nb  Nb29  1  0.87320074  0.00669736  0.49143950  1
  O  O30  1  0.01620669  0.30955798  0.12878712  1
  O  O31  1  0.03082659  0.12114796  0.62843164  1
  O  O32  1  0.17059178  0.19242618  0.24260935  1
  O  O33  1  0.08634671  0.40409994  0.34540982  1
  O  O34  1  0.10907655  0.19164666  0.87141214  1
  O  O35  1  0.26524591  0.30968175  0.13058615  1
  O  O36  1  0.04369471  0.69216459  0.24871556  1
  O  O37  1  0.28328975  0.12157308  0.62761253  1
  O  O38  1  0.20701630  0.30406093  0.75519458  1
  O  O39  1  0.42190771  0.18682544  0.25129636  1
  O  O40  1  0.13700636  0.80008770  0.14958199  1
  O  O41  1  0.34244464  0.38095849  0.36843554  1
  O  O42  1  0.15853787  0.62094703  0.62743700  1
  O  O43  1  0.35919188  0.19233898  0.86927710  1
  O  O44  1  0.08126244  0.81285317  0.74208437  1
  O  O45  1  0.51580812  0.30766102  0.13072290  1
  O  O46  1  0.29653628  0.68597752  0.25451919  1
  O  O47  1  0.53255636  0.11904151  0.63156446  1
  O  O48  1  0.21792229  0.88040563  0.36831466  1
  O  O49  1  0.45309229  0.31317456  0.74870364  1
  O  O50  1  0.23596232  0.68700678  0.86994829  1
  O  O51  1  0.66798370  0.19593907  0.24480542  1
  O  O52  1  0.38987940  0.80854848  0.13015634  1
  O  O53  1  0.59170925  0.37842692  0.37238747  1
  O  O54  1  0.40650871  0.61629784  0.63394203  1
  O  O55  1  0.60975409  0.19031825  0.86941385  1
  O  O56  1  0.33976361  0.79817759  0.74706911  1
  O  O57  1  0.76592345  0.30835334  0.12858786  1
  O  O58  1  0.53523639  0.70182241  0.25293089  1
  O  O59  1  0.78865329  0.09590006  0.65459018  1
  O  O60  1  0.46849129  0.88370216  0.36605797  1
  O  O61  1  0.70440822  0.30757382  0.75739065  1
  O  O62  1  0.48512060  0.69145152  0.86984366  1
  O  O63  1  0.91991350  0.19033142  0.25022123  1
  O  O64  1  0.63903768  0.81299322  0.13005171  1
  O  O65  1  0.84417241  0.37885204  0.37156836  1
  O  O66  1  0.65707871  0.61959437  0.63168534  1
  O  O67  1  0.85879331  0.19044202  0.87121288  1
  O  O68  1  0.57846372  0.81402248  0.74548081  1
  O  O69  1  0.79373756  0.68714683  0.25791563  1
  O  O70  1  0.71646113  0.87905297  0.37256300  1
  O  O71  1  0.95508650  0.30966858  0.74977877  1
  O  O72  1  0.73799364  0.69991230  0.85041801  1
  O  O73  1  0.88774428  0.81190332  0.13430558  1
  O  O74  1  0.90867824  0.61929017  0.63038182  1
  O  O75  1  0.83130529  0.80783541  0.75128444  1
  O  O76  1  0.96632176  0.88070983  0.36961818  1
  O  O77  1  0.98725572  0.68809668  0.86569442  1
