# generated using pymatgen
data_CaLa9Ti5Cr5O30
_symmetry_space_group_name_H-M   'P 1'
_cell_length_a   5.56970694
_cell_length_b   27.81621923
_cell_length_c   14.66386253
_cell_angle_alpha   19.30822090
_cell_angle_beta   56.14412217
_cell_angle_gamma   60.66417966
_symmetry_Int_Tables_number   1
_chemical_formula_structural   CaLa9Ti5Cr5O30
_chemical_formula_sum   'Ca1 La9 Ti5 Cr5 O30'
_cell_volume   618.47796577
_cell_formula_units_Z   1
loop_
 _symmetry_equiv_pos_site_id
 _symmetry_equiv_pos_as_xyz
  1  'x, y, z'
loop_
 _atom_site_type_symbol
 _atom_site_label
 _atom_site_symmetry_multiplicity
 _atom_site_fract_x
 _atom_site_fract_y
 _atom_site_fract_z
 _atom_site_occupancy
  Ca  Ca0  1  0.25125731  0.15270512  0.24353657  1
  La  La1  1  0.24624771  0.35043331  0.25337932  1
  La  La2  1  0.25213656  0.54661395  0.25417754  1
  La  La3  1  0.74951466  0.04883323  0.75524945  1
  La  La4  1  0.24862604  0.74983027  0.25312127  1
  La  La5  1  0.74774702  0.25113103  0.74692107  1
  La  La6  1  0.25272404  0.95099121  0.24414097  1
  La  La7  1  0.75051076  0.45033129  0.74756997  1
  La  La8  1  0.74902948  0.65038126  0.75032103  1
  La  La9  1  0.75073641  0.84990364  0.74976969  1
  Ti  Ti10  1  0.99202922  0.19759518  0.00730929  1
  Ti  Ti11  1  0.00096201  0.39625096  0.00516953  1
  Ti  Ti12  1  0.50544227  0.10018718  0.49779036  1
  Ti  Ti13  1  0.00408985  0.80426016  0.99065650  1
  Ti  Ti14  1  0.49691571  0.90278965  0.49689030  1
  Cr  Cr15  1  0.00227694  -0.00012825  -0.00036867  1
  Cr  Cr16  1  0.99923495  0.60136316  0.99808466  1
  Cr  Cr17  1  0.50047261  0.30038894  0.49918495  1
  Cr  Cr18  1  0.49832919  0.49916793  0.50185401  1
  Cr  Cr19  1  0.49902929  0.69829747  0.50330647  1
  O  O20  1  0.18898218  0.02521536  0.31053999  1
  O  O21  1  0.18718334  0.22607989  0.31271708  1
  O  O22  1  0.68378044  0.06258714  0.25150746  1
  O  O23  1  0.25222308  0.00837975  0.81853858  1
  O  O24  1  0.75000683  0.18547046  0.19053790  1
  O  O25  1  0.17369893  0.42213859  0.32079196  1
  O  O26  1  0.68676208  0.26348023  0.24903842  1
  O  O27  1  0.32544459  0.13413558  0.75275705  1
  O  O28  1  0.24816983  0.20955458  0.81822577  1
  O  O29  1  0.75347238  0.39131193  0.17914475  1
  O  O30  1  0.18082545  0.62322931  0.31738845  1
  O  O31  1  0.67945756  0.46739670  0.24454752  1
  O  O32  1  0.31448607  0.33916504  0.74397872  1
  O  O33  1  0.82295833  0.18009909  0.67616527  1
  O  O34  1  0.24702659  0.40747819  0.82250219  1
  O  O35  1  0.74831043  0.59528105  0.17557683  1
  O  O36  1  0.17685454  0.81697059  0.32940734  1
  O  O37  1  0.68170415  0.66286291  0.25233483  1
  O  O38  1  0.31903987  0.53396824  0.75256097  1
  O  O39  1  0.81800616  0.37760830  0.68106060  1
  O  O40  1  0.25135525  0.60573071  0.82384149  1
  O  O41  1  0.75013099  0.79003711  0.18259872  1
  O  O42  1  0.67481003  0.86400293  0.24910323  1
  O  O43  1  0.32013469  0.73792848  0.74801488  1
  O  O44  1  0.82111767  0.57510363  0.68549683  1
  O  O45  1  0.24998572  0.81222647  0.81269017  1
  O  O46  1  0.74885838  0.99095768  0.18262933  1
  O  O47  1  0.31232078  0.93469919  0.75647268  1
  O  O48  1  0.81889441  0.78002293  0.67655052  1
  O  O49  1  0.81668724  0.97555124  0.68521620  1
