# generated using pymatgen
data_Bi(PO3)4
_symmetry_space_group_name_H-M   'P 1'
_cell_length_a   13.52105690
_cell_length_b   8.30679984
_cell_length_c   10.07002657
_cell_angle_alpha   90.00000000
_cell_angle_beta   90.00000000
_cell_angle_gamma   90.00000000
_symmetry_Int_Tables_number   1
_chemical_formula_structural   Bi(PO3)4
_chemical_formula_sum   'Bi4 P16 O48'
_cell_volume   1131.03228712
_cell_formula_units_Z   4
loop_
 _symmetry_equiv_pos_site_id
 _symmetry_equiv_pos_as_xyz
  1  'x, y, z'
loop_
 _atom_site_type_symbol
 _atom_site_label
 _atom_site_symmetry_multiplicity
 _atom_site_fract_x
 _atom_site_fract_y
 _atom_site_fract_z
 _atom_site_occupancy
  Bi  Bi0  1  0.50000000  0.13588273  0.25000000  1
  Bi  Bi1  1  0.00000000  0.36411727  0.75000000  1
  Bi  Bi2  1  0.50000000  0.86411727  0.75000000  1
  Bi  Bi3  1  0.00000000  0.63588273  0.25000000  1
  P  P4  1  0.16083244  0.46497496  0.00796833  1
  P  P5  1  0.13683547  0.16938382  0.50240570  1
  P  P6  1  0.36316453  0.66938382  0.50240570  1
  P  P7  1  0.86316453  0.16938382  0.99759430  1
  P  P8  1  0.36316453  0.33061618  0.00240570  1
  P  P9  1  0.86316453  0.83061618  0.49759430  1
  P  P10  1  0.66083244  0.96497496  0.49203167  1
  P  P11  1  0.13683547  0.83061618  0.00240570  1
  P  P12  1  0.66083244  0.03502504  0.99203167  1
  P  P13  1  0.33916756  0.96497496  0.00796833  1
  P  P14  1  0.33916756  0.03502504  0.50796833  1
  P  P15  1  0.83916756  0.53502504  0.99203167  1
  P  P16  1  0.63683547  0.33061618  0.49759430  1
  P  P17  1  0.83916756  0.46497496  0.49203167  1
  P  P18  1  0.16083244  0.53502504  0.50796833  1
  P  P19  1  0.63683547  0.66938382  0.99759430  1
  O  O20  1  0.67762244  0.15060392  0.52435278  1
  O  O21  1  0.64299215  0.12362489  0.12163838  1
  O  O22  1  0.58223164  0.94367826  0.38587047  1
  O  O23  1  0.39416571  0.59126907  0.37694247  1
  O  O24  1  0.60583429  0.59126907  0.12305753  1
  O  O25  1  0.73525449  0.41169900  0.43233676  1
  O  O26  1  0.32237756  0.84939608  0.47564722  1
  O  O27  1  0.23525449  0.91169900  0.06766324  1
  O  O28  1  0.26474551  0.58830100  0.56766324  1
  O  O29  1  0.06259433  0.17354233  0.61645299  1
  O  O30  1  0.43740567  0.67354233  0.61645299  1
  O  O31  1  0.56259433  0.32645767  0.38354701  1
  O  O32  1  0.39416571  0.40873093  0.87694247  1
  O  O33  1  0.06259433  0.82645767  0.11645299  1
  O  O34  1  0.14299215  0.62362489  0.37836162  1
  O  O35  1  0.35700785  0.12362489  0.37836162  1
  O  O36  1  0.85700785  0.37637511  0.62163838  1
  O  O37  1  0.76474551  0.91169900  0.43233676  1
  O  O38  1  0.82237756  0.65060392  0.52435278  1
  O  O39  1  0.26474551  0.41169900  0.06766324  1
  O  O40  1  0.10583429  0.90873093  0.87694247  1
  O  O41  1  0.67762244  0.84939608  0.02435278  1
  O  O42  1  0.91776836  0.44367826  0.38587047  1
  O  O43  1  0.58223164  0.05632174  0.88587047  1
  O  O44  1  0.32237756  0.15060392  0.97564722  1
  O  O45  1  0.64299215  0.87637511  0.62163838  1
  O  O46  1  0.91776836  0.55632174  0.88587047  1
  O  O47  1  0.35700785  0.87637511  0.87836162  1
  O  O48  1  0.41776836  0.05632174  0.61412953  1
  O  O49  1  0.08223164  0.55632174  0.61412953  1
  O  O50  1  0.73525449  0.58830100  0.93233676  1
  O  O51  1  0.93740567  0.17354233  0.88354701  1
  O  O52  1  0.93740567  0.82645767  0.38354701  1
  O  O53  1  0.82237756  0.34939608  0.02435278  1
  O  O54  1  0.85700785  0.62362489  0.12163838  1
  O  O55  1  0.23525449  0.08830100  0.56766324  1
  O  O56  1  0.89416571  0.90873093  0.62305753  1
  O  O57  1  0.10583429  0.09126907  0.37694247  1
  O  O58  1  0.17762244  0.34939608  0.47564722  1
  O  O59  1  0.17762244  0.65060392  0.97564722  1
  O  O60  1  0.43740567  0.32645767  0.11645299  1
  O  O61  1  0.41776836  0.94367826  0.11412953  1
  O  O62  1  0.89416571  0.09126907  0.12305753  1
  O  O63  1  0.14299215  0.37637511  0.87836162  1
  O  O64  1  0.08223164  0.44367826  0.11412953  1
  O  O65  1  0.56259433  0.67354233  0.88354701  1
  O  O66  1  0.60583429  0.40873093  0.62305753  1
  O  O67  1  0.76474551  0.08830100  0.93233676  1
