# generated using pymatgen
data_Ti7(Fe3O8)3
_symmetry_space_group_name_H-M   'P 1'
_cell_length_a   5.61262689
_cell_length_b   22.33538812
_cell_length_c   20.46524816
_cell_angle_alpha   12.87671536
_cell_angle_beta   50.95856859
_cell_angle_gamma   54.69078836
_symmetry_Int_Tables_number   1
_chemical_formula_structural   Ti7(Fe3O8)3
_chemical_formula_sum   'Ti7 Fe9 O24'
_cell_volume   434.32377724
_cell_formula_units_Z   1
loop_
 _symmetry_equiv_pos_site_id
 _symmetry_equiv_pos_as_xyz
  1  'x, y, z'
loop_
 _atom_site_type_symbol
 _atom_site_label
 _atom_site_symmetry_multiplicity
 _atom_site_fract_x
 _atom_site_fract_y
 _atom_site_fract_z
 _atom_site_occupancy
  Ti  Ti0  1  0.14158984  0.42779719  0.14520868  1
  Ti  Ti1  1  0.14512762  0.68087411  0.14183599  1
  Ti  Ti2  1  0.85408578  0.07756802  0.84879227  1
  Ti  Ti3  1  0.35253436  0.81969614  0.36055814  1
  Ti  Ti4  1  0.87002227  0.33015827  0.84433221  1
  Ti  Ti5  1  0.84387451  0.55789854  0.87208276  1
  Ti  Ti6  1  0.85416210  0.82212135  0.85619321  1
  Fe  Fe7  1  0.14023550  0.17702597  0.14929869  1
  Fe  Fe8  1  0.35338782  0.07715876  0.34964937  1
  Fe  Fe9  1  0.35375328  0.32526933  0.35270269  1
  Fe  Fe10  1  0.35660469  0.57066366  0.35364894  1
  Fe  Fe11  1  0.64018506  0.17172230  0.65250206  1
  Fe  Fe12  1  0.14966788  0.92329382  0.14652209  1
  Fe  Fe13  1  0.65522386  0.43514354  0.63435023  1
  Fe  Fe14  1  0.63999419  0.67911073  0.64425533  1
  Fe  Fe15  1  0.64419736  0.92149671  0.65068185  1
  O  O16  1  0.73030615  0.05452125  0.07437958  1
  O  O17  1  0.56684947  0.07546876  0.21566003  1
  O  O18  1  0.04623926  0.11749120  0.43627740  1
  O  O19  1  0.76653873  0.33724918  0.03563905  1
  O  O20  1  0.55708230  0.32206096  0.22444750  1
  O  O21  1  0.05964513  0.36680336  0.43565795  1
  O  O22  1  0.78356663  0.57521717  0.04605780  1
  O  O23  1  0.56300475  0.57562797  0.21897305  1
  O  O24  1  0.05766102  0.58935579  0.46410347  1
  O  O25  1  0.94417674  0.13372874  0.56408693  1
  O  O26  1  0.45199348  0.18643557  0.76542369  1
  O  O27  1  0.77461945  0.81526171  0.05813109  1
  O  O28  1  0.21554089  0.16549219  0.96650598  1
  O  O29  1  0.56421586  0.82521719  0.22201075  1
  O  O30  1  0.08186942  0.86586781  0.42523286  1
  O  O31  1  0.95996564  0.37823850  0.56677703  1
  O  O32  1  0.43961571  0.47450138  0.72945425  1
  O  O33  1  0.21720751  0.42843570  0.95091118  1
  O  O34  1  0.97125423  0.62916721  0.56588660  1
  O  O35  1  0.43766224  0.68075704  0.77697448  1
  O  O36  1  0.22107043  0.68222232  0.94603641  1
  O  O37  1  0.94594223  0.87878847  0.56530474  1
  O  O38  1  0.43917247  0.92652673  0.78028831  1
  O  O39  1  0.21015412  0.91856535  0.96316539  1
