# generated using pymatgen
data_Li4SiO4
_symmetry_space_group_name_H-M   'P 1'
_cell_length_a   5.28217536
_cell_length_b   5.53334839
_cell_length_c   18.25951882
_cell_angle_alpha   92.10442441
_cell_angle_beta   89.85216831
_cell_angle_gamma   89.63429544
_symmetry_Int_Tables_number   1
_chemical_formula_structural   Li4SiO4
_chemical_formula_sum   'Li24 Si6 O24'
_cell_volume   533.31842185
_cell_formula_units_Z   6
loop_
 _symmetry_equiv_pos_site_id
 _symmetry_equiv_pos_as_xyz
  1  'x, y, z'
loop_
 _atom_site_type_symbol
 _atom_site_label
 _atom_site_symmetry_multiplicity
 _atom_site_fract_x
 _atom_site_fract_y
 _atom_site_fract_z
 _atom_site_occupancy
  Li  Li0  1  0.18550880  0.01250813  0.09505737  1
  Li  Li1  1  0.11618963  0.10276678  0.45523444  1
  Li  Li2  1  0.18995106  0.03149640  0.76518071  1
  Li  Li3  1  0.36796841  0.15669455  0.32651476  1
  Li  Li4  1  0.48346687  0.17962895  0.58223069  1
  Li  Li5  1  0.51727678  0.31459519  0.20088995  1
  Li  Li6  1  0.46492001  0.16944088  0.90555596  1
  Li  Li7  1  0.78509569  0.83125217  0.33709570  1
  Li  Li8  1  0.65540191  0.83145928  0.01609723  1
  Li  Li9  1  0.78188280  0.84210499  0.68351189  1
  Li  Li10  1  0.79163999  0.81608747  0.16144579  1
  Li  Li11  1  0.65348804  0.84666769  0.49366565  1
  Li  Li12  1  0.75843158  0.83151330  0.83067562  1
  Li  Li13  1  0.96589747  0.13551086  0.25115397  1
  Li  Li14  1  0.82042012  0.44409398  0.57661753  1
  Li  Li15  1  0.83148851  0.40776882  0.91102226  1
  Li  Li16  1  0.02382636  0.04785976  0.94121989  1
  Li  Li17  1  0.02506234  0.08949220  0.60164426  1
  Li  Li18  1  0.06739008  0.45286586  0.15537324  1
  Li  Li19  1  0.08201121  0.50740950  0.35354630  1
  Li  Li20  1  0.14529355  0.53157269  0.03419169  1
  Li  Li21  1  0.13697423  0.58888675  0.47609924  1
  Li  Li22  1  0.08843435  0.47375740  0.68896540  1
  Li  Li23  1  0.13123903  0.53425740  0.81061803  1
  Si  Si24  1  0.31756074  0.71767933  0.59697096  1
  Si  Si25  1  0.30276097  0.70785334  0.25211743  1
  Si  Si26  1  0.33179025  0.69919309  0.92232630  1
  Si  Si27  1  0.66995859  0.31665759  0.07314352  1
  Si  Si28  1  0.65296750  0.33896787  0.42208276  1
  Si  Si29  1  0.65458813  0.32905831  0.74870932  1
  O  O30  1  0.16308793  0.81018656  0.17983417  1
  O  O31  1  0.18002186  0.85173089  0.32519098  1
  O  O32  1  0.24152719  0.88958944  0.52714335  1
  O  O33  1  0.17949404  0.84165464  0.66920967  1
  O  O34  1  0.20713517  0.86104697  0.85726716  1
  O  O35  1  0.25991494  0.84269446  0.00029127  1
  O  O36  1  0.19449195  0.44368890  0.58226648  1
  O  O37  1  0.21974972  0.41092032  0.25748890  1
  O  O38  1  0.19978319  0.42858670  0.91959651  1
  O  O39  1  0.36652618  0.32760755  0.09449143  1
  O  O40  1  0.34538790  0.34448442  0.74865587  1
  O  O41  1  0.34012702  0.35859355  0.41967120  1
  O  O42  1  0.61026220  0.71729194  0.24790369  1
  O  O43  1  0.62559179  0.71775419  0.59484205  1
  O  O44  1  0.63847536  0.68919779  0.91615934  1
  O  O45  1  0.80566573  0.58330463  0.07613397  1
  O  O46  1  0.80099753  0.60306902  0.42504229  1
  O  O47  1  0.80787559  0.58885929  0.75568110  1
  O  O48  1  0.73849311  0.18621626  0.34659585  1
  O  O49  1  0.74756038  0.19493022  0.49636551  1
  O  O50  1  0.75460929  0.20875860  0.66737203  1
  O  O51  1  0.72937518  0.17839368  0.99312471  1
  O  O52  1  0.80527895  0.17391657  0.14305260  1
  O  O53  1  0.74668280  0.17242285  0.81966101  1
