# generated using pymatgen
data_CaHo(SnO3)2
_symmetry_space_group_name_H-M   'P 1'
_cell_length_a   5.60332160
_cell_length_b   5.88984986
_cell_length_c   8.17204261
_cell_angle_alpha   90.00271111
_cell_angle_beta   90.00002356
_cell_angle_gamma   90.00271478
_symmetry_Int_Tables_number   1
_chemical_formula_structural   CaHo(SnO3)2
_chemical_formula_sum   'Ca2 Ho2 Sn4 O12'
_cell_volume   269.69965782
_cell_formula_units_Z   2
loop_
 _symmetry_equiv_pos_site_id
 _symmetry_equiv_pos_as_xyz
  1  'x, y, z'
loop_
 _atom_site_type_symbol
 _atom_site_label
 _atom_site_symmetry_multiplicity
 _atom_site_fract_x
 _atom_site_fract_y
 _atom_site_fract_z
 _atom_site_occupancy
  Ca  Ca0  1  0.49099133  0.45218502  0.75000302  1
  Ca  Ca1  1  0.99097987  0.04787115  0.25000828  1
  Ho  Ho2  1  0.02727927  0.93085014  0.75001317  1
  Ho  Ho3  1  0.52729023  0.56911527  0.24998344  1
  Sn  Sn4  1  0.00247376  0.49437709  0.00010253  1
  Sn  Sn5  1  0.00245870  0.49437223  0.49991465  1
  Sn  Sn6  1  0.50240755  0.00562513  0.50009087  1
  Sn  Sn7  1  0.50241660  0.00562399  -0.00009214  1
  O  O8  1  0.14437706  0.44588015  0.25000135  1
  O  O9  1  0.17846972  0.18163325  0.93405765  1
  O  O10  1  0.17853144  0.18163140  0.56591587  1
  O  O11  1  0.29573911  0.70851058  0.93115701  1
  O  O12  1  0.29573794  0.70851131  0.56883981  1
  O  O13  1  0.38437450  0.93641200  0.25002453  1
  O  O14  1  0.64436630  0.05414650  0.74996583  1
  O  O15  1  0.67834062  0.31810873  0.43412971  1
  O  O16  1  0.67833366  0.31816746  0.06588396  1
  O  O17  1  0.79553851  0.79169159  0.06880992  1
  O  O18  1  0.79549239  0.79173657  0.43118723  1
  O  O19  1  0.88439842  0.56355144  0.75000333  1
