# generated using pymatgen
data_LiSn6P7O24
_symmetry_space_group_name_H-M   'P 1'
_cell_length_a   6.27058938
_cell_length_b   27.59519651
_cell_length_c   7.35228560
_cell_angle_alpha   90.00000000
_cell_angle_beta   112.72601872
_cell_angle_gamma   90.00000000
_symmetry_Int_Tables_number   1
_chemical_formula_structural   LiSn6P7O24
_chemical_formula_sum   'Li2 Sn12 P14 O48'
_cell_volume   1173.45375187
_cell_formula_units_Z   2
loop_
 _symmetry_equiv_pos_site_id
 _symmetry_equiv_pos_as_xyz
  1  'x, y, z'
loop_
 _atom_site_type_symbol
 _atom_site_label
 _atom_site_symmetry_multiplicity
 _atom_site_fract_x
 _atom_site_fract_y
 _atom_site_fract_z
 _atom_site_occupancy
  Li  Li0  1  0.09496345  0.25000000  0.48771902  1
  Li  Li1  1  0.90503655  0.75000000  0.51228098  1
  Sn  Sn2  1  0.17144248  0.54532497  0.69224368  1
  Sn  Sn3  1  0.84078464  0.18071726  0.72084135  1
  Sn  Sn4  1  0.15921536  0.68071726  0.27915865  1
  Sn  Sn5  1  0.17144248  0.95467503  0.69224368  1
  Sn  Sn6  1  0.84078464  0.31928274  0.72084135  1
  Sn  Sn7  1  0.77679100  0.90134087  0.90773800  1
  Sn  Sn8  1  0.22320900  0.40134087  0.09226200  1
  Sn  Sn9  1  0.82855752  0.04532497  0.30775732  1
  Sn  Sn10  1  0.22320900  0.09865913  0.09226200  1
  Sn  Sn11  1  0.77679100  0.59865913  0.90773800  1
  Sn  Sn12  1  0.15921536  0.81928274  0.27915865  1
  Sn  Sn13  1  0.82855752  0.45467503  0.30775732  1
  P  P14  1  0.67116868  0.60530291  0.38339414  1
  P  P15  1  0.29352732  0.97244751  0.19612422  1
  P  P16  1  0.23390731  0.67104077  0.81835347  1
  P  P17  1  0.67116868  0.89469709  0.38339414  1
  P  P18  1  0.23390731  0.82895923  0.81835347  1
  P  P19  1  0.32883132  0.39469709  0.61660586  1
  P  P20  1  0.47903167  0.25000000  0.91628403  1
  P  P21  1  0.52096833  0.75000000  0.08371597  1
  P  P22  1  0.76609269  0.17104077  0.18164653  1
  P  P23  1  0.32883132  0.10530291  0.61660586  1
  P  P24  1  0.70647168  0.47244751  0.80387578  1
  P  P25  1  0.76609269  0.32895923  0.18164653  1
  P  P26  1  0.70647168  0.02755249  0.80387578  1
  P  P27  1  0.29352732  0.52755249  0.19612422  1
  O  O28  1  0.10422633  0.83456708  0.95802633  1
  O  O29  1  0.17386742  0.52790889  0.33962897  1
  O  O30  1  0.83021929  0.90888591  0.59838675  1
  O  O31  1  0.62689901  0.97713150  0.84735270  1
  O  O32  1  0.48900269  0.64186975  0.38631283  1
  O  O33  1  0.45852004  0.44492345  0.71366785  1
  O  O34  1  0.10422633  0.66543292  0.95802633  1
  O  O35  1  0.62689901  0.52286850  0.84735270  1
  O  O36  1  0.34023771  0.62312477  0.78355723  1
  O  O37  1  0.09481715  0.69739450  0.63023891  1
  O  O38  1  0.18861456  0.38060428  0.73761610  1
  O  O39  1  0.22447456  0.25000000  0.78792862  1
  O  O40  1  0.65976229  0.37687523  0.21644277  1
  O  O41  1  0.90518285  0.19739450  0.36976109  1
  O  O42  1  0.85396488  0.05396567  0.99937231  1
  O  O43  1  0.16978071  0.40888591  0.40161325  1
  O  O44  1  0.53187888  0.20392205  0.05972931  1
  O  O45  1  0.37310099  0.02286850  0.15264730  1
  O  O46  1  0.09481715  0.80260550  0.63023891  1
  O  O47  1  0.89577367  0.33456708  0.04197367  1
  O  O48  1  0.46812112  0.79607795  0.94027069  1
  O  O49  1  0.64056385  0.25000000  0.80376929  1
  O  O50  1  0.85396488  0.44603433  0.99937231  1
  O  O51  1  0.82613258  0.47209111  0.66037103  1
  O  O52  1  0.89577367  0.16543292  0.04197367  1
  O  O53  1  0.18861456  0.11939572  0.73761610  1
  O  O54  1  0.54147996  0.94492345  0.28633215  1
  O  O55  1  0.53187888  0.29607795  0.05972931  1
  O  O56  1  0.37310099  0.47713150  0.15264730  1
  O  O57  1  0.17386742  0.97209111  0.33962897  1
  O  O58  1  0.14603512  0.55396567  0.00062769  1
  O  O59  1  0.81138544  0.61939572  0.26238390  1
  O  O60  1  0.35943615  0.75000000  0.19623071  1
  O  O61  1  0.54147996  0.55507655  0.28633215  1
  O  O62  1  0.90518285  0.30260550  0.36976109  1
  O  O63  1  0.83021929  0.59111409  0.59838675  1
  O  O64  1  0.45852004  0.05507655  0.71366785  1
  O  O65  1  0.65976229  0.12312477  0.21644277  1
  O  O66  1  0.82613258  0.02790889  0.66037103  1
  O  O67  1  0.81138544  0.88060428  0.26238390  1
  O  O68  1  0.51099731  0.35813025  0.61368717  1
  O  O69  1  0.51099731  0.14186975  0.61368717  1
  O  O70  1  0.46812112  0.70392205  0.94027069  1
  O  O71  1  0.77552544  0.75000000  0.21207138  1
  O  O72  1  0.16978071  0.09111409  0.40161325  1
  O  O73  1  0.14603512  0.94603433  0.00062769  1
  O  O74  1  0.48900269  0.85813025  0.38631283  1
  O  O75  1  0.34023771  0.87687523  0.78355723  1
