# generated using pymatgen
data_Ce2(GeO3)3
_symmetry_space_group_name_H-M   'P 1'
_cell_length_a   7.76788398
_cell_length_b   8.79520146
_cell_length_c   8.85848225
_cell_angle_alpha   38.16505883
_cell_angle_beta   108.22771771
_cell_angle_gamma   107.33750577
_symmetry_Int_Tables_number   1
_chemical_formula_structural   Ce2(GeO3)3
_chemical_formula_sum   'Ce4 Ge6 O18'
_cell_volume   353.81175550
_cell_formula_units_Z   2
loop_
 _symmetry_equiv_pos_site_id
 _symmetry_equiv_pos_as_xyz
  1  'x, y, z'
loop_
 _atom_site_type_symbol
 _atom_site_label
 _atom_site_symmetry_multiplicity
 _atom_site_fract_x
 _atom_site_fract_y
 _atom_site_fract_z
 _atom_site_occupancy
  Ce  Ce0  1  0.80307846  0.91409967  0.86757004  1
  Ce  Ce1  1  0.19692154  0.08590033  0.13242996  1
  Ce  Ce2  1  0.81837419  0.22741827  0.19018278  1
  Ce  Ce3  1  0.18162581  0.77258173  0.80981722  1
  Ge  Ge4  1  0.48682472  0.23504315  0.76262409  1
  Ge  Ge5  1  0.51317528  0.76495685  0.23737591  1
  Ge  Ge6  1  0.92570459  0.57542467  0.57215824  1
  Ge  Ge7  1  0.07429541  0.42457533  0.42784176  1
  Ge  Ge8  1  0.51391751  0.67756643  0.66449908  1
  Ge  Ge9  1  0.48608249  0.32243357  0.33550092  1
  O  O10  1  0.00669538  0.28866039  0.71231046  1
  O  O11  1  0.99330462  0.71133961  0.28768954  1
  O  O12  1  0.67694299  0.03406715  0.01008783  1
  O  O13  1  0.32305701  0.96593285  0.98991217  1
  O  O14  1  0.67278523  0.51397853  0.53157469  1
  O  O15  1  0.32721477  0.48602147  0.46842531  1
  O  O16  1  0.48345792  0.35202543  0.87350298  1
  O  O17  1  0.51654208  0.64797457  0.12649702  1
  O  O18  1  0.31595850  0.78126607  0.60231261  1
  O  O19  1  0.68404150  0.21873393  0.39768739  1
  O  O20  1  0.98783195  0.42540730  0.88093622  1
  O  O21  1  0.01216805  0.57459270  0.11906378  1
  O  O22  1  0.53793698  0.88629488  0.35173146  1
  O  O23  1  0.46206302  0.11370512  0.64826854  1
  O  O24  1  0.02881942  0.11076592  0.58118576  1
  O  O25  1  0.97118058  0.88923408  0.41881424  1
  O  O26  1  0.71275340  0.67545539  0.82583071  1
  O  O27  1  0.28724660  0.32454461  0.17416929  1
