# generated using pymatgen
data_Co27Se32
_symmetry_space_group_name_H-M   'P 1'
_cell_length_a   25.06918583
_cell_length_b   17.60249588
_cell_length_c   18.17489227
_cell_angle_alpha   35.24151408
_cell_angle_beta   22.22341101
_cell_angle_gamma   19.60457375
_symmetry_Int_Tables_number   1
_chemical_formula_structural   Co27Se32
_chemical_formula_sum   'Co27 Se32'
_cell_volume   915.96800125
_cell_formula_units_Z   1
loop_
 _symmetry_equiv_pos_site_id
 _symmetry_equiv_pos_as_xyz
  1  'x, y, z'
loop_
 _atom_site_type_symbol
 _atom_site_label
 _atom_site_symmetry_multiplicity
 _atom_site_fract_x
 _atom_site_fract_y
 _atom_site_fract_z
 _atom_site_occupancy
  Co  Co0  1  0.00319203  0.23946475  0.01191288  1
  Co  Co1  1  0.25339489  0.23909605  0.01239064  1
  Co  Co2  1  0.12899889  0.99175496  0.49970068  1
  Co  Co3  1  0.24895092  0.50107500  0.00053759  1
  Co  Co4  1  0.10953712  0.28005990  0.50044262  1
  Co  Co5  1  0.49825602  0.24237885  0.01666893  1
  Co  Co6  1  0.37500000  0.00000000  0.50000000  1
  Co  Co7  1  0.12448077  0.49996908  0.50088631  1
  Co  Co8  1  0.50104908  0.49892500  0.99946241  1
  Co  Co9  1  0.37064343  0.27418646  0.49094151  1
  Co  Co10  1  0.74627996  0.24221096  0.01995985  1
  Co  Co11  1  0.14656672  0.71840099  0.49694233  1
  Co  Co12  1  0.62100111  0.00824504  0.50029932  1
  Co  Co13  1  0.74367176  0.49954169  0.00872296  1
  Co  Co14  1  0.60343328  0.28159901  0.50305767  1
  Co  Co15  1  0.37935657  0.72581354  0.50905849  1
  Co  Co16  1  0.87500000  0.00000000  0.50000000  1
  Co  Co17  1  0.62551923  0.50003092  0.49911369  1
  Co  Co18  1  0.00632824  0.50045831  0.99127704  1
  Co  Co19  1  0.86796564  0.27471697  0.49299309  1
  Co  Co20  1  0.25174398  0.75762115  0.98333107  1
  Co  Co21  1  0.64046288  0.71994010  0.49955738  1
  Co  Co22  1  0.87500000  0.50000000  0.50000000  1
  Co  Co23  1  0.49660511  0.76090395  0.98760936  1
  Co  Co24  1  0.88203436  0.72528303  0.50700691  1
  Co  Co25  1  0.74680797  0.76053525  0.98808712  1
  Co  Co26  1  0.00372004  0.75778904  0.98004015  1
  Se  Se27  1  0.08356245  0.21303727  0.16492235  1
  Se  Se28  1  0.05551252  0.27906569  0.33032618  1
  Se  Se29  1  0.33320441  0.21092146  0.16831382  1
  Se  Se30  1  0.09023050  0.69775533  0.16839690  1
  Se  Se31  1  0.30348174  0.28057043  0.33174786  1
  Se  Se32  1  0.04151377  0.79262209  0.33136074  1
  Se  Se33  1  0.20730382  0.20703390  0.67038156  1
  Se  Se34  1  0.58497294  0.20967550  0.16614883  1
  Se  Se35  1  0.34031313  0.69698485  0.16850686  1
  Se  Se36  1  0.15834304  0.30608991  0.83052256  1
  Se  Se37  1  0.55060150  0.28621835  0.33223016  1
  Se  Se38  1  0.28289950  0.80367088  0.32953371  1
  Se  Se39  1  0.46710050  0.19632912  0.67046629  1
  Se  Se40  1  0.83691132  0.20669858  0.16812784  1
  Se  Se41  1  0.19939850  0.71378165  0.66776984  1
  Se  Se42  1  0.59165696  0.69391009  0.16947744  1
  Se  Se43  1  0.40968687  0.30301515  0.83149314  1
  Se  Se44  1  0.80064476  0.28164739  0.33299928  1
  Se  Se45  1  0.16502706  0.79032450  0.83385117  1
  Se  Se46  1  0.54269618  0.79296610  0.32961844  1
  Se  Se47  1  0.70848623  0.20737791  0.66863926  1
  Se  Se48  1  0.44651826  0.71942957  0.66825214  1
  Se  Se49  1  0.84317191  0.69545658  0.16632661  1
  Se  Se50  1  0.65976950  0.30224467  0.83160310  1
  Se  Se51  1  0.41679559  0.78907854  0.83168618  1
  Se  Se52  1  0.78896854  0.79510733  0.33309410  1
  Se  Se53  1  0.96103146  0.20489267  0.66690590  1
  Se  Se54  1  0.69448748  0.72093431  0.66967382  1
  Se  Se55  1  0.90682809  0.30454342  0.83367339  1
  Se  Se56  1  0.66643755  0.78696273  0.83507765  1
  Se  Se57  1  0.94935524  0.71835261  0.66700072  1
  Se  Se58  1  0.91308868  0.79330142  0.83187216  1
