# generated using pymatgen
data_Na4Al3Si3ClO16
_symmetry_space_group_name_H-M   'P 1'
_cell_length_a   9.13087302
_cell_length_b   9.20327674
_cell_length_c   9.19587536
_cell_angle_alpha   90.06913941
_cell_angle_beta   90.00000000
_cell_angle_gamma   90.00000000
_symmetry_Int_Tables_number   1
_chemical_formula_structural   Na4Al3Si3ClO16
_chemical_formula_sum   'Na8 Al6 Si6 Cl2 O32'
_cell_volume   772.76517930
_cell_formula_units_Z   2
loop_
 _symmetry_equiv_pos_site_id
 _symmetry_equiv_pos_as_xyz
  1  'x, y, z'
loop_
 _atom_site_type_symbol
 _atom_site_label
 _atom_site_symmetry_multiplicity
 _atom_site_fract_x
 _atom_site_fract_y
 _atom_site_fract_z
 _atom_site_occupancy
  Na  Na0  1  0.21036807  0.78218719  0.78308398  1
  Na  Na1  1  0.21036807  0.21781281  0.21691602  1
  Na  Na2  1  0.28712486  0.28678354  0.71156302  1
  Na  Na3  1  0.28712486  0.71321646  0.28843698  1
  Na  Na4  1  0.71629281  0.28301997  0.28303903  1
  Na  Na5  1  0.71629281  0.71698003  0.71696097  1
  Na  Na6  1  0.78876383  0.21632118  0.78815822  1
  Na  Na7  1  0.78876383  0.78367882  0.21184178  1
  Al  Al8  1  0.99945803  0.25040475  0.50036108  1
  Al  Al9  1  0.24930016  0.50000000  0.00000000  1
  Al  Al10  1  0.49909707  0.99945403  0.75030400  1
  Al  Al11  1  0.49909707  0.00054597  0.24969600  1
  Al  Al12  1  0.75021258  0.50000000  0.00000000  1
  Al  Al13  1  0.99945803  0.74959525  0.49963892  1
  Si  Si14  1  0.00022257  0.49875809  0.25092597  1
  Si  Si15  1  0.00022257  0.50124191  0.74907403  1
  Si  Si16  1  0.24866287  0.00000000  0.50000000  1
  Si  Si17  1  0.49945207  0.75035440  0.00073375  1
  Si  Si18  1  0.49945207  0.24964560  0.99926625  1
  Si  Si19  1  0.74934015  0.00000000  0.50000000  1
  Cl  Cl20  1  0.01503428  0.00000000  0.00000000  1
  Cl  Cl21  1  0.51513688  0.50000000  0.50000000  1
  O  O22  1  0.04555046  0.63874617  0.35145816  1
  O  O23  1  0.04555046  0.36125383  0.64854184  1
  O  O24  1  0.14614077  0.45559150  0.15508784  1
  O  O25  1  0.14614077  0.54440850  0.84491216  1
  O  O26  1  0.15098089  0.14201713  0.45508300  1
  O  O27  1  0.15098089  0.85798287  0.54491700  1
  O  O28  1  0.34437625  0.04287592  0.64490281  1
  O  O29  1  0.34437625  0.95712408  0.35509719  1
  O  O30  1  0.35589691  0.34710597  0.95536639  1
  O  O31  1  0.35589691  0.65289403  0.04463361  1
  O  O32  1  0.42336430  0.36919183  0.49913889  1
  O  O33  1  0.42336430  0.63080817  0.50086111  1
  O  O34  1  0.45257767  0.15158889  0.14124436  1
  O  O35  1  0.45257767  0.84841111  0.85875564  1
  O  O36  1  0.54304121  0.15162926  0.85686428  1
  O  O37  1  0.54304121  0.84837074  0.14313572  1
  O  O38  1  0.60631445  0.50112823  0.36968450  1
  O  O39  1  0.60631445  0.49887177  0.63031550  1
  O  O40  1  0.64303835  0.34626458  0.04222753  1
  O  O41  1  0.64303835  0.65373542  0.95777247  1
  O  O42  1  0.65134732  0.04487803  0.35736299  1
  O  O43  1  0.65134732  0.95512197  0.64263701  1
  O  O44  1  0.84619981  0.14346727  0.54357090  1
  O  O45  1  0.84619981  0.85653273  0.45642910  1
  O  O46  1  0.85683078  0.53961982  0.15371392  1
  O  O47  1  0.85683078  0.46038018  0.84628608  1
  O  O48  1  0.92333626  0.95848495  0.86735877  1
  O  O49  1  0.92333626  0.04151505  0.13264123  1
  O  O50  1  0.95755081  0.35471434  0.34663685  1
  O  O51  1  0.95755081  0.64528566  0.65336315  1
  O  O52  1  -0.00016902  0.17414648  0.93114944  1
  O  O53  1  -0.00016902  0.82585352  0.06885056  1
