# generated using pymatgen
data_Mn9(P2O7)8
_symmetry_space_group_name_H-M   'P 1'
_cell_length_a   10.94162708
_cell_length_b   9.74426617
_cell_length_c   13.00512230
_cell_angle_alpha   81.68374757
_cell_angle_beta   64.75300710
_cell_angle_gamma   108.15083134
_symmetry_Int_Tables_number   1
_chemical_formula_structural   Mn9(P2O7)8
_chemical_formula_sum   'Mn9 P16 O56'
_cell_volume   1127.89679189
_cell_formula_units_Z   1
loop_
 _symmetry_equiv_pos_site_id
 _symmetry_equiv_pos_as_xyz
  1  'x, y, z'
loop_
 _atom_site_type_symbol
 _atom_site_label
 _atom_site_symmetry_multiplicity
 _atom_site_fract_x
 _atom_site_fract_y
 _atom_site_fract_z
 _atom_site_occupancy
  Mn  Mn0  1  0.05487720  0.06661180  0.19000701  1
  Mn  Mn1  1  0.19849698  0.80701700  0.57426966  1
  Mn  Mn2  1  0.42462865  0.44278513  0.30062113  1
  Mn  Mn3  1  0.30844192  0.70599179  0.91401233  1
  Mn  Mn4  1  0.50001760  0.50004947  0.49999565  1
  Mn  Mn5  1  0.69157634  0.29402550  0.08596299  1
  Mn  Mn6  1  0.57541273  0.55723503  0.69935225  1
  Mn  Mn7  1  0.80149429  0.19301272  0.42574286  1
  Mn  Mn8  1  0.94513763  0.93338958  0.80994978  1
  O  O9  1  0.07682256  0.90099095  0.10767337  1
  O  O10  1  0.11037321  0.66856389  0.05595076  1
  O  O11  1  0.10666315  0.71597431  0.24273445  1
  O  O12  1  0.00593887  0.21848218  0.30879786  1
  O  O13  1  0.06693200  0.70440747  0.51783847  1
  O  O14  1  0.17574076  0.23123249  0.03712215  1
  O  O15  1  0.28738708  0.51774481  0.00355577  1
  O  O16  1  0.10966167  0.93506237  0.83197139  1
  O  O17  1  0.21877102  0.42241132  0.31767451  1
  O  O18  1  0.09599917  0.14861385  0.45033992  1
  O  O19  1  0.41088837  0.77411141  0.25228646  1
  O  O20  1  0.16115717  0.60521021  0.65750732  1
  O  O21  1  0.23239323  0.09154744  0.20397135  1
  O  O22  1  0.40023664  0.35797015  0.05563112  1
  O  O23  1  0.08054375  0.09946819  0.65423809  1
  O  O24  1  0.30130788  0.89593162  0.65184340  1
  O  O25  1  0.38328362  0.82198568  0.45002373  1
  O  O26  1  0.12960673  0.36031284  0.77577500  1
  O  O27  1  0.22947052  0.60124623  0.82287810  1
  O  O28  1  0.43935577  0.59610099  0.39404871  1
  O  O29  1  0.31513727  0.29384899  0.46981473  1
  O  O30  1  0.23687192  0.01017965  0.48768557  1
  O  O31  1  0.32937728  0.89893219  0.83421955  1
  O  O32  1  0.58162175  0.59981167  0.15002233  1
  O  O33  1  0.43232808  0.28117913  0.23172462  1
  O  O34  1  0.51731434  0.17341208  0.07133427  1
  O  O35  1  0.63178862  0.86029403  0.29489955  1
  O  O36  1  0.38761307  0.55318048  0.63823685  1
  O  O37  1  0.61236863  0.44689326  0.36175703  1
  O  O38  1  0.36813191  0.13971609  0.70510323  1
  O  O39  1  0.48269623  0.82658911  0.92865345  1
  O  O40  1  0.56770819  0.71882148  0.76826770  1
  O  O41  1  0.41852757  0.40017767  0.84995722  1
  O  O42  1  0.67056272  0.10106958  0.16582106  1
  O  O43  1  0.76319070  0.98984664  0.51225937  1
  O  O44  1  0.68489240  0.70617462  0.53014245  1
  O  O45  1  0.56061303  0.40390092  0.60596331  1
  O  O46  1  0.77049620  0.39877339  0.17713607  1
  O  O47  1  0.87038629  0.63971255  0.22421546  1
  O  O48  1  0.61671198  0.17798067  0.55005947  1
  O  O49  1  0.69866544  0.10409947  0.34817806  1
  O  O50  1  0.91953407  0.90053504  0.34572348  1
  O  O51  1  0.59975718  0.64204568  0.94440181  1
  O  O52  1  0.76762557  0.90846074  0.79601810  1
  O  O53  1  0.83876062  0.39481032  0.34255136  1
  O  O54  1  0.58887927  0.22578670  0.74784446  1
  O  O55  1  0.90401467  0.85138966  0.54963998  1
  O  O56  1  0.78126088  0.57757265  0.68227304  1
  O  O57  1  0.89028480  0.06490485  0.16807195  1
  O  O58  1  0.71265882  0.48223143  0.99636828  1
  O  O59  1  0.82433475  0.76873554  0.96281053  1
  O  O60  1  0.93311196  0.29563706  0.48213875  1
  O  O61  1  0.99405720  0.78154639  0.69118273  1
  O  O62  1  0.89325819  0.28396301  0.75735815  1
  O  O63  1  0.88964167  0.33132278  0.94412723  1
  O  O64  1  0.92323953  0.09897556  0.89229286  1
  P  P65  1  0.05075076  0.73666417  0.15487274  1
  P  P66  1  0.07304757  0.28519659  0.38675813  1
  P  P67  1  0.26970591  0.95709302  0.75838974  1
  P  P68  1  0.18431466  0.13448941  0.52114147  1
  P  P69  1  0.45544419  0.76585381  0.34532447  1
  P  P70  1  0.38998192  0.21584979  0.14272360  1
  P  P71  1  0.22929382  0.54022210  0.72280200  1
  P  P72  1  0.68345802  0.62172473  0.01775272  1
  P  P73  1  0.31660233  0.37825617  0.98221375  1
  P  P74  1  0.77067280  0.45980837  0.27720979  1
  P  P75  1  0.61003212  0.78415320  0.85727682  1
  P  P76  1  0.54446186  0.23413400  0.65471006  1
  P  P77  1  0.81573498  0.86552628  0.47881283  1
  P  P78  1  0.73024967  0.04290666  0.24164430  1
  P  P79  1  0.92697823  0.71481187  0.61321059  1
  P  P80  1  0.94923385  0.26331333  0.84512834  1
