# generated using pymatgen
data_MoO3
_symmetry_space_group_name_H-M   'P 1'
_cell_length_a   5.30810377
_cell_length_b   10.47673240
_cell_length_c   5.28101649
_cell_angle_alpha   90.00000000
_cell_angle_beta   90.00000000
_cell_angle_gamma   82.98077116
_symmetry_Int_Tables_number   1
_chemical_formula_structural   MoO3
_chemical_formula_sum   'Mo4 O12'
_cell_volume   291.48456867
_cell_formula_units_Z   4
loop_
 _symmetry_equiv_pos_site_id
 _symmetry_equiv_pos_as_xyz
  1  'x, y, z'
loop_
 _atom_site_type_symbol
 _atom_site_label
 _atom_site_symmetry_multiplicity
 _atom_site_fract_x
 _atom_site_fract_y
 _atom_site_fract_z
 _atom_site_occupancy
  Mo  Mo0  1  0.91352181  0.95988534  0.00323641  1
  Mo  Mo1  1  0.41352281  0.95988534  0.49676359  1
  Mo  Mo2  1  0.81458795  0.45887653  0.50615867  1
  Mo  Mo3  1  0.31458795  0.45887653  0.99384133  1
  O  O4  1  0.02483979  0.48974400  0.23338603  1
  O  O5  1  0.52483979  0.48974400  0.26661397  1
  O  O6  1  0.66985275  0.00907224  0.25216522  1
  O  O7  1  0.16985275  0.00907224  0.24783478  1
  O  O8  1  0.44934309  0.79603879  0.48321321  1
  O  O9  1  0.94934309  0.79603879  0.01678679  1
  O  O10  1  0.54081690  0.51331966  0.75730332  1
  O  O11  1  0.04081690  0.51331966  0.74269668  1
  O  O12  1  0.85641230  0.29590884  0.53819173  1
  O  O13  1  0.35641230  0.29590884  0.96180827  1
  O  O14  1  0.67942440  0.99795460  0.74218331  1
  O  O15  1  0.17942440  0.99795460  0.75781669  1
