# generated using pymatgen
data_Ba3LaZnReWO12
_symmetry_space_group_name_H-M   'P 1'
_cell_length_a   9.82892811
_cell_length_b   9.82892856
_cell_length_c   9.82892897
_cell_angle_alpha   33.95260724
_cell_angle_beta   33.95260330
_cell_angle_gamma   33.95260353
_symmetry_Int_Tables_number   1
_chemical_formula_structural   Ba3LaZnReWO12
_chemical_formula_sum   'Ba3 La1 Zn1 Re1 W1 O12'
_cell_volume   263.99909014
_cell_formula_units_Z   1
loop_
 _symmetry_equiv_pos_site_id
 _symmetry_equiv_pos_as_xyz
  1  'x, y, z'
loop_
 _atom_site_type_symbol
 _atom_site_label
 _atom_site_symmetry_multiplicity
 _atom_site_fract_x
 _atom_site_fract_y
 _atom_site_fract_z
 _atom_site_occupancy
  Ba  Ba0  1  0.29154554  0.29154554  0.29154554  1
  Ba  Ba1  1  0.70883020  0.70883020  0.70883020  1
  Ba  Ba2  1  0.86903470  0.86903470  0.86903470  1
  La  La3  1  0.12732825  0.12732825  0.12732825  1
  Zn  Zn4  1  0.00068429  0.00068429  0.00068429  1
  Re  Re5  1  0.57795071  0.57795071  0.57795071  1
  W  W6  1  0.42215089  0.42215089  0.42215089  1
  O  O7  1  0.21520078  0.71005336  0.21520078  1
  O  O8  1  0.21520078  0.21520078  0.71005336  1
  O  O9  1  0.71005336  0.21520078  0.21520078  1
  O  O10  1  0.13070406  0.62101016  0.62101016  1
  O  O11  1  0.62101016  0.62101016  0.13070406  1
  O  O12  1  0.62101016  0.13070406  0.62101016  1
  O  O13  1  0.38351504  0.85992382  0.38351504  1
  O  O14  1  0.38351504  0.38351504  0.85992382  1
  O  O15  1  0.85992382  0.38351504  0.38351504  1
  O  O16  1  0.30690638  0.77771791  0.77771791  1
  O  O17  1  0.77771791  0.77771791  0.30690638  1
  O  O18  1  0.77771791  0.30690638  0.77771791  1
