# generated using pymatgen
data_Fe15O16
_symmetry_space_group_name_H-M   'P 1'
_cell_length_a   6.26532231
_cell_length_b   12.46664106
_cell_length_c   10.74306974
_cell_angle_alpha   30.07228921
_cell_angle_beta   54.70207566
_cell_angle_gamma   60.08553561
_symmetry_Int_Tables_number   1
_chemical_formula_structural   Fe15O16
_chemical_formula_sum   'Fe15 O16'
_cell_volume   343.17144063
_cell_formula_units_Z   1
loop_
 _symmetry_equiv_pos_site_id
 _symmetry_equiv_pos_as_xyz
  1  'x, y, z'
loop_
 _atom_site_type_symbol
 _atom_site_label
 _atom_site_symmetry_multiplicity
 _atom_site_fract_x
 _atom_site_fract_y
 _atom_site_fract_z
 _atom_site_occupancy
  Fe  Fe0  1  0.99613262  0.31940539  0.94417022  1
  Fe  Fe1  1  0.08505464  0.96048886  0.16655887  1
  Fe  Fe2  1  0.99349540  0.51005710  0.99293173  1
  Fe  Fe3  1  0.57726941  0.01035216  0.98125233  1
  Fe  Fe4  1  0.50344500  0.24798358  0.00256231  1
  Fe  Fe5  1  0.01088716  0.75170444  -0.00095676  1
  Fe  Fe6  1  0.99357537  0.49385449  0.50913914  1
  Fe  Fe7  1  0.50294842  0.51020847  0.98669849  1
  Fe  Fe8  1  0.50781471  0.99778758  0.50129905  1
  Fe  Fe9  1  0.49742914  0.75457072  0.99743247  1
  Fe  Fe10  1  0.49011848  0.24312477  0.51310972  1
  Fe  Fe11  1  0.00169749  0.99891760  0.49458429  1
  Fe  Fe12  1  0.50400562  0.50148413  0.49621499  1
  Fe  Fe13  1  0.01292574  0.24415454  0.50391009  1
  Fe  Fe14  1  0.49551246  0.74367311  0.50804715  1
  O  O15  1  0.25407459  0.00162340  0.23203734  1
  O  O16  1  0.22522014  0.25917064  0.24160709  1
  O  O17  1  0.71359267  0.99368534  0.26031701  1
  O  O18  1  0.27232572  0.50020088  0.24172237  1
  O  O19  1  0.75712796  0.24456675  0.24659101  1
  O  O20  1  0.25289741  0.71400276  0.28365739  1
  O  O21  1  0.24844414  0.24785237  0.76820082  1
  O  O22  1  0.29300876  0.49587658  0.73981674  1
  O  O23  1  0.73970066  0.48344997  0.28060404  1
  O  O24  1  0.73840134  0.72942941  0.26272924  1
  O  O25  1  0.24091709  0.76116179  0.74800334  1
  O  O26  1  0.74315776  0.28398957  0.71435187  1
  O  O27  1  0.73499767  0.49376047  0.76323248  1
  O  O28  1  0.25593916  0.01172121  0.72917334  1
  O  O29  1  0.75784687  0.74709157  0.76255864  1
  O  O30  1  0.72847838  0.99831731  0.76450520  1
