# generated using pymatgen
data_K3Na3TeP6(HO4)6
_symmetry_space_group_name_H-M   'P 1'
_cell_length_a   10.75057592
_cell_length_b   10.75057592
_cell_length_c   12.45331393
_cell_angle_alpha   65.80116760
_cell_angle_beta   114.19883240
_cell_angle_gamma   116.75143969
_symmetry_Int_Tables_number   1
_chemical_formula_structural   K3Na3TeP6(HO4)6
_chemical_formula_sum   'K6 Na6 Te2 P12 H12 O48'
_cell_volume   1126.52212940
_cell_formula_units_Z   2
loop_
 _symmetry_equiv_pos_site_id
 _symmetry_equiv_pos_as_xyz
  1  'x, y, z'
loop_
 _atom_site_type_symbol
 _atom_site_label
 _atom_site_symmetry_multiplicity
 _atom_site_fract_x
 _atom_site_fract_y
 _atom_site_fract_z
 _atom_site_occupancy
  K  K0  1  0.15123564  0.73492073  0.74692797  1
  K  K1  1  0.26507927  0.84876436  0.24692797  1
  K  K2  1  0.37147261  0.37147261  0.75000000  1
  K  K3  1  0.62852739  0.62852739  0.25000000  1
  K  K4  1  0.73492073  0.15123564  0.75307203  1
  K  K5  1  0.84876436  0.26507927  0.25307203  1
  Na  Na6  1  0.53857098  0.75310946  0.74294707  1
  Na  Na7  1  0.91968380  0.91968380  0.75000000  1
  Na  Na8  1  0.24689054  0.46142902  0.24294707  1
  Na  Na9  1  0.75310946  0.53857098  0.75705293  1
  Na  Na10  1  0.08031620  0.08031620  0.25000000  1
  Na  Na11  1  0.46142902  0.24689054  0.25705393  1
  Te  Te12  1  0.00000000  0.50000000  0.50000000  1
  Te  Te13  1  0.50000000  0.00000000  0.00000000  1
  P  P14  1  0.33644740  0.01026381  0.52101756  1
  P  P15  1  0.31129985  0.48756215  0.98081425  1
  P  P16  1  0.98973619  0.66355260  0.02101756  1
  P  P17  1  0.17515105  0.18150192  0.98449041  1
  P  P18  1  0.51243785  0.68870015  0.48081425  1
  P  P19  1  0.81849808  0.82484895  0.48449041  1
  P  P20  1  0.18150192  0.17515105  0.51550959  1
  P  P21  1  0.48756215  0.31129985  0.51918575  1
  P  P22  1  0.82484895  0.81849808  0.01550959  1
  P  P23  1  0.01026381  0.33644740  0.97898244  1
  P  P24  1  0.68870015  0.51243785  0.01918575  1
  P  P25  1  0.66355260  0.98973619  0.47898244  1
  H  H26  1  0.48553713  0.82493540  0.91135913  1
  H  H27  1  0.17310525  0.76622703  0.50306138  1
  H  H28  1  0.99597521  0.22191652  0.56949079  1
  H  H29  1  0.17506460  0.51446287  0.41135913  1
  H  H30  1  0.23377297  0.82689475  0.00306138  1
  H  H31  1  0.22191652  0.99597521  0.93050921  1
  H  H32  1  0.77808348  0.00402479  0.06949079  1
  H  H33  1  0.76622703  0.17310525  0.99693862  1
  H  H34  1  0.82493540  0.48553713  0.58864087  1
  H  H35  1  0.00402479  0.77808348  0.43050921  1
  H  H36  1  0.82689475  0.23377297  0.49693862  1
  H  H37  1  0.51446287  0.17506460  0.08864087  1
  O  O38  1  0.26559497  0.92006141  0.94025904  1
  O  O39  1  0.50476607  0.93030961  0.87528586  1
  O  O40  1  0.14028992  0.47955431  0.93459955  1
  O  O41  1  0.07993859  0.73440503  0.44025904  1
  O  O42  1  0.34982451  0.86517530  0.60106049  1
  O  O43  1  0.38360359  0.61884349  0.89345673  1
  O  O44  1  0.02608089  0.21622800  0.93996494  1
  O  O45  1  0.17745304  0.51035381  0.61190079  1
  O  O46  1  0.28927849  0.34448373  0.94751878  1
  O  O47  1  0.78357455  0.88414574  0.87939522  1
  O  O48  1  0.70517928  0.96096389  0.61525329  1
  O  O49  1  0.06969039  0.49523393  0.37528586  1
  O  O50  1  0.52044569  0.85971008  0.43459955  1
  O  O51  1  0.13482470  0.65017549  0.10106049  1
  O  O52  1  0.15640159  0.10361002  0.89935332  1
  O  O53  1  0.38115651  0.61639641  0.39345673  1
  O  O54  1  0.53686286  0.63340012  0.61682136  1
  O  O55  1  0.78377200  0.97391911  0.43996494  1
  O  O56  1  0.63340012  0.53686286  0.88317864  1
  O  O57  1  0.10361002  0.15640159  0.60064668  1
  O  O58  1  0.48964619  0.82254696  0.11190079  1
  O  O59  1  0.65551627  0.71072151  0.44751878  1
  O  O60  1  0.11585426  0.21642545  0.37939522  1
  O  O61  1  0.03903611  0.29482072  0.11525329  1
  O  O62  1  0.96096389  0.70517928  0.88474671  1
  O  O63  1  0.88414574  0.78357455  0.62060478  1
  O  O64  1  0.34448373  0.28927849  0.55248122  1
  O  O65  1  0.51035381  0.17745304  0.88809921  1
  O  O66  1  0.89638998  0.84359841  0.39935332  1
  O  O67  1  0.36659988  0.46313714  0.11682136  1
  O  O68  1  0.21622800  0.02608089  0.56003506  1
  O  O69  1  0.46313714  0.36659988  0.38317864  1
  O  O70  1  0.61884349  0.38360359  0.60654327  1
  O  O71  1  0.84359841  0.89638998  0.10064668  1
  O  O72  1  0.86517530  0.34982451  0.89893951  1
  O  O73  1  0.47955431  0.14028992  0.56540045  1
  O  O74  1  0.93030961  0.50476607  0.62471414  1
  O  O75  1  0.29482072  0.03903611  0.38474671  1
  O  O76  1  0.21642545  0.11585426  0.12060478  1
  O  O77  1  0.71072151  0.65551627  0.05248122  1
  O  O78  1  0.82254696  0.48964619  0.38809921  1
  O  O79  1  0.97391911  0.78377200  0.06003506  1
  O  O80  1  0.61639641  0.38115651  0.10654327  1
  O  O81  1  0.65017549  0.13482470  0.39893951  1
  O  O82  1  0.92006141  0.26559497  0.55974096  1
  O  O83  1  0.85971008  0.52044569  0.06540045  1
  O  O84  1  0.49523393  0.06969039  0.12471414  1
  O  O85  1  0.73440503  0.07993859  0.05974096  1
