# generated using pymatgen
data_YbSi6H54(C6N)3
_symmetry_space_group_name_H-M   'P 1'
_cell_length_a   16.77729221
_cell_length_b   16.77729259
_cell_length_c   9.71778861
_cell_angle_alpha   90.00000000
_cell_angle_beta   90.00000000
_cell_angle_gamma   119.99999923
_symmetry_Int_Tables_number   1
_chemical_formula_structural   YbSi6H54(C6N)3
_chemical_formula_sum   'Yb2 Si12 H108 C36 N6'
_cell_volume   2368.87328334
_cell_formula_units_Z   2
loop_
 _symmetry_equiv_pos_site_id
 _symmetry_equiv_pos_as_xyz
  1  'x, y, z'
loop_
 _atom_site_type_symbol
 _atom_site_label
 _atom_site_symmetry_multiplicity
 _atom_site_fract_x
 _atom_site_fract_y
 _atom_site_fract_z
 _atom_site_occupancy
  Yb  Yb0  1  0.33333300  0.66666700  0.19192354  1
  Yb  Yb1  1  0.66666700  0.33333300  0.69192354  1
  Si  Si2  1  0.17367036  0.71362544  0.37743831  1
  Si  Si3  1  0.28460812  0.82712288  0.12412195  1
  Si  Si4  1  0.17287712  0.45748525  0.12412195  1
  Si  Si5  1  0.28637456  0.46004392  0.37743831  1
  Si  Si6  1  0.53995608  0.82633064  0.37743831  1
  Si  Si7  1  0.54251475  0.71539188  0.12412195  1
  Si  Si8  1  0.46004392  0.28637456  0.87743831  1
  Si  Si9  1  0.45748525  0.17287712  0.62412195  1
  Si  Si10  1  0.71539188  0.54251475  0.62412195  1
  Si  Si11  1  0.82633064  0.53995608  0.87743831  1
  Si  Si12  1  0.71362544  0.17367036  0.87743831  1
  Si  Si13  1  0.82712288  0.28460812  0.62412195  1
  H  H14  1  0.00162957  0.61924806  0.38651916  1
  H  H15  1  0.03770221  0.69337655  0.24074257  1
  H  H16  1  0.12094253  0.78611803  0.54867621  1
  H  H17  1  0.13071343  0.81650406  0.07845886  1
  H  H18  1  0.04498854  0.59123760  0.23827977  1
  H  H19  1  0.18408989  0.86872176  0.41951360  1
  H  H20  1  0.21355664  0.88002203  0.94950512  1
  H  H21  1  0.15730547  0.75799535  0.95012399  1
  H  H22  1  0.00062753  0.38198562  0.11395601  1
  H  H23  1  0.24281315  0.84290997  0.54880888  1
  H  H24  1  0.04511440  0.45374350  0.26162486  1
  H  H25  1  0.13315772  0.62724153  0.59307817  1
  H  H26  1  0.30741095  0.96374656  0.25965693  1
  H  H27  1  0.03625344  0.34366439  0.25965693  1
  H  H28  1  0.16502982  0.59685217  0.02828674  1
  H  H29  1  0.16461466  0.56804686  0.47291330  1
  H  H30  1  0.13491282  0.50675240  0.90966726  1
  H  H31  1  0.38135809  0.99937247  0.11395601  1
  H  H32  1  0.25088152  0.66833680  0.55817304  1
  H  H33  1  0.40862909  0.95488560  0.26162486  1
  H  H34  1  0.37183958  0.86508718  0.90966726  1
  H  H35  1  0.25141343  0.58268269  0.94046425  1
  H  H36  1  0.11997797  0.33353461  0.94950512  1
  H  H37  1  0.33127026  0.74858657  0.94046425  1
  H  H38  1  0.15709003  0.39990318  0.54880888  1
  H  H39  1  0.13127824  0.31536813  0.41951360  1
  H  H40  1  0.40343120  0.83538534  0.47291330  1
  H  H41  1  0.43182335  0.83497018  0.02828674  1
  H  H42  1  0.18349594  0.31420937  0.07845886  1
  H  H43  1  0.24200465  0.39931012  0.95012399  1
  H  H44  1  0.41745528  0.74911848  0.55817304  1
  H  H45  1  0.21388197  0.33482451  0.54867621  1
  H  H46  1  0.33166320  0.58254472  0.55817304  1
  H  H47  1  0.49408381  0.86684228  0.59307817  1
  H  H48  1  0.54624906  0.95501146  0.23827977  1
  H  H49  1  0.41731731  0.66872974  0.94046425  1
  H  H50  1  0.61761849  0.99837043  0.38651916  1
  H  H51  1  0.37275847  0.50591619  0.59307817  1
  H  H52  1  0.40314783  0.56817665  0.02828674  1
  H  H53  1  0.43195314  0.59656880  0.47291330  1
  H  H54  1  0.30662345  0.34432567  0.24074257  1
  H  H55  1  0.65567433  0.96229779  0.24074257  1
  H  H56  1  0.49324760  0.62816042  0.90966726  1
  H  H57  1  0.40876240  0.45375094  0.23827977  1
  H  H58  1  0.60068988  0.84269453  0.95012399  1
  H  H59  1  0.38075194  0.38238151  0.38651916  1
  H  H60  1  0.38238151  0.38075194  0.88651916  1
  H  H61  1  0.34432567  0.30662345  0.74074257  1
  H  H62  1  0.60009682  0.75718685  0.54880888  1
  H  H63  1  0.33482451  0.21388197  0.04867621  1
  H  H64  1  0.66517549  0.87905747  0.54867621  1
  H  H65  1  0.31420937  0.18349594  0.57845886  1
  H  H66  1  0.45375094  0.40876240  0.73827977  1
  H  H67  1  0.68579063  0.86928657  0.07845886  1
  H  H68  1  0.31536813  0.13127824  0.91951360  1
  H  H69  1  0.54625650  0.59137091  0.26162486  1
  H  H70  1  0.68463187  0.81591011  0.41951360  1
  H  H71  1  0.33353461  0.11997797  0.44950512  1
  H  H72  1  0.66646539  0.78644336  0.94950512  1
  H  H73  1  0.39931012  0.24200465  0.45012399  1
  H  H74  1  0.65633561  0.69258905  0.25965693  1
  H  H75  1  0.61801438  0.61864191  0.11395601  1
  H  H76  1  0.61864191  0.61801438  0.61395601  1
  H  H77  1  0.39990318  0.15709003  0.04880888  1
  H  H78  1  0.59137091  0.54625650  0.76162486  1
  H  H79  1  0.50591619  0.37275847  0.09307817  1
  H  H80  1  0.34366439  0.03625344  0.75965693  1
  H  H81  1  0.69258905  0.65633561  0.75965693  1
  H  H82  1  0.56817665  0.40314783  0.52828674  1
  H  H83  1  0.59656880  0.43195314  0.97291330  1
  H  H84  1  0.62816042  0.49324760  0.40966726  1
  H  H85  1  0.38198562  0.00062753  0.61395601  1
  H  H86  1  0.58254472  0.33166320  0.05817304  1
  H  H87  1  0.45374350  0.04511440  0.76162486  1
  H  H88  1  0.50675240  0.13491282  0.40966726  1
  H  H89  1  0.66872974  0.41731731  0.44046425  1
  H  H90  1  0.78644336  0.66646539  0.44950512  1
  H  H91  1  0.58268269  0.25141343  0.44046425  1
  H  H92  1  0.75718685  0.60009682  0.04880888  1
  H  H93  1  0.81591011  0.68463187  0.91951360  1
  H  H94  1  0.56804686  0.16461466  0.97291330  1
  H  H95  1  0.59685217  0.16502982  0.52828674  1
  H  H96  1  0.86928657  0.68579063  0.57845886  1
  H  H97  1  0.84269453  0.60068988  0.45012399  1
  H  H98  1  0.66833680  0.25088152  0.05817304  1
  H  H99  1  0.87905747  0.66517549  0.04867621  1
  H  H100  1  0.74911848  0.41745528  0.05817304  1
  H  H101  1  0.62724153  0.13315772  0.09307817  1
  H  H102  1  0.59123760  0.04498854  0.73827977  1
  H  H103  1  0.74858657  0.33127026  0.44046425  1
  H  H104  1  0.61924806  0.00162957  0.88651916  1
  H  H105  1  0.86684228  0.49408381  0.09307817  1
  H  H106  1  0.83497018  0.43182335  0.52828674  1
  H  H107  1  0.83538534  0.40343120  0.97291330  1
  H  H108  1  0.96229779  0.65567433  0.74074257  1
  H  H109  1  0.69337655  0.03770221  0.74074257  1
  H  H110  1  0.86508718  0.37183958  0.40966726  1
  H  H111  1  0.95501146  0.54624906  0.73827977  1
  H  H112  1  0.75799535  0.15730547  0.45012399  1
  H  H113  1  0.99837043  0.61761849  0.88651916  1
  H  H114  1  0.84290997  0.24281315  0.04880888  1
  H  H115  1  0.78611803  0.12094253  0.04867621  1
  H  H116  1  0.81650406  0.13071343  0.57845886  1
  H  H117  1  0.95488560  0.40862909  0.76162486  1
  H  H118  1  0.86872176  0.18408989  0.91951360  1
  H  H119  1  0.88002203  0.21355664  0.44950512  1
  H  H120  1  0.96374656  0.30741095  0.75965693  1
  H  H121  1  0.99937247  0.38135809  0.61395601  1
  C  C122  1  0.05300871  0.64821144  0.30349912  1
  C  C123  1  0.18197568  0.81308455  0.48160421  1
  C  C124  1  0.18669308  0.81910838  0.01669644  1
  C  C125  1  0.05225197  0.40418594  0.19663604  1
  C  C126  1  0.18224340  0.63649187  0.51097609  1
  C  C127  1  0.35193397  0.94774803  0.19663604  1
  C  C128  1  0.18387754  0.54641802  0.99208532  1
  C  C129  1  0.36254048  0.81612246  0.99208532  1
  C  C130  1  0.18089162  0.36758370  0.01669644  1
  C  C131  1  0.18691545  0.36889113  0.48160421  1
  C  C132  1  0.45424848  0.81775660  0.51097609  1
  C  C133  1  0.36350813  0.54575152  0.51097609  1
  C  C134  1  0.59520273  0.94699129  0.30349912  1
  C  C135  1  0.45358198  0.63745952  0.99208532  1
  C  C136  1  0.35178856  0.40479727  0.30349912  1
  C  C137  1  0.63110887  0.81802432  0.48160421  1
  C  C138  1  0.40479727  0.35178856  0.80349912  1
  C  C139  1  0.63241630  0.81330692  0.01669644  1
  C  C140  1  0.36889113  0.18691545  0.98160421  1
  C  C141  1  0.59581406  0.64806603  0.19663604  1
  C  C142  1  0.36758370  0.18089162  0.51669644  1
  C  C143  1  0.64806603  0.59581406  0.69663604  1
  C  C144  1  0.54575152  0.36350813  0.01097609  1
  C  C145  1  0.40418594  0.05225197  0.69663604  1
  C  C146  1  0.63745952  0.45358198  0.49208532  1
  C  C147  1  0.54641802  0.18387754  0.49208532  1
  C  C148  1  0.81330692  0.63241630  0.51669644  1
  C  C149  1  0.81802432  0.63110887  0.98160421  1
  C  C150  1  0.63649187  0.18224340  0.01097609  1
  C  C151  1  0.81775660  0.45424848  0.01097609  1
  C  C152  1  0.64821144  0.05300871  0.80349912  1
  C  C153  1  0.81612246  0.36254048  0.49208532  1
  C  C154  1  0.94699129  0.59520273  0.80349912  1
  C  C155  1  0.81308455  0.18197568  0.98160421  1
  C  C156  1  0.81910838  0.18669308  0.51669644  1
  C  C157  1  0.94774803  0.35193397  0.69663604  1
  N  N158  1  0.25383162  0.74309854  0.24745494  1
  N  N159  1  0.25690146  0.51073307  0.24745494  1
  N  N160  1  0.48926693  0.74616838  0.24745494  1
  N  N161  1  0.51073307  0.25690146  0.74745494  1
  N  N162  1  0.74616838  0.48926693  0.74745494  1
  N  N163  1  0.74309854  0.25383162  0.74745494  1
