# generated using pymatgen
data_FeH16C4(NCl2)2
_symmetry_space_group_name_H-M   'P 1'
_cell_length_a   7.98915577
_cell_length_b   11.42494121
_cell_length_c   14.67443781
_cell_angle_alpha   90.00000000
_cell_angle_beta   95.59560050
_cell_angle_gamma   90.00000000
_symmetry_Int_Tables_number   1
_chemical_formula_structural   FeH16C4(NCl2)2
_chemical_formula_sum   'Fe4 H64 C16 N8 Cl16'
_cell_volume   1333.03615147
_cell_formula_units_Z   4
loop_
 _symmetry_equiv_pos_site_id
 _symmetry_equiv_pos_as_xyz
  1  'x, y, z'
loop_
 _atom_site_type_symbol
 _atom_site_label
 _atom_site_symmetry_multiplicity
 _atom_site_fract_x
 _atom_site_fract_y
 _atom_site_fract_z
 _atom_site_occupancy
  Fe  Fe0  1  0.79105055  0.79615260  0.04618826  1
  Fe  Fe1  1  0.29105055  0.70384740  0.54618826  1
  Fe  Fe2  1  0.20894945  0.20384740  0.95381174  1
  Fe  Fe3  1  0.70894945  0.29615260  0.45381174  1
  H  H4  1  0.11308118  0.72672968  0.93129824  1
  H  H5  1  0.61308118  0.77327032  0.43129824  1
  H  H6  1  0.88691882  0.27327032  0.06870176  1
  H  H7  1  0.38691882  0.22672968  0.56870176  1
  H  H8  1  0.31227907  0.72605458  0.98366003  1
  H  H9  1  0.81227907  0.77394542  0.48366003  1
  H  H10  1  0.68772093  0.27394542  0.01633997  1
  H  H11  1  0.18772093  0.22605458  0.51633997  1
  H  H12  1  0.15591883  0.04227024  0.12043041  1
  H  H13  1  0.65591883  0.45772976  0.62043041  1
  H  H14  1  0.84408117  0.95772976  0.87956959  1
  H  H15  1  0.34408117  0.54227024  0.37956959  1
  H  H16  1  0.15090375  0.90260430  0.15304165  1
  H  H17  1  0.65090375  0.59739570  0.65304165  1
  H  H18  1  0.84909625  0.09739570  0.84695835  1
  H  H19  1  0.34909625  0.40260430  0.34695835  1
  H  H20  1  0.42722301  0.68904758  0.84110807  1
  H  H21  1  0.92722301  0.81095242  0.34110807  1
  H  H22  1  0.57277699  0.31095242  0.15889193  1
  H  H23  1  0.07277699  0.18904758  0.65889193  1
  H  H24  1  0.29861620  0.81781420  0.83450850  1
  H  H25  1  0.79861620  0.68218580  0.33450850  1
  H  H26  1  0.70138380  0.18218580  0.16549150  1
  H  H27  1  0.20138380  0.31781420  0.66549150  1
  H  H28  1  0.21757439  0.68379271  0.78482293  1
  H  H29  1  0.71757439  0.81620729  0.28482293  1
  H  H30  1  0.78242561  0.31620729  0.21517707  1
  H  H31  1  0.28242561  0.18379271  0.71517707  1
  H  H32  1  0.13544575  0.52400736  0.89068344  1
  H  H33  1  0.63544575  0.97599264  0.39068344  1
  H  H34  1  0.86455425  0.47599264  0.10931656  1
  H  H35  1  0.36455425  0.02400736  0.60931656  1
  H  H36  1  0.17574188  0.54788825  0.01164324  1
  H  H37  1  0.67574188  0.95211175  0.51164324  1
  H  H38  1  0.82425812  0.45211175  0.98835676  1
  H  H39  1  0.32425812  0.04788825  0.48835676  1
  H  H40  1  0.34702645  0.52408119  0.94321675  1
  H  H41  1  0.84702645  0.97591881  0.44321675  1
  H  H42  1  0.65297355  0.47591881  0.05678325  1
  H  H43  1  0.15297355  0.02408119  0.55678325  1
  H  H44  1  0.15184990  0.95659492  0.31090444  1
  H  H45  1  0.65184990  0.54340508  0.81090444  1
  H  H46  1  0.84815010  0.04340508  0.68909556  1
  H  H47  1  0.34815010  0.45659492  0.18909556  1
  H  H48  1  0.97926875  0.02138388  0.23981492  1
  H  H49  1  0.47926875  0.47861612  0.73981492  1
  H  H50  1  0.02073125  0.97861612  0.76018508  1
  H  H51  1  0.52073125  0.52138388  0.26018508  1
  H  H52  1  0.15947080  0.10799120  0.27814962  1
  H  H53  1  0.65947080  0.39200880  0.77814962  1
  H  H54  1  0.84052920  0.89200880  0.72185038  1
  H  H55  1  0.34052920  0.60799120  0.22185038  1
  H  H56  1  0.42599467  0.07008133  0.21260759  1
  H  H57  1  0.92599467  0.42991867  0.71260759  1
  H  H58  1  0.57400533  0.92991867  0.78739241  1
  H  H59  1  0.07400533  0.57008133  0.28739241  1
  H  H60  1  0.42958348  0.96708736  0.11958739  1
  H  H61  1  0.92958348  0.53291264  0.61958739  1
  H  H62  1  0.57041652  0.03291264  0.88041261  1
  H  H63  1  0.07041652  0.46708736  0.38041261  1
  H  H64  1  0.42153250  0.91527917  0.23446962  1
  H  H65  1  0.92153250  0.58472083  0.73446962  1
  H  H66  1  0.57846750  0.08472083  0.76553038  1
  H  H67  1  0.07846750  0.41527917  0.26553038  1
  C  C68  1  0.29902254  0.72246711  0.84125991  1
  C  C69  1  0.79902254  0.77753289  0.34125991  1
  C  C70  1  0.70097746  0.27753289  0.15874009  1
  C  C71  1  0.20097746  0.22246711  0.65874009  1
  C  C72  1  0.22219836  0.56265399  0.94481684  1
  C  C73  1  0.72219836  0.93734601  0.44481684  1
  C  C74  1  0.77780164  0.43734601  0.05518316  1
  C  C75  1  0.27780164  0.06265399  0.55518316  1
  C  C76  1  0.11557619  0.02071054  0.25688684  1
  C  C77  1  0.61557619  0.47928946  0.75688684  1
  C  C78  1  0.88442381  0.97928946  0.74311316  1
  C  C79  1  0.38442381  0.52071054  0.24311316  1
  C  C80  1  0.38224181  0.98492352  0.18566754  1
  C  C81  1  0.88224181  0.51507648  0.68566754  1
  C  C82  1  0.61775819  0.01507648  0.81433246  1
  C  C83  1  0.11775819  0.48492352  0.31433246  1
  N  N84  1  0.23272342  0.69114060  0.92951273  1
  N  N85  1  0.73272342  0.80885940  0.42951273  1
  N  N86  1  0.76727658  0.30885940  0.07048727  1
  N  N87  1  0.26727658  0.19114060  0.57048727  1
  N  N88  1  0.19526066  0.98551531  0.17351938  1
  N  N89  1  0.69526066  0.51448469  0.67351938  1
  N  N90  1  0.80473934  0.01448469  0.82648062  1
  N  N91  1  0.30473934  0.48551531  0.32648062  1
  Cl  Cl92  1  0.78848454  0.99547434  0.05810041  1
  Cl  Cl93  1  0.28848454  0.50452566  0.55810041  1
  Cl  Cl94  1  0.21151546  0.00452566  0.94189959  1
  Cl  Cl95  1  0.71151546  0.49547434  0.44189959  1
  Cl  Cl96  1  0.82744564  0.73684077  0.89801240  1
  Cl  Cl97  1  0.32744564  0.76315923  0.39801240  1
  Cl  Cl98  1  0.17255436  0.26315923  0.10198760  1
  Cl  Cl99  1  0.67255436  0.23684077  0.60198760  1
  Cl  Cl100  1  0.03065675  0.72898435  0.13109410  1
  Cl  Cl101  1  0.53065675  0.77101565  0.63109410  1
  Cl  Cl102  1  0.96934325  0.27101565  0.86890590  1
  Cl  Cl103  1  0.46934325  0.22898435  0.36890590  1
  Cl  Cl104  1  0.54666176  0.71726062  0.08767131  1
  Cl  Cl105  1  0.04666176  0.78273938  0.58767131  1
  Cl  Cl106  1  0.45333824  0.28273938  0.91232869  1
  Cl  Cl107  1  0.95333824  0.21726062  0.41232869  1
