# generated using pymatgen
data_Li3(WO3)8
_symmetry_space_group_name_H-M   'P 1'
_cell_length_a   13.15137899
_cell_length_b   7.59295214
_cell_length_c   7.59295233
_cell_angle_alpha   90.00000000
_cell_angle_beta   54.73560963
_cell_angle_gamma   54.73561066
_symmetry_Int_Tables_number   1
_chemical_formula_structural   Li3(WO3)8
_chemical_formula_sum   'Li3 W8 O24'
_cell_volume   437.75588997
_cell_formula_units_Z   1
loop_
 _symmetry_equiv_pos_site_id
 _symmetry_equiv_pos_as_xyz
  1  'x, y, z'
loop_
 _atom_site_type_symbol
 _atom_site_label
 _atom_site_symmetry_multiplicity
 _atom_site_fract_x
 _atom_site_fract_y
 _atom_site_fract_z
 _atom_site_occupancy
  Li  Li0  1  0.00000000  0.50000000  0.50000000  1
  Li  Li1  1  0.50000000  0.00000000  0.50000000  1
  Li  Li2  1  0.50000000  0.50000000  0.00000000  1
  W  W3  1  0.24922819  0.00000000  1.00000000  1
  W  W4  1  0.24922819  0.50154362  1.00000000  1
  W  W5  1  0.24922819  0.00000000  0.50154362  1
  W  W6  1  0.24922819  0.50154362  0.50154362  1
  W  W7  1  0.75077181  0.00000000  0.00000000  1
  W  W8  1  0.75077181  0.00000000  0.49845638  1
  W  W9  1  0.75077181  0.49845638  0.00000000  1
  W  W10  1  0.75077181  0.49845638  0.49845638  1
  O  O11  1  0.20734339  0.09297374  0.29265661  1
  O  O12  1  0.00000000  0.28849424  0.78855948  1
  O  O13  1  0.20734339  0.49233949  0.29265661  1
  O  O14  1  0.21144052  0.78855948  0.07705372  1
  O  O15  1  0.00000000  0.71150576  0.78855948  1
  O  O16  1  0.30031713  0.19968287  0.49233949  1
  O  O17  1  0.21144052  0.78855948  0.50006524  1
  O  O18  1  0.50000000  0.29265661  0.19968287  1
  O  O19  1  0.30031713  0.19968287  0.90702626  1
  O  O20  1  0.28849424  0.50006524  0.71150576  1
  O  O21  1  0.50000000  0.70734339  0.19968287  1
  O  O22  1  0.28849424  0.92294628  0.71150576  1
  O  O23  1  0.71150576  0.07705372  0.28849424  1
  O  O24  1  0.50000000  0.29265661  0.80031713  1
  O  O25  1  0.71150576  0.49993476  0.28849424  1
  O  O26  1  0.69968287  0.80031713  0.09297374  1
  O  O27  1  0.50000000  0.70734339  0.80031713  1
  O  O28  1  0.78855948  0.21144052  0.49993476  1
  O  O29  1  0.69968287  0.80031713  0.50766051  1
  O  O30  1  0.00000000  0.28849424  0.21144052  1
  O  O31  1  0.78855948  0.21144052  0.92294628  1
  O  O32  1  0.79265661  0.50766051  0.70734339  1
  O  O33  1  0.00000000  0.71150576  0.21144052  1
  O  O34  1  0.79265661  0.90702626  0.70734339  1
