# generated using pymatgen
data_MgSn2P2O9
_symmetry_space_group_name_H-M   'P 1'
_cell_length_a   6.48699400
_cell_length_b   8.07846234
_cell_length_c   16.07884622
_cell_angle_alpha   89.99985071
_cell_angle_beta   90.00017338
_cell_angle_gamma   90.00022506
_symmetry_Int_Tables_number   1
_chemical_formula_structural   MgSn2P2O9
_chemical_formula_sum   'Mg4 Sn8 P8 O36'
_cell_volume   842.61091882
_cell_formula_units_Z   4
loop_
 _symmetry_equiv_pos_site_id
 _symmetry_equiv_pos_as_xyz
  1  'x, y, z'
loop_
 _atom_site_type_symbol
 _atom_site_label
 _atom_site_symmetry_multiplicity
 _atom_site_fract_x
 _atom_site_fract_y
 _atom_site_fract_z
 _atom_site_occupancy
  Mg  Mg0  1  0.74999830  0.00738878  0.80744548  1
  Mg  Mg1  1  0.74999626  0.49255156  0.30742230  1
  Mg  Mg2  1  0.24999955  0.50738668  0.69256238  1
  Mg  Mg3  1  0.24999963  0.99255663  0.19258095  1
  Sn  Sn4  1  0.75000067  0.37687132  0.88478953  1
  Sn  Sn5  1  0.25000096  0.62308625  0.11527627  1
  Sn  Sn6  1  0.24999825  0.87686726  0.61521532  1
  Sn  Sn7  1  0.75000224  0.12308654  0.38472292  1
  Sn  Sn8  1  0.49994268  0.99997735  0.00000257  1
  Sn  Sn9  1  0.50005175  0.49998465  0.50000594  1
  Sn  Sn10  1  0.99994535  0.49996442  0.49999281  1
  Sn  Sn11  1  0.00005096  0.99997293  0.00000611  1
  P  P12  1  0.25000154  0.39268707  0.93448417  1
  P  P13  1  0.75000058  0.60739969  0.06560663  1
  P  P14  1  0.75000065  0.89269207  0.56551444  1
  P  P15  1  0.25000216  0.10740161  0.43438972  1
  P  P16  1  0.75000099  0.39812417  0.70801005  1
  P  P17  1  0.74999885  0.10182465  0.20792698  1
  P  P18  1  0.24999808  0.89812371  0.79199362  1
  P  P19  1  0.25000096  0.60182349  0.29207172  1
  O  O20  1  0.04860970  0.57814435  0.34328773  1
  O  O21  1  0.54859262  0.42179099  0.65680471  1
  O  O22  1  0.95138928  0.07813965  0.15670965  1
  O  O23  1  0.45141205  0.92178088  0.84319842  1
  O  O24  1  0.95141520  0.42179131  0.65680840  1
  O  O25  1  0.45139282  0.57814941  0.34328814  1
  O  O26  1  0.04858301  0.92177982  0.84319559  1
  O  O27  1  0.54860716  0.07814108  0.15671049  1
  O  O28  1  0.24999510  0.27123506  0.48355257  1
  O  O29  1  0.74999556  0.72901153  0.51622933  1
  O  O30  1  0.75000389  0.77122475  0.01643529  1
  O  O31  1  0.25000022  0.22900397  0.98376794  1
  O  O32  1  0.74999582  0.13769713  0.91635562  1
  O  O33  1  0.24999880  0.86224021  0.08372092  1
  O  O34  1  0.25001078  0.63769176  0.58365045  1
  O  O35  1  0.75000981  0.36223801  0.41628135  1
  O  O36  1  0.74999910  0.22818335  0.75411856  1
  O  O37  1  0.24999880  0.77175774  0.24595414  1
  O  O38  1  0.25000215  0.72818849  0.74587792  1
  O  O39  1  0.75000127  0.27176436  0.25404054  1
  O  O40  1  0.43566638  0.09353020  0.37382027  1
  O  O41  1  0.93566059  0.90643999  0.62609089  1
  O  O42  1  0.56433510  0.59352987  0.12617744  1
  O  O43  1  0.06433947  0.40644044  0.87390707  1
  O  O44  1  0.56433845  0.90644613  0.62608938  1
  O  O45  1  0.06433957  0.09353001  0.37381748  1
  O  O46  1  0.43566044  0.40643980  0.87390770  1
  O  O47  1  0.93566495  0.59352846  0.12617752  1
  O  O48  1  0.74999863  0.45720820  0.00535706  1
  O  O49  1  0.24999974  0.02837821  0.71828828  1
  O  O50  1  0.24999896  0.47157002  0.21836505  1
  O  O51  1  0.75000190  0.52837786  0.78171638  1
  O  O52  1  0.75000408  0.04302846  0.50533676  1
  O  O53  1  0.24999994  0.95722262  0.49464581  1
  O  O54  1  0.25000267  0.54302273  0.99466224  1
  O  O55  1  0.75000057  0.97157433  0.28163600  1
