# generated using pymatgen
data_Lu3TaO7
_symmetry_space_group_name_H-M   'P 1'
_cell_length_a   6.34438838
_cell_length_b   6.34438838
_cell_length_c   7.43946418
_cell_angle_alpha   90.00000000
_cell_angle_beta   90.00000000
_cell_angle_gamma   110.00180844
_symmetry_Int_Tables_number   1
_chemical_formula_structural   Lu3TaO7
_chemical_formula_sum   'Lu6 Ta2 O14'
_cell_volume   281.38568915
_cell_formula_units_Z   2
loop_
 _symmetry_equiv_pos_site_id
 _symmetry_equiv_pos_as_xyz
  1  'x, y, z'
loop_
 _atom_site_type_symbol
 _atom_site_label
 _atom_site_symmetry_multiplicity
 _atom_site_fract_x
 _atom_site_fract_y
 _atom_site_fract_z
 _atom_site_occupancy
  Lu  Lu0  1  0.04375457  0.51071189  0.25000000  1
  Lu  Lu1  1  0.48928811  0.95624543  0.75000000  1
  Lu  Lu2  1  0.00000000  0.00000000  0.00000000  1
  Lu  Lu3  1  0.00000000  0.00000000  0.50000000  1
  Lu  Lu4  1  0.95624543  0.48928811  0.75000000  1
  Lu  Lu5  1  0.51071189  0.04375457  0.25000000  1
  Ta  Ta6  1  0.50000000  0.50000000  0.00000000  1
  Ta  Ta7  1  0.50000000  0.50000000  0.50000000  1
  O  O8  1  0.15072227  0.88306048  0.25000000  1
  O  O9  1  0.11693952  0.84927773  0.75000000  1
  O  O10  1  0.56746701  0.82849963  0.03210233  1
  O  O11  1  0.56746701  0.82849963  0.46789767  1
  O  O12  1  0.17150037  0.43253299  0.96789767  1
  O  O13  1  0.17150037  0.43253299  0.53210233  1
  O  O14  1  0.57833692  0.57833692  0.75000000  1
  O  O15  1  0.42166308  0.42166308  0.25000000  1
  O  O16  1  0.82849963  0.56746701  0.03210233  1
  O  O17  1  0.43253299  0.17150037  0.53210233  1
  O  O18  1  0.43253299  0.17150037  0.96789767  1
  O  O19  1  0.82849963  0.56746701  0.46789767  1
  O  O20  1  0.84927773  0.11693952  0.75000000  1
  O  O21  1  0.88306048  0.15072227  0.25000000  1
