# generated using pymatgen
data_Ba3(ClO)2
_symmetry_space_group_name_H-M   'P 1'
_cell_length_a   12.63299934
_cell_length_b   6.34792696
_cell_length_c   10.79339271
_cell_angle_alpha   90.00000000
_cell_angle_beta   90.00000000
_cell_angle_gamma   90.00000000
_symmetry_Int_Tables_number   1
_chemical_formula_structural   Ba3(ClO)2
_chemical_formula_sum   'Ba12 Cl8 O8'
_cell_volume   865.55839587
_cell_formula_units_Z   4
loop_
 _symmetry_equiv_pos_site_id
 _symmetry_equiv_pos_as_xyz
  1  'x, y, z'
loop_
 _atom_site_type_symbol
 _atom_site_label
 _atom_site_symmetry_multiplicity
 _atom_site_fract_x
 _atom_site_fract_y
 _atom_site_fract_z
 _atom_site_occupancy
  Ba  Ba0  1  0.04681574  0.25000000  0.70204991  1
  Ba  Ba1  1  0.08238681  0.25000000  0.05866152  1
  Ba  Ba2  1  0.21322848  0.75000000  0.85884239  1
  Ba  Ba3  1  0.28677152  0.25000000  0.35884239  1
  Ba  Ba4  1  0.41761319  0.75000000  0.55866152  1
  Ba  Ba5  1  0.45318426  0.75000000  0.20204991  1
  Ba  Ba6  1  0.54681574  0.25000000  0.79795009  1
  Ba  Ba7  1  0.58238681  0.25000000  0.44133848  1
  Ba  Ba8  1  0.71322848  0.75000000  0.64115761  1
  Ba  Ba9  1  0.78677152  0.25000000  0.14115761  1
  Ba  Ba10  1  0.91761319  0.75000000  0.94133848  1
  Ba  Ba11  1  0.95318426  0.75000000  0.29795009  1
  Cl  Cl12  1  0.13469434  0.75000000  0.55771913  1
  Cl  Cl13  1  0.19543088  0.75000000  0.17745784  1
  Cl  Cl14  1  0.30456912  0.25000000  0.67745784  1
  Cl  Cl15  1  0.36530566  0.25000000  0.05771913  1
  Cl  Cl16  1  0.63469434  0.75000000  0.94228087  1
  Cl  Cl17  1  0.69543088  0.75000000  0.32254216  1
  Cl  Cl18  1  0.80456912  0.25000000  0.82254216  1
  Cl  Cl19  1  0.86530566  0.25000000  0.44228087  1
  O  O20  1  0.07269210  -0.00010406  0.87223702  1
  O  O21  1  0.07269210  0.50010406  0.87223702  1
  O  O22  1  0.42730790  0.00010406  0.37223702  1
  O  O23  1  0.42730790  0.49989594  0.37223702  1
  O  O24  1  0.57269210  -0.00010406  0.62776298  1
  O  O25  1  0.57269210  0.50010406  0.62776298  1
  O  O26  1  0.92730790  0.49989594  0.12776298  1
  O  O27  1  0.92730790  0.00010406  0.12776298  1
