# generated using pymatgen
data_DyBO3
_symmetry_space_group_name_H-M   'P 1'
_cell_length_a   4.11335231
_cell_length_b   3.95612402
_cell_length_c   8.67106748
_cell_angle_alpha   90.00003362
_cell_angle_beta   89.99981367
_cell_angle_gamma   121.32360520
_symmetry_Int_Tables_number   1
_chemical_formula_structural   DyBO3
_chemical_formula_sum   'Dy2 B2 O6'
_cell_volume   120.53708265
_cell_formula_units_Z   2
loop_
 _symmetry_equiv_pos_site_id
 _symmetry_equiv_pos_as_xyz
  1  'x, y, z'
loop_
 _atom_site_type_symbol
 _atom_site_label
 _atom_site_symmetry_multiplicity
 _atom_site_fract_x
 _atom_site_fract_y
 _atom_site_fract_z
 _atom_site_occupancy
  Dy  Dy0  1  0.05246179  0.00002552  0.00000001  1
  Dy  Dy1  1  0.05244932  0.00000237  0.50000032  1
  B  B2  1  0.50186877  0.74343972  0.25000001  1
  B  B3  1  0.75843633  0.25656650  0.75000015  1
  O  O4  1  0.33356794  0.65873119  0.10357289  1
  O  O5  1  0.33356131  0.65871769  0.39642621  1
  O  O6  1  0.89241095  0.93486264  0.25000031  1
  O  O7  1  0.67484223  0.34129215  0.60357671  1
  O  O8  1  0.67484871  0.34130601  0.89642149  1
  O  O9  1  0.95755265  0.06515522  0.75000090  1
