# generated using pymatgen
data_Bi3O5
_symmetry_space_group_name_H-M   'P 1'
_cell_length_a   8.30862675
_cell_length_b   6.72979673
_cell_length_c   5.72750017
_cell_angle_alpha   115.18439541
_cell_angle_beta   90.00000000
_cell_angle_gamma   108.78021090
_symmetry_Int_Tables_number   1
_chemical_formula_structural   Bi3O5
_chemical_formula_sum   'Bi6 O10'
_cell_volume   270.85291638
_cell_formula_units_Z   2
loop_
 _symmetry_equiv_pos_site_id
 _symmetry_equiv_pos_as_xyz
  1  'x, y, z'
loop_
 _atom_site_type_symbol
 _atom_site_label
 _atom_site_symmetry_multiplicity
 _atom_site_fract_x
 _atom_site_fract_y
 _atom_site_fract_z
 _atom_site_occupancy
  Bi  Bi0  1  0.15826694  0.63059038  0.31910035  1
  Bi  Bi1  1  0.65826694  0.63059038  0.31149003  1
  Bi  Bi2  1  0.00000000  0.00000000  -0.00000000  1
  Bi  Bi3  1  0.50000000  0.00000000  -0.00000000  1
  Bi  Bi4  1  0.84173306  0.36940962  0.68089965  1
  Bi  Bi5  1  0.34173306  0.36940962  0.68850997  1
  O  O6  1  0.88863928  0.67494784  0.08878351  1
  O  O7  1  0.45137926  0.68497354  0.07936434  1
  O  O8  1  0.95137926  0.68497354  0.60560920  1
  O  O9  1  0.38863928  0.67494784  0.58616433  1
  O  O10  1  0.04862074  0.31502646  0.39439080  1
  O  O11  1  0.25000000  0.00000000  0.10894651  1
  O  O12  1  0.61136072  0.32505216  0.41383567  1
  O  O13  1  0.75000000  1.00000000  0.89105349  1
  O  O14  1  0.54862074  0.31502646  0.92063566  1
  O  O15  1  0.11136072  0.32505216  0.91121649  1
