# generated using pymatgen
data_LaMnZnCrO6
_symmetry_space_group_name_H-M   'P 1'
_cell_length_a   5.33465901
_cell_length_b   5.45356770
_cell_length_c   7.66388981
_cell_angle_alpha   90.00000000
_cell_angle_beta   90.23489220
_cell_angle_gamma   90.00000000
_symmetry_Int_Tables_number   1
_chemical_formula_structural   LaMnZnCrO6
_chemical_formula_sum   'La2 Mn2 Zn2 Cr2 O12'
_cell_volume   222.96309049
_cell_formula_units_Z   2
loop_
 _symmetry_equiv_pos_site_id
 _symmetry_equiv_pos_as_xyz
  1  'x, y, z'
loop_
 _atom_site_type_symbol
 _atom_site_label
 _atom_site_symmetry_multiplicity
 _atom_site_fract_x
 _atom_site_fract_y
 _atom_site_fract_z
 _atom_site_occupancy
  La  La0  1  0.00812706  0.96807227  0.74978551  1
  La  La1  1  0.50812706  0.53192773  0.24978551  1
  Mn  Mn2  1  0.49942762  0.00473424  -0.00006658  1
  Mn  Mn3  1  0.99942762  0.49526576  0.49993342  1
  Zn  Zn4  1  0.48288214  0.45938630  0.74744035  1
  Zn  Zn5  1  0.98288214  0.04061370  0.24744035  1
  Cr  Cr6  1  0.49827269  0.00140975  0.49871525  1
  Cr  Cr7  1  0.99827269  0.49859025  0.99871525  1
  O  O8  1  0.07632891  0.45198843  0.25526202  1
  O  O9  1  0.22716526  0.22082428  0.95035887  1
  O  O10  1  0.21923731  0.22971279  0.55477820  1
  O  O11  1  0.31311508  0.70145142  0.94240066  1
  O  O12  1  0.30149249  0.69352047  0.55645747  1
  O  O13  1  0.37394943  0.98034233  0.24486826  1
  O  O14  1  0.57632891  0.04801157  0.75526202  1
  O  O15  1  0.72716526  0.27917572  0.45035987  1
  O  O16  1  0.71923731  0.27028721  0.05477820  1
  O  O17  1  0.81311508  0.79854858  0.44240066  1
  O  O18  1  0.80149249  0.80647953  0.05645747  1
  O  O19  1  0.87394943  0.51965767  0.74486826  1
