# generated using pymatgen
data_K3NaFeCl6
_symmetry_space_group_name_H-M   'P 1'
_cell_length_a   6.93519633
_cell_length_b   8.74707683
_cell_length_c   8.74707765
_cell_angle_alpha   94.64126257
_cell_angle_beta   58.09094835
_cell_angle_gamma   58.09094436
_symmetry_Int_Tables_number   1
_chemical_formula_structural   K3NaFeCl6
_chemical_formula_sum   'K3 Na1 Fe1 Cl6'
_cell_volume   331.14352143
_cell_formula_units_Z   1
loop_
 _symmetry_equiv_pos_site_id
 _symmetry_equiv_pos_as_xyz
  1  'x, y, z'
loop_
 _atom_site_type_symbol
 _atom_site_label
 _atom_site_symmetry_multiplicity
 _atom_site_fract_x
 _atom_site_fract_y
 _atom_site_fract_z
 _atom_site_occupancy
  K  K0  1  0.00000000  0.50000000  0.50000000  1
  K  K1  1  0.00000000  0.00000000  0.50000000  1
  K  K2  1  0.00000000  0.50000000  0.00000000  1
  Na  Na3  1  0.00000000  0.00000000  0.00000000  1
  Fe  Fe4  1  0.50000000  0.00000000  0.00000000  1
  Cl  Cl5  1  0.07932066  0.72616928  0.72616928  1
  Cl  Cl6  1  0.46834078  0.00000000  0.72616928  1
  Cl  Cl7  1  0.46834078  0.72616928  0.00000000  1
  Cl  Cl8  1  0.53165922  0.00000000  0.27383072  1
  Cl  Cl9  1  0.53165922  0.27383072  1.00000000  1
  Cl  Cl10  1  0.92067934  0.27383072  0.27383072  1
