# generated using pymatgen
data_H12C4N2O9
_symmetry_space_group_name_H-M   'P 1'
_cell_length_a   11.32714852
_cell_length_b   12.49471785
_cell_length_c   6.98272139
_cell_angle_alpha   90.00000000
_cell_angle_beta   90.00000000
_cell_angle_gamma   90.00000000
_symmetry_Int_Tables_number   1
_chemical_formula_structural   H12C4N2O9
_chemical_formula_sum   'H48 C16 N8 O36'
_cell_volume   988.26124015
_cell_formula_units_Z   4
loop_
 _symmetry_equiv_pos_site_id
 _symmetry_equiv_pos_as_xyz
  1  'x, y, z'
loop_
 _atom_site_type_symbol
 _atom_site_label
 _atom_site_symmetry_multiplicity
 _atom_site_fract_x
 _atom_site_fract_y
 _atom_site_fract_z
 _atom_site_occupancy
  H  H0  1  0.28320732  0.49568649  0.30042902  1
  H  H1  1  0.78320732  0.00431351  0.19957098  1
  H  H2  1  0.71679268  0.99568649  0.69957098  1
  H  H3  1  0.21679268  0.50431351  0.80042902  1
  H  H4  1  0.71679268  0.50431351  0.69957098  1
  H  H5  1  0.21679268  0.99568649  0.80042902  1
  H  H6  1  0.28320732  0.00431351  0.30042902  1
  H  H7  1  0.78320732  0.49568649  0.19957098  1
  H  H8  1  0.65856332  0.18697462  0.86138316  1
  H  H9  1  0.15856332  0.31302538  0.63861684  1
  H  H10  1  0.34143668  0.68697462  0.13861684  1
  H  H11  1  0.84143668  0.81302538  0.36138316  1
  H  H12  1  0.34143668  0.81302538  0.13861684  1
  H  H13  1  0.84143668  0.68697462  0.36138316  1
  H  H14  1  0.65856332  0.31302538  0.86138316  1
  H  H15  1  0.15856332  0.18697462  0.63861684  1
  H  H16  1  0.88689123  0.31779596  0.48643435  1
  H  H17  1  0.38689123  0.18220404  0.01356565  1
  H  H18  1  0.11310877  0.81779596  0.51356565  1
  H  H19  1  0.61310877  0.68220404  0.98643435  1
  H  H20  1  0.11310877  0.68220404  0.51356565  1
  H  H21  1  0.61310877  0.81779596  0.98643435  1
  H  H22  1  0.88689123  0.18220404  0.48643435  1
  H  H23  1  0.38689123  0.31779596  0.01356565  1
  H  H24  1  0.78729255  0.25000000  0.61743098  1
  H  H25  1  0.28729255  0.25000000  0.88256902  1
  H  H26  1  0.21270745  0.75000000  0.38256902  1
  H  H27  1  0.71270745  0.75000000  0.11743098  1
  H  H28  1  0.77472050  0.25000000  0.37853506  1
  H  H29  1  0.27472050  0.25000000  0.12146494  1
  H  H30  1  0.22527950  0.75000000  0.62146494  1
  H  H31  1  0.72527950  0.75000000  0.87853506  1
  H  H32  1  0.85378318  0.25000000  0.95444335  1
  H  H33  1  0.35378318  0.25000000  0.54555665  1
  H  H34  1  0.14621682  0.75000000  0.04555665  1
  H  H35  1  0.64621682  0.75000000  0.45444335  1
  H  H36  1  0.99423533  0.25000000  0.87694243  1
  H  H37  1  0.49423533  0.25000000  0.62305757  1
  H  H38  1  0.00576467  0.75000000  0.12305757  1
  H  H39  1  0.50576467  0.75000000  0.37694243  1
  H  H40  1  0.96069284  0.31835319  0.07730657  1
  H  H41  1  0.46069284  0.18164681  0.42269343  1
  H  H42  1  0.03930716  0.81835319  0.92269343  1
  H  H43  1  0.53930716  0.68164681  0.57730657  1
  H  H44  1  0.03930716  0.68164681  0.92269343  1
  H  H45  1  0.53930716  0.81835319  0.57730657  1
  H  H46  1  0.96069284  0.18164681  0.07730657  1
  H  H47  1  0.46069284  0.31835319  0.42269343  1
  C  C48  1  0.99044005  0.51137081  0.26738175  1
  C  C49  1  0.49044005  0.98862919  0.23261825  1
  C  C50  1  0.00955995  0.01137081  0.73261825  1
  C  C51  1  0.50955995  0.48862919  0.76738175  1
  C  C52  1  0.00955995  0.48862919  0.73261825  1
  C  C53  1  0.50955995  0.01137081  0.76738175  1
  C  C54  1  0.99044005  0.98862919  0.26738175  1
  C  C55  1  0.49044005  0.51137081  0.23261825  1
  C  C56  1  0.11729503  0.46429940  0.25039321  1
  C  C57  1  0.61729503  0.03570060  0.24960679  1
  C  C58  1  0.88270497  0.96429940  0.74960679  1
  C  C59  1  0.38270497  0.53570060  0.75039321  1
  C  C60  1  0.88270497  0.53570060  0.74960679  1
  C  C61  1  0.38270497  0.96429940  0.75039321  1
  C  C62  1  0.11729503  0.03570060  0.25039321  1
  C  C63  1  0.61729503  0.46429940  0.24960679  1
  N  N64  1  0.83505463  0.25000000  0.48912923  1
  N  N65  1  0.33505463  0.25000000  0.01087077  1
  N  N66  1  0.16494537  0.75000000  0.51087077  1
  N  N67  1  0.66494537  0.75000000  0.98912923  1
  N  N68  1  0.94227867  0.25000000  0.99708346  1
  N  N69  1  0.44227867  0.25000000  0.50291654  1
  N  N70  1  0.05772133  0.75000000  0.00291654  1
  N  N71  1  0.55772133  0.75000000  0.49708346  1
  O  O72  1  0.97751704  0.60338284  0.33830065  1
  O  O73  1  0.47751704  0.89661716  0.16169935  1
  O  O74  1  0.02248296  0.10338284  0.66169935  1
  O  O75  1  0.52248296  0.39661716  0.83830065  1
  O  O76  1  0.02248296  0.39661716  0.66169935  1
  O  O77  1  0.52248296  0.10338284  0.83830065  1
  O  O78  1  0.97751704  0.89661716  0.33830065  1
  O  O79  1  0.47751704  0.60338284  0.16169935  1
  O  O80  1  0.90927570  0.44933370  0.20559558  1
  O  O81  1  0.40927570  0.05066630  0.29440442  1
  O  O82  1  0.09072430  0.94933370  0.79440442  1
  O  O83  1  0.59072430  0.55066630  0.70559558  1
  O  O84  1  0.09072430  0.55066630  0.79440442  1
  O  O85  1  0.59072430  0.94933370  0.70559558  1
  O  O86  1  0.90927570  0.05066630  0.20559558  1
  O  O87  1  0.40927570  0.44933370  0.29440442  1
  O  O88  1  0.19986749  0.53011981  0.31383993  1
  O  O89  1  0.69986749  0.96988019  0.18616007  1
  O  O90  1  0.80013251  0.03011981  0.68616007  1
  O  O91  1  0.30013251  0.46988019  0.81383993  1
  O  O92  1  0.80013251  0.46988019  0.68616007  1
  O  O93  1  0.30013251  0.03011981  0.81383993  1
  O  O94  1  0.19986749  0.96988019  0.31383993  1
  O  O95  1  0.69986749  0.53011981  0.18616007  1
  O  O96  1  0.13500238  0.37444009  0.18360801  1
  O  O97  1  0.63500238  0.12555991  0.31639199  1
  O  O98  1  0.86499762  0.87444009  0.81639199  1
  O  O99  1  0.36499762  0.62555991  0.68360801  1
  O  O100  1  0.86499762  0.62555991  0.81639199  1
  O  O101  1  0.36499762  0.87444009  0.68360801  1
  O  O102  1  0.13500238  0.12555991  0.18360801  1
  O  O103  1  0.63500238  0.37444009  0.31639199  1
  O  O104  1  0.71127093  0.25000000  0.84977253  1
  O  O105  1  0.21127093  0.25000000  0.65022747  1
  O  O106  1  0.28872907  0.75000000  0.15022747  1
  O  O107  1  0.78872907  0.75000000  0.34977253  1
