# generated using pymatgen
data_Li3Cu2F8
_symmetry_space_group_name_H-M   'P 1'
_cell_length_a   5.44892381
_cell_length_b   6.44882498
_cell_length_c   5.77589391
_cell_angle_alpha   82.91265592
_cell_angle_beta   111.95725051
_cell_angle_gamma   60.39067343
_symmetry_Int_Tables_number   1
_chemical_formula_structural   Li3Cu2F8
_chemical_formula_sum   'Li3 Cu2 F8'
_cell_volume   151.23691869
_cell_formula_units_Z   1
loop_
 _symmetry_equiv_pos_site_id
 _symmetry_equiv_pos_as_xyz
  1  'x, y, z'
loop_
 _atom_site_type_symbol
 _atom_site_label
 _atom_site_symmetry_multiplicity
 _atom_site_fract_x
 _atom_site_fract_y
 _atom_site_fract_z
 _atom_site_occupancy
  Li  Li0  1  0.01858665  0.04009302  0.93555708  1
  Li  Li1  1  0.40189640  0.48492673  0.18721600  1
  Li  Li2  1  0.55689853  0.53642719  0.82049246  1
  Cu  Cu3  1  0.23155238  0.23952300  0.51066756  1
  Cu  Cu4  1  0.77206905  0.75423399  0.49590748  1
  F  F5  1  0.05928971  0.60624948  0.34230406  1
  F  F6  1  0.49856282  0.15703960  0.33805870  1
  F  F7  1  0.44375185  0.76304651  0.21505220  1
  F  F8  1  0.89111492  0.28357686  0.19560019  1
  F  F9  1  0.11181823  0.72078591  0.80028226  1
  F  F10  1  0.55959974  0.22810486  0.80180546  1
  F  F11  1  0.49202654  0.85394137  0.66855785  1
  F  F12  1  0.96265618  0.33205148  0.68832169  1
