# generated using pymatgen
data_Ho2TeO6
_symmetry_space_group_name_H-M   'P 1'
_cell_length_a   4.97803095
_cell_length_b   4.97786397
_cell_length_c   10.05393844
_cell_angle_alpha   90.00000000
_cell_angle_beta   90.00000000
_cell_angle_gamma   89.99986522
_symmetry_Int_Tables_number   1
_chemical_formula_structural   Ho2TeO6
_chemical_formula_sum   'Ho4 Te2 O12'
_cell_volume   249.13620151
_cell_formula_units_Z   2
loop_
 _symmetry_equiv_pos_site_id
 _symmetry_equiv_pos_as_xyz
  1  'x, y, z'
loop_
 _atom_site_type_symbol
 _atom_site_label
 _atom_site_symmetry_multiplicity
 _atom_site_fract_x
 _atom_site_fract_y
 _atom_site_fract_z
 _atom_site_occupancy
  Ho  Ho0  1  0.00002255  0.00000314  0.33451063  1
  Ho  Ho1  1  0.00002255  0.00000314  0.66548937  1
  Ho  Ho2  1  0.50000613  0.50002531  0.16548801  1
  Ho  Ho3  1  0.50000613  0.50002531  0.83451199  1
  Te  Te4  1  0.00001177  0.00002954  0.00000000  1
  Te  Te5  1  0.50001216  0.49998870  0.50000000  1
  O  O6  1  0.18353747  0.18354232  0.14651091  1
  O  O7  1  0.18353747  0.18354232  0.85348909  1
  O  O8  1  0.22141410  0.22122957  0.50000000  1
  O  O9  1  0.27876153  0.72142074  0.00000000  1
  O  O10  1  0.31644025  0.68346864  0.35349312  1
  O  O11  1  0.31644025  0.68346864  0.64650688  1
  O  O12  1  0.68360495  0.31654849  0.35348627  1
  O  O13  1  0.68360495  0.31654849  0.64651373  1
  O  O14  1  0.72140486  0.27878389  0.00000000  1
  O  O15  1  0.77858134  0.77876786  0.50000000  1
  O  O16  1  0.81649477  0.81650194  0.14651393  1
  O  O17  1  0.81649477  0.81650194  0.85348607  1
