# generated using pymatgen
data_Cd(AgO2)2
_symmetry_space_group_name_H-M   'P 1'
_cell_length_a   6.70518572
_cell_length_b   7.38890935
_cell_length_c   6.11480826
_cell_angle_alpha   104.40475853
_cell_angle_beta   123.24871570
_cell_angle_gamma   63.01654516
_symmetry_Int_Tables_number   1
_chemical_formula_structural   Cd(AgO2)2
_chemical_formula_sum   'Cd2 Ag4 O8'
_cell_volume   225.77718002
_cell_formula_units_Z   2
loop_
 _symmetry_equiv_pos_site_id
 _symmetry_equiv_pos_as_xyz
  1  'x, y, z'
loop_
 _atom_site_type_symbol
 _atom_site_label
 _atom_site_symmetry_multiplicity
 _atom_site_fract_x
 _atom_site_fract_y
 _atom_site_fract_z
 _atom_site_occupancy
  Cd  Cd0  1  0.87500000  0.25000000  0.25000000  1
  Cd  Cd1  1  0.12500000  0.75000000  0.75000000  1
  Ag  Ag2  1  0.49719479  0.00561142  0.25000000  1
  Ag  Ag3  1  0.74719479  0.50561142  0.75000000  1
  Ag  Ag4  1  0.25280521  0.49438858  0.25000000  1
  Ag  Ag5  1  0.50280521  0.99438858  0.75000000  1
  O  O6  1  0.90256173  0.50122852  0.14378115  1
  O  O7  1  0.73998990  0.00122852  0.64378115  1
  O  O8  1  0.74121842  0.99877148  0.14378115  1
  O  O9  1  0.59620975  0.50122852  0.35621885  1
  O  O10  1  0.25878158  0.00122852  0.85621885  1
  O  O11  1  0.40379025  0.49877148  0.64378115  1
  O  O12  1  0.26001010  0.99877148  0.35621885  1
  O  O13  1  0.09743827  0.49877148  0.85621885  1
