# generated using pymatgen
data_CaTm2O4
_symmetry_space_group_name_H-M   'P 1'
_cell_length_a   3.27534501
_cell_length_b   5.68786682
_cell_length_c   10.84274933
_cell_angle_alpha   90.00000000
_cell_angle_beta   90.00000000
_cell_angle_gamma   106.73370593
_symmetry_Int_Tables_number   1
_chemical_formula_structural   CaTm2O4
_chemical_formula_sum   'Ca2 Tm4 O8'
_cell_volume   193.44352196
_cell_formula_units_Z   2
loop_
 _symmetry_equiv_pos_site_id
 _symmetry_equiv_pos_as_xyz
  1  'x, y, z'
loop_
 _atom_site_type_symbol
 _atom_site_label
 _atom_site_symmetry_multiplicity
 _atom_site_fract_x
 _atom_site_fract_y
 _atom_site_fract_z
 _atom_site_occupancy
  Ca  Ca0  1  0.11148662  0.22297424  0.25000000  1
  Ca  Ca1  1  0.88851338  0.77702576  0.75000000  1
  Tm  Tm2  1  0.36745244  0.73490389  0.42616893  1
  Tm  Tm3  1  0.36745244  0.73490389  0.07383107  1
  Tm  Tm4  1  0.63254756  0.26509611  0.57383107  1
  Tm  Tm5  1  0.63254756  0.26509611  0.92616893  1
  O  O6  1  0.00000000  0.00000000  0.00000000  1
  O  O7  1  0.00000000  0.00000000  0.50000000  1
  O  O8  1  0.46375985  0.92751970  0.25000000  1
  O  O9  1  0.26522041  0.53043981  0.61203940  1
  O  O10  1  0.26522041  0.53043981  0.88796060  1
  O  O11  1  0.53624015  0.07248030  0.75000000  1
  O  O12  1  0.73477959  0.46956019  0.38796060  1
  O  O13  1  0.73477959  0.46956019  0.11203940  1
