# generated using pymatgen
data_Li3Cu4F9
_symmetry_space_group_name_H-M   'P 1'
_cell_length_a   5.25281229
_cell_length_b   8.09035951
_cell_length_c   5.26555706
_cell_angle_alpha   101.79319240
_cell_angle_beta   120.43472273
_cell_angle_gamma   94.48364940
_symmetry_Int_Tables_number   1
_chemical_formula_structural   Li3Cu4F9
_chemical_formula_sum   'Li3 Cu4 F9'
_cell_volume   184.43566021
_cell_formula_units_Z   1
loop_
 _symmetry_equiv_pos_site_id
 _symmetry_equiv_pos_as_xyz
  1  'x, y, z'
loop_
 _atom_site_type_symbol
 _atom_site_label
 _atom_site_symmetry_multiplicity
 _atom_site_fract_x
 _atom_site_fract_y
 _atom_site_fract_z
 _atom_site_occupancy
  Li  Li0  1  0.96430019  0.00490147  0.96763621  1
  Li  Li1  1  0.20502371  0.55819297  0.40024021  1
  Li  Li2  1  0.57834834  0.71244743  0.16321067  1
  Cu  Cu3  1  0.30532232  0.93792674  0.60707156  1
  Cu  Cu4  1  0.67966404  0.24723498  0.43717941  1
  Cu  Cu5  1  0.41987758  0.31322458  0.93888359  1
  Cu  Cu6  1  0.89414111  0.62724267  0.77580495  1
  F  F7  1  0.26371234  0.76675985  0.81157695  1
  F  F8  1  0.95844076  0.78353685  0.20903739  1
  F  F9  1  0.64914397  0.78647386  0.56688582  1
  F  F10  1  0.65390104  0.09465560  0.00523685  1
  F  F11  1  0.21042534  0.50711088  0.02495385  1
  F  F12  1  0.82088926  0.45550496  0.31804399  1
  F  F13  1  0.33922204  0.08482784  0.36564081  1
  F  F14  1  0.03137789  0.14240649  0.72712937  1
  F  F15  1  0.51745006  0.45127082  0.66394637  1
