# generated using pymatgen
data_Ga3NO3
_symmetry_space_group_name_H-M   'P 1'
_cell_length_a   5.91739669
_cell_length_b   5.95620578
_cell_length_c   10.32220815
_cell_angle_alpha   106.45048235
_cell_angle_beta   73.31899175
_cell_angle_gamma   119.82799159
_symmetry_Int_Tables_number   1
_chemical_formula_structural   Ga3NO3
_chemical_formula_sum   'Ga12 N4 O12'
_cell_volume   297.98363641
_cell_formula_units_Z   4
loop_
 _symmetry_equiv_pos_site_id
 _symmetry_equiv_pos_as_xyz
  1  'x, y, z'
loop_
 _atom_site_type_symbol
 _atom_site_label
 _atom_site_symmetry_multiplicity
 _atom_site_fract_x
 _atom_site_fract_y
 _atom_site_fract_z
 _atom_site_occupancy
  Ga  Ga0  1  0.24836963  0.75049548  0.25108545  1
  Ga  Ga1  1  0.80934569  0.68069048  0.05886412  1
  Ga  Ga2  1  0.25008325  0.25187233  0.24996842  1
  Ga  Ga3  1  0.99904114  0.50809713  0.50642930  1
  Ga  Ga4  1  0.49399726  0.98699923  0.99451890  1
  Ga  Ga5  1  0.68885974  0.82008901  0.44087105  1
  Ga  Ga6  1  0.25074520  0.74558702  0.74879943  1
  Ga  Ga7  1  0.74879794  0.25065869  0.24984547  1
  Ga  Ga8  1  0.30078824  0.15703380  0.55389342  1
  Ga  Ga9  1  0.75072531  0.74841307  0.75135546  1
  Ga  Ga10  1  0.19609495  0.33892788  0.94656291  1
  Ga  Ga11  1  0.74784258  0.24628611  0.75043391  1
  N  N12  1  0.11830776  0.38672471  0.14770774  1
  N  N13  1  0.10408247  0.84066682  0.63500541  1
  N  N14  1  0.37955864  0.11520869  0.35283205  1
  N  N15  1  0.39518896  0.65469673  0.86537552  1
  O  O16  1  0.13464304  0.88308660  0.12346134  1
  O  O17  1  0.62035343  0.88226376  0.12364103  1
  O  O18  1  0.36220118  0.61866577  0.37734612  1
  O  O19  1  0.61495004  0.35175560  0.12032287  1
  O  O20  1  0.10765561  0.36997118  0.62720094  1
  O  O21  1  0.87714140  0.61871888  0.37732767  1
  O  O22  1  0.62804808  0.88625004  0.63456647  1
  O  O23  1  0.88352468  0.14948469  0.37995740  1
  O  O24  1  0.63490779  0.36966289  0.62759451  1
  O  O25  1  0.87179420  0.60760843  0.86534581  1
  O  O26  1  0.38985325  0.12509816  0.87300199  1
  O  O27  1  0.86163452  0.12410781  0.87371128  1
