# generated using pymatgen
data_Ti2ZnP2O9
_symmetry_space_group_name_H-M   'P 1'
_cell_length_a   6.38149138
_cell_length_b   7.57135526
_cell_length_c   14.30021430
_cell_angle_alpha   89.85145983
_cell_angle_beta   89.90652424
_cell_angle_gamma   89.99944795
_symmetry_Int_Tables_number   1
_chemical_formula_structural   Ti2ZnP2O9
_chemical_formula_sum   'Ti8 Zn4 P8 O36'
_cell_volume   690.93361072
_cell_formula_units_Z   4
loop_
 _symmetry_equiv_pos_site_id
 _symmetry_equiv_pos_as_xyz
  1  'x, y, z'
loop_
 _atom_site_type_symbol
 _atom_site_label
 _atom_site_symmetry_multiplicity
 _atom_site_fract_x
 _atom_site_fract_y
 _atom_site_fract_z
 _atom_site_occupancy
  Ti  Ti0  1  0.75037346  0.35097614  0.88231787  1
  Ti  Ti1  1  0.24976143  0.64900318  0.11765895  1
  Ti  Ti2  1  0.25067088  0.85196553  0.61789086  1
  Ti  Ti3  1  0.74934432  0.14815734  0.38208130  1
  Ti  Ti4  1  0.49993526  0.99989953  0.00004287  1
  Ti  Ti5  1  0.49982447  0.49996747  0.49999791  1
  Ti  Ti6  1  0.00018757  0.49998737  0.49999594  1
  Ti  Ti7  1  0.99998050  0.00012155  0.00001991  1
  Zn  Zn8  1  0.75143288  0.94339363  0.77284860  1
  Zn  Zn9  1  0.75002872  0.55786822  0.27076732  1
  Zn  Zn10  1  0.25003395  0.44220551  0.72929034  1
  Zn  Zn11  1  0.24857561  0.05657851  0.22706186  1
  P  P12  1  0.25023957  0.36306805  0.92949765  1
  P  P13  1  0.74986646  0.63696841  0.07052261  1
  P  P14  1  0.75017890  0.86256821  0.57073149  1
  P  P15  1  0.24983017  0.13734029  0.42918886  1
  P  P16  1  0.75011299  0.38059546  0.69335516  1
  P  P17  1  0.75010607  0.12067362  0.19308688  1
  P  P18  1  0.24983018  0.87932941  0.80696190  1
  P  P19  1  0.24992331  0.61942104  0.30659511  1
  O  O20  1  0.04348385  0.60529582  0.36604573  1
  O  O21  1  0.54338019  0.39432459  0.63433011  1
  O  O22  1  0.95586182  0.10867611  0.13315505  1
  O  O23  1  0.45449026  0.89120361  0.86716463  1
  O  O24  1  0.95661138  0.39466217  0.63394886  1
  O  O25  1  0.45654796  0.60564201  0.36569246  1
  O  O26  1  0.04405896  0.89143760  0.86687289  1
  O  O27  1  0.54533780  0.10874031  0.13294698  1
  O  O28  1  0.24991112  0.32372979  0.47583113  1
  O  O29  1  0.75009633  0.67608801  0.52420010  1
  O  O30  1  0.74963067  0.82395118  0.02414932  1
  O  O31  1  0.25043984  0.17614907  0.97593276  1
  O  O32  1  0.75038712  0.12864896  0.93994042  1
  O  O33  1  0.24921917  0.87146535  0.06018441  1
  O  O34  1  0.24983943  0.63459970  0.55714897  1
  O  O35  1  0.75018925  0.36537642  0.44296439  1
  O  O36  1  0.75054865  0.20489222  0.75096314  1
  O  O37  1  0.24950560  0.79513834  0.24903008  1
  O  O38  1  0.25009513  0.70486681  0.74834582  1
  O  O39  1  0.74978303  0.29517731  0.25165310  1
  O  O40  1  0.43775598  0.12190037  0.36105324  1
  O  O41  1  0.93848726  0.87818106  0.63837479  1
  O  O42  1  0.56131690  0.62118025  0.13825571  1
  O  O43  1  0.06351652  0.37888189  0.86083762  1
  O  O44  1  0.56227629  0.87810003  0.63888394  1
  O  O45  1  0.06151661  0.12184139  0.36154199  1
  O  O46  1  0.43880417  0.37884000  0.86171727  1
  O  O47  1  0.93657079  0.62111581  0.13911375  1
  O  O48  1  0.75146302  0.49818982  0.99456263  1
  O  O49  1  0.25003195  0.02492923  0.73195280  1
  O  O50  1  0.24953941  0.47562094  0.23090720  1
  O  O51  1  0.75050658  0.52445693  0.76902392  1
  O  O52  1  0.74934384  0.00106626  0.49453322  1
  O  O53  1  0.25063725  0.99876985  0.50533696  1
  O  O54  1  0.24860202  0.50171174  0.00539523  1
  O  O55  1  0.74999018  0.97505460  0.26809398  1
