# generated using pymatgen
data_YAlO3
_symmetry_space_group_name_H-M   'P 1'
_cell_length_a   6.72110607
_cell_length_b   6.73805631
_cell_length_c   10.11813886
_cell_angle_alpha   90.00000000
_cell_angle_beta   90.00000000
_cell_angle_gamma   60.08318051
_symmetry_Int_Tables_number   1
_chemical_formula_structural   YAlO3
_chemical_formula_sum   'Y6 Al6 O18'
_cell_volume   397.16416842
_cell_formula_units_Z   6
loop_
 _symmetry_equiv_pos_site_id
 _symmetry_equiv_pos_as_xyz
  1  'x, y, z'
loop_
 _atom_site_type_symbol
 _atom_site_label
 _atom_site_symmetry_multiplicity
 _atom_site_fract_x
 _atom_site_fract_y
 _atom_site_fract_z
 _atom_site_occupancy
  Y  Y0  1  0.16985353  0.66029293  0.00000000  1
  Y  Y1  1  0.16985353  0.66029293  0.50000000  1
  Y  Y2  1  0.83014647  0.33970707  0.00000000  1
  Y  Y3  1  0.83014647  0.33970707  0.50000000  1
  Y  Y4  1  0.50000000  0.00000000  0.50000000  1
  Y  Y5  1  0.50000000  0.00000000  0.00000000  1
  Al  Al6  1  0.83439570  0.73113037  0.75000000  1
  Al  Al7  1  0.43447393  0.73113037  0.25000000  1
  Al  Al8  1  0.56552607  0.26886963  0.75000000  1
  Al  Al9  1  0.16560430  0.26886963  0.25000000  1
  Al  Al10  1  0.89325141  0.00000000  0.25000000  1
  Al  Al11  1  0.10674859  0.00000000  0.75000000  1
  O  O12  1  0.09292925  0.74321593  0.75000000  1
  O  O13  1  0.16385382  0.74321593  0.25000000  1
  O  O14  1  0.83366184  0.64407999  0.58814504  1
  O  O15  1  0.83366184  0.64407999  0.91185496  1
  O  O16  1  0.52225717  0.64407999  0.08814504  1
  O  O17  1  0.52225717  0.64407999  0.41185496  1
  O  O18  1  0.47774283  0.35592001  0.91185496  1
  O  O19  1  0.16633816  0.35592001  0.08814504  1
  O  O20  1  0.47774283  0.35592001  0.58814504  1
  O  O21  1  0.16633816  0.35592001  0.41185496  1
  O  O22  1  0.83614618  0.25678407  0.75000000  1
  O  O23  1  0.90707075  0.25678407  0.25000000  1
  O  O24  1  0.42558507  0.00000000  0.25000000  1
  O  O25  1  0.81220836  0.00000000  0.08367985  1
  O  O26  1  0.81220836  0.00000000  0.41632015  1
  O  O27  1  0.18779164  0.00000000  0.58367985  1
  O  O28  1  0.18779164  0.00000000  0.91632015  1
  O  O29  1  0.57441493  0.00000000  0.75000000  1
