# generated using pymatgen
data_CdSeO4
_symmetry_space_group_name_H-M   'P 1'
_cell_length_a   6.85918086
_cell_length_b   7.18139110
_cell_length_c   6.71796085
_cell_angle_alpha   90.00000000
_cell_angle_beta   104.32660188
_cell_angle_gamma   90.00000000
_symmetry_Int_Tables_number   1
_chemical_formula_structural   CdSeO4
_chemical_formula_sum   'Cd4 Se4 O16'
_cell_volume   320.62522184
_cell_formula_units_Z   4
loop_
 _symmetry_equiv_pos_site_id
 _symmetry_equiv_pos_as_xyz
  1  'x, y, z'
loop_
 _atom_site_type_symbol
 _atom_site_label
 _atom_site_symmetry_multiplicity
 _atom_site_fract_x
 _atom_site_fract_y
 _atom_site_fract_z
 _atom_site_occupancy
  Cd  Cd0  1  0.22029039  0.14444403  0.41066520  1
  Cd  Cd1  1  0.27970961  0.64444403  0.08933480  1
  Cd  Cd2  1  0.72029039  0.35555597  0.91066520  1
  Cd  Cd3  1  0.77970961  0.85555597  0.58933480  1
  Se  Se4  1  0.19623319  0.16401792  0.88632570  1
  Se  Se5  1  0.30376681  0.66401792  0.61367430  1
  Se  Se6  1  0.69623319  0.33598208  0.38632570  1
  Se  Se7  1  0.80376681  0.83598208  0.11367430  1
  O  O8  1  0.02182963  0.10160053  0.67421196  1
  O  O9  1  0.10365093  0.34986345  0.98516449  1
  O  O10  1  0.10899384  0.70850468  0.71676539  1
  O  O11  1  0.25533286  0.50444862  0.42348293  1
  O  O12  1  0.39100616  0.20850468  0.78323461  1
  O  O13  1  0.24466714  0.00444862  0.07651707  1
  O  O14  1  0.39634907  0.84986345  0.51483551  1
  O  O15  1  0.47817037  0.60160053  0.82578804  1
  O  O16  1  0.52182963  0.39839947  0.17421196  1
  O  O17  1  0.60365093  0.15013655  0.48516449  1
  O  O18  1  0.75533286  0.99555138  0.92348293  1
  O  O19  1  0.60899384  0.79149532  0.21676539  1
  O  O20  1  0.74466714  0.49555138  0.57651707  1
  O  O21  1  0.89100616  0.29149532  0.28323461  1
  O  O22  1  0.89634907  0.65013655  0.01483551  1
  O  O23  1  0.97817037  0.89839947  0.32578804  1
