# generated using pymatgen
data_Li4ZrNb(TeO6)2
_symmetry_space_group_name_H-M   'P 1'
_cell_length_a   5.57322981
_cell_length_b   11.14464100
_cell_length_c   9.82311328
_cell_angle_alpha   28.17790776
_cell_angle_beta   50.96708036
_cell_angle_gamma   56.27528437
_symmetry_Int_Tables_number   1
_chemical_formula_structural   Li4ZrNb(TeO6)2
_chemical_formula_sum   'Li4 Zr1 Nb1 Te2 O12'
_cell_volume   223.79924282
_cell_formula_units_Z   1
loop_
 _symmetry_equiv_pos_site_id
 _symmetry_equiv_pos_as_xyz
  1  'x, y, z'
loop_
 _atom_site_type_symbol
 _atom_site_label
 _atom_site_symmetry_multiplicity
 _atom_site_fract_x
 _atom_site_fract_y
 _atom_site_fract_z
 _atom_site_occupancy
  Li  Li0  1  0.27875924  0.49718732  0.28293299  1
  Li  Li1  1  0.77635560  0.50472675  0.77236976  1
  Li  Li2  1  0.28417143  0.00134047  0.27783713  1
  Li  Li3  1  0.77962098  0.99733241  0.78137221  1
  Zr  Zr4  1  0.00415984  0.00072208  0.00203571  1
  Nb  Nb5  1  0.00265640  0.49948006  0.00342886  1
  Te  Te6  1  0.50107526  0.50053805  0.50111789  1
  Te  Te7  1  0.50487425  0.99903017  0.50288454  1
  O  O8  1  0.11181516  0.81656925  0.74162947  1
  O  O9  1  0.24568760  0.62985432  0.61295958  1
  O  O10  1  0.62048511  0.67361375  0.88323753  1
  O  O11  1  0.72321118  0.86938516  0.38699954  1
  O  O12  1  0.39346825  0.79317545  0.13269858  1
  O  O13  1  0.13459527  0.33531141  0.72258099  1
  O  O14  1  0.86752053  0.68086319  0.24735512  1
  O  O15  1  0.24163034  0.13106954  0.61456719  1
  O  O16  1  0.60942578  0.19542440  0.86434676  1
  O  O17  1  0.73439562  0.37099714  0.38347623  1
  O  O18  1  0.37541236  0.31462722  0.11539356  1
  O  O19  1  0.88187982  0.18875086  0.24197736  1
