# generated using pymatgen
data_LaTi6O12
_symmetry_space_group_name_H-M   'P 1'
_cell_length_a   8.46491500
_cell_length_b   8.27150001
_cell_length_c   8.46491500
_cell_angle_alpha   74.87999550
_cell_angle_beta   64.12938376
_cell_angle_gamma   108.42108729
_symmetry_Int_Tables_number   1
_chemical_formula_structural   LaTi6O12
_chemical_formula_sum   'La2 Ti12 O24'
_cell_volume   447.38777018
_cell_formula_units_Z   2
loop_
 _symmetry_equiv_pos_site_id
 _symmetry_equiv_pos_as_xyz
  1  'x, y, z'
loop_
 _atom_site_type_symbol
 _atom_site_label
 _atom_site_symmetry_multiplicity
 _atom_site_fract_x
 _atom_site_fract_y
 _atom_site_fract_z
 _atom_site_occupancy
  La  La0  1  0.60198239  0.00000000  0.39801761  1
  La  La1  1  0.06468461  0.00000000  0.93531539  1
  Ti  Ti2  1  0.32433936  0.18138364  0.14690493  1
  Ti  Ti3  1  0.18279504  0.52028485  0.99584418  1
  Ti  Ti4  1  0.48387096  0.47971515  0.33748882  1
  Ti  Ti5  1  0.14598938  0.48056733  0.66899539  1
  Ti  Ti6  1  0.34232764  0.81861636  0.18642807  1
  Ti  Ti7  1  0.01280719  0.82473525  0.52140494  1
  Ti  Ti8  1  0.99495557  0.18138364  0.47628872  1
  Ti  Ti9  1  0.65385981  0.17526475  0.81192806  1
  Ti  Ti10  1  0.52067762  0.51943267  0.66433861  1
  Ti  Ti11  1  0.85043828  0.51943267  0.33457795  1
  Ti  Ti12  1  0.81622872  0.48056733  0.99875505  1
  Ti  Ti13  1  0.67171143  0.81861636  0.85704428  1
  O  O14  1  0.01739585  0.03100089  0.31972896  1
  O  O15  1  0.02283439  0.66764597  0.02854632  1
  O  O16  1  0.29090104  0.30781644  0.31641759  1
  O  O17  1  0.37576596  0.69218356  0.01691541  1
  O  O18  1  0.04545367  0.69717124  0.34897305  1
  O  O19  1  0.64383261  0.33235403  0.30478668  1
  O  O20  1  0.30380771  0.33235403  0.64481158  1
  O  O21  1  0.68391753  0.63749320  0.04618856  1
  O  O22  1  0.35034876  0.63749320  0.37975732  1
  O  O23  1  0.00946394  0.63090876  0.71188918  1
  O  O24  1  0.68413950  0.02983030  0.64557713  1
  O  O25  1  0.34207443  0.02983030  0.98764320  1
  O  O26  1  0.64927015  0.96899911  0.01360404  1
  O  O27  1  0.32459257  0.97016970  0.34569080  1
  O  O28  1  0.31631824  0.36250680  0.95357568  1
  O  O29  1  0.98274847  0.36250680  0.28714544  1
  O  O30  1  0.65720206  0.36909124  0.62144482  1
  O  O31  1  0.36285929  0.66764597  0.68852142  1
  O  O32  1  0.69195332  0.66376649  0.36151983  1
  O  O33  1  0.95385571  0.30282876  0.65171756  1
  O  O34  1  0.62121233  0.30282876  0.98435995  1
  O  O35  1  0.71281129  0.69717124  0.68161644  1
  O  O36  1  0.97471368  0.33623351  0.97181317  1
  O  O37  1  0.98252750  0.97016970  0.68775587  1
