# generated using pymatgen
data_LiSiBiO4
_symmetry_space_group_name_H-M   'P 1'
_cell_length_a   10.11590172
_cell_length_b   10.11596248
_cell_length_c   8.21303062
_cell_angle_alpha   89.99607549
_cell_angle_beta   89.99873382
_cell_angle_gamma   120.00251803
_symmetry_Int_Tables_number   1
_chemical_formula_structural   LiSiBiO4
_chemical_formula_sum   'Li8 Si8 Bi8 O32'
_cell_volume   727.83822916
_cell_formula_units_Z   8
loop_
 _symmetry_equiv_pos_site_id
 _symmetry_equiv_pos_as_xyz
  1  'x, y, z'
loop_
 _atom_site_type_symbol
 _atom_site_label
 _atom_site_symmetry_multiplicity
 _atom_site_fract_x
 _atom_site_fract_y
 _atom_site_fract_z
 _atom_site_occupancy
  Li  Li0  1  0.23439707  0.91715881  0.69561527  1
  Li  Li1  1  0.08285473  0.31725129  0.69562953  1
  Li  Li2  1  0.33334772  0.66666140  0.21390960  1
  Li  Li3  1  0.31724582  0.23438173  0.19563115  1
  Li  Li4  1  0.68273721  0.76558479  0.69564732  1
  Li  Li5  1  0.66667903  0.33334724  0.71390587  1
  Li  Li6  1  0.91716463  0.68276932  0.19564463  1
  Li  Li7  1  0.76557737  0.08284519  0.19564447  1
  Si  Si8  1  0.22130360  0.90687811  0.32366602  1
  Si  Si9  1  0.09309255  0.31442539  0.32366894  1
  Si  Si10  1  0.33332995  0.66666797  0.75502869  1
  Si  Si11  1  0.31442276  0.22134013  0.82367647  1
  Si  Si12  1  0.68556708  0.77863014  0.32367672  1
  Si  Si13  1  0.66664957  0.33334745  0.25505048  1
  Si  Si14  1  0.90690626  0.68557637  0.82367555  1
  Si  Si15  1  0.77864524  0.09308890  0.82367812  1
  Bi  Bi16  1  0.02580526  0.49079235  0.97958351  1
  Bi  Bi17  1  0.46497025  0.97422413  0.97970956  1
  Bi  Bi18  1  0.00002410  0.00005828  0.04827835  1
  Bi  Bi19  1  0.99999056  0.00004199  0.54828323  1
  Bi  Bi20  1  0.49076719  0.46496491  0.47964854  1
  Bi  Bi21  1  0.50924127  0.53498160  0.97964177  1
  Bi  Bi22  1  0.53499660  0.02575585  0.47971311  1
  Bi  Bi23  1  0.97423292  0.50923354  0.47957947  1
  O  O24  1  0.06513042  0.74888936  0.36717147  1
  O  O25  1  0.01311569  0.83027955  0.70064918  1
  O  O26  1  0.29986721  0.01646055  0.48514060  1
  O  O27  1  0.98356522  0.28338528  0.48515291  1
  O  O28  1  0.12951422  0.48506126  0.25755998  1
  O  O29  1  0.15863941  0.54077129  0.69824174  1
  O  O30  1  0.35554350  0.87047937  0.25753784  1
  O  O31  1  0.38216479  0.84138878  0.69814396  1
  O  O32  1  0.33327306  0.66673710  0.95979050  1
  O  O33  1  0.25111987  0.31620866  0.36711020  1
  O  O34  1  0.16979686  0.18290837  0.70058376  1
  O  O35  1  0.51496382  0.64445926  0.25752526  1
  O  O36  1  0.45923299  0.61784509  0.69829740  1
  O  O37  1  0.28336772  0.29979756  0.98514875  1
  O  O38  1  0.81710013  0.98686907  0.70064198  1
  O  O39  1  0.68374520  0.93490225  0.36717366  1
  O  O40  1  0.18289879  0.01309868  0.20057718  1
  O  O41  1  0.31623083  0.06508013  0.86712231  1
  O  O42  1  0.71654067  0.70011353  0.48515199  1
  O  O43  1  0.48506249  0.35555186  0.75758832  1
  O  O44  1  0.54075430  0.38213466  0.19819338  1
  O  O45  1  0.83027058  0.81716028  0.20065846  1
  O  O46  1  0.74885912  0.68375294  0.86717612  1
  O  O47  1  0.66655269  0.33333130  0.45981526  1
  O  O48  1  0.64445628  0.12951841  0.75752125  1
  O  O49  1  0.61783658  0.15861379  0.19824296  1
  O  O50  1  0.87049609  0.51496531  0.75752437  1
  O  O51  1  0.84136969  0.45922516  0.19832119  1
  O  O52  1  0.01642417  0.71655071  0.98514780  1
  O  O53  1  0.70010567  0.98355857  0.98515951  1
  O  O54  1  0.93488885  0.25111495  0.86713698  1
  O  O55  1  0.98686333  0.16977603  0.20061035  1
