# generated using pymatgen
data_Li5Cu5(SbO6)2
_symmetry_space_group_name_H-M   'P 1'
_cell_length_a   5.21098933
_cell_length_b   5.21098933
_cell_length_c   9.89194166
_cell_angle_alpha   88.76643600
_cell_angle_beta   91.23356400
_cell_angle_gamma   66.52418934
_symmetry_Int_Tables_number   1
_chemical_formula_structural   Li5Cu5(SbO6)2
_chemical_formula_sum   'Li5 Cu5 Sb2 O12'
_cell_volume   246.18669129
_cell_formula_units_Z   1
loop_
 _symmetry_equiv_pos_site_id
 _symmetry_equiv_pos_as_xyz
  1  'x, y, z'
loop_
 _atom_site_type_symbol
 _atom_site_label
 _atom_site_symmetry_multiplicity
 _atom_site_fract_x
 _atom_site_fract_y
 _atom_site_fract_z
 _atom_site_occupancy
  Li  Li0  1  0.32184899  0.84702547  0.99293507  1
  Li  Li1  1  0.16259751  0.67845399  0.50438092  1
  Li  Li2  1  0.91012739  0.91012739  0.75000000  1
  Li  Li3  1  0.84702547  0.32184899  0.50706493  1
  Li  Li4  1  0.67845399  0.16259751  0.99561908  1
  Cu  Cu5  1  0.99788186  0.50695913  0.99801372  1
  Cu  Cu6  1  0.59000316  0.59000316  0.75000000  1
  Cu  Cu7  1  0.08250939  0.08250939  0.25000000  1
  Cu  Cu8  1  0.40970533  0.40970533  0.25000000  1
  Cu  Cu9  1  0.50695913  0.99788186  0.50198628  1
  Sb  Sb10  1  0.24954810  0.24954810  0.75000000  1
  Sb  Sb11  1  0.74479696  0.74479696  0.25000000  1
  O  O12  1  0.56696560  0.92880487  0.84880725  1
  O  O13  1  0.30551097  0.53423909  0.86987464  1
  O  O14  1  0.06792698  0.42574396  0.34812798  1
  O  O15  1  0.99222781  0.20444990  0.88591043  1
  O  O16  1  0.47808139  0.68488040  0.37624896  1
  O  O17  1  0.80603344  0.00368130  0.38223479  1
  O  O18  1  0.20444990  0.99222781  0.61408957  1
  O  O19  1  0.53423909  0.30551097  0.63012536  1
  O  O20  1  0.00368130  0.80603344  0.11776521  1
  O  O21  1  0.92880487  0.56696560  0.65119275  1
  O  O22  1  0.68488040  0.47808139  0.12375104  1
  O  O23  1  0.42574396  0.06792698  0.15187202  1
