# generated using pymatgen
data_LiTi8O13
_symmetry_space_group_name_H-M   'P 1'
_cell_length_a   6.48728344
_cell_length_b   6.48728309
_cell_length_c   6.48728330
_cell_angle_alpha   73.80100656
_cell_angle_beta   73.80101376
_cell_angle_gamma   73.80100946
_symmetry_Int_Tables_number   1
_chemical_formula_structural   LiTi8O13
_chemical_formula_sum   'Li1 Ti8 O13'
_cell_volume   245.70609748
_cell_formula_units_Z   1
loop_
 _symmetry_equiv_pos_site_id
 _symmetry_equiv_pos_as_xyz
  1  'x, y, z'
loop_
 _atom_site_type_symbol
 _atom_site_label
 _atom_site_symmetry_multiplicity
 _atom_site_fract_x
 _atom_site_fract_y
 _atom_site_fract_z
 _atom_site_occupancy
  Li  Li0  1  0.50000000  0.50000000  0.50000000  1
  Ti  Ti1  1  0.12455339  0.94978504  0.68272626  1
  Ti  Ti2  1  0.31727374  0.87544661  0.05021496  1
  Ti  Ti3  1  0.05021496  0.31727374  0.87544661  1
  Ti  Ti4  1  0.27211776  0.27211776  0.27211776  1
  Ti  Ti5  1  0.72788224  0.72788224  0.72788224  1
  Ti  Ti6  1  0.94978504  0.68272626  0.12455339  1
  Ti  Ti7  1  0.68272626  0.12455339  0.94978504  1
  Ti  Ti8  1  0.87544661  0.05021496  0.31727374  1
  O  O9  1  0.20614965  0.95299293  0.35657781  1
  O  O10  1  0.04700707  0.64342219  0.79385035  1
  O  O11  1  0.42037880  0.81973162  0.73509611  1
  O  O12  1  0.26490389  0.57962120  0.18026838  1
  O  O13  1  0.64342219  0.79385035  0.04700707  1
  O  O14  1  0.18026838  0.26490389  0.57962120  1
  O  O15  1  0.00000000  0.00000000  0.00000000  1
  O  O16  1  0.81973162  0.73509611  0.42037880  1
  O  O17  1  0.35657781  0.20614965  0.95299293  1
  O  O18  1  0.73509611  0.42037880  0.81973162  1
  O  O19  1  0.57962120  0.18026838  0.26490389  1
  O  O20  1  0.95299293  0.35657781  0.20614965  1
  O  O21  1  0.79385035  0.04700707  0.64342219  1
