# generated using pymatgen
data_Na3CuBPO7
_symmetry_space_group_name_H-M   'P 1'
_cell_length_a   9.00769509
_cell_length_b   6.48497215
_cell_length_c   5.22212173
_cell_angle_alpha   90.00000000
_cell_angle_beta   88.85557433
_cell_angle_gamma   90.00000000
_symmetry_Int_Tables_number   1
_chemical_formula_structural   Na3CuBPO7
_chemical_formula_sum   'Na6 Cu2 B2 P2 O14'
_cell_volume   304.98757369
_cell_formula_units_Z   2
loop_
 _symmetry_equiv_pos_site_id
 _symmetry_equiv_pos_as_xyz
  1  'x, y, z'
loop_
 _atom_site_type_symbol
 _atom_site_label
 _atom_site_symmetry_multiplicity
 _atom_site_fract_x
 _atom_site_fract_y
 _atom_site_fract_z
 _atom_site_occupancy
  Na  Na0  1  0.08114987  0.25000000  0.75930058  1
  Na  Na1  1  0.25887363  0.00106643  0.24610979  1
  Na  Na2  1  0.25887363  0.49893357  0.24610979  1
  Na  Na3  1  0.74112637  0.50106643  0.75389021  1
  Na  Na4  1  0.74112637  0.99893357  0.75389021  1
  Na  Na5  1  0.91885013  0.75000000  0.24069942  1
  Cu  Cu6  1  0.34230451  0.75000000  0.77438982  1
  Cu  Cu7  1  0.65769549  0.25000000  0.22561018  1
  B  B8  1  0.06487495  0.75000000  0.73614859  1
  B  B9  1  0.93512505  0.25000000  0.26385141  1
  P  P10  1  0.42202725  0.25000000  0.70319482  1
  P  P11  1  0.57797275  0.75000000  0.29680518  1
  O  O12  1  0.08408932  0.25000000  0.28571175  1
  O  O13  1  0.13729594  0.75000000  0.96782665  1
  O  O14  1  0.16285479  0.75000000  0.52747506  1
  O  O15  1  0.32070672  0.06267813  0.77935989  1
  O  O16  1  0.32070672  0.43732187  0.77935989  1
  O  O17  1  0.45194738  0.25000000  0.40718312  1
  O  O18  1  0.43070770  0.75000000  0.15433476  1
  O  O19  1  0.56929230  0.25000000  0.84566524  1
  O  O20  1  0.54805262  0.75000000  0.59281688  1
  O  O21  1  0.67929328  0.56267813  0.22064011  1
  O  O22  1  0.67929328  0.93732187  0.22064011  1
  O  O23  1  0.83714521  0.25000000  0.47252494  1
  O  O24  1  0.86270406  0.25000000  0.03217335  1
  O  O25  1  0.91591068  0.75000000  0.71428825  1
