# generated using pymatgen
data_Li3BiO3
_symmetry_space_group_name_H-M   'P 1'
_cell_length_a   7.74887469
_cell_length_b   7.74887469
_cell_length_c   7.74887469
_cell_angle_alpha   109.47122063
_cell_angle_beta   109.47122063
_cell_angle_gamma   109.47122063
_symmetry_Int_Tables_number   1
_chemical_formula_structural   Li3BiO3
_chemical_formula_sum   'Li12 Bi4 O12'
_cell_volume   358.17397209
_cell_formula_units_Z   4
loop_
 _symmetry_equiv_pos_site_id
 _symmetry_equiv_pos_as_xyz
  1  'x, y, z'
loop_
 _atom_site_type_symbol
 _atom_site_label
 _atom_site_symmetry_multiplicity
 _atom_site_fract_x
 _atom_site_fract_y
 _atom_site_fract_z
 _atom_site_occupancy
  Li  Li0  1  0.70759420  0.46349780  0.00000000  1
  Li  Li1  1  0.70759420  0.00000000  0.46349780  1
  Li  Li2  1  0.75590360  0.29240580  0.29240580  1
  Li  Li3  1  0.53650220  0.53650220  0.24409640  1
  Li  Li4  1  0.53650220  0.24409640  0.53650220  1
  Li  Li5  1  0.46349780  0.70759420  0.00000000  1
  Li  Li6  1  0.46349780  0.00000000  0.70759420  1
  Li  Li7  1  0.29240580  0.29240580  0.75590360  1
  Li  Li8  1  0.29240580  0.75590360  0.29240580  1
  Li  Li9  1  0.24409640  0.53650220  0.53650220  1
  Li  Li10  1  0.00000000  0.70759420  0.46349780  1
  Li  Li11  1  0.00000000  0.46349780  0.70759420  1
  Bi  Bi12  1  0.28149118  0.00000000  0.00000000  1
  Bi  Bi13  1  0.00000000  0.28149118  0.00000000  1
  Bi  Bi14  1  0.00000000  0.00000000  0.28149118  1
  Bi  Bi15  1  0.71850882  0.71850882  0.71850882  1
  O  O16  1  0.50095721  0.24467702  0.00000000  1
  O  O17  1  0.50095721  0.00000000  0.24467702  1
  O  O18  1  0.75532298  0.25628019  0.75532298  1
  O  O19  1  0.75532298  0.75532298  0.25628019  1
  O  O20  1  0.24467702  0.50095721  0.00000000  1
  O  O21  1  0.24467702  0.00000000  0.50095721  1
  O  O22  1  0.74371981  0.49904279  0.49904279  1
  O  O23  1  0.00000000  0.50095721  0.24467702  1
  O  O24  1  0.00000000  0.24467702  0.50095721  1
  O  O25  1  0.49904279  0.74371981  0.49904279  1
  O  O26  1  0.49904279  0.49904279  0.74371981  1
  O  O27  1  0.25628019  0.75532298  0.75532298  1
