# generated using pymatgen
data_Na2TeH5SO10
_symmetry_space_group_name_H-M   'P 1'
_cell_length_a   5.47935451
_cell_length_b   5.87668618
_cell_length_c   15.36236288
_cell_angle_alpha   88.11483878
_cell_angle_beta   94.04636852
_cell_angle_gamma   117.78753872
_symmetry_Int_Tables_number   1
_chemical_formula_structural   Na2TeH5SO10
_chemical_formula_sum   'Na4 Te2 H10 S2 O20'
_cell_volume   436.53932322
_cell_formula_units_Z   2
loop_
 _symmetry_equiv_pos_site_id
 _symmetry_equiv_pos_as_xyz
  1  'x, y, z'
loop_
 _atom_site_type_symbol
 _atom_site_label
 _atom_site_symmetry_multiplicity
 _atom_site_fract_x
 _atom_site_fract_y
 _atom_site_fract_z
 _atom_site_occupancy
  Na  Na0  1  0.09659747  0.51406095  0.61929686  1
  Na  Na1  1  0.38719630  0.85185880  0.81072128  1
  Na  Na2  1  0.58253652  0.48593905  0.11929686  1
  Na  Na3  1  0.53533750  0.14814120  0.31072128  1
  Te  Te4  1  0.00667382  0.02184523  0.00219689  1
  Te  Te5  1  0.98482860  0.97815477  0.50219689  1
  H  H6  1  0.06603347  0.76665864  0.37638680  1
  H  H7  1  0.06206773  0.46981164  0.00846951  1
  H  H8  1  0.30718224  0.92913763  0.11419373  1
  H  H9  1  0.15607206  0.41266930  0.43201664  1
  H  H10  1  0.54329619  0.98352621  0.48608338  1
  H  H11  1  0.29937583  0.23334136  0.87638680  1
  H  H12  1  0.59225608  0.53018836  0.50846951  1
  H  H13  1  0.37804461  0.07086237  0.61419373  1
  H  H14  1  0.74340276  0.58733070  0.93201664  1
  H  H15  1  0.55976998  0.01647379  0.98608338  1
  S  S16  1  0.14130080  0.50721257  0.24838634  1
  S  S17  1  0.63408823  0.49278743  0.74838634  1
  O  O18  1  0.11458806  0.94893905  0.39106228  1
  O  O19  1  0.31036436  0.96075312  0.56059654  1
  O  O20  1  0.05081662  0.49677817  0.33996156  1
  O  O21  1  0.27141969  0.77855310  0.21811269  1
  O  O22  1  0.21574078  0.35714937  0.48908213  1
  O  O23  1  0.16564901  0.05106095  0.89106228  1
  O  O24  1  0.19211949  0.39591082  0.01981365  1
  O  O25  1  0.53389758  0.65134430  0.69339585  1
  O  O26  1  0.66004617  0.97600002  0.43963616  1
  O  O27  1  0.33763119  0.40190749  0.24627397  1
  O  O28  1  0.55403845  0.50322183  0.83996156  1
  O  O29  1  0.49286659  0.22144690  0.71811269  1
  O  O30  1  0.85859140  0.64285063  0.98908213  1
  O  O31  1  0.34961123  0.03924688  0.06059654  1
  O  O32  1  0.82892492  0.93504247  0.10981274  1
  O  O33  1  0.79620867  0.60408918  0.51981365  1
  O  O34  1  0.68404615  0.02399998  0.93963616  1
  O  O35  1  0.93572370  0.59809251  0.74627397  1
  O  O36  1  0.88255327  0.34865570  0.19339585  1
  O  O37  1  0.89388245  0.06495753  0.60981274  1
