# generated using pymatgen
data_LiNb2O4
_symmetry_space_group_name_H-M   'P 1'
_cell_length_a   2.97299874
_cell_length_b   5.16517638
_cell_length_c   11.90660049
_cell_angle_alpha   64.27821247
_cell_angle_beta   89.99558620
_cell_angle_gamma   89.98994275
_symmetry_Int_Tables_number   1
_chemical_formula_structural   LiNb2O4
_chemical_formula_sum   'Li2 Nb4 O8'
_cell_volume   164.72141084
_cell_formula_units_Z   2
loop_
 _symmetry_equiv_pos_site_id
 _symmetry_equiv_pos_as_xyz
  1  'x, y, z'
loop_
 _atom_site_type_symbol
 _atom_site_label
 _atom_site_symmetry_multiplicity
 _atom_site_fract_x
 _atom_site_fract_y
 _atom_site_fract_z
 _atom_site_occupancy
  Li  Li0  1  0.99998787  0.50299555  0.49706925  1
  Li  Li1  1  0.49995982  0.50055237  0.99957068  1
  Nb  Nb2  1  0.00023737  0.40957772  0.25402709  1
  Nb  Nb3  1  0.99967468  0.59637923  0.74028498  1
  Nb  Nb4  1  0.49969448  0.08396423  0.75254249  1
  Nb  Nb5  1  0.50022833  0.92177196  0.24175906  1
  O  O6  1  0.00008290  0.78846425  0.86688239  1
  O  O7  1  0.99984245  0.21759202  0.12718910  1
  O  O8  1  0.00009645  0.04703914  0.63488451  1
  O  O9  1  0.99980004  0.95884061  0.35930281  1
  O  O10  1  0.49981482  0.68194987  0.13627040  1
  O  O11  1  0.50012205  0.32397961  0.85780680  1
  O  O12  1  0.49984243  0.47626164  0.36841059  1
  O  O13  1  0.50007930  0.52963880  0.62577484  1
