# generated using pymatgen
data_As3H12C4S5N
_symmetry_space_group_name_H-M   'P 1'
_cell_length_a   9.76401331
_cell_length_b   10.67442552
_cell_length_c   14.32658198
_cell_angle_alpha   91.35933986
_cell_angle_beta   98.89787382
_cell_angle_gamma   92.23695138
_symmetry_Int_Tables_number   1
_chemical_formula_structural   As3H12C4S5N
_chemical_formula_sum   'As12 H48 C16 S20 N4'
_cell_volume   1473.42755392
_cell_formula_units_Z   4
loop_
 _symmetry_equiv_pos_site_id
 _symmetry_equiv_pos_as_xyz
  1  'x, y, z'
loop_
 _atom_site_type_symbol
 _atom_site_label
 _atom_site_symmetry_multiplicity
 _atom_site_fract_x
 _atom_site_fract_y
 _atom_site_fract_z
 _atom_site_occupancy
  As  As0  1  0.06234691  0.96700363  0.62347929  1
  As  As1  1  0.18388635  0.75849080  0.81040190  1
  As  As2  1  0.17087694  0.27383539  0.70447110  1
  As  As3  1  0.18647699  0.59602203  0.01771085  1
  As  As4  1  0.39458958  0.48338197  0.86471982  1
  As  As5  1  0.40291466  0.06868089  0.57493560  1
  As  As6  1  0.59708534  0.93131911  0.42506440  1
  As  As7  1  0.60541042  0.51661803  0.13528018  1
  As  As8  1  0.81352301  0.40397797  0.98228915  1
  As  As9  1  0.82912306  0.72616461  0.29552890  1
  As  As10  1  0.81611365  0.24150920  0.18959810  1
  As  As11  1  0.93765309  0.03299637  0.37652071  1
  H  H12  1  0.04096139  0.51768839  0.37725383  1
  H  H13  1  0.09916652  0.64029657  0.46464881  1
  H  H14  1  0.27898902  0.98117483  0.99008958  1
  H  H15  1  0.15702899  0.48304671  0.48250264  1
  H  H16  1  0.13544912  0.68037676  0.26783706  1
  H  H17  1  0.11585470  0.04667570  0.14648776  1
  H  H18  1  0.20760894  0.77743307  0.36938992  1
  H  H19  1  0.36377613  0.13449684  0.98893821  1
  H  H20  1  0.19783860  0.46182903  0.26135908  1
  H  H21  1  0.20548556  0.90586011  0.12923305  1
  H  H22  1  0.24306089  0.99496250  0.23970752  1
  H  H23  1  0.28633358  0.39111879  0.36511227  1
  H  H24  1  0.18461205  0.12098305  0.00161891  1
  H  H25  1  0.23782949  0.24839782  0.15364373  1
  H  H26  1  0.31922824  0.71991823  0.29088126  1
  H  H27  1  0.36042411  0.70427836  0.49185879  1
  H  H28  1  0.46131059  0.93450660  0.88674824  1
  H  H29  1  0.38297474  0.53974920  0.50736341  1
  H  H30  1  0.38097760  0.49503123  0.29822740  1
  H  H31  1  0.50522757  0.97659599  0.77483681  1
  H  H32  1  0.37435459  0.19865105  0.24299335  1
  H  H33  1  0.46750355  0.62185627  0.42137332  1
  H  H34  1  0.54928901  0.08427858  0.87467058  1
  H  H35  1  0.58429106  0.74023263  0.86601186  1
  H  H36  1  0.41570894  0.25976737  0.13398814  1
  H  H37  1  0.45071099  0.91572142  0.12532942  1
  H  H38  1  0.53249645  0.37814373  0.57862668  1
  H  H39  1  0.62564541  0.80134895  0.75700665  1
  H  H40  1  0.49477243  0.02340401  0.22516319  1
  H  H41  1  0.61902240  0.50496877  0.70177260  1
  H  H42  1  0.61702526  0.46025080  0.49263659  1
  H  H43  1  0.53868941  0.06549340  0.11325176  1
  H  H44  1  0.63957589  0.29572164  0.50814121  1
  H  H45  1  0.68077176  0.28008177  0.70911874  1
  H  H46  1  0.76217051  0.75160218  0.84635627  1
  H  H47  1  0.81538795  0.87901695  0.99838109  1
  H  H48  1  0.71366642  0.60888121  0.63488773  1
  H  H49  1  0.75693911  0.00503750  0.76029248  1
  H  H50  1  0.79451444  0.09413989  0.87076695  1
  H  H51  1  0.80216140  0.53817097  0.73864092  1
  H  H52  1  0.63622387  0.86550316  0.01106179  1
  H  H53  1  0.79239106  0.22256693  0.63061008  1
  H  H54  1  0.88414530  0.95332430  0.85351224  1
  H  H55  1  0.86455088  0.31962324  0.73216294  1
  H  H56  1  0.84297101  0.51695329  0.51749736  1
  H  H57  1  0.72101098  0.01882517  0.00991042  1
  H  H58  1  0.90083348  0.35970343  0.53535119  1
  H  H59  1  0.95903861  0.48231161  0.62274617  1
  C  C60  1  0.12753853  0.55438180  0.43002427  1
  C  C61  1  0.22583843  0.69892217  0.32263297  1
  C  C62  1  0.21420455  -0.00012419  0.16294008  1
  C  C63  1  0.28102070  0.47493083  0.32208521  1
  C  C64  1  0.37528860  0.61478889  0.45638630  1
  C  C65  1  0.28527122  0.07827231  0.01825907  1
  C  C66  1  0.33886923  0.20569944  0.16681227  1
  C  C67  1  0.53781034  0.98528155  0.85145518  1
  C  C68  1  0.46218966  0.01471845  0.14854482  1
  C  C69  1  0.66113077  0.79430056  0.83318773  1
  C  C70  1  0.71472878  0.92172769  0.98174093  1
  C  C71  1  0.62471140  0.38521111  0.54361370  1
  C  C72  1  0.71897930  0.52506917  0.67791479  1
  C  C73  1  0.78579545  0.00012419  0.83705992  1
  C  C74  1  0.77416157  0.30107783  0.67736703  1
  C  C75  1  0.87246147  0.44561820  0.56997573  1
  S  S76  1  0.02662927  0.67436711  0.89678843  1
  S  S77  1  0.00121290  0.21705866  0.30999627  1
  S  S78  1  0.12093280  0.07848658  0.76460082  1
  S  S79  1  0.22562028  0.40661908  0.94371613  1
  S  S80  1  0.18524911  0.21749204  0.55610676  1
  S  S81  1  0.26637415  0.58520842  0.74036147  1
  S  S82  1  0.27145123  0.89102169  0.60115615  1
  S  S83  1  0.37212662  0.70788073  0.99701530  1
  S  S84  1  0.40143897  0.30382206  0.77138456  1
  S  S85  1  0.39470948  0.07728771  0.41834562  1
  S  S86  1  0.60529052  0.92271229  0.58165438  1
  S  S87  1  0.59856103  0.69617794  0.22861544  1
  S  S88  1  0.62787338  0.29211927  0.00298470  1
  S  S89  1  0.72854877  0.10897831  0.39884385  1
  S  S90  1  0.73362585  0.41479158  0.25963853  1
  S  S91  1  0.81475089  0.78250796  0.44389324  1
  S  S92  1  0.77437972  0.59338092  0.05628387  1
  S  S93  1  0.87906720  0.92151342  0.23539918  1
  S  S94  1  0.99878710  0.78294134  0.69000373  1
  S  S95  1  0.97337073  0.32563289  0.10321157  1
  N  N96  1  0.25117676  0.58520198  0.38208911  1
  N  N97  1  0.32507187  0.07492457  0.12394956  1
  N  N98  1  0.67492813  0.92507543  0.87605044  1
  N  N99  1  0.74882324  0.41479802  0.61791089  1
