# generated using pymatgen
data_LiBi2PO6
_symmetry_space_group_name_H-M   'P 1'
_cell_length_a   10.10399345
_cell_length_b   5.67074680
_cell_length_c   9.95570780
_cell_angle_alpha   90.00000000
_cell_angle_beta   90.05941397
_cell_angle_gamma   90.00000000
_symmetry_Int_Tables_number   1
_chemical_formula_structural   LiBi2PO6
_chemical_formula_sum   'Li4 Bi8 P4 O24'
_cell_volume   570.43376003
_cell_formula_units_Z   4
loop_
 _symmetry_equiv_pos_site_id
 _symmetry_equiv_pos_as_xyz
  1  'x, y, z'
loop_
 _atom_site_type_symbol
 _atom_site_label
 _atom_site_symmetry_multiplicity
 _atom_site_fract_x
 _atom_site_fract_y
 _atom_site_fract_z
 _atom_site_occupancy
  Li  Li0  1  0.99924072  0.75618341  0.11064355  1
  Li  Li1  1  0.49924072  0.74381659  0.61064355  1
  Li  Li2  1  0.50075928  0.25618341  0.38935645  1
  Li  Li3  1  0.00075928  0.24381659  0.88935645  1
  Bi  Bi4  1  0.24957814  0.76616392  0.39234462  1
  Bi  Bi5  1  0.25051565  0.26574413  0.60964349  1
  Bi  Bi6  1  0.24948435  0.76574413  0.89035651  1
  Bi  Bi7  1  0.25042186  0.26616392  0.10765538  1
  Bi  Bi8  1  0.74957814  0.73383608  0.89234462  1
  Bi  Bi9  1  0.75051565  0.23425587  0.10964349  1
  Bi  Bi10  1  0.74948435  0.73425587  0.39035651  1
  Bi  Bi11  1  0.75042186  0.23383608  0.60765538  1
  P  P12  1  0.00136450  0.25221887  0.34229225  1
  P  P13  1  0.50136450  0.24778113  0.84229225  1
  P  P14  1  0.49863550  0.75221887  0.15770775  1
  P  P15  1  0.99863550  0.74778113  0.65770775  1
  O  O16  1  0.06226578  0.94108566  0.74864652  1
  O  O17  1  0.06637814  0.44864290  0.25428868  1
  O  O18  1  0.11040904  0.13609608  0.43194083  1
  O  O19  1  0.10910593  0.63474726  0.56859110  1
  O  O20  1  0.14836788  0.44778017  0.95235283  1
  O  O21  1  0.14776979  0.95015880  0.04408464  1
  O  O22  1  0.35163212  0.94778017  0.54764717  1
  O  O23  1  0.35223021  0.45015880  0.45591536  1
  O  O24  1  0.39089407  0.13474726  0.93140890  1
  O  O25  1  0.38959096  0.63609608  0.06805917  1
  O  O26  1  0.43362186  0.94864290  0.24571132  1
  O  O27  1  0.43773422  0.44108566  0.75135348  1
  O  O28  1  0.56226578  0.55891434  0.24864652  1
  O  O29  1  0.56637814  0.05135710  0.75428868  1
  O  O30  1  0.61040904  0.36390392  0.93194083  1
  O  O31  1  0.60910593  0.86525274  0.06859110  1
  O  O32  1  0.64776979  0.54984120  0.54408464  1
  O  O33  1  0.64836788  0.05221983  0.45235283  1
  O  O34  1  0.85223021  0.04984120  0.95591536  1
  O  O35  1  0.85163212  0.55221983  0.04764717  1
  O  O36  1  0.89089407  0.36525274  0.43140890  1
  O  O37  1  0.88959096  0.86390392  0.56805917  1
  O  O38  1  0.93362186  0.55135710  0.74571132  1
  O  O39  1  0.93773422  0.05891434  0.25135348  1
