# generated using pymatgen
data_Na6Ti11O24
_symmetry_space_group_name_H-M   'P 1'
_cell_length_a   6.21517869
_cell_length_b   6.21517869
_cell_length_c   15.08421240
_cell_angle_alpha   91.04775761
_cell_angle_beta   91.04775761
_cell_angle_gamma   58.74314378
_symmetry_Int_Tables_number   1
_chemical_formula_structural   Na6Ti11O24
_chemical_formula_sum   'Na6 Ti11 O24'
_cell_volume   497.99393932
_cell_formula_units_Z   1
loop_
 _symmetry_equiv_pos_site_id
 _symmetry_equiv_pos_as_xyz
  1  'x, y, z'
loop_
 _atom_site_type_symbol
 _atom_site_label
 _atom_site_symmetry_multiplicity
 _atom_site_fract_x
 _atom_site_fract_y
 _atom_site_fract_z
 _atom_site_occupancy
  Na  Na0  1  0.66309791  0.66309791  0.08388431  1
  Na  Na1  1  0.66988872  0.66988872  0.33637102  1
  Na  Na2  1  0.83326418  0.83326418  0.54198647  1
  Na  Na3  1  0.33478950  0.33478950  0.41494499  1
  Na  Na4  1  0.33158653  0.33158653  0.66783164  1
  Na  Na5  1  0.99737022  0.99737022  0.74964295  1
  Ti  Ti6  1  0.16629415  0.66979171  0.20485090  1
  Ti  Ti7  1  0.33461271  0.33461271  0.03822632  1
  Ti  Ti8  1  0.66979171  0.16629415  0.20485090  1
  Ti  Ti9  1  0.33431971  0.83235790  0.54285692  1
  Ti  Ti10  1  0.16393573  0.16393573  0.20434960  1
  Ti  Ti11  1  0.00166725  0.00166725  0.38034300  1
  Ti  Ti12  1  0.83235790  0.33431971  0.54285692  1
  Ti  Ti13  1  0.66674693  0.66674693  0.70589968  1
  Ti  Ti14  1  0.00058139  0.49788379  0.87861592  1
  Ti  Ti15  1  0.50042297  0.50042297  0.87790969  1
  Ti  Ti16  1  0.49788379  0.00058139  0.87861592  1
  O  O17  1  0.86282546  0.86282546  0.28436923  1
  O  O18  1  0.28926912  0.86142506  0.27837948  1
  O  O19  1  0.47442998  0.47442998  0.13123548  1
  O  O20  1  0.05083509  0.47746730  0.13027404  1
  O  O21  1  0.47746730  0.05083509  0.13027404  1
  O  O22  1  0.33424524  0.33424524  0.27017338  1
  O  O23  1  0.16986397  0.72616798  0.45179182  1
  O  O24  1  0.49574698  0.94035673  0.63145659  1
  O  O25  1  0.86142506  0.28926912  0.27837948  1
  O  O26  1  0.64794235  0.64794235  0.47932653  1
  O  O27  1  0.99800183  0.99800183  0.14046752  1
  O  O28  1  0.94035673  0.49574698  0.63145659  1
  O  O29  1  0.51725184  0.51725184  0.61886875  1
  O  O30  1  0.38026413  0.80415238  0.80369741  1
  O  O31  1  0.72616798  0.16986397  0.45179182  1
  O  O32  1  0.80370352  0.80370352  0.79786910  1
  O  O33  1  0.14864462  0.14864462  0.46402423  1
  O  O34  1  0.80415238  0.38026413  0.80369741  1
  O  O35  1  0.66904208  0.66904208  0.94151864  1
  O  O36  1  0.01829362  0.01829362  0.60488056  1
  O  O37  1  0.18936262  0.61676571  0.95369907  1
  O  O38  1  0.33295911  0.33295911  0.81256055  1
  O  O39  1  0.61676571  0.18936262  0.95369907  1
  O  O40  1  0.19237098  0.19237098  0.95207406  1
