# generated using pymatgen
data_Li6Fe3Co(PO4)6
_symmetry_space_group_name_H-M   'P 1'
_cell_length_a   8.51501065
_cell_length_b   8.56349157
_cell_length_c   8.56741084
_cell_angle_alpha   61.35398244
_cell_angle_beta   61.45366625
_cell_angle_gamma   61.49145947
_symmetry_Int_Tables_number   1
_chemical_formula_structural   Li6Fe3Co(PO4)6
_chemical_formula_sum   'Li6 Fe3 Co1 P6 O24'
_cell_volume   455.95933323
_cell_formula_units_Z   1
loop_
 _symmetry_equiv_pos_site_id
 _symmetry_equiv_pos_as_xyz
  1  'x, y, z'
loop_
 _atom_site_type_symbol
 _atom_site_label
 _atom_site_symmetry_multiplicity
 _atom_site_fract_x
 _atom_site_fract_y
 _atom_site_fract_z
 _atom_site_occupancy
  Li  Li0  1  0.02572422  0.00511469  0.99274225  1
  Li  Li1  1  0.75119176  0.15500781  0.34768228  1
  Li  Li2  1  0.47504055  0.50394682  0.49285981  1
  Li  Li3  1  0.22619102  0.84863702  0.65557216  1
  Li  Li4  1  0.65912365  0.22601127  0.84767211  1
  Li  Li5  1  0.84600185  0.65939543  0.22556791  1
  Fe  Fe6  1  0.14646869  0.14411350  0.13609540  1
  Fe  Fe7  1  0.35246588  0.36425699  0.35447980  1
  Fe  Fe8  1  0.64645492  0.64626926  0.64773353  1
  Co  Co9  1  0.85712201  0.85583132  0.85592724  1
  P  P10  1  0.04717772  0.74928947  0.45948569  1
  P  P11  1  0.45948617  0.04744614  0.74698921  1
  P  P12  1  0.74828884  0.46169433  0.04574894  1
  P  P13  1  0.24481419  0.54577103  0.95619416  1
  P  P14  1  0.54804874  0.96124350  0.24562579  1
  P  P15  1  0.95420921  0.24426257  0.54151452  1
  O  O16  1  0.12546614  0.29135162  0.49756103  1
  O  O17  1  0.29961397  0.51280950  0.11733085  1
  O  O18  1  0.04009706  0.92208819  0.27671538  1
  O  O19  1  0.53339228  0.11878284  0.29545245  1
  O  O20  1  0.24086553  0.59459912  0.43150861  1
  O  O21  1  0.02190013  0.79933787  0.62415176  1
  O  O22  1  0.26830998  0.06349777  0.90738910  1
  O  O23  1  0.45465211  0.23298017  0.57785392  1
  O  O24  1  0.59351856  0.43373932  0.24194454  1
  O  O25  1  0.19637536  0.38130011  0.98878661  1
  O  O26  1  0.07457632  0.73685700  0.94634043  1
  O  O27  1  0.37225816  0.00324706  0.20797201  1
  O  O28  1  0.62374043  0.01788979  0.80192293  1
  O  O29  1  0.90699498  0.26706712  0.06420714  1
  O  O30  1  0.80171637  0.62412599  0.01873788  1
  O  O31  1  0.39862132  0.58127372  0.75877665  1
  O  O32  1  0.58088528  0.76314849  0.39859841  1
  O  O33  1  0.73516875  0.94714994  0.07167780  1
  O  O34  1  0.96719731  0.20213238  0.38038949  1
  O  O35  1  0.75999091  0.39954493  0.58429417  1
  O  O36  1  0.49382791  0.88728095  0.68714064  1
  O  O37  1  0.94910977  0.07325956  0.73185659  1
  O  O38  1  0.68405269  0.49608298  0.88943853  1
  O  O39  1  0.88985729  0.68116043  0.49906129  1
