# generated using pymatgen
data_Ca2WO5
_symmetry_space_group_name_H-M   'P 1'
_cell_length_a   7.31445318
_cell_length_b   5.46648004
_cell_length_c   10.72098011
_cell_angle_alpha   90.00000000
_cell_angle_beta   90.00000000
_cell_angle_gamma   90.00000000
_symmetry_Int_Tables_number   1
_chemical_formula_structural   Ca2WO5
_chemical_formula_sum   'Ca8 W4 O20'
_cell_volume   428.67101701
_cell_formula_units_Z   4
loop_
 _symmetry_equiv_pos_site_id
 _symmetry_equiv_pos_as_xyz
  1  'x, y, z'
loop_
 _atom_site_type_symbol
 _atom_site_label
 _atom_site_symmetry_multiplicity
 _atom_site_fract_x
 _atom_site_fract_y
 _atom_site_fract_z
 _atom_site_occupancy
  Ca  Ca0  1  0.98950013  0.25000000  0.24184374  1
  Ca  Ca1  1  0.14939676  0.75000000  0.42027735  1
  Ca  Ca2  1  0.35060324  0.25000000  0.92027735  1
  Ca  Ca3  1  0.51049987  0.75000000  0.74184374  1
  Ca  Ca4  1  0.48950013  0.25000000  0.25815626  1
  Ca  Ca5  1  0.64939676  0.75000000  0.07972265  1
  Ca  Ca6  1  0.85060324  0.25000000  0.57972265  1
  Ca  Ca7  1  0.01049987  0.75000000  0.75815626  1
  W  W8  1  0.18535345  0.75000000  0.05850573  1
  W  W9  1  0.31464655  0.25000000  0.55850573  1
  W  W10  1  0.68535345  0.75000000  0.44149427  1
  W  W11  1  0.81464655  0.25000000  0.94149427  1
  O  O12  1  0.00000000  0.00000000  0.00000000  1
  O  O13  1  0.00000000  0.50000000  0.00000000  1
  O  O14  1  0.06828635  0.75000000  0.21497626  1
  O  O15  1  0.14573959  0.00077951  0.59771171  1
  O  O16  1  0.14573959  0.49922049  0.59771171  1
  O  O17  1  0.23121055  0.25000000  0.37935592  1
  O  O18  1  0.26878945  0.75000000  0.87935592  1
  O  O19  1  0.35426041  0.50077951  0.09771171  1
  O  O20  1  0.35426041  0.99922049  0.09771171  1
  O  O21  1  0.43171365  0.25000000  0.71497626  1
  O  O22  1  0.50000000  0.00000000  0.50000000  1
  O  O23  1  0.50000000  0.50000000  0.50000000  1
  O  O24  1  0.56828635  0.75000000  0.28502374  1
  O  O25  1  0.64573959  0.00077951  0.90228829  1
  O  O26  1  0.64573959  0.49922049  0.90228829  1
  O  O27  1  0.73121055  0.25000000  0.12064408  1
  O  O28  1  0.76878945  0.75000000  0.62064408  1
  O  O29  1  0.85426041  0.50077951  0.40228829  1
  O  O30  1  0.85426041  0.99922049  0.40228829  1
  O  O31  1  0.93171365  0.25000000  0.78502374  1
