# generated using pymatgen
data_LiFePO4
_symmetry_space_group_name_H-M   'P 1'
_cell_length_a   5.17344576
_cell_length_b   9.65496828
_cell_length_c   6.13193051
_cell_angle_alpha   90.00000000
_cell_angle_beta   90.00000000
_cell_angle_gamma   84.11863371
_symmetry_Int_Tables_number   1
_chemical_formula_structural   LiFePO4
_chemical_formula_sum   'Li4 Fe4 P4 O16'
_cell_volume   304.67435207
_cell_formula_units_Z   4
loop_
 _symmetry_equiv_pos_site_id
 _symmetry_equiv_pos_as_xyz
  1  'x, y, z'
loop_
 _atom_site_type_symbol
 _atom_site_label
 _atom_site_symmetry_multiplicity
 _atom_site_fract_x
 _atom_site_fract_y
 _atom_site_fract_z
 _atom_site_occupancy
  Li  Li0  1  0.15701975  0.92773513  0.63996204  1
  Li  Li1  1  0.34298025  0.57226487  0.13996204  1
  Li  Li2  1  0.65701975  0.42773513  0.86003796  1
  Li  Li3  1  0.84298025  0.07226487  0.36003796  1
  Fe  Fe4  1  0.20529457  0.33853201  0.61394071  1
  Fe  Fe5  1  0.29470543  0.16146799  0.11394071  1
  Fe  Fe6  1  0.70529457  0.83853201  0.88605929  1
  Fe  Fe7  1  0.79470543  0.66146799  0.38605929  1
  P  P8  1  0.25726821  0.63649179  0.64826903  1
  P  P9  1  0.24273179  0.86350821  0.14826903  1
  P  P10  1  0.75726821  0.13649179  0.85173097  1
  P  P11  1  0.74273179  0.36350821  0.35173097  1
  O  O12  1  0.00738807  0.74268982  0.66643900  1
  O  O13  1  0.00204657  0.77933654  0.13877259  1
  O  O14  1  0.21810795  0.55454482  0.43398459  1
  O  O15  1  0.28183221  0.52699426  0.83402749  1
  O  O16  1  0.21816779  0.97300574  0.33402749  1
  O  O17  1  0.28189205  0.94545518  0.93398459  1
  O  O18  1  0.50738807  0.24268982  0.83356100  1
  O  O19  1  0.50204657  0.27933654  0.36122741  1
  O  O20  1  0.49795343  0.72066346  0.63877259  1
  O  O21  1  0.49261193  0.75731018  0.16643900  1
  O  O22  1  0.71810795  0.05454482  0.06601541  1
  O  O23  1  0.78183221  0.02699426  0.66597251  1
  O  O24  1  0.71816779  0.47300574  0.16597251  1
  O  O25  1  0.78189205  0.44545518  0.56601541  1
  O  O26  1  0.99795343  0.22066346  0.86122741  1
  O  O27  1  0.99261193  0.25731018  0.33356100  1
