# generated using pymatgen
data_LiMnPO4
_symmetry_space_group_name_H-M   'P 1'
_cell_length_a   5.11623941
_cell_length_b   5.11623941
_cell_length_c   15.95648842
_cell_angle_alpha   89.63851260
_cell_angle_beta   90.36148740
_cell_angle_gamma   105.96594274
_symmetry_Int_Tables_number   1
_chemical_formula_structural   LiMnPO4
_chemical_formula_sum   'Li4 Mn4 P4 O16'
_cell_volume   401.55132041
_cell_formula_units_Z   4
loop_
 _symmetry_equiv_pos_site_id
 _symmetry_equiv_pos_as_xyz
  1  'x, y, z'
loop_
 _atom_site_type_symbol
 _atom_site_label
 _atom_site_symmetry_multiplicity
 _atom_site_fract_x
 _atom_site_fract_y
 _atom_site_fract_z
 _atom_site_occupancy
  Li  Li0  1  0.29414222  0.78166327  0.74753016  1
  Li  Li1  1  0.21833673  0.70585778  0.24753016  1
  Li  Li2  1  0.78166327  0.29414222  0.75246984  1
  Li  Li3  1  0.70585778  0.21833673  0.25246984  1
  Mn  Mn4  1  0.63770658  0.92808479  0.91448449  1
  Mn  Mn5  1  0.92808479  0.63770658  0.58551551  1
  Mn  Mn6  1  0.07191521  0.36229342  0.41448449  1
  Mn  Mn7  1  0.36229342  0.07191521  0.08551551  1
  P  P8  1  0.26977432  0.29365677  0.62900907  1
  P  P9  1  0.29365677  0.26977432  0.87099093  1
  P  P10  1  0.70634323  0.73022568  0.12900907  1
  P  P11  1  0.73022568  0.70634323  0.37099093  1
  O  O12  1  0.11699920  0.44006956  0.68943675  1
  O  O13  1  0.55993044  0.88300080  0.18943675  1
  O  O14  1  0.98127519  0.17791334  0.85752208  1
  O  O15  1  0.40311791  0.57912812  0.85613680  1
  O  O16  1  0.18368110  0.36728893  0.53943762  1
  O  O17  1  0.82208666  0.01872481  0.35752208  1
  O  O18  1  0.42087188  0.59688209  0.35613680  1
  O  O19  1  0.63271107  0.81631890  0.03943762  1
  O  O20  1  0.36728893  0.18368110  0.96056238  1
  O  O21  1  0.57912812  0.40311791  0.64386320  1
  O  O22  1  0.17791334  0.98127519  0.64247792  1
  O  O23  1  0.81631890  0.63271107  0.46056238  1
  O  O24  1  0.59688209  0.42087188  0.14386320  1
  O  O25  1  0.01872481  0.82208666  0.14247792  1
  O  O26  1  0.44006956  0.11699920  0.81056325  1
  O  O27  1  0.88300080  0.55993044  0.31056325  1
