# generated using pymatgen
data_Li7Fe7SiO16
_symmetry_space_group_name_H-M   'P 1'
_cell_length_a   5.55750661
_cell_length_b   5.11247590
_cell_length_c   13.08362989
_cell_angle_alpha   89.92708961
_cell_angle_beta   90.08046535
_cell_angle_gamma   90.12456586
_symmetry_Int_Tables_number   1
_chemical_formula_structural   Li7Fe7SiO16
_chemical_formula_sum   'Li7 Fe7 Si1 O16'
_cell_volume   371.73864117
_cell_formula_units_Z   1
loop_
 _symmetry_equiv_pos_site_id
 _symmetry_equiv_pos_as_xyz
  1  'x, y, z'
loop_
 _atom_site_type_symbol
 _atom_site_label
 _atom_site_symmetry_multiplicity
 _atom_site_fract_x
 _atom_site_fract_y
 _atom_site_fract_z
 _atom_site_occupancy
  Li  Li0  1  0.08177139  0.00754473  0.81182747  1
  Li  Li1  1  0.41466109  0.50635352  0.56022307  1
  Li  Li2  1  0.41588853  0.50458788  0.06386103  1
  Li  Li3  1  0.57571987  0.01351118  0.43613396  1
  Li  Li4  1  0.58090087  0.00852877  0.93910587  1
  Li  Li5  1  0.93449127  0.50028426  0.19188492  1
  Li  Li6  1  0.91827346  0.50729518  0.68716667  1
  Fe  Fe7  1  0.07933732  0.00289711  0.06207409  1
  Fe  Fe8  1  0.08023853  0.00649748  0.56326270  1
  Fe  Fe9  1  0.41679563  0.50594494  0.81309603  1
  Fe  Fe10  1  0.58360788  0.00694261  0.68655989  1
  Fe  Fe11  1  0.57883101  0.01012170  0.19038715  1
  Fe  Fe12  1  0.92260180  0.50061341  0.43142607  1
  Fe  Fe13  1  0.91628644  0.50268661  0.93703455  1
  Si  Si14  1  0.42634199  0.50186982  0.31362996  1
  O  O15  1  0.07034430  0.62589012  0.05909144  1
  O  O16  1  0.06663171  0.62911421  0.55392517  1
  O  O17  1  0.13800192  0.57410824  0.31947216  1
  O  O18  1  0.08810279  0.61376024  0.81744411  1
  O  O19  1  0.41058876  0.11359337  0.56645147  1
  O  O20  1  0.40943887  0.11004959  0.06972817  1
  O  O21  1  0.46259952  0.18246935  0.30925610  1
  O  O22  1  0.42797857  0.12994883  0.80780922  1
  O  O23  1  0.57014156  0.62954414  0.69065147  1
  O  O24  1  0.55193134  0.63014682  0.20884066  1
  O  O25  1  0.58064044  0.61248738  0.41500800  1
  O  O26  1  0.58671304  0.61218250  0.93427637  1
  O  O27  1  0.89522847  0.12212777  0.17287127  1
  O  O28  1  0.91286153  0.11234855  0.68464295  1
  O  O29  1  0.90579056  0.13753727  0.45118675  1
  O  O30  1  0.92782756  0.12761042  0.93962128  1
