# generated using pymatgen
data_Li2CrP2O7
_symmetry_space_group_name_H-M   'P 1'
_cell_length_a   5.51516316
_cell_length_b   6.44625485
_cell_length_c   8.97687003
_cell_angle_alpha   110.58169292
_cell_angle_beta   92.70962667
_cell_angle_gamma   106.39634075
_symmetry_Int_Tables_number   1
_chemical_formula_structural   Li2CrP2O7
_chemical_formula_sum   'Li4 Cr2 P4 O14'
_cell_volume   282.78630823
_cell_formula_units_Z   2
loop_
 _symmetry_equiv_pos_site_id
 _symmetry_equiv_pos_as_xyz
  1  'x, y, z'
loop_
 _atom_site_type_symbol
 _atom_site_label
 _atom_site_symmetry_multiplicity
 _atom_site_fract_x
 _atom_site_fract_y
 _atom_site_fract_z
 _atom_site_occupancy
  Li  Li0  1  0.10346538  0.76989944  0.99126453  1
  Li  Li1  1  0.30703189  0.22332538  0.75911595  1
  Li  Li2  1  0.69296811  0.77667462  0.24088405  1
  Li  Li3  1  0.89653462  0.23010056  0.00873547  1
  Cr  Cr4  1  0.11268496  0.60859239  0.37566848  1
  Cr  Cr5  1  0.88731504  0.39140761  0.62433152  1
  P  P6  1  0.23638458  0.14432630  0.39117005  1
  P  P7  1  0.60346638  0.70386168  0.88555380  1
  P  P8  1  0.39653362  0.29613832  0.11444620  1
  P  P9  1  0.76361542  0.85567370  0.60882995  1
  O  O10  1  0.06972269  0.88531830  0.32443202  1
  O  O11  1  0.05835661  0.29975127  0.41616831  1
  O  O12  1  0.31950561  0.57615369  0.87146371  1
  O  O13  1  0.23655262  0.46392165  0.16316261  1
  O  O14  1  0.26752884  0.10170575  0.95173837  1
  O  O15  1  0.57065515  0.78065777  0.46014071  1
  O  O16  1  0.61642996  0.83200167  0.75567116  1
  O  O17  1  0.38357004  0.16799833  0.24432884  1
  O  O18  1  0.42934485  0.21934223  0.53985929  1
  O  O19  1  0.73247116  0.89829425  0.04826163  1
  O  O20  1  0.76344738  0.53607835  0.83683739  1
  O  O21  1  0.68049439  0.42384631  0.12853629  1
  O  O22  1  0.94164339  0.70024873  0.58383169  1
  O  O23  1  0.93027731  0.11468170  0.67556798  1
