# generated using pymatgen
data_Li2MnV2(PO4)3
_symmetry_space_group_name_H-M   'P 1'
_cell_length_a   8.55595920
_cell_length_b   8.63518652
_cell_length_c   8.63518642
_cell_angle_alpha   62.40331267
_cell_angle_beta   63.07424641
_cell_angle_gamma   63.07425062
_symmetry_Int_Tables_number   1
_chemical_formula_structural   Li2MnV2(PO4)3
_chemical_formula_sum   'Li4 Mn2 V4 P6 O24'
_cell_volume   479.66740485
_cell_formula_units_Z   2
loop_
 _symmetry_equiv_pos_site_id
 _symmetry_equiv_pos_as_xyz
  1  'x, y, z'
loop_
 _atom_site_type_symbol
 _atom_site_label
 _atom_site_symmetry_multiplicity
 _atom_site_fract_x
 _atom_site_fract_y
 _atom_site_fract_z
 _atom_site_occupancy
  Li  Li0  1  0.75000000  0.14123295  0.35876705  1
  Li  Li1  1  0.25000000  0.84716930  0.65283070  1
  Li  Li2  1  0.65279685  0.24839886  0.84751922  1
  Li  Li3  1  0.84720315  0.65248078  0.25160114  1
  Mn  Mn4  1  0.01284611  -0.00001825  0.99232738  1
  Mn  Mn5  1  0.48715389  0.50767262  0.50001825  1
  V  V6  1  0.14549032  0.14558043  0.14450099  1
  V  V7  1  0.35450968  0.35549901  0.35441957  1
  V  V8  1  0.64722534  0.64839045  0.65123042  1
  V  V9  1  0.85277466  0.84876958  0.85160955  1
  P  P10  1  0.05899600  0.74783526  0.44257133  1
  P  P11  1  0.44100400  0.05742867  0.75216474  1
  P  P12  1  0.75000000  0.44189148  0.05810852  1
  P  P13  1  0.25000000  0.54154923  0.95845077  1
  P  P14  1  0.54995123  0.95875311  0.25170440  1
  P  P15  1  0.95004877  0.24829560  0.54124689  1
  O  O16  1  0.11446294  0.30951947  0.48534621  1
  O  O17  1  0.32452930  0.49967508  0.10867603  1
  O  O18  1  0.06743114  0.91382145  0.25557997  1
  O  O19  1  0.53318338  0.10612693  0.31612229  1
  O  O20  1  0.03690721  0.80434238  0.59740375  1
  O  O21  1  0.24943394  0.59369719  0.41758298  1
  O  O22  1  0.25056606  0.08241702  0.90630281  1
  O  O23  1  0.43256886  0.24442003  0.58617855  1
  O  O24  1  0.17547070  0.39132397  0.00032492  1
  O  O25  1  0.59837517  0.41562268  0.25396631  1
  O  O26  1  0.10046274  0.73665830  0.93851322  1
  O  O27  1  0.38553706  0.01465379  0.19048053  1
  O  O28  1  0.59875328  0.03091093  0.80999514  1
  O  O29  1  0.90162483  0.24603369  0.08437732  1
  O  O30  1  0.39953726  0.56148678  0.76334170  1
  O  O31  1  0.80937315  0.59591935  0.03349109  1
  O  O32  1  0.56164484  0.76427351  0.40398081  1
  O  O33  1  0.74098534  0.93347815  0.09731770  1
  O  O34  1  0.75901466  0.40268230  0.56652185  1
  O  O35  1  0.96681662  0.18387771  0.39387307  1
  O  O36  1  0.46309279  0.90259625  0.69565762  1
  O  O37  1  0.93835516  0.09601919  0.73572649  1
  O  O38  1  0.69062685  0.46650891  0.90408065  1
  O  O39  1  0.90124672  0.69000486  0.46908907  1
