# generated using pymatgen
data_Li3Bi(PO4)2
_symmetry_space_group_name_H-M   'P 1'
_cell_length_a   4.75549705
_cell_length_b   5.20425905
_cell_length_c   15.14421388
_cell_angle_alpha   83.44138214
_cell_angle_beta   90.00000000
_cell_angle_gamma   62.81370812
_symmetry_Int_Tables_number   1
_chemical_formula_structural   Li3Bi(PO4)2
_chemical_formula_sum   'Li6 Bi2 P4 O16'
_cell_volume   330.63583505
_cell_formula_units_Z   2
loop_
 _symmetry_equiv_pos_site_id
 _symmetry_equiv_pos_as_xyz
  1  'x, y, z'
loop_
 _atom_site_type_symbol
 _atom_site_label
 _atom_site_symmetry_multiplicity
 _atom_site_fract_x
 _atom_site_fract_y
 _atom_site_fract_z
 _atom_site_occupancy
  Li  Li0  1  0.64628791  0.64758084  0.67967371  1
  Li  Li1  1  0.70613224  0.64758084  0.17967371  1
  Li  Li2  1  0.29386776  0.35241916  0.82032629  1
  Li  Li3  1  0.35371209  0.35241916  0.32032629  1
  Li  Li4  1  0.95084702  0.00000000  0.75000000  1
  Li  Li5  1  0.04915298  0.00000000  0.25000000  1
  Bi  Bi6  1  0.00000000  0.00000000  0.50000000  1
  Bi  Bi7  1  0.00000000  0.00000000  0.00000000  1
  P  P8  1  0.62384636  0.68773942  0.87404320  1
  P  P9  1  0.68841522  0.68773942  0.37404320  1
  P  P10  1  0.31158478  0.31226058  0.62595680  1
  P  P11  1  0.37615364  0.31226058  0.12595680  1
  O  O12  1  0.27392738  0.93855741  0.85232361  1
  O  O13  1  0.78751521  0.93855741  0.35232361  1
  O  O14  1  0.74670768  0.74655686  0.95926348  1
  O  O15  1  0.50673546  0.74655686  0.45926348  1
  O  O16  1  0.83470550  0.67644508  0.79482933  1
  O  O17  1  0.00531483  0.61062836  0.60721243  1
  O  O18  1  0.48885042  0.67644508  0.29482933  1
  O  O19  1  0.38405681  0.61062836  0.10721243  1
  O  O20  1  0.61594319  0.38937164  0.89278757  1
  O  O21  1  0.51114958  0.32355492  0.70517067  1
  O  O22  1  0.99468517  0.38937164  0.39278757  1
  O  O23  1  0.16529450  0.32355492  0.20517067  1
  O  O24  1  0.49326454  0.25344314  0.54073652  1
  O  O25  1  0.25329232  0.25344314  0.04073652  1
  O  O26  1  0.21248479  0.06144259  0.64767639  1
  O  O27  1  0.72607262  0.06144259  0.14767639  1
