# generated using pymatgen
data_LiMn(SiO3)2
_symmetry_space_group_name_H-M   'P 1'
_cell_length_a   18.41524502
_cell_length_b   8.92372989
_cell_length_c   5.22175199
_cell_angle_alpha   90.08829747
_cell_angle_beta   90.76392136
_cell_angle_gamma   89.80267059
_symmetry_Int_Tables_number   1
_chemical_formula_structural   LiMn(SiO3)2
_chemical_formula_sum   'Li8 Mn8 Si16 O48'
_cell_volume   858.02214181
_cell_formula_units_Z   8
loop_
 _symmetry_equiv_pos_site_id
 _symmetry_equiv_pos_as_xyz
  1  'x, y, z'
loop_
 _atom_site_type_symbol
 _atom_site_label
 _atom_site_symmetry_multiplicity
 _atom_site_fract_x
 _atom_site_fract_y
 _atom_site_fract_z
 _atom_site_occupancy
  Li  Li0  1  0.12327752  0.98802313  0.37250809  1
  Li  Li1  1  0.12422815  0.51114381  0.87262131  1
  Li  Li2  1  0.37537344  0.84124108  0.37746830  1
  Li  Li3  1  0.37467040  0.50617043  0.37450424  1
  Li  Li4  1  0.62272614  0.00197490  0.12640905  1
  Li  Li5  1  0.62320871  0.34511787  0.12455294  1
  Li  Li6  1  0.87662622  0.65962742  0.62320869  1
  Li  Li7  1  0.87694521  0.84054985  0.12515618  1
  Mn  Mn8  1  0.12556561  0.35215955  0.38738174  1
  Mn  Mn9  1  0.12584056  0.14678883  0.88913704  1
  Mn  Mn10  1  0.37506879  0.64792313  0.88005527  1
  Mn  Mn11  1  0.37315422  0.00853931  0.87079999  1
  Mn  Mn12  1  0.62369625  0.51150585  0.62909782  1
  Mn  Mn13  1  0.62252730  0.14772063  0.62079734  1
  Mn  Mn14  1  0.87516008  0.99766235  0.62797439  1
  Mn  Mn15  1  0.87612835  0.50133288  0.12838884  1
  Si  Si16  1  0.02895336  0.65944838  0.30425322  1
  Si  Si17  1  0.02898282  0.84024103  0.80465694  1
  Si  Si18  1  0.22840239  0.65705765  0.56986094  1
  Si  Si19  1  0.22784819  0.83696688  0.06327244  1
  Si  Si20  1  0.27189968  0.16390350  0.55857988  1
  Si  Si21  1  0.27187155  0.34032710  0.06192494  1
  Si  Si22  1  0.47324341  0.16351877  0.29547374  1
  Si  Si23  1  0.47332101  0.33965331  0.79186838  1
  Si  Si24  1  0.52533576  0.66418510  0.20252711  1
  Si  Si25  1  0.52548120  0.84053074  0.70681957  1
  Si  Si26  1  0.72698819  0.66165834  0.93211020  1
  Si  Si27  1  0.72663461  0.84472744  0.42917398  1
  Si  Si28  1  0.77129241  0.15687177  0.91794777  1
  Si  Si29  1  0.77237334  0.33956455  0.42434554  1
  Si  Si30  1  0.97232406  0.16388183  0.21215386  1
  Si  Si31  1  0.97241179  0.33516809  0.71209031  1
  O  O32  1  0.05391825  0.70831119  0.59816550  1
  O  O33  1  0.05407132  0.79141888  0.09935767  1
  O  O34  1  0.06131093  0.16184762  0.20827364  1
  O  O35  1  0.06112948  0.33673525  0.70727755  1
  O  O36  1  0.07196570  0.50670629  0.21900185  1
  O  O37  1  0.07199445  0.99224774  0.72020404  1
  O  O38  1  0.18244112  0.17623461  0.54877447  1
  O  O39  1  0.18212496  0.32050755  0.04502452  1
  O  O40  1  0.19503808  0.00468406  0.06241890  1
  O  O41  1  0.19378769  0.49157766  0.55872849  1
  O  O42  1  0.20072465  0.76795527  0.33767951  1
  O  O43  1  0.19496869  0.72841628  0.83625178  1
  O  O44  1  0.30568103  0.22780628  0.83649665  1
  O  O45  1  0.30375705  0.26496398  0.32876989  1
  O  O46  1  0.30282230  0.50611783  0.05958349  1
  O  O47  1  0.30941454  0.99848250  0.57370945  1
  O  O48  1  0.31742557  0.65959834  0.57346037  1
  O  O49  1  0.31737505  0.83473304  0.04261552  1
  O  O50  1  0.42989726  0.01880536  0.18241302  1
  O  O51  1  0.43293584  0.49073155  0.70200958  1
  O  O52  1  0.43694152  0.65126380  0.18412351  1
  O  O53  1  0.43632914  0.84736101  0.71533228  1
  O  O54  1  0.44557252  0.20092127  0.59444124  1
  O  O55  1  0.45261281  0.29991912  0.09146950  1
  O  O56  1  0.55285227  0.69936042  0.90210413  1
  O  O57  1  0.54721306  0.80013786  0.40673328  1
  O  O58  1  0.56197676  0.15189875  0.31666618  1
  O  O59  1  0.56305270  0.34266739  0.77708428  1
  O  O60  1  0.56830280  0.51849991  0.31566632  1
  O  O61  1  0.56576124  0.98908116  0.80431385  1
  O  O62  1  0.68338379  0.15810392  0.92392750  1
  O  O63  1  0.68486807  0.34387331  0.45206787  1
  O  O64  1  0.69084428  0.00890898  0.43990748  1
  O  O65  1  0.68477748  0.50016014  0.92686978  1
  O  O66  1  0.69439539  0.72455839  0.64953213  1
  O  O67  1  0.69647390  0.77263974  0.15606193  1
  O  O68  1  0.80614177  0.22730701  0.64984378  1
  O  O69  1  0.80109335  0.26846219  0.14917623  1
  O  O70  1  0.81273835  0.50132906  0.41814592  1
  O  O71  1  0.81237335  0.99527354  0.91965648  1
  O  O72  1  0.81417101  0.65014059  0.94167787  1
  O  O73  1  0.81453686  0.84490345  0.44621444  1
  O  O74  1  0.93246669  0.01717744  0.32454123  1
  O  O75  1  0.93283789  0.48289821  0.82435438  1
  O  O76  1  0.94091115  0.64602189  0.29909607  1
  O  O77  1  0.94091954  0.85381610  0.80026934  1
  O  O78  1  0.94615382  0.19551486  0.90727665  1
  O  O79  1  0.94595580  0.30473170  0.40611241  1
