# generated using pymatgen
data_MgTi2O4
_symmetry_space_group_name_H-M   'P 1'
_cell_length_a   2.91192351
_cell_length_b   7.63518842
_cell_length_c   7.68183346
_cell_angle_alpha   77.95243276
_cell_angle_beta   79.07592364
_cell_angle_gamma   79.00648290
_symmetry_Int_Tables_number   1
_chemical_formula_structural   MgTi2O4
_chemical_formula_sum   'Mg2 Ti4 O8'
_cell_volume   161.95813667
_cell_formula_units_Z   2
loop_
 _symmetry_equiv_pos_site_id
 _symmetry_equiv_pos_as_xyz
  1  'x, y, z'
loop_
 _atom_site_type_symbol
 _atom_site_label
 _atom_site_symmetry_multiplicity
 _atom_site_fract_x
 _atom_site_fract_y
 _atom_site_fract_z
 _atom_site_occupancy
  Mg  Mg0  1  0.33367949  0.13733278  0.19538242  1
  Mg  Mg1  1  0.66208336  0.84049532  0.83548454  1
  Ti  Ti2  1  0.62775088  0.17818296  0.56640645  1
  Ti  Ti3  1  0.14743498  0.50924097  0.19612367  1
  Ti  Ti4  1  0.84760172  0.46857578  0.83622152  1
  Ti  Ti5  1  0.36713787  0.79984927  0.46596668  1
  O  O6  1  0.84589143  0.67993784  0.62837342  1
  O  O7  1  0.46461532  0.32346548  0.74746727  1
  O  O8  1  0.53046209  0.65126021  0.28790226  1
  O  O9  1  0.15035832  0.29591524  0.40347737  1
  O  O10  1  0.16502914  0.99215680  0.67788816  1
  O  O11  1  0.78688224  0.33411040  0.09232651  1
  O  O12  1  0.83180114  0.98393941  0.35253545  1
  O  O13  1  0.20754803  0.64487353  0.94006329  1
