# generated using pymatgen
data_Li3Co2(CO3)4
_symmetry_space_group_name_H-M   'P 1'
_cell_length_a   8.33574184
_cell_length_b   6.08642827
_cell_length_c   5.60499761
_cell_angle_alpha   63.40163807
_cell_angle_beta   104.92186708
_cell_angle_gamma   94.76499961
_symmetry_Int_Tables_number   1
_chemical_formula_structural   Li3Co2(CO3)4
_chemical_formula_sum   'Li3 Co2 C4 O12'
_cell_volume   245.52778742
_cell_formula_units_Z   1
loop_
 _symmetry_equiv_pos_site_id
 _symmetry_equiv_pos_as_xyz
  1  'x, y, z'
loop_
 _atom_site_type_symbol
 _atom_site_label
 _atom_site_symmetry_multiplicity
 _atom_site_fract_x
 _atom_site_fract_y
 _atom_site_fract_z
 _atom_site_occupancy
  Li  Li0  1  0.33672374  0.09560399  0.46056727  1
  Li  Li1  1  0.65244424  0.91179788  0.19072544  1
  Li  Li2  1  0.86281460  0.38313533  0.31189688  1
  Co  Co3  1  0.01013433  0.97292307  0.92826145  1
  Co  Co4  1  0.49865522  0.50509553  0.67873711  1
  C  C5  1  0.21472305  0.57244943  0.38391151  1
  C  C6  1  0.30004141  0.09767622  0.92375380  1
  C  C7  1  0.69568121  0.91474308  0.68240269  1
  C  C8  1  0.79304518  0.41313542  0.72576742  1
  O  O9  1  0.06685167  0.61335724  0.22606764  1
  O  O10  1  0.24012581  0.07158664  0.12278639  1
  O  O11  1  0.20485144  0.05327325  0.72904694  1
  O  O12  1  0.33814068  0.49489267  0.33262169  1
  O  O13  1  0.25542009  0.60764646  0.60261198  1
  O  O14  1  0.45472763  0.16107282  0.91964276  1
  O  O15  1  0.54133959  0.84739192  0.62593591  1
  O  O16  1  0.67964773  0.50429593  0.48784949  1
  O  O17  1  0.74579848  0.40139882  0.93413940  1
  O  O18  1  0.77769409  0.99813200  0.49686610  1
  O  O19  1  0.76209775  0.89502591  0.92765330  1
  O  O20  1  0.93339305  0.33798641  0.73675382  1
