# generated using pymatgen
data_Li3Fe2(CO3)4
_symmetry_space_group_name_H-M   'P 1'
_cell_length_a   7.12630777
_cell_length_b   9.72572503
_cell_length_c   8.46502943
_cell_angle_alpha   90.00000000
_cell_angle_beta   70.41814116
_cell_angle_gamma   90.00000000
_symmetry_Int_Tables_number   1
_chemical_formula_structural   Li3Fe2(CO3)4
_chemical_formula_sum   'Li6 Fe4 C8 O24'
_cell_volume   552.76605178
_cell_formula_units_Z   2
loop_
 _symmetry_equiv_pos_site_id
 _symmetry_equiv_pos_as_xyz
  1  'x, y, z'
loop_
 _atom_site_type_symbol
 _atom_site_label
 _atom_site_symmetry_multiplicity
 _atom_site_fract_x
 _atom_site_fract_y
 _atom_site_fract_z
 _atom_site_occupancy
  Li  Li0  1  0.06307749  0.18245988  0.06289482  1
  Li  Li1  1  0.00393855  0.89252701  0.34060891  1
  Li  Li2  1  0.49606145  0.39252701  0.15939109  1
  Li  Li3  1  0.43692351  0.68245988  0.43710518  1
  Li  Li4  1  0.50137969  0.60600212  0.84321757  1
  Li  Li5  1  0.99862031  0.10600212  0.65678243  1
  Fe  Fe6  1  0.04689863  0.36922115  0.43843037  1
  Fe  Fe7  1  0.45310137  0.86922115  0.06156963  1
  Fe  Fe8  1  0.54978050  0.13272482  0.92624760  1
  Fe  Fe9  1  0.95021950  0.63272482  0.57375240  1
  C  C10  1  0.24741315  0.11186115  0.28216756  1
  C  C11  1  0.25258685  0.61186115  0.21783244  1
  C  C12  1  0.27637127  0.48385478  0.64310484  1
  C  C13  1  0.22362873  0.98385478  0.85689516  1
  C  C14  1  0.77981141  0.01407785  0.13446053  1
  C  C15  1  0.72018859  0.51407785  0.36553947  1
  C  C16  1  0.74884148  0.38527386  0.78214201  1
  C  C17  1  0.75115852  0.88527386  0.71785799  1
  O  O18  1  0.11456459  0.15807433  0.41703028  1
  O  O19  1  0.22473029  0.48047687  0.23555207  1
  O  O20  1  0.15870528  0.69824823  0.33464165  1
  O  O21  1  0.34129472  0.19824823  0.16535835  1
  O  O22  1  0.27526971  0.98047687  0.26444793  1
  O  O23  1  0.11259989  0.97552762  0.77043956  1
  O  O24  1  0.38543541  0.65807433  0.08296972  1
  O  O25  1  0.20204150  0.60710118  0.62159246  1
  O  O26  1  0.23365570  0.37856653  0.56615763  1
  O  O27  1  0.26634430  0.87856653  0.93384237  1
  O  O28  1  0.29795850  0.10710118  0.87840754  1
  O  O29  1  0.58422385  0.52207409  0.29888445  1
  O  O30  1  0.38740011  0.47552762  0.72956044  1
  O  O31  1  0.66833073  0.90482539  0.15357280  1
  O  O32  1  0.75799425  0.11901023  0.04462077  1
  O  O33  1  0.74200575  0.61901023  0.45537923  1
  O  O34  1  0.83166927  0.40482539  0.34642720  1
  O  O35  1  0.61666514  0.34116209  0.91877126  1
  O  O36  1  0.91577615  0.02207409  0.20111555  1
  O  O37  1  0.72288266  0.01724437  0.73590811  1
  O  O38  1  0.65217379  0.79929346  0.83092483  1
  O  O39  1  0.84782621  0.29929346  0.66907517  1
  O  O40  1  0.77711734  0.51724437  0.76409189  1
  O  O41  1  0.88333486  0.84116209  0.58122874  1
