# generated using pymatgen
data_Sn2N2O
_symmetry_space_group_name_H-M   'P 1'
_cell_length_a   8.86583694
_cell_length_b   8.81708071
_cell_length_c   8.89380668
_cell_angle_alpha   109.55632110
_cell_angle_beta   109.70818518
_cell_angle_gamma   109.41713761
_symmetry_Int_Tables_number   1
_chemical_formula_structural   Sn2N2O
_chemical_formula_sum   'Sn16 N16 O8'
_cell_volume   533.41296718
_cell_formula_units_Z   8
loop_
 _symmetry_equiv_pos_site_id
 _symmetry_equiv_pos_as_xyz
  1  'x, y, z'
loop_
 _atom_site_type_symbol
 _atom_site_label
 _atom_site_symmetry_multiplicity
 _atom_site_fract_x
 _atom_site_fract_y
 _atom_site_fract_z
 _atom_site_occupancy
  Sn  Sn0  1  0.96219951  0.24971701  0.22274071  1
  Sn  Sn1  1  0.50542094  0.00045507  0.99688633  1
  Sn  Sn2  1  0.78501843  0.02243298  0.75403997  1
  Sn  Sn3  1  0.71147383  0.46145577  0.23899399  1
  Sn  Sn4  1  0.74830016  0.28382425  0.52800973  1
  Sn  Sn5  1  0.74479895  0.77814020  0.03107533  1
  Sn  Sn6  1  0.45892184  0.25006146  0.71364652  1
  Sn  Sn7  1  0.00596405  0.50778144  0.99625256  1
  Sn  Sn8  1  0.49332683  0.49694699  0.50353517  1
  Sn  Sn9  1  0.53251763  0.74973623  0.28141461  1
  Sn  Sn10  1  0.00438886  0.98973828  0.50513452  1
  Sn  Sn11  1  0.26390324  0.72249882  0.47367506  1
  Sn  Sn12  1  0.24981765  0.21640713  0.95353662  1
  Sn  Sn13  1  0.22416944  0.95988494  0.25601999  1
  Sn  Sn14  1  0.27950455  0.53445527  0.74846225  1
  Sn  Sn15  1  0.03387076  0.75125643  0.78614161  1
  N  N16  1  0.73849038  0.23960552  0.27733065  1
  N  N17  1  0.47044966  0.22752530  0.45929831  1
  N  N18  1  0.76855815  0.72548410  0.27203328  1
  N  N19  1  0.49781021  0.77211514  0.04348617  1
  N  N20  1  0.99629762  0.95857076  0.73838587  1
  N  N21  1  0.27159600  0.72500239  0.22713429  1
  N  N22  1  0.21958405  0.45466635  0.45053209  1
  N  N23  1  0.50390616  0.23550780  0.95984759  1
  N  N24  1  0.54249610  0.53637649  0.77028323  1
  N  N25  1  0.96294665  0.74145188  0.00298315  1
  N  N26  1  0.54519945  0.76959410  0.53938750  1
  N  N27  1  0.21796305  0.27046927  0.72693511  1
  N  N28  1  0.02123206  0.48992499  0.75533312  1
  N  N29  1  0.74487900  0.00375105  0.96706279  1
  N  N30  1  0.23278757  0.95796855  0.50291943  1
  N  N31  1  0.26524852  0.77408126  0.73073481  1
  O  O32  1  0.76819535  0.04375266  0.49861862  1
  O  O33  1  0.27924403  0.01584772  0.05397093  1
  O  O34  1  0.94986331  0.49706655  0.21181079  1
  O  O35  1  0.05271028  0.28252902  0.00610518  1
  O  O36  1  0.44499682  0.44882544  0.22261510  1
  O  O37  1  0.76539092  0.55240594  0.53137888  1
  O  O38  1  0.00559970  0.04805225  0.28510984  1
  O  O39  1  0.73095728  0.25463419  0.77713332  1
