# generated using pymatgen
data_LiSb(PO3)4
_symmetry_space_group_name_H-M   'P 1'
_cell_length_a   7.24605831
_cell_length_b   8.81690214
_cell_length_c   15.26082172
_cell_angle_alpha   90.00000000
_cell_angle_beta   90.55718465
_cell_angle_gamma   90.00000000
_symmetry_Int_Tables_number   1
_chemical_formula_structural   LiSb(PO3)4
_chemical_formula_sum   'Li4 Sb4 P16 O48'
_cell_volume   974.93402630
_cell_formula_units_Z   4
loop_
 _symmetry_equiv_pos_site_id
 _symmetry_equiv_pos_as_xyz
  1  'x, y, z'
loop_
 _atom_site_type_symbol
 _atom_site_label
 _atom_site_symmetry_multiplicity
 _atom_site_fract_x
 _atom_site_fract_y
 _atom_site_fract_z
 _atom_site_occupancy
  Li  Li0  1  0.01524485  0.59877030  0.36362340  1
  Li  Li1  1  0.51524485  0.90122970  0.86362340  1
  Li  Li2  1  0.48475515  0.09877030  0.13637660  1
  Li  Li3  1  0.98475515  0.40122970  0.63637660  1
  Sb  Sb4  1  0.09222755  0.66354362  0.89663545  1
  Sb  Sb5  1  0.40777245  0.16354362  0.60336455  1
  Sb  Sb6  1  0.59222755  0.83645638  0.39663545  1
  Sb  Sb7  1  0.90777245  0.33645638  0.10336455  1
  P  P8  1  0.08696830  0.25274043  0.43064852  1
  P  P9  1  0.13190593  0.03570003  0.78681899  1
  P  P10  1  0.17091817  0.25961435  0.93652220  1
  P  P11  1  0.25710753  0.03506999  0.29689916  1
  P  P12  1  0.32908183  0.75961435  0.56347780  1
  P  P13  1  0.36809407  0.53570003  0.71318101  1
  P  P14  1  0.24289247  0.53506999  0.20310084  1
  P  P15  1  0.58696830  0.24725957  0.93064852  1
  P  P16  1  0.41303170  0.75274043  0.06935148  1
  P  P17  1  0.75710753  0.46493001  0.79689916  1
  P  P18  1  0.63190593  0.46429997  0.28681899  1
  P  P19  1  0.67091817  0.24038565  0.43652220  1
  P  P20  1  0.74289247  0.96493001  0.70310084  1
  P  P21  1  0.82908183  0.74038565  0.06347780  1
  P  P22  1  0.86809407  0.96429997  0.21318101  1
  P  P23  1  0.91303170  0.74725957  0.56935148  1
  O  O24  1  0.07199054  0.41283717  0.93844255  1
  O  O25  1  0.09133084  0.17277884  0.85159389  1
  O  O26  1  0.06958025  0.01575264  0.23988775  1
  O  O27  1  0.12457060  0.23482848  0.52823983  1
  O  O28  1  0.23193396  0.09620066  0.70707318  1
  O  O29  1  0.12382193  0.79845042  0.59016819  1
  O  O30  1  0.12333304  0.39953582  0.38713594  1
  O  O31  1  0.27400186  0.40755198  0.66519954  1
  O  O32  1  0.18395545  0.10897836  0.38613990  1
  O  O33  1  0.11773273  0.63436655  0.25239169  1
  O  O34  1  0.22599814  0.90755198  0.83480046  1
  O  O35  1  0.33046854  0.88067655  0.32714209  1
  O  O36  1  0.34914748  0.66783177  0.48190174  1
  O  O37  1  0.37617807  0.29845042  0.90983181  1
  O  O38  1  0.26806604  0.59620066  0.79292682  1
  O  O39  1  0.37542940  0.73482848  0.97176017  1
  O  O40  1  0.15085252  0.16783177  0.01809826  1
  O  O41  1  0.16953146  0.38067655  0.17285791  1
  O  O42  1  0.40866916  0.67277884  0.64840611  1
  O  O43  1  0.38226727  0.13436655  0.24760831  1
  O  O44  1  0.42800946  0.91283717  0.56155745  1
  O  O45  1  0.31604455  0.60897836  0.11386010  1
  O  O46  1  0.56958025  0.48424736  0.73988775  1
  O  O47  1  0.37666696  0.89953582  0.11286406  1
  O  O48  1  0.62333304  0.10046418  0.88713594  1
  O  O49  1  0.43041975  0.51575264  0.26011225  1
  O  O50  1  0.68395545  0.39102164  0.88613990  1
  O  O51  1  0.57199054  0.08716283  0.43844255  1
  O  O52  1  0.61773273  0.86563345  0.75239169  1
  O  O53  1  0.59133084  0.32722116  0.35159389  1
  O  O54  1  0.83046854  0.61932345  0.82714209  1
  O  O55  1  0.84914748  0.83216823  0.98190174  1
  O  O56  1  0.62457060  0.26517152  0.02823983  1
  O  O57  1  0.73193396  0.40379934  0.20707318  1
  O  O58  1  0.62382193  0.70154958  0.09016819  1
  O  O59  1  0.65085252  0.33216823  0.51809826  1
  O  O60  1  0.66953146  0.11932345  0.67285791  1
  O  O61  1  0.77400186  0.09244802  0.16519954  1
  O  O62  1  0.88226727  0.36563345  0.74760831  1
  O  O63  1  0.81604455  0.89102164  0.61386010  1
  O  O64  1  0.72599814  0.59244802  0.33480046  1
  O  O65  1  0.87666696  0.60046418  0.61286406  1
  O  O66  1  0.87617807  0.20154958  0.40983181  1
  O  O67  1  0.76806604  0.90379934  0.29292682  1
  O  O68  1  0.87542940  0.76517152  0.47176017  1
  O  O69  1  0.93041975  0.98424736  0.76011225  1
  O  O70  1  0.90866916  0.82722116  0.14840611  1
  O  O71  1  0.92800946  0.58716283  0.06155745  1
