# generated using pymatgen
data_Li3CrSi2O7
_symmetry_space_group_name_H-M   'P 1'
_cell_length_a   5.01808421
_cell_length_b   8.89585120
_cell_length_c   12.47548482
_cell_angle_alpha   90.00000000
_cell_angle_beta   90.00000000
_cell_angle_gamma   90.00000000
_symmetry_Int_Tables_number   1
_chemical_formula_structural   Li3CrSi2O7
_chemical_formula_sum   'Li12 Cr4 Si8 O28'
_cell_volume   556.90726968
_cell_formula_units_Z   4
loop_
 _symmetry_equiv_pos_site_id
 _symmetry_equiv_pos_as_xyz
  1  'x, y, z'
loop_
 _atom_site_type_symbol
 _atom_site_label
 _atom_site_symmetry_multiplicity
 _atom_site_fract_x
 _atom_site_fract_y
 _atom_site_fract_z
 _atom_site_occupancy
  Li  Li0  1  0.03621634  0.34207908  0.08960863  1
  Li  Li1  1  0.03621634  0.34207908  0.41039137  1
  Li  Li2  1  0.03213705  0.01511311  0.25000000  1
  Li  Li3  1  0.46786295  0.51511311  0.25000000  1
  Li  Li4  1  0.46378366  0.84207908  0.08960863  1
  Li  Li5  1  0.46378366  0.84207908  0.41039137  1
  Li  Li6  1  0.53621634  0.15792092  0.58960863  1
  Li  Li7  1  0.53621634  0.15792092  0.91039137  1
  Li  Li8  1  0.53213705  0.48488689  0.75000000  1
  Li  Li9  1  0.96786295  0.98488689  0.75000000  1
  Li  Li10  1  0.96378366  0.65792092  0.91039137  1
  Li  Li11  1  0.96378366  0.65792092  0.58960863  1
  Cr  Cr12  1  0.00000000  0.00000000  0.00000000  1
  Cr  Cr13  1  0.00000000  0.00000000  0.50000000  1
  Cr  Cr14  1  0.50000000  0.50000000  0.50000000  1
  Cr  Cr15  1  0.50000000  0.50000000  0.00000000  1
  Si  Si16  1  0.01264427  0.31736845  0.63025544  1
  Si  Si17  1  0.01264427  0.31736845  0.86974456  1
  Si  Si18  1  0.48735573  0.81736845  0.63025544  1
  Si  Si19  1  0.48735573  0.81736845  0.86974456  1
  Si  Si20  1  0.51264427  0.18263155  0.13025544  1
  Si  Si21  1  0.51264427  0.18263155  0.36974456  1
  Si  Si22  1  0.98735573  0.68263155  0.13025544  1
  Si  Si23  1  0.98735573  0.68263155  0.36974456  1
  O  O24  1  0.06290301  0.86211723  0.12864660  1
  O  O25  1  0.06290301  0.86211723  0.37135340  1
  O  O26  1  0.08144090  0.61419105  0.25000000  1
  O  O27  1  0.16300238  0.60027175  0.03911782  1
  O  O28  1  0.16300238  0.60027175  0.46088218  1
  O  O29  1  0.16995237  0.85305153  0.88687885  1
  O  O30  1  0.16995237  0.85305153  0.61312115  1
  O  O31  1  0.33004763  0.35305153  0.61312115  1
  O  O32  1  0.33004763  0.35305153  0.88687885  1
  O  O33  1  0.33699762  0.10027175  0.03911782  1
  O  O34  1  0.33699762  0.10027175  0.46088218  1
  O  O35  1  0.41855910  0.11419105  0.25000000  1
  O  O36  1  0.43709699  0.36211723  0.12864660  1
  O  O37  1  0.43709699  0.36211723  0.37135340  1
  O  O38  1  0.56290301  0.63788277  0.62864660  1
  O  O39  1  0.56290301  0.63788277  0.87135340  1
  O  O40  1  0.58144090  0.88580895  0.75000000  1
  O  O41  1  0.66300238  0.89972825  0.53911782  1
  O  O42  1  0.66300238  0.89972825  0.96088218  1
  O  O43  1  0.66995237  0.64694847  0.11312115  1
  O  O44  1  0.66995237  0.64694847  0.38687885  1
  O  O45  1  0.83004763  0.14694847  0.38687885  1
  O  O46  1  0.83004763  0.14694847  0.11312115  1
  O  O47  1  0.83699762  0.39972825  0.53911782  1
  O  O48  1  0.83699762  0.39972825  0.96088218  1
  O  O49  1  0.91855910  0.38580895  0.75000000  1
  O  O50  1  0.93709699  0.13788277  0.62864660  1
  O  O51  1  0.93709699  0.13788277  0.87135340  1
