# generated using pymatgen
data_Mn3Ni2P6WO24
_symmetry_space_group_name_H-M   'P 1'
_cell_length_a   8.59701028
_cell_length_b   8.71334516
_cell_length_c   8.71334557
_cell_angle_alpha   60.00000491
_cell_angle_beta   59.55134499
_cell_angle_gamma   59.55134303
_symmetry_Int_Tables_number   1
_chemical_formula_structural   Mn3Ni2P6WO24
_chemical_formula_sum   'Mn3 Ni2 P6 W1 O24'
_cell_volume   458.37787914
_cell_formula_units_Z   1
loop_
 _symmetry_equiv_pos_site_id
 _symmetry_equiv_pos_as_xyz
  1  'x, y, z'
loop_
 _atom_site_type_symbol
 _atom_site_label
 _atom_site_symmetry_multiplicity
 _atom_site_fract_x
 _atom_site_fract_y
 _atom_site_fract_z
 _atom_site_occupancy
  Mn  Mn0  1  0.07155846  0.64281418  0.64281418  1
  Mn  Mn1  1  0.43682592  0.85439169  0.85439169  1
  Mn  Mn2  1  0.93003783  0.35665406  0.35665406  1
  Ni  Ni3  1  0.02296952  0.99234383  0.99234383  1
  Ni  Ni4  1  0.50337139  0.49887654  0.49887654  1
  P  P5  1  0.24494067  0.25256283  0.55020216  1
  P  P6  1  0.24494067  0.95229533  0.25256283  1
  P  P7  1  0.24494067  0.55020216  0.95229533  1
  P  P8  1  0.74822552  0.45982372  0.04921805  1
  P  P9  1  0.74822552  0.04921805  0.74273271  1
  P  P10  1  0.74822552  0.74273271  0.45982372  1
  W  W11  1  0.57281595  0.14239435  0.14239435  1
  O  O12  1  0.06752267  0.10640750  0.31873396  1
  O  O13  1  0.06752267  0.50733587  0.10640750  1
  O  O14  1  0.06752267  0.31873396  0.50733587  1
  O  O15  1  0.22798325  0.08935268  0.74122512  1
  O  O16  1  0.42571186  0.17435954  0.38316148  1
  O  O17  1  0.29409540  0.40110469  0.54513707  1
  O  O18  1  0.22798325  0.94143896  0.08935268  1
  O  O19  1  0.29409540  0.75966283  0.40110469  1
  O  O20  1  0.56493204  0.60987281  0.01167059  1
  O  O21  1  0.29409540  0.54513707  0.75966283  1
  O  O22  1  0.75803398  0.25548115  0.07449053  1
  O  O23  1  0.56493204  0.01167059  0.81352457  1
  O  O24  1  0.42571186  0.01676712  0.17435954  1
  O  O25  1  0.22798325  0.74122512  0.94143896  1
  O  O26  1  0.72268206  0.43746253  0.24753773  1
  O  O27  1  0.42571186  0.38316148  0.01676712  1
  O  O28  1  0.72268206  0.24753773  0.59231767  1
  O  O29  1  0.75803398  0.07449053  0.91199435  1
  O  O30  1  0.72268206  0.59231767  0.43746253  1
  O  O31  1  0.56493204  0.81352457  0.60987281  1
  O  O32  1  0.75803398  0.91199435  0.25548115  1
  O  O33  1  0.93334619  0.69248774  0.47912079  1
  O  O34  1  0.93334619  0.47912079  0.89504628  1
  O  O35  1  0.93334619  0.89504628  0.69248774  1
