# generated using pymatgen
data_MgSi
_symmetry_space_group_name_H-M   'P 1'
_cell_length_a   3.61430691
_cell_length_b   5.18689125
_cell_length_c   12.37572903
_cell_angle_alpha   82.56841126
_cell_angle_beta   89.98898704
_cell_angle_gamma   89.97065774
_symmetry_Int_Tables_number   1
_chemical_formula_structural   MgSi
_chemical_formula_sum   'Mg6 Si6'
_cell_volume   230.05910261
_cell_formula_units_Z   6
loop_
 _symmetry_equiv_pos_site_id
 _symmetry_equiv_pos_as_xyz
  1  'x, y, z'
loop_
 _atom_site_type_symbol
 _atom_site_label
 _atom_site_symmetry_multiplicity
 _atom_site_fract_x
 _atom_site_fract_y
 _atom_site_fract_z
 _atom_site_occupancy
  Mg  Mg0  1  0.75052381  0.58870066  0.88813657  1
  Mg  Mg1  1  0.74991982  0.76045022  0.22039411  1
  Mg  Mg2  1  0.25004869  0.90614425  0.44625735  1
  Mg  Mg3  1  0.75008380  0.36627874  0.55416758  1
  Mg  Mg4  1  0.24985736  0.30045570  0.11250275  1
  Mg  Mg5  1  0.24943585  0.07801182  0.77851786  1
  Si  Si6  1  0.24988406  0.59350965  0.70777422  1
  Si  Si7  1  0.25001112  0.43951962  0.37141131  1
  Si  Si8  1  0.25002824  0.81672027  0.04065672  1
  Si  Si9  1  0.75009043  0.07321064  0.95887973  1
  Si  Si10  1  0.74994852  0.85000851  0.62598581  1
  Si  Si11  1  0.75005929  0.22700892  0.29518499  1
