# generated using pymatgen
data_LiCoPO4
_symmetry_space_group_name_H-M   'P 1'
_cell_length_a   8.22106160
_cell_length_b   8.90406419
_cell_length_c   4.95528662
_cell_angle_alpha   90.00000000
_cell_angle_beta   90.00000000
_cell_angle_gamma   90.00000000
_symmetry_Int_Tables_number   1
_chemical_formula_structural   LiCoPO4
_chemical_formula_sum   'Li4 Co4 P4 O16'
_cell_volume   362.73124310
_cell_formula_units_Z   4
loop_
 _symmetry_equiv_pos_site_id
 _symmetry_equiv_pos_as_xyz
  1  'x, y, z'
loop_
 _atom_site_type_symbol
 _atom_site_label
 _atom_site_symmetry_multiplicity
 _atom_site_fract_x
 _atom_site_fract_y
 _atom_site_fract_z
 _atom_site_occupancy
  Li  Li0  1  0.05562342  0.60749919  0.92033888  1
  Li  Li1  1  0.44437658  0.10749919  0.42033888  1
  Li  Li2  1  0.55562342  0.89250081  0.92033888  1
  Li  Li3  1  0.94437658  0.39250081  0.42033888  1
  Co  Co4  1  0.14779691  0.02654915  0.03027364  1
  Co  Co5  1  0.35220309  0.52654915  0.53027364  1
  Co  Co6  1  0.64779691  0.47345085  0.03027364  1
  Co  Co7  1  0.85220309  0.97345085  0.53027364  1
  P  P8  1  0.23629278  0.86046894  0.56326114  1
  P  P9  1  0.26370722  0.36046894  0.06326114  1
  P  P10  1  0.73629278  0.63953106  0.56326114  1
  P  P11  1  0.76370722  0.13953106  0.06326114  1
  O  O12  1  0.07940658  0.94422814  0.67308133  1
  O  O13  1  0.12049064  0.44884253  0.18508046  1
  O  O14  1  0.24034133  0.86121739  0.25224187  1
  O  O15  1  0.22531188  0.69612699  0.66772269  1
  O  O16  1  0.27468812  0.19612699  0.16772269  1
  O  O17  1  0.25965867  0.36121739  0.75224187  1
  O  O18  1  0.37950936  0.94884253  0.68508046  1
  O  O19  1  0.42059342  0.44422814  0.17308133  1
  O  O20  1  0.57940658  0.55577186  0.67308133  1
  O  O21  1  0.62049064  0.05115747  0.18508046  1
  O  O22  1  0.74034133  0.63878261  0.25224187  1
  O  O23  1  0.72531188  0.80387301  0.66772269  1
  O  O24  1  0.77468812  0.30387301  0.16772269  1
  O  O25  1  0.75965867  0.13878261  0.75224187  1
  O  O26  1  0.87950936  0.55115747  0.68508046  1
  O  O27  1  0.92059342  0.05577186  0.17308133  1
