# generated using pymatgen
data_LiNiPO4
_symmetry_space_group_name_H-M   'P 1'
_cell_length_a   8.41401879
_cell_length_b   7.37505008
_cell_length_c   14.60723362
_cell_angle_alpha   90.00000000
_cell_angle_beta   90.27394314
_cell_angle_gamma   90.00000000
_symmetry_Int_Tables_number   1
_chemical_formula_structural   LiNiPO4
_chemical_formula_sum   'Li12 Ni12 P12 O48'
_cell_volume   906.42413882
_cell_formula_units_Z   12
loop_
 _symmetry_equiv_pos_site_id
 _symmetry_equiv_pos_as_xyz
  1  'x, y, z'
loop_
 _atom_site_type_symbol
 _atom_site_label
 _atom_site_symmetry_multiplicity
 _atom_site_fract_x
 _atom_site_fract_y
 _atom_site_fract_z
 _atom_site_occupancy
  Li  Li0  1  0.07030982  0.66442512  0.40611394  1
  Li  Li1  1  0.07631398  0.82452962  0.75895993  1
  Li  Li2  1  0.09812164  0.66970256  0.08288320  1
  Li  Li3  1  0.40187836  0.16970256  0.41711680  1
  Li  Li4  1  0.42368602  0.32452962  0.74104007  1
  Li  Li5  1  0.42969018  0.16442512  0.09388606  1
  Li  Li6  1  0.57030982  0.83557488  0.90611394  1
  Li  Li7  1  0.57631398  0.67547038  0.25895993  1
  Li  Li8  1  0.59812164  0.83029744  0.58288320  1
  Li  Li9  1  0.90187836  0.33029744  0.91711680  1
  Li  Li10  1  0.92368602  0.17547038  0.24104007  1
  Li  Li11  1  0.92969018  0.33557488  0.59388606  1
  Ni  Ni12  1  0.24230233  0.94988598  0.92321558  1
  Ni  Ni13  1  0.24366809  0.04673582  0.58625225  1
  Ni  Ni14  1  0.24638135  0.91576169  0.24808770  1
  Ni  Ni15  1  0.25361865  0.41576169  0.25191230  1
  Ni  Ni16  1  0.25633191  0.54673582  0.91374775  1
  Ni  Ni17  1  0.25769767  0.44988598  0.57678442  1
  Ni  Ni18  1  0.74230233  0.55011402  0.42321558  1
  Ni  Ni19  1  0.74366809  0.45326418  0.08625225  1
  Ni  Ni20  1  0.74638135  0.58423831  0.74808770  1
  Ni  Ni21  1  0.75361865  0.08423831  0.75191230  1
  Ni  Ni22  1  0.75633191  0.95326418  0.41374775  1
  Ni  Ni23  1  0.75769767  0.05011402  0.07678442  1
  P  P24  1  0.04958841  0.25762476  0.41210612  1
  P  P25  1  0.09067591  0.23534601  0.77125885  1
  P  P26  1  0.10838239  0.26216049  0.07091544  1
  P  P27  1  0.39161761  0.76216049  0.42908456  1
  P  P28  1  0.40932409  0.73534601  0.72874115  1
  P  P29  1  0.45041159  0.75762476  0.08789388  1
  P  P30  1  0.54958841  0.24237524  0.91210612  1
  P  P31  1  0.59067591  0.26465399  0.27125885  1
  P  P32  1  0.60838239  0.23783951  0.57091544  1
  P  P33  1  0.89161761  0.73783951  0.92908456  1
  P  P34  1  0.90932409  0.76465399  0.22874115  1
  P  P35  1  0.95041159  0.74237524  0.58789388  1
  O  O36  1  0.04259982  0.56454719  0.60508028  1
  O  O37  1  0.04733487  0.90340633  0.62524341  1
  O  O38  1  0.06989083  0.76034653  0.95828530  1
  O  O39  1  0.09276925  0.05425241  0.82471923  1
  O  O40  1  0.10029515  0.39289243  0.83975668  1
  O  O41  1  0.07431673  0.74999390  0.27992128  1
  O  O42  1  0.09753254  0.23883298  0.51546585  1
  O  O43  1  0.10842364  0.27163081  0.17826034  1
  O  O44  1  0.17794775  0.44170717  0.03521383  1
  O  O45  1  0.22088751  0.23965523  0.69532530  1
  O  O46  1  0.21018768  0.26669305  0.35831069  1
  O  O47  1  0.21368802  0.10294378  0.03965159  1
  O  O48  1  0.28631198  0.60294378  0.46034841  1
  O  O49  1  0.28981232  0.76669305  0.14168931  1
  O  O50  1  0.27911249  0.73965523  0.80467470  1
  O  O51  1  0.32205225  0.94170717  0.46478617  1
  O  O52  1  0.39157636  0.77163081  0.32173966  1
  O  O53  1  0.40246746  0.73883298  0.98453415  1
  O  O54  1  0.39970485  0.89289243  0.66024332  1
  O  O55  1  0.42568327  0.24999390  0.22007872  1
  O  O56  1  0.40723075  0.55425241  0.67528077  1
  O  O57  1  0.43010917  0.26034653  0.54171470  1
  O  O58  1  0.45266513  0.40340633  0.87475659  1
  O  O59  1  0.45740018  0.06454719  0.89491972  1
  O  O60  1  0.54259982  0.93545281  0.10508028  1
  O  O61  1  0.54733487  0.59659367  0.12524341  1
  O  O62  1  0.56989083  0.73965347  0.45828530  1
  O  O63  1  0.59276925  0.44574759  0.32471923  1
  O  O64  1  0.57431673  0.75000610  0.77992128  1
  O  O65  1  0.60029515  0.10710757  0.33975668  1
  O  O66  1  0.59753254  0.26116702  0.01546585  1
  O  O67  1  0.60842364  0.22836919  0.67826034  1
  O  O68  1  0.67794775  0.05829283  0.53521383  1
  O  O69  1  0.72088751  0.26034477  0.19532530  1
  O  O70  1  0.71018768  0.23330695  0.85831069  1
  O  O71  1  0.71368802  0.39705622  0.53965159  1
  O  O72  1  0.78631198  0.89705622  0.96034841  1
  O  O73  1  0.78981232  0.73330695  0.64168931  1
  O  O74  1  0.77911249  0.76034477  0.30467470  1
  O  O75  1  0.82205225  0.55829283  0.96478617  1
  O  O76  1  0.89157636  0.72836919  0.82173966  1
  O  O77  1  0.90246746  0.76116702  0.48453415  1
  O  O78  1  0.92568327  0.25000610  0.72007872  1
  O  O79  1  0.89970485  0.60710757  0.16024332  1
  O  O80  1  0.90723075  0.94574759  0.17528077  1
  O  O81  1  0.93010917  0.23965347  0.04171470  1
  O  O82  1  0.95266513  0.09659367  0.37475659  1
  O  O83  1  0.95740018  0.43545281  0.39491972  1
