# generated using pymatgen
data_Li2Cu3F7
_symmetry_space_group_name_H-M   'P 1'
_cell_length_a   10.19012588
_cell_length_b   10.78692309
_cell_length_c   3.06225112
_cell_angle_alpha   90.00019461
_cell_angle_beta   90.00000174
_cell_angle_gamma   89.93682368
_symmetry_Int_Tables_number   1
_chemical_formula_structural   Li2Cu3F7
_chemical_formula_sum   'Li4 Cu6 F14'
_cell_volume   336.60275736
_cell_formula_units_Z   2
loop_
 _symmetry_equiv_pos_site_id
 _symmetry_equiv_pos_as_xyz
  1  'x, y, z'
loop_
 _atom_site_type_symbol
 _atom_site_label
 _atom_site_symmetry_multiplicity
 _atom_site_fract_x
 _atom_site_fract_y
 _atom_site_fract_z
 _atom_site_occupancy
  Li  Li0  1  0.25007420  0.85040185  0.50000025  1
  Li  Li1  1  0.24998043  0.35045088  0.49999998  1
  Li  Li2  1  0.75004741  0.64954743  0.49999984  1
  Li  Li3  1  0.74989024  0.14961557  0.49999979  1
  Cu  Cu4  1  0.99999462  0.49999936  -0.00000353  1
  Cu  Cu5  1  0.04078806  0.13428530  0.99999681  1
  Cu  Cu6  1  0.45917919  0.63423488  0.00000062  1
  Cu  Cu7  1  0.49999913  0.00000126  0.99999913  1
  Cu  Cu8  1  0.54086108  0.36577347  0.00000121  1
  Cu  Cu9  1  0.95921324  0.86571938  0.00000301  1
  F  F10  1  0.00000862  0.00002866  0.49999949  1
  F  F11  1  0.12425987  0.48892447  0.50000188  1
  F  F12  1  0.12065326  0.22209506  0.49999975  1
  F  F13  1  0.15515225  0.83513223  0.99999986  1
  F  F14  1  0.34476116  0.33512284  0.00000008  1
  F  F15  1  0.37929292  0.72214575  0.49999955  1
  F  F16  1  0.37576846  0.98894551  0.50000062  1
  F  F17  1  0.50000051  0.50003839  0.50000027  1
  F  F18  1  0.62422801  0.01105731  0.49999980  1
  F  F19  1  0.62074768  0.27780464  0.50000028  1
  F  F20  1  0.65519812  0.66487884  0.00000125  1
  F  F21  1  0.84487529  0.16486103  -0.00000004  1
  F  F22  1  0.87929938  0.77785720  0.49999988  1
  F  F23  1  0.87572686  0.51107866  0.50000021  1
