# generated using pymatgen
data_Li2CrSi3O8
_symmetry_space_group_name_H-M   'P 1'
_cell_length_a   6.93211212
_cell_length_b   6.55713018
_cell_length_c   8.17447630
_cell_angle_alpha   90.00000000
_cell_angle_beta   90.00000000
_cell_angle_gamma   109.74721152
_symmetry_Int_Tables_number   1
_chemical_formula_structural   Li2CrSi3O8
_chemical_formula_sum   'Li4 Cr2 Si6 O16'
_cell_volume   349.71781985
_cell_formula_units_Z   2
loop_
 _symmetry_equiv_pos_site_id
 _symmetry_equiv_pos_as_xyz
  1  'x, y, z'
loop_
 _atom_site_type_symbol
 _atom_site_label
 _atom_site_symmetry_multiplicity
 _atom_site_fract_x
 _atom_site_fract_y
 _atom_site_fract_z
 _atom_site_occupancy
  Li  Li0  1  0.23816902  0.82482094  0.32777875  1
  Li  Li1  1  0.56136243  0.59911148  0.82211582  1
  Li  Li2  1  0.43863757  0.40088852  0.32211582  1
  Li  Li3  1  0.76183098  0.17517906  0.82777875  1
  Cr  Cr4  1  0.37426978  0.01721610  0.99452984  1
  Cr  Cr5  1  0.62573022  0.98278390  0.49452984  1
  Si  Si6  1  0.04687120  0.41305844  0.53080795  1
  Si  Si7  1  0.05654000  0.22687172  0.17593605  1
  Si  Si8  1  0.32740545  0.19500893  0.65829669  1
  Si  Si9  1  0.67259455  0.80499107  0.15829669  1
  Si  Si10  1  0.94346000  0.77312828  0.67593605  1
  Si  Si11  1  0.95312880  0.58694156  0.03080795  1
  O  O12  1  0.11768048  0.00270232  0.72634365  1
  O  O13  1  0.94948072  0.33216547  0.03187314  1
  O  O14  1  0.09498122  0.38482366  0.33729245  1
  O  O15  1  0.16014194  0.75655470  0.09841895  1
  O  O16  1  0.25402267  0.41162893  0.63294385  1
  O  O17  1  0.27881052  0.22189490  0.13022448  1
  O  O18  1  0.40119694  0.13228278  0.48078595  1
  O  O19  1  0.49250423  0.24542050  0.80780341  1
  O  O20  1  0.50749577  0.75457950  0.30780341  1
  O  O21  1  0.59880306  0.86771722  0.98078595  1
  O  O22  1  0.72118948  0.77810510  0.63022448  1
  O  O23  1  0.74597733  0.58837107  0.13294385  1
  O  O24  1  0.83985806  0.24344530  0.59841895  1
  O  O25  1  0.90501878  0.61517634  0.83729245  1
  O  O26  1  0.05051928  0.66783453  0.53187314  1
  O  O27  1  0.88231952  0.99729768  0.22634365  1
