# generated using pymatgen
data_Li5Fe5O12
_symmetry_space_group_name_H-M   'P 1'
_cell_length_a   5.09978977
_cell_length_b   9.11940343
_cell_length_c   9.46223154
_cell_angle_alpha   96.68745701
_cell_angle_beta   94.70457470
_cell_angle_gamma   85.92095585
_symmetry_Int_Tables_number   1
_chemical_formula_structural   Li5Fe5O12
_chemical_formula_sum   'Li10 Fe10 O24'
_cell_volume   434.74995486
_cell_formula_units_Z   2
loop_
 _symmetry_equiv_pos_site_id
 _symmetry_equiv_pos_as_xyz
  1  'x, y, z'
loop_
 _atom_site_type_symbol
 _atom_site_label
 _atom_site_symmetry_multiplicity
 _atom_site_fract_x
 _atom_site_fract_y
 _atom_site_fract_z
 _atom_site_occupancy
  Li  Li0  1  0.73158858  0.91590478  0.00018210  1
  Li  Li1  1  0.61700503  0.46488825  0.24460558  1
  Li  Li2  1  0.64890225  0.14054529  0.26245028  1
  Li  Li3  1  0.48442866  0.66639188  0.49379279  1
  Li  Li4  1  0.52694126  0.32563309  0.49659611  1
  Li  Li5  1  0.23476778  0.42483093  0.00213363  1
  Li  Li6  1  0.26378218  0.08260647  0.00867839  1
  Li  Li7  1  0.10875675  0.96605695  0.25367911  1
  Li  Li8  1  0.09530633  0.61407365  0.23940744  1
  Li  Li9  1  0.00778506  0.82963207  0.49185986  1
  Fe  Fe10  1  0.99457111  0.49318858  0.49811922  1
  Fe  Fe11  1  0.86931517  0.70981213  0.75105026  1
  Fe  Fe12  1  0.89391741  0.03631412  0.74572377  1
  Fe  Fe13  1  0.74898744  0.25865029  0.00309025  1
  Fe  Fe14  1  0.63019811  0.78731305  0.24760133  1
  Fe  Fe15  1  0.48123604  -0.00016736  0.49626700  1
  Fe  Fe16  1  0.40978061  0.53728501  0.75435044  1
  Fe  Fe17  1  0.23982938  0.75472679  0.00676819  1
  Fe  Fe18  1  0.35543910  0.20900422  0.74757174  1
  Fe  Fe19  1  0.14095649  0.28665225  0.25286625  1
  O  O20  1  0.93053693  0.78483339  0.13706946  1
  O  O21  1  0.93705833  0.40967243  0.11943664  1
  O  O22  1  0.94926901  0.13194907  0.13601782  1
  O  O23  1  0.84430896  0.33493097  0.38423178  1
  O  O24  1  0.76182855  0.95799065  0.36412729  1
  O  O25  1  0.79961931  0.64564986  0.36822620  1
  O  O26  1  0.73165707  0.86887785  0.63405665  1
  O  O27  1  0.69953489  0.53677214  0.62560836  1
  O  O28  1  0.64727207  0.15553906  0.61587952  1
  O  O29  1  0.41859366  0.91092196  0.11069347  1
  O  O30  1  0.55715847  0.70476210  0.85946736  1
  O  O31  1  0.42057366  0.63396115  0.13852089  1
  O  O32  1  0.59711061  0.08999954  0.88654779  1
  O  O33  1  0.53399234  0.37767241  0.87320855  1
  O  O34  1  0.44040569  0.27603064  0.12937084  1
  O  O35  1  0.33790477  0.83335273  0.38674264  1
  O  O36  1  0.27657826  0.46353435  0.36686423  1
  O  O37  1  0.32361458  0.14959774  0.36421047  1
  O  O38  1  0.23789785  0.37846189  0.63838428  1
  O  O39  1  0.16245598  0.65611213  0.61352278  1
  O  O40  1  0.20120192  0.03165278  0.62786792  1
  O  O41  1  0.11220084  0.59059157  0.88250004  1
  O  O42  1  0.03777419  0.88017956  0.87898189  1
  O  O43  1  0.05472132  0.20259560  0.86488439  1
