# generated using pymatgen
data_LiFeSiO4
_symmetry_space_group_name_H-M   'P 1'
_cell_length_a   8.53141469
_cell_length_b   5.39828942
_cell_length_c   8.01088413
_cell_angle_alpha   90.00000000
_cell_angle_beta   105.59817700
_cell_angle_gamma   90.00000000
_symmetry_Int_Tables_number   1
_chemical_formula_structural   LiFeSiO4
_chemical_formula_sum   'Li4 Fe4 Si4 O16'
_cell_volume   355.35392837
_cell_formula_units_Z   4
loop_
 _symmetry_equiv_pos_site_id
 _symmetry_equiv_pos_as_xyz
  1  'x, y, z'
loop_
 _atom_site_type_symbol
 _atom_site_label
 _atom_site_symmetry_multiplicity
 _atom_site_fract_x
 _atom_site_fract_y
 _atom_site_fract_z
 _atom_site_occupancy
  Li  Li0  1  0.20084239  0.34573214  0.86697122  1
  Li  Li1  1  0.39345340  0.83368299  0.36584851  1
  Li  Li2  1  0.70084239  0.65426786  0.86697122  1
  Li  Li3  1  0.89345340  0.16631701  0.36584851  1
  Fe  Fe4  1  0.06914537  0.85116624  0.97246050  1
  Fe  Fe5  1  0.27710906  0.33025300  0.49397600  1
  Fe  Fe6  1  0.56914537  0.14883376  0.97246050  1
  Fe  Fe7  1  0.77710906  0.66974700  0.49397600  1
  Si  Si8  1  0.01723808  0.66174127  0.25285629  1
  Si  Si9  1  0.32196594  0.82673759  0.73875469  1
  Si  Si10  1  0.51723808  0.33825873  0.25285629  1
  Si  Si11  1  0.82196594  0.17326241  0.73875469  1
  O  O12  1  0.00295704  0.16957402  0.88227121  1
  O  O13  1  0.06845406  0.38183510  0.33102387  1
  O  O14  1  0.18465470  0.70573939  0.82500234  1
  O  O15  1  0.27595318  0.12093211  0.68522358  1
  O  O16  1  0.17598137  0.81079487  0.21734196  1
  O  O17  1  0.33550303  0.65981491  0.57158307  1
  O  O18  1  0.50295704  0.83042598  0.88227121  1
  O  O19  1  0.43019643  0.19422940  0.38550978  1
  O  O20  1  0.40034697  0.32191427  0.04997697  1
  O  O21  1  0.56845406  0.61816490  0.33102387  1
  O  O22  1  0.68465470  0.29426061  0.82500234  1
  O  O23  1  0.77595318  0.87906789  0.68522358  1
  O  O24  1  0.67598137  0.18920513  0.21734196  1
  O  O25  1  0.83550303  0.34018509  0.57158307  1
  O  O26  1  0.93019643  0.80577060  0.38550978  1
  O  O27  1  0.90034697  0.67808573  0.04997697  1
