# generated using pymatgen
data_LaSm(CoO3)2
_symmetry_space_group_name_H-M   'P 1'
_cell_length_a   7.57266535
_cell_length_b   7.57147995
_cell_length_c   7.57147995
_cell_angle_alpha   90.00000000
_cell_angle_beta   90.00000000
_cell_angle_gamma   90.00000000
_symmetry_Int_Tables_number   1
_chemical_formula_structural   LaSm(CoO3)2
_chemical_formula_sum   'La4 Sm4 Co8 O24'
_cell_volume   434.12052370
_cell_formula_units_Z   4
loop_
 _symmetry_equiv_pos_site_id
 _symmetry_equiv_pos_as_xyz
  1  'x, y, z'
loop_
 _atom_site_type_symbol
 _atom_site_label
 _atom_site_symmetry_multiplicity
 _atom_site_fract_x
 _atom_site_fract_y
 _atom_site_fract_z
 _atom_site_occupancy
  La  La0  1  0.25000000  0.25000000  0.25000000  1
  La  La1  1  0.25000000  0.25000000  0.75000000  1
  La  La2  1  0.25000000  0.75000000  0.75000000  1
  La  La3  1  0.75000000  0.75000000  0.25000000  1
  Sm  Sm4  1  0.25000000  0.75000000  0.25000000  1
  Sm  Sm5  1  0.75000000  0.25000000  0.25000000  1
  Sm  Sm6  1  0.75000000  0.25000000  0.75000000  1
  Sm  Sm7  1  0.75000000  0.75000000  0.75000000  1
  Co  Co8  1  0.99967217  0.00000288  0.99999712  1
  Co  Co9  1  0.99967217  0.00000288  0.50000288  1
  Co  Co10  1  0.99967217  0.49999712  0.99999712  1
  Co  Co11  1  0.99967217  0.49999712  0.50000288  1
  Co  Co12  1  0.50032783  0.00000288  0.99999712  1
  Co  Co13  1  0.50032783  0.00000288  0.50000288  1
  Co  Co14  1  0.50032783  0.49999712  0.99999712  1
  Co  Co15  1  0.50032783  0.49999712  0.50000288  1
  O  O16  1  0.25000000  0.99780321  0.00219679  1
  O  O17  1  0.25000000  0.99780321  0.49780321  1
  O  O18  1  0.25000000  0.50219679  0.00219679  1
  O  O19  1  0.25000000  0.50219679  0.49780321  1
  O  O20  1  0.75000000  0.00212044  0.99787956  1
  O  O21  1  0.75000000  0.00212044  0.50212044  1
  O  O22  1  0.75000000  0.49787956  0.99787956  1
  O  O23  1  0.75000000  0.49787956  0.50212044  1
  O  O24  1  0.99551608  0.25000000  -0.00000901  1
  O  O25  1  0.99551608  0.25000000  0.50000901  1
  O  O26  1  0.99987371  0.75000000  0.99997326  1
  O  O27  1  0.99987371  0.75000000  0.50002674  1
  O  O28  1  0.50448392  0.25000000  -0.00000901  1
  O  O29  1  0.50448392  0.25000000  0.50000901  1
  O  O30  1  0.50012629  0.75000000  0.99997326  1
  O  O31  1  0.50012629  0.75000000  0.50002674  1
  O  O32  1  0.99987371  0.00002674  0.25000000  1
  O  O33  1  0.99551608  0.00000901  0.75000000  1
  O  O34  1  0.99987371  0.49997326  0.25000000  1
  O  O35  1  0.99551608  0.49999099  0.75000000  1
  O  O36  1  0.50012629  0.00002674  0.25000000  1
  O  O37  1  0.50448392  0.00000901  0.75000000  1
  O  O38  1  0.50012629  0.49997326  0.25000000  1
  O  O39  1  0.50448392  0.49999099  0.75000000  1
