# generated using pymatgen
data_Li6Cr3P6WO24
_symmetry_space_group_name_H-M   'P 1'
_cell_length_a   8.60120840
_cell_length_b   8.62899506
_cell_length_c   8.63660425
_cell_angle_alpha   61.90252353
_cell_angle_beta   61.88240749
_cell_angle_gamma   61.86558507
_symmetry_Int_Tables_number   1
_chemical_formula_structural   Li6Cr3P6WO24
_chemical_formula_sum   'Li6 Cr3 P6 W1 O24'
_cell_volume   472.37191125
_cell_formula_units_Z   1
loop_
 _symmetry_equiv_pos_site_id
 _symmetry_equiv_pos_as_xyz
  1  'x, y, z'
loop_
 _atom_site_type_symbol
 _atom_site_label
 _atom_site_symmetry_multiplicity
 _atom_site_fract_x
 _atom_site_fract_y
 _atom_site_fract_z
 _atom_site_occupancy
  Li  Li0  1  0.02841893  0.00628334  0.00078824  1
  Li  Li1  1  0.75061108  0.14477619  0.34921130  1
  Li  Li2  1  0.46633863  0.50262661  0.49490128  1
  Li  Li3  1  0.27544547  0.83780987  0.64775225  1
  Li  Li4  1  0.64750841  0.27673058  0.83237343  1
  Li  Li5  1  0.83631613  0.64984433  0.27565913  1
  Cr  Cr6  1  0.14086849  0.14575525  0.13882738  1
  Cr  Cr7  1  0.35856817  0.35881477  0.35334700  1
  Cr  Cr8  1  0.64529909  0.64777675  0.64715705  1
  P  P9  1  0.05353271  0.75200205  0.44172016  1
  P  P10  1  0.44269137  0.05504665  0.75109641  1
  P  P11  1  0.75148882  0.44574423  0.04939732  1
  P  P12  1  0.25875966  0.53483600  0.95687454  1
  P  P13  1  0.53633056  0.96019028  0.25920555  1
  P  P14  1  0.95478884  0.25795989  0.53082333  1
  W  W15  1  0.85664921  0.85460286  0.85403499  1
  O  O16  1  0.12635152  0.29717515  0.48995653  1
  O  O17  1  0.31109947  0.50471829  0.11571635  1
  O  O18  1  0.05047430  0.92232613  0.26152587  1
  O  O19  1  0.52751274  0.11709643  0.30405228  1
  O  O20  1  0.24011792  0.59339722  0.41793944  1
  O  O21  1  0.03341561  0.80636222  0.59804287  1
  O  O22  1  0.25554287  0.07283085  0.90906125  1
  O  O23  1  0.43978251  0.23591915  0.58097443  1
  O  O24  1  0.59516527  0.42081440  0.24139731  1
  O  O25  1  0.19919981  0.38015546  0.98693500  1
  O  O26  1  0.10924594  0.73251518  0.92184819  1
  O  O27  1  0.37022370  0.00333087  0.20950833  1
  O  O28  1  0.59903019  0.03014449  0.80921270  1
  O  O29  1  0.90710068  0.25341718  0.07033348  1
  O  O30  1  0.81034687  0.59855639  0.02755826  1
  O  O31  1  0.42480234  0.55008269  0.76656716  1
  O  O32  1  0.54654249  0.77246330  0.42670817  1
  O  O33  1  0.73021219  0.91762279  0.10828416  1
  O  O34  1  0.96667236  0.20280824  0.37902056  1
  O  O35  1  0.76988636  0.42805800  0.54890677  1
  O  O36  1  0.47944831  0.88779614  0.69952938  1
  O  O37  1  0.92131785  0.10913322  0.72758401  1
  O  O38  1  0.69761398  0.48210602  0.88548480  1
  O  O39  1  0.88528112  0.69937056  0.48168334  1
