# generated using pymatgen
data_Li2Cr2SiO6
_symmetry_space_group_name_H-M   'P 1'
_cell_length_a   9.42848117
_cell_length_b   5.11418593
_cell_length_c   8.36941799
_cell_angle_alpha   35.08427833
_cell_angle_beta   63.65970089
_cell_angle_gamma   68.71822826
_symmetry_Int_Tables_number   1
_chemical_formula_structural   Li2Cr2SiO6
_chemical_formula_sum   'Li4 Cr4 Si2 O12'
_cell_volume   207.87789760
_cell_formula_units_Z   2
loop_
 _symmetry_equiv_pos_site_id
 _symmetry_equiv_pos_as_xyz
  1  'x, y, z'
loop_
 _atom_site_type_symbol
 _atom_site_label
 _atom_site_symmetry_multiplicity
 _atom_site_fract_x
 _atom_site_fract_y
 _atom_site_fract_z
 _atom_site_occupancy
  Li  Li0  1  0.62647310  0.99976552  0.68707016  1
  Li  Li1  1  0.98788526  0.00052495  0.00602178  1
  Li  Li2  1  0.48459728  0.49559457  0.26137841  1
  Li  Li3  1  0.12739376  0.50625764  0.93591241  1
  Cr  Cr4  1  0.96493080  0.99972235  0.51766696  1
  Cr  Cr5  1  0.64772920  0.00011196  0.17600773  1
  Cr  Cr6  1  0.46522111  0.49964770  0.76758569  1
  Cr  Cr7  1  0.14743312  0.50085976  0.42572782  1
  Si  Si8  1  0.30640424  0.99966985  0.34688683  1
  Si  Si9  1  0.80630861  0.50014830  0.59672851  1
  O  O10  1  0.64797724  0.93140572  0.45185076  1
  O  O11  1  0.96470311  0.06886248  0.72483344  1
  O  O12  1  0.30636686  0.00034171  0.55883951  1
  O  O13  1  0.14796872  0.43147646  0.21847151  1
  O  O14  1  0.14798693  0.56868133  0.63320610  1
  O  O15  1  0.80643343  0.50027325  0.38438516  1
  O  O16  1  0.46472147  0.43123059  0.04366151  1
  O  O17  1  0.80635201  0.49994821  0.80902229  1
  O  O18  1  0.46466657  0.56849233  0.49181324  1
  O  O19  1  0.96470749  0.93149475  0.31035241  1
  O  O20  1  0.30636896  -0.00006691  0.13462733  1
  O  O21  1  0.64795774  0.06892549  0.89986145  1
