# generated using pymatgen
data_Li6V3P6WO24
_symmetry_space_group_name_H-M   'P 1'
_cell_length_a   8.64633023
_cell_length_b   8.64874375
_cell_length_c   8.66201677
_cell_angle_alpha   62.24196293
_cell_angle_beta   62.03136721
_cell_angle_gamma   61.97328949
_symmetry_Int_Tables_number   1
_chemical_formula_structural   Li6V3P6WO24
_chemical_formula_sum   'Li6 V3 P6 W1 O24'
_cell_volume   479.33842399
_cell_formula_units_Z   1
loop_
 _symmetry_equiv_pos_site_id
 _symmetry_equiv_pos_as_xyz
  1  'x, y, z'
loop_
 _atom_site_type_symbol
 _atom_site_label
 _atom_site_symmetry_multiplicity
 _atom_site_fract_x
 _atom_site_fract_y
 _atom_site_fract_z
 _atom_site_occupancy
  Li  Li0  1  0.02694497  0.00576303  0.99953824  1
  Li  Li1  1  0.75370670  0.14759952  0.34525297  1
  Li  Li2  1  0.47364958  0.50487748  0.49276429  1
  Li  Li3  1  0.27138673  0.83655097  0.64676341  1
  Li  Li4  1  0.65025514  0.27055222  0.83379495  1
  Li  Li5  1  0.83216537  0.65006657  0.27376602  1
  V  V6  1  0.14092697  0.14617504  0.13808588  1
  V  V7  1  0.35726091  0.36036062  0.35379424  1
  V  V8  1  0.64356473  0.64960395  0.64754720  1
  P  P9  1  0.05186937  0.75061985  0.44248590  1
  P  P10  1  0.44455056  0.05639044  0.74954149  1
  P  P11  1  0.74995048  0.44569084  0.05112667  1
  P  P12  1  0.25770981  0.53743136  0.95588386  1
  P  P13  1  0.53858403  0.96110119  0.25799381  1
  P  P14  1  0.95361053  0.25627043  0.53317626  1
  W  W15  1  0.85721935  0.85376020  0.85501708  1
  O  O16  1  0.12376392  0.29769501  0.48826623  1
  O  O17  1  0.31628130  0.50049258  0.11284789  1
  O  O18  1  0.04904953  0.91800741  0.26336762  1
  O  O19  1  0.52657045  0.11672892  0.30722408  1
  O  O20  1  0.23775646  0.59221291  0.41939732  1
  O  O21  1  0.03284239  0.80468021  0.59900728  1
  O  O22  1  0.25847331  0.07013512  0.90839152  1
  O  O23  1  0.43813861  0.23612280  0.58295643  1
  O  O24  1  0.59714440  0.42093354  0.24305958  1
  O  O25  1  0.19342938  0.38593429  0.98798400  1
  O  O26  1  0.10871837  0.73525105  0.92505846  1
  O  O27  1  0.37397347  0.00757477  0.20505074  1
  O  O28  1  0.60084642  0.03063283  0.80799798  1
  O  O29  1  0.90406134  0.25281538  0.07159575  1
  O  O30  1  0.81015465  0.59859877  0.02807630  1
  O  O31  1  0.42062726  0.55460905  0.76585938  1
  O  O32  1  0.54893805  0.77352882  0.42097656  1
  O  O33  1  0.73218380  0.92209935  0.10650321  1
  O  O34  1  0.96792770  0.19769906  0.38214292  1
  O  O35  1  0.76840970  0.42317059  0.55310663  1
  O  O36  1  0.48403359  0.89132276  0.69331103  1
  O  O37  1  0.92373752  0.10699522  0.72869683  1
  O  O38  1  0.69431856  0.48310905  0.88943879  1
  O  O39  1  0.88526659  0.69583579  0.48415120  1
