# generated using pymatgen
data_Li3Fe2(SiO4)2
_symmetry_space_group_name_H-M   'P 1'
_cell_length_a   6.18676291
_cell_length_b   11.08150924
_cell_length_c   5.06885157
_cell_angle_alpha   90.00000000
_cell_angle_beta   90.08529114
_cell_angle_gamma   90.00000000
_symmetry_Int_Tables_number   1
_chemical_formula_structural   Li3Fe2(SiO4)2
_chemical_formula_sum   'Li6 Fe4 Si4 O16'
_cell_volume   347.51333832
_cell_formula_units_Z   2
loop_
 _symmetry_equiv_pos_site_id
 _symmetry_equiv_pos_as_xyz
  1  'x, y, z'
loop_
 _atom_site_type_symbol
 _atom_site_label
 _atom_site_symmetry_multiplicity
 _atom_site_fract_x
 _atom_site_fract_y
 _atom_site_fract_z
 _atom_site_occupancy
  Li  Li0  1  0.01038462  0.08763432  0.68008565  1
  Li  Li1  1  0.48961538  0.58763432  0.81991435  1
  Li  Li2  1  0.49651794  0.92075279  0.33107013  1
  Li  Li3  1  0.49786776  0.41463791  0.18631768  1
  Li  Li4  1  0.00348206  0.42075279  0.16892987  1
  Li  Li5  1  0.00213224  0.91463791  0.31368232  1
  Fe  Fe6  1  0.26701646  0.16452858  0.16131622  1
  Fe  Fe7  1  0.23298354  0.66452858  0.33868378  1
  Fe  Fe8  1  0.75145120  0.32903645  0.68041172  1
  Fe  Fe9  1  0.74854880  0.82903645  0.81958828  1
  Si  Si10  1  0.25388866  0.83407417  0.83568422  1
  Si  Si11  1  0.24611134  0.33407417  0.66431578  1
  Si  Si12  1  0.74301828  0.66088512  0.32047177  1
  Si  Si13  1  0.75698172  0.16088512  0.17952823  1
  O  O14  1  0.02546668  0.90361870  0.72373810  1
  O  O15  1  0.02152371  0.40131701  0.77448465  1
  O  O16  1  0.24803434  0.33936657  0.34046560  1
  O  O17  1  0.25196566  0.83936657  0.15953440  1
  O  O18  1  0.25625377  0.69621964  0.72588048  1
  O  O19  1  0.24374623  0.19621964  0.77411952  1
  O  O20  1  0.47847629  0.90131701  0.72551535  1
  O  O21  1  0.47453332  0.40361870  0.77626190  1
  O  O22  1  0.52681914  0.59073810  0.21104665  1
  O  O23  1  0.54151290  0.08648783  0.25773498  1
  O  O24  1  0.72653781  0.67917692  0.64504077  1
  O  O25  1  0.77346219  0.17917692  0.85495923  1
  O  O26  1  0.74824472  0.30346190  0.30259770  1
  O  O27  1  0.75175528  0.80346190  0.19740230  1
  O  O28  1  0.95848710  0.58648783  0.24226502  1
  O  O29  1  0.97318086  0.09073810  0.28895335  1
