# generated using pymatgen
data_La7SmTiV7O24
_symmetry_space_group_name_H-M   'P 1'
_cell_length_a   7.92779865
_cell_length_b   7.92779865
_cell_length_c   7.92779865
_cell_angle_alpha   89.99598638
_cell_angle_beta   90.00401362
_cell_angle_gamma   90.00401362
_symmetry_Int_Tables_number   1
_chemical_formula_structural   La7SmTiV7O24
_chemical_formula_sum   'La7 Sm1 Ti1 V7 O24'
_cell_volume   498.26207353
_cell_formula_units_Z   1
loop_
 _symmetry_equiv_pos_site_id
 _symmetry_equiv_pos_as_xyz
  1  'x, y, z'
loop_
 _atom_site_type_symbol
 _atom_site_label
 _atom_site_symmetry_multiplicity
 _atom_site_fract_x
 _atom_site_fract_y
 _atom_site_fract_z
 _atom_site_occupancy
  La  La0  1  0.25314571  0.25268896  0.25268896  1
  La  La1  1  0.25269219  0.25316070  0.74730781  1
  La  La2  1  0.25269219  0.74730781  0.25316070  1
  La  La3  1  0.25197391  0.74802609  0.74802609  1
  La  La4  1  0.74731104  0.25268896  0.74685429  1
  La  La5  1  0.74731104  0.74685429  0.25268896  1
  La  La6  1  0.74683930  0.74730781  0.74730781  1
  Sm  Sm7  1  0.74665626  0.25334374  0.25334374  1
  Ti  Ti8  1  0.99917367  0.00082633  0.00082633  1
  V  V9  1  0.99973604  0.00026396  0.49972014  1
  V  V10  1  0.99973604  0.49972014  0.00026396  1
  V  V11  1  0.99963987  0.49960866  0.49960866  1
  V  V12  1  0.50027986  0.00026396  0.00026396  1
  V  V13  1  0.50039134  0.00036013  0.49960866  1
  V  V14  1  0.50039134  0.49960866  0.00036013  1
  V  V15  1  0.50044883  0.49955117  0.49955117  1
  O  O16  1  0.24468429  0.00025976  0.00025976  1
  O  O17  1  0.25106111  0.00020732  0.49976669  1
  O  O18  1  0.25106111  0.49976669  0.00020732  1
  O  O19  1  0.25191054  0.50114732  0.50114732  1
  O  O20  1  0.75490911  0.00135910  0.00135910  1
  O  O21  1  0.74917256  0.00179750  0.49822515  1
  O  O22  1  0.74917256  0.49822515  0.00179750  1
  O  O23  1  0.74847248  0.49666837  0.49666837  1
  O  O24  1  0.99864090  0.24509089  0.00135910  1
  O  O25  1  0.99820250  0.25082744  0.49822515  1
  O  O26  1  0.99974024  0.75531571  0.00025976  1
  O  O27  1  0.99979268  0.74893889  0.49976669  1
  O  O28  1  0.50177485  0.25082744  0.00179750  1
  O  O29  1  0.50333163  0.25152752  0.49666837  1
  O  O30  1  0.50023331  0.74893889  0.00020732  1
  O  O31  1  0.49885268  0.74808946  0.50114732  1
  O  O32  1  0.99864090  0.00135910  0.24509089  1
  O  O33  1  0.99974024  0.00025976  0.75531571  1
  O  O34  1  0.99820250  0.49822515  0.25082744  1
  O  O35  1  0.99979268  0.49976669  0.74893889  1
  O  O36  1  0.50177485  0.00179750  0.25082744  1
  O  O37  1  0.50023331  0.00020732  0.74893889  1
  O  O38  1  0.50333163  0.49666837  0.25152752  1
  O  O39  1  0.49885268  0.50114732  0.74808946  1
