# generated using pymatgen
data_Li3Ni2(CO3)4
_symmetry_space_group_name_H-M   'P 1'
_cell_length_a   6.28012435
_cell_length_b   7.70789439
_cell_length_c   5.22867198
_cell_angle_alpha   89.75939225
_cell_angle_beta   114.72292668
_cell_angle_gamma   90.47408285
_symmetry_Int_Tables_number   1
_chemical_formula_structural   Li3Ni2(CO3)4
_chemical_formula_sum   'Li3 Ni2 C4 O12'
_cell_volume   229.89485600
_cell_formula_units_Z   1
loop_
 _symmetry_equiv_pos_site_id
 _symmetry_equiv_pos_as_xyz
  1  'x, y, z'
loop_
 _atom_site_type_symbol
 _atom_site_label
 _atom_site_symmetry_multiplicity
 _atom_site_fract_x
 _atom_site_fract_y
 _atom_site_fract_z
 _atom_site_occupancy
  Li  Li0  1  0.31174508  0.93897209  0.61478243  1
  Li  Li1  1  0.68474856  0.06566165  0.37963015  1
  Li  Li2  1  0.81015320  0.55591706  0.61559835  1
  Ni  Ni3  1  0.00166524  0.99615694  0.99617117  1
  Ni  Ni4  1  0.49230125  0.50081156  0.99103027  1
  C  C5  1  0.11708880  0.25897343  0.85513742  1
  C  C6  1  0.62583009  0.23686918  0.85247961  1
  C  C7  1  0.38452304  0.76690813  0.14974876  1
  C  C8  1  0.87773161  0.73848234  0.15005661  1
  O  O9  1  0.08428359  0.11759535  0.70438983  1
  O  O10  1  0.15190633  0.40684090  0.77434969  1
  O  O11  1  0.38506773  0.75699091  0.90193027  1
  O  O12  1  0.09861088  0.23376485  0.08992723  1
  O  O13  1  0.34428534  0.91372975  0.24459898  1
  O  O14  1  0.43055167  0.62854013  0.29875472  1
  O  O15  1  0.60755502  0.37992678  0.71782011  1
  O  O16  1  0.65931080  0.08899040  0.75492150  1
  O  O17  1  0.89671856  0.75267534  0.91150365  1
  O  O18  1  0.59907773  0.24444268  0.08509392  1
  O  O19  1  0.82707007  0.59881092  0.23763714  1
  O  O20  1  0.91953141  0.88371762  0.29322817  1
