# generated using pymatgen
data_Mn2Fe3Co(PO4)6
_symmetry_space_group_name_H-M   'P 1'
_cell_length_a   8.53015638
_cell_length_b   8.60158164
_cell_length_c   8.60158170
_cell_angle_alpha   60.00000146
_cell_angle_beta   59.72261903
_cell_angle_gamma   59.72262606
_symmetry_Int_Tables_number   1
_chemical_formula_structural   Mn2Fe3Co(PO4)6
_chemical_formula_sum   'Mn2 Fe3 Co1 P6 O24'
_cell_volume   444.39078926
_cell_formula_units_Z   1
loop_
 _symmetry_equiv_pos_site_id
 _symmetry_equiv_pos_as_xyz
  1  'x, y, z'
loop_
 _atom_site_type_symbol
 _atom_site_label
 _atom_site_symmetry_multiplicity
 _atom_site_fract_x
 _atom_site_fract_y
 _atom_site_fract_z
 _atom_site_occupancy
  Mn  Mn0  1  0.00045201  0.99984933  0.99984933  1
  Mn  Mn1  1  0.49923486  0.50025538  0.50025538  1
  Fe  Fe2  1  0.06143660  0.64618813  0.64618813  1
  Fe  Fe3  1  0.43182580  0.85605840  0.85605840  1
  Fe  Fe4  1  0.93439351  0.35520216  0.35520216  1
  Co  Co5  1  0.57755634  0.14081455  0.14081455  1
  P  P6  1  0.25558173  0.24943175  0.53664195  1
  P  P7  1  0.25558173  0.95834457  0.24943175  1
  P  P8  1  0.25558173  0.53664195  0.95834457  1
  P  P9  1  0.74399368  0.45436422  0.04721760  1
  P  P10  1  0.74399368  0.04721760  0.75442451  1
  P  P11  1  0.74399368  0.75442451  0.45436422  1
  O  O12  1  0.06959254  0.10963080  0.32070406  1
  O  O13  1  0.06959254  0.50007261  0.10963080  1
  O  O14  1  0.06959254  0.32070406  0.50007261  1
  O  O15  1  0.23091267  0.08950176  0.73567259  1
  O  O16  1  0.44056568  0.18544809  0.37910555  1
  O  O17  1  0.27629726  0.41026592  0.55500196  1
  O  O18  1  0.23091267  0.94391398  0.08950176  1
  O  O19  1  0.27629726  0.75843486  0.41026592  1
  O  O20  1  0.56261537  0.61137286  0.00746774  1
  O  O21  1  0.27629726  0.55500196  0.75843486  1
  O  O22  1  0.76480260  0.25522320  0.06243228  1
  O  O23  1  0.56261537  0.00746774  0.81854402  1
  O  O24  1  0.44056568  0.99488068  0.18544809  1
  O  O25  1  0.23091267  0.73567259  0.94391398  1
  O  O26  1  0.72429651  0.43726037  0.24532438  1
  O  O27  1  0.44056568  0.37910555  0.99488068  1
  O  O28  1  0.72429651  0.24532438  0.59311874  1
  O  O29  1  0.76480260  0.06243228  0.91754192  1
  O  O30  1  0.72429651  0.59311874  0.43726037  1
  O  O31  1  0.56261537  0.81854402  0.61137286  1
  O  O32  1  0.76480260  0.91754192  0.25522320  1
  O  O33  1  0.92970993  0.69034654  0.48923560  1
  O  O34  1  0.92970993  0.48923560  0.89070693  1
  O  O35  1  0.92970993  0.89070693  0.69034654  1
