# generated using pymatgen
data_Li2Mn2P4H3O16
_symmetry_space_group_name_H-M   'P 1'
_cell_length_a   4.88022956
_cell_length_b   8.10879534
_cell_length_c   7.52185201
_cell_angle_alpha   91.16445609
_cell_angle_beta   104.66741558
_cell_angle_gamma   87.60116903
_symmetry_Int_Tables_number   1
_chemical_formula_structural   Li2Mn2P4H3O16
_chemical_formula_sum   'Li2 Mn2 P4 H3 O16'
_cell_volume   287.69351966
_cell_formula_units_Z   1
loop_
 _symmetry_equiv_pos_site_id
 _symmetry_equiv_pos_as_xyz
  1  'x, y, z'
loop_
 _atom_site_type_symbol
 _atom_site_label
 _atom_site_symmetry_multiplicity
 _atom_site_fract_x
 _atom_site_fract_y
 _atom_site_fract_z
 _atom_site_occupancy
  Li  Li0  1  0.39631529  0.87667121  0.85071730  1
  Li  Li1  1  0.59115232  0.12106860  0.15162341  1
  Mn  Mn2  1  0.49763579  0.50007859  0.00095712  1
  Mn  Mn3  1  0.00021761  0.99766864  0.49819302  1
  P  P4  1  0.10894489  0.33091605  0.25250834  1
  P  P5  1  0.37695207  0.84249287  0.23913412  1
  P  P6  1  0.62044222  0.15897131  0.75395405  1
  P  P7  1  0.88706943  0.66881252  0.74887721  1
  H  H8  1  0.46323646  0.39805079  0.47328523  1
  H  H9  1  0.53820357  0.61605156  0.51969308  1
  H  H10  1  0.96019403  0.01236942  0.98121698  1
  O  O11  1  0.99907516  0.83404312  0.69560135  1
  O  O12  1  0.13638707  0.55624485  0.84286318  1
  O  O13  1  0.17845334  0.83124940  0.37086194  1
  O  O14  1  0.25794332  0.42208678  0.43779846  1
  O  O15  1  0.36654589  0.05127880  0.66174444  1
  O  O16  1  0.25054035  0.94116928  0.06240984  1
  O  O17  1  0.32369342  0.30210277  0.13723201  1
  O  O18  1  0.54047022  0.33183546  0.80812398  1
  O  O19  1  0.45825880  0.66494068  0.19592790  1
  O  O20  1  0.67339461  0.69877660  0.86464733  1
  O  O21  1  0.75084439  0.05892231  0.93844493  1
  O  O22  1  0.63631720  0.94704020  0.33951589  1
  O  O23  1  0.73631522  0.57649415  0.56417940  1
  O  O24  1  0.82815683  0.16691751  0.63132256  1
  O  O25  1  0.86034469  0.44362155  0.15683937  1
  O  O26  1  0.99291182  0.16639598  0.30391456  1
