# generated using pymatgen
data_LiCoSiO4
_symmetry_space_group_name_H-M   'P 1'
_cell_length_a   10.34866267
_cell_length_b   6.63151144
_cell_length_c   5.04094761
_cell_angle_alpha   90.00058989
_cell_angle_beta   90.00039287
_cell_angle_gamma   89.98772255
_symmetry_Int_Tables_number   1
_chemical_formula_structural   LiCoSiO4
_chemical_formula_sum   'Li4 Co4 Si4 O16'
_cell_volume   345.94648923
_cell_formula_units_Z   4
loop_
 _symmetry_equiv_pos_site_id
 _symmetry_equiv_pos_as_xyz
  1  'x, y, z'
loop_
 _atom_site_type_symbol
 _atom_site_label
 _atom_site_symmetry_multiplicity
 _atom_site_fract_x
 _atom_site_fract_y
 _atom_site_fract_z
 _atom_site_occupancy
  Li  Li0  1  0.15969556  0.71300242  0.68574676  1
  Li  Li1  1  0.34038098  0.21303694  0.18580455  1
  Li  Li2  1  0.65967770  0.71302324  0.81423265  1
  Li  Li3  1  0.84032707  0.21303410  0.31421142  1
  Co  Co4  1  0.15971521  0.21551708  0.68506139  1
  Co  Co5  1  0.34031123  0.71558195  0.18508312  1
  Co  Co6  1  0.65970996  0.21554602  0.81492934  1
  Co  Co7  1  0.84030354  0.71557292  0.31491517  1
  Si  Si8  1  0.09258566  0.96218423  0.18589742  1
  Si  Si9  1  0.40741856  0.46225313  0.68584731  1
  Si  Si10  1  0.59261660  0.96223501  0.31414575  1
  Si  Si11  1  0.90734874  0.46221738  0.81413804  1
  O  O12  1  0.06142304  0.44752821  0.73991926  1
  O  O13  1  0.11620094  0.97751729  0.86317917  1
  O  O14  1  0.15807799  0.16348166  0.32094876  1
  O  O15  1  0.16976775  0.76248298  0.29694729  1
  O  O16  1  0.33019915  0.26247201  0.79694785  1
  O  O17  1  0.34190174  0.66348979  0.82091031  1
  O  O18  1  0.38379621  0.47749159  0.36319758  1
  O  O19  1  0.43859706  0.94757440  0.23994143  1
  O  O20  1  0.56136404  0.44755413  0.76006457  1
  O  O21  1  0.61619274  0.97751033  0.63678684  1
  O  O22  1  0.65806170  0.16347338  0.17908228  1
  O  O23  1  0.66976873  0.76246891  0.20304442  1
  O  O24  1  0.83023119  0.26251482  0.70307131  1
  O  O25  1  0.84191032  0.66347906  0.67909989  1
  O  O26  1  0.88379192  0.47748151  0.13678968  1
  O  O27  1  0.93862467  0.94757551  0.26005645  1
