# generated using pymatgen
data_Li4Cr3(CoO4)3
_symmetry_space_group_name_H-M   'P 1'
_cell_length_a   6.59316159
_cell_length_b   5.92258638
_cell_length_c   5.84526783
_cell_angle_alpha   90.38419822
_cell_angle_beta   102.91706936
_cell_angle_gamma   75.88122784
_symmetry_Int_Tables_number   1
_chemical_formula_structural   Li4Cr3(CoO4)3
_chemical_formula_sum   'Li4 Cr3 Co3 O12'
_cell_volume   215.47666202
_cell_formula_units_Z   1
loop_
 _symmetry_equiv_pos_site_id
 _symmetry_equiv_pos_as_xyz
  1  'x, y, z'
loop_
 _atom_site_type_symbol
 _atom_site_label
 _atom_site_symmetry_multiplicity
 _atom_site_fract_x
 _atom_site_fract_y
 _atom_site_fract_z
 _atom_site_occupancy
  Li  Li0  1  0.99130926  0.01058596  0.00889976  1
  Li  Li1  1  0.67535774  0.32274704  0.65776624  1
  Li  Li2  1  0.33333300  0.66666700  0.33333300  1
  Li  Li3  1  0.33333300  0.66666700  0.83333300  1
  Cr  Cr4  1  0.33333300  0.16666700  0.83333300  1
  Cr  Cr5  1  0.99726705  0.49889141  0.49857108  1
  Cr  Cr6  1  0.66939995  0.83444259  0.16809492  1
  Co  Co7  1  0.33333300  0.16666700  0.33333300  1
  Co  Co8  1  0.99688734  0.49994649  0.99794067  1
  Co  Co9  1  0.66977966  0.83338751  0.66872633  1
  O  O10  1  0.02003447  0.27539475  0.23840343  1
  O  O11  1  0.00890533  0.27667387  0.76477685  1
  O  O12  1  0.64663253  0.05793825  0.42826257  1
  O  O13  1  0.30122935  0.41239397  0.07226054  1
  O  O14  1  0.65776167  0.05665913  0.90188915  1
  O  O15  1  0.32149792  0.40701769  0.58594780  1
  O  O16  1  0.67765163  0.61208591  0.43210488  1
  O  O17  1  0.34516908  0.92631531  0.08071820  1
  O  O18  1  0.68726583  0.60773300  0.90863840  1
  O  O19  1  0.36543765  0.92094003  0.59440646  1
  O  O20  1  0.98901537  0.72124709  0.23456212  1
  O  O21  1  0.97940117  0.72560000  0.75802860  1
