# generated using pymatgen
data_Mn12O5F19
_symmetry_space_group_name_H-M   'P 1'
_cell_length_a   4.85909613
_cell_length_b   5.86007751
_cell_length_c   15.91089527
_cell_angle_alpha   90.21032137
_cell_angle_beta   90.23930208
_cell_angle_gamma   90.98166198
_symmetry_Int_Tables_number   1
_chemical_formula_structural   Mn12O5F19
_chemical_formula_sum   'Mn12 O5 F19'
_cell_volume   452.98403192
_cell_formula_units_Z   1
loop_
 _symmetry_equiv_pos_site_id
 _symmetry_equiv_pos_as_xyz
  1  'x, y, z'
loop_
 _atom_site_type_symbol
 _atom_site_label
 _atom_site_symmetry_multiplicity
 _atom_site_fract_x
 _atom_site_fract_y
 _atom_site_fract_z
 _atom_site_occupancy
  Mn  Mn0  1  0.99363642  0.17501466  0.40570675  1
  Mn  Mn1  1  0.01877541  0.85314308  0.24809763  1
  Mn  Mn2  1  0.97312199  0.19017490  0.07824793  1
  Mn  Mn3  1  0.03580960  0.17094649  0.75051320  1
  Mn  Mn4  1  0.01034306  0.85995822  0.58564917  1
  Mn  Mn5  1  0.99897128  0.83615216  0.91827020  1
  Mn  Mn6  1  0.48808320  0.31702802  0.58664687  1
  Mn  Mn7  1  0.50007496  0.34234611  0.91451144  1
  Mn  Mn8  1  0.49663123  0.32555277  0.26079016  1
  Mn  Mn9  1  0.51158492  0.64078048  0.08286945  1
  Mn  Mn10  1  0.51455978  0.64857077  0.41773824  1
  Mn  Mn11  1  0.48880971  0.64754699  0.75002372  1
  O  O12  1  0.21421884  0.12509343  0.30556351  1
  O  O13  1  0.21662187  0.10905931  0.64441462  1
  O  O14  1  0.29611287  0.37612335  0.80816459  1
  O  O15  1  0.70169990  0.39235513  0.01982388  1
  O  O16  1  0.71411189  0.37684669  0.36178335  1
  F  F17  1  0.23453046  0.11830985  0.97172223  1
  F  F18  1  0.23713657  0.87771701  0.13251364  1
  F  F19  1  0.22972669  0.89886309  0.46957343  1
  F  F20  1  0.23850172  0.87999068  0.80986198  1
  F  F21  1  0.27246033  0.37897136  0.14913926  1
  F  F22  1  0.26627960  0.62000088  0.30756599  1
  F  F23  1  0.26189450  0.39401708  0.47603301  1
  F  F24  1  0.26531091  0.61171313  0.63722095  1
  F  F25  1  0.26075510  0.60668033  0.97471095  1
  F  F26  1  0.73334034  0.59836932  0.19776095  1
  F  F27  1  0.73712047  0.62004719  0.53409761  1
  F  F28  1  0.72840196  0.60785339  0.86082568  1
  F  F29  1  0.73887078  0.39073388  0.69196102  1
  F  F30  1  0.76058226  0.10500845  0.19066031  1
  F  F31  1  0.77569718  0.11722186  0.51765582  1
  F  F32  1  0.76569272  0.88021067  0.35712609  1
  F  F33  1  0.76249794  0.89267274  0.02746333  1
  F  F34  1  0.79037156  0.12264734  0.85598771  1
  F  F35  1  0.76766599  0.89227520  0.69930731  1
