# generated using pymatgen
data_LiMnF3
_symmetry_space_group_name_H-M   'P 1'
_cell_length_a   10.66651488
_cell_length_b   10.66651488
_cell_length_c   10.66651488
_cell_angle_alpha   109.72241959
_cell_angle_beta   109.72241959
_cell_angle_gamma   108.96998247
_symmetry_Int_Tables_number   1
_chemical_formula_structural   LiMnF3
_chemical_formula_sum   'Li16 Mn16 F48'
_cell_volume   934.15907472
_cell_formula_units_Z   16
loop_
 _symmetry_equiv_pos_site_id
 _symmetry_equiv_pos_as_xyz
  1  'x, y, z'
loop_
 _atom_site_type_symbol
 _atom_site_label
 _atom_site_symmetry_multiplicity
 _atom_site_fract_x
 _atom_site_fract_y
 _atom_site_fract_z
 _atom_site_occupancy
  Li  Li0  1  0.87364335  0.24696443  0.12136516  1
  Li  Li1  1  0.50000000  0.00000000  0.00000000  1
  Li  Li2  1  0.74696443  0.12560027  0.37332108  1
  Li  Li3  1  0.00000000  0.00000000  0.00000000  1
  Li  Li4  1  0.87500000  0.62500000  0.25000000  1
  Li  Li5  1  0.50000000  0.00000000  0.50000000  1
  Li  Li6  1  0.37500000  0.12500000  0.25000000  1
  Li  Li7  1  0.25227918  0.37364335  0.12667892  1
  Li  Li8  1  0.37439973  0.24772082  0.62136416  1
  Li  Li9  1  0.50000000  0.50000000  0.50000000  1
  Li  Li10  1  0.62560027  0.75227918  0.37863484  1
  Li  Li11  1  0.74772082  0.62635665  0.87332108  1
  Li  Li12  1  0.12500000  0.37500000  0.75000000  1
  Li  Li13  1  0.62500000  0.87500000  0.75000000  1
  Li  Li14  1  0.25303557  0.87439973  0.62667892  1
  Li  Li15  1  0.12635665  0.75303557  0.87863584  1
  Mn  Mn16  1  0.86966882  0.11966882  0.75000000  1
  Mn  Mn17  1  0.50000000  0.50000000  0.00000000  1
  Mn  Mn18  1  0.61966882  0.36966882  0.25000000  1
  Mn  Mn19  1  0.75839239  0.89668054  0.11591411  1
  Mn  Mn20  1  0.71923357  0.35752272  0.61591411  1
  Mn  Mn21  1  0.85752272  0.74160761  0.63828915  1
  Mn  Mn22  1  0.39668054  0.78076643  0.13828915  1
  Mn  Mn23  1  0.00000000  0.50000000  0.00000000  1
  Mn  Mn24  1  0.00000000  0.00000000  0.50000000  1
  Mn  Mn25  1  0.60331946  0.21923357  0.86171085  1
  Mn  Mn26  1  0.14247728  0.25839239  0.36171085  1
  Mn  Mn27  1  0.28076643  0.64247728  0.38408589  1
  Mn  Mn28  1  0.24160761  0.10331946  0.88408589  1
  Mn  Mn29  1  0.13033118  0.88033118  0.25000000  1
  Mn  Mn30  1  0.00000000  0.50000000  0.50000000  1
  Mn  Mn31  1  0.38033118  0.63033118  0.75000000  1
  F  F32  1  0.92474365  0.10182922  0.13511418  1
  F  F33  1  0.90754279  0.09033548  0.36823160  1
  F  F34  1  0.41558291  0.13226088  0.09492168  1
  F  F35  1  0.68164049  0.45758647  0.09551138  1
  F  F36  1  0.70474610  0.13597162  0.52934207  1
  F  F37  1  0.77597761  0.31602613  0.39751036  1
  F  F38  1  0.41851577  0.37846725  0.10248964  1
  F  F39  1  0.17933878  0.08441709  0.21667797  1
  F  F40  1  0.63226088  0.03733919  0.71667797  1
  F  F41  1  0.10662955  0.17540504  0.97065793  1
  F  F42  1  0.86207509  0.58612911  0.40448862  1
  F  F43  1  0.95758647  0.36207509  0.77594597  1
  F  F44  1  0.91387089  0.81835951  0.27594597  1
  F  F45  1  0.53733919  0.32066122  0.40507832  1
  F  F46  1  0.53328596  0.21037153  0.63511418  1
  F  F47  1  0.59033548  0.72210388  0.18279269  1
  F  F48  1  0.96068881  0.59245721  0.68279269  1
  F  F49  1  0.87846725  0.27597761  0.95995148  1
  F  F50  1  0.18397387  0.08148423  0.45995148  1
  F  F51  1  0.67540504  0.20474610  0.06877548  1
  F  F52  1  0.36402838  0.39337045  0.56877548  1
  F  F53  1  0.22210388  0.53931119  0.13176840  1
  F  F54  1  0.28962847  0.42474365  0.32291443  1
  F  F55  1  0.39817078  0.03328596  0.82291443  1
  F  F56  1  0.60182922  0.96671404  0.17708557  1
  F  F57  1  0.71037153  0.57525635  0.67708557  1
  F  F58  1  0.77789612  0.46068881  0.86823160  1
  F  F59  1  0.32459496  0.79525390  0.93122452  1
  F  F60  1  0.63597162  0.60662955  0.43122452  1
  F  F61  1  0.81602613  0.91851577  0.54004852  1
  F  F62  1  0.12153275  0.72402239  0.04004852  1
  F  F63  1  0.40966452  0.27789612  0.81720731  1
  F  F64  1  0.03931119  0.40754279  0.31720731  1
  F  F65  1  0.46671404  0.78962847  0.36488582  1
  F  F66  1  0.46266081  0.67933878  0.59492168  1
  F  F67  1  0.04241353  0.63792491  0.22405403  1
  F  F68  1  0.08612911  0.18164049  0.72405403  1
  F  F69  1  0.13792491  0.41387089  0.59551138  1
  F  F70  1  0.89337045  0.82459496  0.02934207  1
  F  F71  1  0.82066122  0.91558291  0.78332203  1
  F  F72  1  0.36773912  0.96266081  0.28332203  1
  F  F73  1  0.58148423  0.62153275  0.89751036  1
  F  F74  1  0.22402239  0.68397387  0.60248964  1
  F  F75  1  0.29525390  0.86402838  0.47065793  1
  F  F76  1  0.31835951  0.54241353  0.90448862  1
  F  F77  1  0.58441709  0.86773912  0.90507832  1
  F  F78  1  0.09245721  0.90966452  0.63176840  1
  F  F79  1  0.07525635  0.89817078  0.86488582  1
