# generated using pymatgen
data_LiCoSiO4
_symmetry_space_group_name_H-M   'P 1'
_cell_length_a   9.86003582
_cell_length_b   10.10157315
_cell_length_c   16.27832323
_cell_angle_alpha   82.64697966
_cell_angle_beta   89.99996527
_cell_angle_gamma   60.78788758
_symmetry_Int_Tables_number   1
_chemical_formula_structural   LiCoSiO4
_chemical_formula_sum   'Li16 Co16 Si16 O64'
_cell_volume   1399.85035255
_cell_formula_units_Z   16
loop_
 _symmetry_equiv_pos_site_id
 _symmetry_equiv_pos_as_xyz
  1  'x, y, z'
loop_
 _atom_site_type_symbol
 _atom_site_label
 _atom_site_symmetry_multiplicity
 _atom_site_fract_x
 _atom_site_fract_y
 _atom_site_fract_z
 _atom_site_occupancy
  Li  Li0  1  0.80981095  0.98703057  0.99758814  1
  Li  Li1  1  0.20315861  0.98703059  0.49758820  1
  Li  Li2  1  0.57656089  0.72248332  0.74746542  1
  Li  Li3  1  0.07666105  0.66120109  0.74879912  1
  Li  Li4  1  0.30930643  0.55085104  0.99865792  1
  Li  Li5  1  0.70095475  0.72248344  0.24746543  1
  Li  Li6  1  0.80852128  0.48637113  0.99683444  1
  Li  Li7  1  0.26213800  0.66120111  0.24879915  1
  Li  Li8  1  0.13984291  0.55085073  0.49865794  1
  Li  Li9  1  0.70510755  0.48637117  0.49683445  1
  Li  Li10  1  0.57018538  0.22681022  0.74825584  1
  Li  Li11  1  0.08173960  0.15607885  0.74670943  1
  Li  Li12  1  0.30905538  0.05187509  0.99755638  1
  Li  Li13  1  0.20300346  0.22681015  0.24825585  1
  Li  Li14  1  0.76218132  0.15607910  0.24670932  1
  Li  Li15  1  0.63906977  0.05187488  0.49755632  1
  Co  Co16  1  0.26853240  0.84906650  0.87120895  1
  Co  Co17  1  0.77041715  0.78276061  0.87102603  1
  Co  Co18  1  0.88240059  0.84906635  0.37120876  1
  Co  Co19  1  0.44682277  0.78276075  0.37102602  1
  Co  Co20  1  0.32113132  0.67396535  0.62163721  1
  Co  Co21  1  0.88189189  0.60904300  0.62125714  1
  Co  Co22  1  0.00490329  0.67396570  0.12163711  1
  Co  Co23  1  0.50906464  0.60904308  0.12125706  1
  Co  Co24  1  0.27145211  0.34842614  0.87208796  1
  Co  Co25  1  0.76924163  0.28395219  0.86973112  1
  Co  Co26  1  0.38012275  0.34842600  0.37208811  1
  Co  Co27  1  0.94680523  0.28395268  0.36973094  1
  Co  Co28  1  0.82204583  0.16918790  0.62100987  1
  Co  Co29  1  0.38341279  0.11312087  0.62055599  1
  Co  Co30  1  0.00876680  0.16918782  0.12100954  1
  Co  Co31  1  0.50346689  0.11312067  0.12055616  1
  Si  Si32  1  0.91637661  0.98219191  0.80912735  1
  Si  Si33  1  0.10143278  0.98219116  0.30912709  1
  Si  Si34  1  0.98046389  0.85121267  0.56064571  1
  Si  Si35  1  0.53825363  0.79616973  0.55876092  1
  Si  Si36  1  0.16832399  0.85121185  0.06064543  1
  Si  Si37  1  0.66557627  0.79616918  0.05876093  1
  Si  Si38  1  0.41929875  0.53958515  0.81105197  1
  Si  Si39  1  0.91935807  0.47868010  0.80934993  1
  Si  Si40  1  0.04111737  0.53958493  0.31105231  1
  Si  Si41  1  0.60196009  0.47868131  0.30934981  1
  Si  Si42  1  0.47987092  0.35436910  0.56064099  1
  Si  Si43  1  0.04004939  0.29431069  0.55809719  1
  Si  Si44  1  0.16576005  0.35436903  0.06064128  1
  Si  Si45  1  0.66564052  0.29431129  0.05809669  1
  Si  Si46  1  0.42047437  0.03663658  0.81081046  1
  Si  Si47  1  0.54288740  0.03663710  0.31081017  1
  O  O48  1  0.33186984  0.99274221  0.88624374  1
  O  O49  1  0.09262719  0.95793269  0.79790612  1
  O  O50  1  0.59047828  0.88907824  0.79999430  1
  O  O51  1  0.74584599  0.83442101  0.97738941  1
  O  O52  1  0.67538863  0.99274057  0.38624400  1
  O  O53  1  0.54487666  0.95005030  0.57527727  1
  O  O54  1  0.23989490  0.77602962  0.97622849  1
  O  O55  1  0.92563917  0.81454474  0.82135804  1
  O  O56  1  0.94943960  0.95793200  0.29790660  1
  O  O57  1  0.14217079  0.85637792  0.57602490  1
  O  O58  1  0.52044416  0.88907762  0.29999423  1
  O  O59  1  0.41973243  0.83442125  0.47738969  1
  O  O60  1  0.50507325  0.95005026  0.07527721  1
  O  O61  1  0.46575142  0.73950803  0.63846479  1
  O  O62  1  0.96896784  0.73328189  0.63666146  1
  O  O63  1  0.43765351  0.68579537  0.83039427  1
  O  O64  1  0.98407450  0.77603055  0.47622817  1
  O  O65  1  0.25981446  0.81454565  0.32135797  1
  O  O66  1  0.00145068  0.85637784  0.07602503  1
  O  O67  1  0.71316160  0.65790886  0.54689387  1
  O  O68  1  0.83829894  0.57095284  0.88762746  1
  O  O69  1  0.30041286  0.59262074  0.72755575  1
  O  O70  1  0.80855017  0.58851691  0.72547352  1
  O  O71  1  0.79474046  0.73950817  0.13846482  1
  O  O72  1  0.29775009  0.73328212  0.13666174  1
  O  O73  1  0.87655073  0.68579614  0.33039441  1
  O  O74  1  0.33623055  0.49057461  0.88767245  1
  O  O75  1  0.09455974  0.45765220  0.79958869  1
  O  O76  1  0.33643581  0.53123913  0.55325174  1
  O  O77  1  0.62892899  0.65790966  0.04689368  1
  O  O78  1  0.59074830  0.57095216  0.38762733  1
  O  O79  1  0.10696560  0.59262091  0.22755582  1
  O  O80  1  0.60293366  0.58851646  0.22547374  1
  O  O81  1  0.58885522  0.39254136  0.79835454  1
  O  O82  1  0.74236012  0.33587343  0.97593231  1
  O  O83  1  0.17319319  0.49057561  0.38767261  1
  O  O84  1  0.04474254  0.44800445  0.57601652  1
  O  O85  1  0.24331863  0.27662237  0.97780781  1
  O  O86  1  0.92927493  0.31037978  0.82182850  1
  O  O87  1  0.44778855  0.45765198  0.29958823  1
  O  O88  1  0.13232520  0.53123859  0.05325155  1
  O  O89  1  0.64494901  0.35371771  0.57478472  1
  O  O90  1  0.01860258  0.39254131  0.29835469  1
  O  O91  1  0.92176735  0.33587344  0.47593180  1
  O  O92  1  0.50725322  0.44800394  0.07601650  1
  O  O93  1  0.46528307  0.24114665  0.63875105  1
  O  O94  1  0.96825337  0.23221488  0.63581786  1
  O  O95  1  0.48005917  0.27662224  0.47780785  1
  O  O96  1  0.43703335  0.18388024  0.83015469  1
  O  O97  1  0.76034629  0.31037845  0.32182876  1
  O  O98  1  0.00133373  0.35371792  0.07478460  1
  O  O99  1  0.21595343  0.15795192  0.54601077  1
  O  O100  1  0.84138909  0.07154489  0.88937329  1
  O  O101  1  0.79867123  0.09636678  0.72845271  1
  O  O102  1  0.31023500  0.08475526  0.72415314  1
  O  O103  1  0.29357019  0.24114731  0.13875056  1
  O  O104  1  0.79953209  0.23221460  0.13581817  1
  O  O105  1  0.37908591  0.18387998  0.33015457  1
  O  O106  1  0.62609458  0.15795223  0.04601081  1
  O  O107  1  0.83377903  0.02651204  0.55418373  1
  O  O108  1  0.08706544  0.07154563  0.38937320  1
  O  O109  1  0.10496195  0.09636661  0.22845336  1
  O  O110  1  0.60500949  0.08475505  0.22415292  1
  O  O111  1  0.13970878  0.02651283  0.05418392  1
