# generated using pymatgen
data_Li3Co2(SiO4)2
_symmetry_space_group_name_H-M   'P 1'
_cell_length_a   10.73188819
_cell_length_b   5.10845635
_cell_length_c   6.40827893
_cell_angle_alpha   90.00000000
_cell_angle_beta   90.04180534
_cell_angle_gamma   90.00000000
_symmetry_Int_Tables_number   1
_chemical_formula_structural   Li3Co2(SiO4)2
_chemical_formula_sum   'Li6 Co4 Si4 O16'
_cell_volume   351.32343267
_cell_formula_units_Z   2
loop_
 _symmetry_equiv_pos_site_id
 _symmetry_equiv_pos_as_xyz
  1  'x, y, z'
loop_
 _atom_site_type_symbol
 _atom_site_label
 _atom_site_symmetry_multiplicity
 _atom_site_fract_x
 _atom_site_fract_y
 _atom_site_fract_z
 _atom_site_occupancy
  Li  Li0  1  0.09417735  0.69914307  0.87287655  1
  Li  Li1  1  0.32750981  0.69745211  0.61431558  1
  Li  Li2  1  0.40791078  0.19396932  0.36738232  1
  Li  Li3  1  0.59417735  0.80085693  0.87287655  1
  Li  Li4  1  0.82750981  0.80254789  0.61431558  1
  Li  Li5  1  0.90791078  0.30603068  0.36738232  1
  Co  Co6  1  0.09099465  0.68904799  0.35908140  1
  Co  Co7  1  0.41225900  0.18808994  0.86774758  1
  Co  Co8  1  0.59099465  0.81095201  0.35908140  1
  Co  Co9  1  0.91225900  0.31191006  0.86774758  1
  Si  Si10  1  0.15692065  0.18567790  0.61847000  1
  Si  Si11  1  0.33899261  0.68809902  0.11697591  1
  Si  Si12  1  0.65692065  0.31432210  0.61847000  1
  Si  Si13  1  0.83899261  0.81190098  0.11697591  1
  O  O14  1  0.08869525  0.30819087  0.41573233  1
  O  O15  1  0.08203016  0.29549035  0.82810931  1
  O  O16  1  0.15726019  0.86428636  0.61603870  1
  O  O17  1  0.19170659  0.75358191  0.11444735  1
  O  O18  1  0.30603815  0.28834751  0.63901559  1
  O  O19  1  0.36501612  0.36853069  0.10330399  1
  O  O20  1  0.40457774  0.79289613  0.33339484  1
  O  O21  1  0.40323095  0.81433785  0.89916854  1
  O  O22  1  0.58869525  0.19180913  0.41573233  1
  O  O23  1  0.58203016  0.20450965  0.82810931  1
  O  O24  1  0.65726019  0.63571364  0.61603870  1
  O  O25  1  0.69170659  0.74641809  0.11444735  1
  O  O26  1  0.80603815  0.21165249  0.63901559  1
  O  O27  1  0.86501612  0.13146931  0.10330399  1
  O  O28  1  0.90457774  0.70710387  0.33339484  1
  O  O29  1  0.90323095  0.68566215  0.89916854  1
