# generated using pymatgen
data_Li4Mn3(SnO5)2
_symmetry_space_group_name_H-M   'P 1'
_cell_length_a   8.35386304
_cell_length_b   6.64368711
_cell_length_c   8.25232166
_cell_angle_alpha   113.28710853
_cell_angle_beta   84.74654786
_cell_angle_gamma   91.73214464
_symmetry_Int_Tables_number   1
_chemical_formula_structural   Li4Mn3(SnO5)2
_chemical_formula_sum   'Li8 Mn6 Sn4 O20'
_cell_volume   418.92006210
_cell_formula_units_Z   2
loop_
 _symmetry_equiv_pos_site_id
 _symmetry_equiv_pos_as_xyz
  1  'x, y, z'
loop_
 _atom_site_type_symbol
 _atom_site_label
 _atom_site_symmetry_multiplicity
 _atom_site_fract_x
 _atom_site_fract_y
 _atom_site_fract_z
 _atom_site_occupancy
  Li  Li0  1  0.06007207  0.35157520  0.78157535  1
  Li  Li1  1  0.14612440  0.05812415  0.39639978  1
  Li  Li2  1  0.98917619  0.50662507  0.48013270  1
  Li  Li3  1  0.51082381  0.99337493  0.51986730  1
  Li  Li4  1  0.35387560  0.44187585  0.60360022  1
  Li  Li5  1  0.43992793  0.14842480  0.21842465  1
  Li  Li6  1  0.66178272  0.55704205  0.38748342  1
  Li  Li7  1  0.83821728  0.94295795  0.61251658  1
  Mn  Mn8  1  0.09091849  0.21609835  0.10255888  1
  Mn  Mn9  1  0.40908151  0.28390165  0.89744112  1
  Mn  Mn10  1  0.25000000  0.75000000  0.00000000  1
  Mn  Mn11  1  0.75000000  0.25000000  0.00000000  1
  Mn  Mn12  1  0.59442300  0.70808710  0.10420004  1
  Mn  Mn13  1  0.90557700  0.79191290  0.89579996  1
  Sn  Sn14  1  0.29094360  0.60377147  0.30462207  1
  Sn  Sn15  1  0.20905640  0.89622853  0.69537793  1
  Sn  Sn16  1  0.79689690  0.09155177  0.30610181  1
  Sn  Sn17  1  0.70310310  0.40844823  0.69389819  1
  O  O18  1  0.31503157  0.03060532  0.94194114  1
  O  O19  1  0.29040039  0.18266257  0.67571982  1
  O  O20  1  0.20959961  0.31733743  0.32428018  1
  O  O21  1  0.14328215  0.63719911  0.76789349  1
  O  O22  1  0.09397047  0.78693753  0.46643001  1
  O  O23  1  0.18496843  0.46939468  0.05805886  1
  O  O24  1  0.64063936  0.14739006  0.76208058  1
  O  O25  1  0.00998172  0.94327740  0.13329904  1
  O  O26  1  0.59044467  0.28552661  0.46095979  1
  O  O27  1  0.49001828  0.55672260  0.86670096  1
  O  O28  1  0.51023916  0.43637518  0.14411698  1
  O  O29  1  0.40602953  0.71306247  0.53356999  1
  O  O30  1  0.98976084  0.06362482  0.85588302  1
  O  O31  1  0.35671785  0.86280089  0.23210651  1
  O  O32  1  0.82473264  0.52611498  0.92914296  1
  O  O33  1  0.90955533  0.21447339  0.53904021  1
  O  O34  1  0.85936064  0.35260994  0.23791942  1
  O  O35  1  0.80944345  0.67614819  0.66716612  1
  O  O36  1  0.69055655  0.82385181  0.33283388  1
  O  O37  1  0.67526736  0.97388502  0.07085704  1
