# generated using pymatgen
data_LiCoNiO4
_symmetry_space_group_name_H-M   'P 1'
_cell_length_a   5.79590289
_cell_length_b   5.79590299
_cell_length_c   5.79025018
_cell_angle_alpha   120.60701732
_cell_angle_beta   58.19565432
_cell_angle_gamma   92.01472363
_symmetry_Int_Tables_number   1
_chemical_formula_structural   LiCoNiO4
_chemical_formula_sum   'Li2 Co2 Ni2 O8'
_cell_volume   134.85098150
_cell_formula_units_Z   2
loop_
 _symmetry_equiv_pos_site_id
 _symmetry_equiv_pos_as_xyz
  1  'x, y, z'
loop_
 _atom_site_type_symbol
 _atom_site_label
 _atom_site_symmetry_multiplicity
 _atom_site_fract_x
 _atom_site_fract_y
 _atom_site_fract_z
 _atom_site_occupancy
  Li  Li0  1  0.50000000  0.00000000  0.00000000  1
  Li  Li1  1  0.50000000  0.50000000  0.50000000  1
  Co  Co2  1  0.00000000  0.00000000  0.00000000  1
  Co  Co3  1  0.50000000  0.00000000  0.50000000  1
  Ni  Ni4  1  0.00000000  0.50000000  0.00000000  1
  Ni  Ni5  1  0.00000000  0.00000000  0.50000000  1
  O  O6  1  0.20495045  0.77310097  0.02190850  1
  O  O7  1  0.25106390  0.21491013  0.96675501  1
  O  O8  1  0.25119247  0.22685895  0.52190850  1
  O  O9  1  0.25184588  0.78218109  0.53324499  1
  O  O10  1  0.74815412  0.21781891  0.46675501  1
  O  O11  1  0.74880753  0.77314105  0.47809150  1
  O  O12  1  0.74893610  0.78508987  0.03324499  1
  O  O13  1  0.79504955  0.22689903  0.97809150  1
