# generated using pymatgen
data_La3SmV2Cr2O12
_symmetry_space_group_name_H-M   'P 1'
_cell_length_a   7.88550700
_cell_length_b   7.88329923
_cell_length_c   7.81816045
_cell_angle_alpha   90.00000000
_cell_angle_beta   90.00000000
_cell_angle_gamma   90.00000000
_symmetry_Int_Tables_number   1
_chemical_formula_structural   La3SmV2Cr2O12
_chemical_formula_sum   'La6 Sm2 V4 Cr4 O24'
_cell_volume   486.00665062
_cell_formula_units_Z   2
loop_
 _symmetry_equiv_pos_site_id
 _symmetry_equiv_pos_as_xyz
  1  'x, y, z'
loop_
 _atom_site_type_symbol
 _atom_site_label
 _atom_site_symmetry_multiplicity
 _atom_site_fract_x
 _atom_site_fract_y
 _atom_site_fract_z
 _atom_site_occupancy
  La  La0  1  0.25000000  0.25054902  0.25000000  1
  La  La1  1  0.25000000  0.25054902  0.75000000  1
  La  La2  1  0.25000000  0.74607823  0.25000000  1
  La  La3  1  0.25000000  0.74607823  0.75000000  1
  La  La4  1  0.75000000  0.74905018  0.25000000  1
  La  La5  1  0.75000000  0.74905018  0.75000000  1
  Sm  Sm6  1  0.75000000  0.25461992  0.25000000  1
  Sm  Sm7  1  0.75000000  0.25461992  0.75000000  1
  V  V8  1  0.99914308  0.00108838  0.00000000  1
  V  V9  1  0.99914308  0.00108838  0.50000000  1
  V  V10  1  0.50085692  0.00108838  0.00000000  1
  V  V11  1  0.50085692  0.00108838  0.50000000  1
  Cr  Cr12  1  0.99926107  0.49940589  -0.00000000  1
  Cr  Cr13  1  0.99926107  0.49940589  0.50000000  1
  Cr  Cr14  1  0.50073893  0.49940589  -0.00000000  1
  Cr  Cr15  1  0.50073893  0.49940589  0.50000000  1
  O  O16  1  0.25000000  0.99703246  0.00000000  1
  O  O17  1  0.25000000  0.99703246  0.50000000  1
  O  O18  1  0.25000000  0.49887594  -0.00000000  1
  O  O19  1  0.25000000  0.49887594  0.50000000  1
  O  O20  1  0.75000000  0.00734959  -0.00000000  1
  O  O21  1  0.75000000  0.00734959  0.50000000  1
  O  O22  1  0.75000000  0.49652682  0.00000000  1
  O  O23  1  0.75000000  0.49652682  0.50000000  1
  O  O24  1  0.99458408  0.25286137  -0.00000000  1
  O  O25  1  0.99458408  0.25286137  0.50000000  1
  O  O26  1  0.00099955  0.74744523  0.00000000  1
  O  O27  1  0.00099955  0.74744523  0.50000000  1
  O  O28  1  0.50541592  0.25286137  -0.00000000  1
  O  O29  1  0.50541592  0.25286137  0.50000000  1
  O  O30  1  0.49900045  0.74744523  0.00000000  1
  O  O31  1  0.49900045  0.74744523  0.50000000  1
  O  O32  1  0.99829923  0.00167334  0.25000000  1
  O  O33  1  0.99829923  0.00167334  0.75000000  1
  O  O34  1  0.99749968  0.49748470  0.25000000  1
  O  O35  1  0.99749968  0.49748470  0.75000000  1
  O  O36  1  0.50170077  0.00167334  0.25000000  1
  O  O37  1  0.50170077  0.00167334  0.75000000  1
  O  O38  1  0.50250032  0.49748470  0.25000000  1
  O  O39  1  0.50250032  0.49748470  0.75000000  1
