# generated using pymatgen
data_FeOF
_symmetry_space_group_name_H-M   'P 1'
_cell_length_a   4.75330955
_cell_length_b   4.76836867
_cell_length_c   12.26487478
_cell_angle_alpha   90.00000000
_cell_angle_beta   90.00000000
_cell_angle_gamma   90.09027268
_symmetry_Int_Tables_number   1
_chemical_formula_structural   FeOF
_chemical_formula_sum   'Fe8 O8 F8'
_cell_volume   277.98957058
_cell_formula_units_Z   8
loop_
 _symmetry_equiv_pos_site_id
 _symmetry_equiv_pos_as_xyz
  1  'x, y, z'
loop_
 _atom_site_type_symbol
 _atom_site_label
 _atom_site_symmetry_multiplicity
 _atom_site_fract_x
 _atom_site_fract_y
 _atom_site_fract_z
 _atom_site_occupancy
  Fe  Fe0  1  0.04741303  0.00797553  0.75036935  1
  Fe  Fe1  1  0.97235410  0.97069665  0.00052634  1
  Fe  Fe2  1  0.97235410  0.97069665  0.24947366  1
  Fe  Fe3  1  0.04741303  0.00797553  0.49963065  1
  Fe  Fe4  1  0.55477392  0.48084271  0.12500000  1
  Fe  Fe5  1  0.46163183  0.49850961  0.62500000  1
  Fe  Fe6  1  0.47273968  0.52601063  0.87537259  1
  Fe  Fe7  1  0.47273968  0.52601063  0.37462741  1
  O  O8  1  0.18787730  0.81622810  0.87861105  1
  O  O9  1  0.18787730  0.81622810  0.37138895  1
  O  O10  1  0.20093137  0.81865570  0.62500000  1
  O  O11  1  0.31115093  0.32049756  0.49640799  1
  O  O12  1  0.31115093  0.32049756  0.75359201  1
  O  O13  1  0.68943548  0.67799697  0.99804602  1
  O  O14  1  0.68943548  0.67799697  0.25195398  1
  O  O15  1  0.81723823  0.16946073  0.12500000  1
  F  F16  1  0.19887480  0.78024642  0.12500000  1
  F  F17  1  0.30016870  0.29376892  0.00260833  1
  F  F18  1  0.30016870  0.29376892  0.24739167  1
  F  F19  1  0.70009676  0.70981466  0.50104386  1
  F  F20  1  0.70009676  0.70981466  0.74895614  1
  F  F21  1  0.79769043  0.19883615  0.37639700  1
  F  F22  1  0.80869706  0.20863151  0.62500000  1
  F  F23  1  0.79769043  0.19883615  0.87360300  1
