# generated using pymatgen
data_Li3P2WO8
_symmetry_space_group_name_H-M   'P 1'
_cell_length_a   5.06252002
_cell_length_b   18.53454542
_cell_length_c   6.36266367
_cell_angle_alpha   90.00000000
_cell_angle_beta   92.05060124
_cell_angle_gamma   90.00000000
_symmetry_Int_Tables_number   1
_chemical_formula_structural   Li3P2WO8
_chemical_formula_sum   'Li12 P8 W4 O32'
_cell_volume   596.63600103
_cell_formula_units_Z   4
loop_
 _symmetry_equiv_pos_site_id
 _symmetry_equiv_pos_as_xyz
  1  'x, y, z'
loop_
 _atom_site_type_symbol
 _atom_site_label
 _atom_site_symmetry_multiplicity
 _atom_site_fract_x
 _atom_site_fract_y
 _atom_site_fract_z
 _atom_site_occupancy
  Li  Li0  1  0.19513231  0.70114693  0.81141223  1
  Li  Li1  1  0.22275365  0.88027908  0.50270383  1
  Li  Li2  1  0.26723862  0.04975645  0.28929039  1
  Li  Li3  1  0.27724635  0.38027908  0.99729617  1
  Li  Li4  1  0.23276138  0.54975645  0.21070961  1
  Li  Li5  1  0.30486769  0.20114593  0.68858777  1
  Li  Li6  1  0.69513231  0.79885307  0.31141223  1
  Li  Li7  1  0.76723862  0.45024355  0.78929039  1
  Li  Li8  1  0.72275365  0.61972092  0.00270383  1
  Li  Li9  1  0.73276138  0.95024355  0.71070961  1
  Li  Li10  1  0.77724635  0.11972092  0.49729617  1
  Li  Li11  1  0.80486769  0.29885307  0.18858777  1
  P  P12  1  0.18035041  0.71487093  0.29123773  1
  P  P13  1  0.21949861  0.53498489  0.73140135  1
  P  P14  1  0.28050139  0.03498489  0.76859865  1
  P  P15  1  0.31964959  0.21487093  0.20876227  1
  P  P16  1  0.68035041  0.78512907  0.79123773  1
  P  P17  1  0.71949861  0.96501511  0.23140135  1
  P  P18  1  0.78050139  0.46501511  0.26859865  1
  P  P19  1  0.81964959  0.28512907  0.70876227  1
  W  W20  1  0.19858335  0.87369873  0.01682393  1
  W  W21  1  0.30141665  0.37369873  0.48317607  1
  W  W22  1  0.69858335  0.62630127  0.51682393  1
  W  W23  1  0.80141665  0.12630127  0.98317607  1
  O  O24  1  0.01433460  0.20146822  0.18873173  1
  O  O25  1  0.05216672  0.69048488  0.49892391  1
  O  O26  1  0.08227052  0.44392544  0.26271131  1
  O  O27  1  0.06136319  0.67463773  0.10073982  1
  O  O28  1  0.16166560  0.06242095  0.97571188  1
  O  O29  1  0.13152926  0.06642514  0.57721646  1
  O  O30  1  0.12119059  0.79854879  0.27484808  1
  O  O31  1  0.21989190  0.45000762  0.73705156  1
  O  O32  1  0.28010810  0.95000762  0.76294844  1
  O  O33  1  0.37880941  0.29854879  0.22515192  1
  O  O34  1  0.36847074  0.56642514  0.92278354  1
  O  O35  1  0.33833440  0.56242095  0.52428812  1
  O  O36  1  0.43863681  0.17463773  0.39926018  1
  O  O37  1  0.41772948  0.94392544  0.23728869  1
  O  O38  1  0.44783328  0.19048488  0.00107609  1
  O  O39  1  0.48566540  0.70146822  0.31126827  1
  O  O40  1  0.51433460  0.29853178  0.68873173  1
  O  O41  1  0.55216672  0.80951512  0.99892391  1
  O  O42  1  0.58227052  0.05607456  0.76271131  1
  O  O43  1  0.56136319  0.82536227  0.60073982  1
  O  O44  1  0.66166560  0.43757905  0.47571188  1
  O  O45  1  0.63152926  0.43357486  0.07721646  1
  O  O46  1  0.62119059  0.70145121  0.77484808  1
  O  O47  1  0.71989190  0.04999238  0.23705156  1
  O  O48  1  0.78010810  0.54999238  0.26294844  1
  O  O49  1  0.87880941  0.20145121  0.72515192  1
  O  O50  1  0.86847074  0.93357486  0.42278354  1
  O  O51  1  0.83833440  0.93757905  0.02428812  1
  O  O52  1  0.93863681  0.32536227  0.89926018  1
  O  O53  1  0.91772948  0.55607456  0.73728869  1
  O  O54  1  0.94783328  0.30951512  0.50107609  1
  O  O55  1  0.98566540  0.79853178  0.81126827  1
