# generated using pymatgen
data_Li4Ti3V3O12
_symmetry_space_group_name_H-M   'P 1'
_cell_length_a   6.05010815
_cell_length_b   7.91346171
_cell_length_c   5.18987880
_cell_angle_alpha   77.10510631
_cell_angle_beta   72.97901548
_cell_angle_gamma   77.74818037
_symmetry_Int_Tables_number   1
_chemical_formula_structural   Li4Ti3V3O12
_chemical_formula_sum   'Li4 Ti3 V3 O12'
_cell_volume   228.70780148
_cell_formula_units_Z   1
loop_
 _symmetry_equiv_pos_site_id
 _symmetry_equiv_pos_as_xyz
  1  'x, y, z'
loop_
 _atom_site_type_symbol
 _atom_site_label
 _atom_site_symmetry_multiplicity
 _atom_site_fract_x
 _atom_site_fract_y
 _atom_site_fract_z
 _atom_site_occupancy
  Li  Li0  1  0.49894354  0.50121728  0.50242391  1
  Li  Li1  1  0.16772346  0.83211572  0.49757609  1
  Li  Li2  1  0.66701420  0.33360127  0.99704635  1
  Li  Li3  1  0.99965280  0.99973173  0.00295365  1
  Ti  Ti4  1  0.66534547  0.83443871  0.50672185  1
  Ti  Ti5  1  0.33333300  0.16666700  0.50000000  1
  Ti  Ti6  1  0.00132053  0.49889429  0.49327815  1
  V  V7  1  0.83333300  0.66666700  0.00000000  1
  V  V8  1  0.50224029  0.99848640  0.99672060  1
  V  V9  1  0.16442671  0.33484660  0.00327940  1
  O  O10  1  0.81568480  0.90244402  0.75592220  1
  O  O11  1  0.97455930  0.74525757  0.27505015  1
  O  O12  1  0.69210770  0.58807543  0.72494985  1
  O  O13  1  0.34831438  0.93046085  0.72757632  1
  O  O14  1  0.85098220  0.43088998  0.24407780  1
  O  O15  1  0.52336809  0.76143770  0.25996614  1
  O  O16  1  0.47197432  0.24314347  0.75545075  1
  O  O17  1  0.14329891  0.57189630  0.74003386  1
  O  O18  1  0.64617137  0.07306844  0.26307197  1
  O  O19  1  0.31835162  0.40287215  0.27242368  1
  O  O20  1  0.02049563  0.26026456  0.73692803  1
  O  O21  1  0.19469268  0.09018953  0.24454925  1
