# generated using pymatgen
data_Li3Fe2(SiO4)2
_symmetry_space_group_name_H-M   'P 1'
_cell_length_a   5.46798002
_cell_length_b   8.65698932
_cell_length_c   8.33730949
_cell_angle_alpha   76.46365247
_cell_angle_beta   89.96061898
_cell_angle_gamma   90.05710014
_symmetry_Int_Tables_number   1
_chemical_formula_structural   Li3Fe2(SiO4)2
_chemical_formula_sum   'Li6 Fe4 Si4 O16'
_cell_volume   383.69363352
_cell_formula_units_Z   2
loop_
 _symmetry_equiv_pos_site_id
 _symmetry_equiv_pos_as_xyz
  1  'x, y, z'
loop_
 _atom_site_type_symbol
 _atom_site_label
 _atom_site_symmetry_multiplicity
 _atom_site_fract_x
 _atom_site_fract_y
 _atom_site_fract_z
 _atom_site_occupancy
  Li  Li0  1  0.84544091  0.06825975  0.03709521  1
  Li  Li1  1  0.32757907  0.35423533  0.45047132  1
  Li  Li2  1  0.15491261  0.56808354  0.03720655  1
  Li  Li3  1  0.67428747  0.40109489  0.95192525  1
  Li  Li4  1  0.67223374  0.85431813  0.45052388  1
  Li  Li5  1  0.32576196  0.90112627  0.95211617  1
  Fe  Fe6  1  0.31758825  0.20207408  0.14293635  1
  Fe  Fe7  1  0.82403218  0.37778793  0.62035070  1
  Fe  Fe8  1  0.68234488  0.70201862  0.14274231  1
  Fe  Fe9  1  0.17604416  0.87748484  0.62066289  1
  Si  Si10  1  0.68077586  0.00641093  0.75657657  1
  Si  Si11  1  0.83368222  0.33199724  0.25352594  1
  Si  Si12  1  0.31953415  0.50629565  0.75659669  1
  Si  Si13  1  0.16600878  0.83192102  0.25361983  1
  O  O14  1  0.17457700  0.00238019  0.11080304  1
  O  O15  1  0.38658746  0.01336790  0.70589654  1
  O  O16  1  0.69697490  0.20788071  0.16118673  1
  O  O17  1  0.11744665  0.28457169  0.30445730  1
  O  O18  1  0.78278460  0.18122925  0.77615118  1
  O  O19  1  0.68184209  0.35426203  0.41935732  1
  O  O20  1  0.82524181  0.50246871  0.11068694  1
  O  O21  1  0.16023032  0.43893071  0.61908440  1
  O  O22  1  0.30709197  0.39785105  0.94479887  1
  O  O23  1  0.61379754  0.51366871  0.70569987  1
  O  O24  1  0.30285435  0.70798506  0.16120692  1
  O  O25  1  0.88211892  0.78407947  0.30471304  1
  O  O26  1  0.21728832  0.68091400  0.77629436  1
  O  O27  1  0.31779765  0.85445890  0.41926183  1
  O  O28  1  0.84022878  0.93901893  0.61909083  1
  O  O29  1  0.69293638  0.89800543  0.94478015  1
