# generated using pymatgen
data_Li13Mn8O24
_symmetry_space_group_name_H-M   'P 1'
_cell_length_a   4.98006870
_cell_length_b   4.98004950
_cell_length_c   19.42700364
_cell_angle_alpha   85.36546117
_cell_angle_beta   94.63064378
_cell_angle_gamma   60.31952101
_symmetry_Int_Tables_number   1
_chemical_formula_structural   Li13Mn8O24
_chemical_formula_sum   'Li13 Mn8 O24'
_cell_volume   413.15151448
_cell_formula_units_Z   1
loop_
 _symmetry_equiv_pos_site_id
 _symmetry_equiv_pos_as_xyz
  1  'x, y, z'
loop_
 _atom_site_type_symbol
 _atom_site_label
 _atom_site_symmetry_multiplicity
 _atom_site_fract_x
 _atom_site_fract_y
 _atom_site_fract_z
 _atom_site_occupancy
  Li  Li0  1  0.00767389  0.49331807  0.49962292  1
  Li  Li1  1  0.24874005  0.25833319  0.87390791  1
  Li  Li2  1  0.99342881  0.50743644  0.00041081  1
  Li  Li3  1  0.50432745  0.00338008  0.75002313  1
  Li  Li4  1  0.15075950  0.65360290  0.24965403  1
  Li  Li5  1  0.49991643  0.00006680  0.24991049  1
  Li  Li6  1  0.34601502  0.83955499  0.99973303  1
  Li  Li7  1  0.65415170  0.16022978  0.50027280  1
  Li  Li8  1  0.33731703  0.84840750  0.49984453  1
  Li  Li9  1  0.66218856  0.15182764  0.00016079  1
  Li  Li10  1  0.84411058  0.34114367  0.75021214  1
  Li  Li11  1  0.75869128  0.74851874  0.62611080  1
  Li  Li12  1  0.84912845  0.34641472  0.25018402  1
  Mn  Mn13  1  0.07976977  0.08146507  0.62517180  1
  Mn  Mn14  1  0.08297116  0.08237431  0.12502736  1
  Mn  Mn15  1  0.41127355  0.42032345  0.62550649  1
  Mn  Mn16  1  0.41802656  0.41732287  0.12501131  1
  Mn  Mn17  1  0.58141104  0.57954041  0.87485968  1
  Mn  Mn18  1  0.58203177  0.58267133  0.37499063  1
  Mn  Mn19  1  0.92029342  0.91103534  0.87451596  1
  Mn  Mn20  1  0.91683232  0.91754069  0.37499344  1
  O  O21  1  0.14383906  0.34741724  0.68051991  1
  O  O22  1  0.35352469  0.14518144  0.56722226  1
  O  O23  1  0.16038094  0.33984745  0.18343782  1
  O  O24  1  0.28586940  0.56607464  0.93162156  1
  O  O25  1  0.06616628  0.78601968  0.56838124  1
  O  O26  1  0.33821903  0.16183023  0.06697520  1
  O  O27  1  0.21775926  0.93138443  0.82152668  1
  O  O28  1  0.28616224  0.58624289  0.43211990  1
  O  O29  1  0.08631545  0.78651334  0.06788545  1
  O  O30  1  0.58173030  0.27550018  0.82025764  1
  O  O31  1  0.43155380  0.71773332  0.67848654  1
  O  O32  1  0.21401871  0.91272521  0.31789644  1
  O  O33  1  0.77572278  0.08165603  0.67976190  1
  O  O34  1  0.58722107  0.28565015  0.31791565  1
  O  O35  1  0.41275202  0.71431108  0.18208554  1
  O  O36  1  0.92914546  0.21196991  0.93126869  1
  O  O37  1  0.71231896  0.42912772  0.56879568  1
  O  O38  1  0.78605138  0.08729098  0.18213006  1
  O  O39  1  0.64513621  0.85332247  0.93280599  1
  O  O40  1  0.91361202  0.21355415  0.43215027  1
  O  O41  1  0.71386219  0.41372267  0.06788668  1
  O  O42  1  0.84756403  0.64342603  0.81953064  1
  O  O43  1  0.66148212  0.83803061  0.43302042  1
  O  O44  1  0.83967130  0.66001714  0.31658679  1
