# generated using pymatgen
data_LiTi2VO6
_symmetry_space_group_name_H-M   'P 1'
_cell_length_a   2.99854404
_cell_length_b   6.59169940
_cell_length_c   6.02016854
_cell_angle_alpha   102.41800642
_cell_angle_beta   90.02033547
_cell_angle_gamma   103.12986775
_symmetry_Int_Tables_number   1
_chemical_formula_structural   LiTi2VO6
_chemical_formula_sum   'Li1 Ti2 V1 O6'
_cell_volume   113.01831484
_cell_formula_units_Z   1
loop_
 _symmetry_equiv_pos_site_id
 _symmetry_equiv_pos_as_xyz
  1  'x, y, z'
loop_
 _atom_site_type_symbol
 _atom_site_label
 _atom_site_symmetry_multiplicity
 _atom_site_fract_x
 _atom_site_fract_y
 _atom_site_fract_z
 _atom_site_occupancy
  Li  Li0  1  0.33341299  0.66677762  0.16674407  1
  Ti  Ti1  1  0.01415888  0.02863518  0.96842773  1
  Ti  Ti2  1  0.65218788  0.30472615  0.36486176  1
  V  V3  1  0.33354956  0.66659070  0.66663865  1
  O  O4  1  0.81452949  0.62940385  0.43079628  1
  O  O5  1  0.16052610  0.32117857  0.12871934  1
  O  O6  1  0.85213996  0.70393066  0.90263939  1
  O  O7  1  0.16612885  0.33214144  0.56572641  1
  O  O8  1  0.50633064  0.01218509  0.20455115  1
  O  O9  1  0.50036865  0.00109774  0.76756224  1
