# generated using pymatgen
data_Li3Ti2V2O8
_symmetry_space_group_name_H-M   'P 1'
_cell_length_a   5.98981616
_cell_length_b   5.99297431
_cell_length_c   5.97081219
_cell_angle_alpha   60.14352134
_cell_angle_beta   60.10875582
_cell_angle_gamma   89.83278623
_symmetry_Int_Tables_number   1
_chemical_formula_structural   Li3Ti2V2O8
_chemical_formula_sum   'Li3 Ti2 V2 O8'
_cell_volume   152.34967591
_cell_formula_units_Z   1
loop_
 _symmetry_equiv_pos_site_id
 _symmetry_equiv_pos_as_xyz
  1  'x, y, z'
loop_
 _atom_site_type_symbol
 _atom_site_label
 _atom_site_symmetry_multiplicity
 _atom_site_fract_x
 _atom_site_fract_y
 _atom_site_fract_z
 _atom_site_occupancy
  Li  Li0  1  0.50000000  0.50000000  0.50000000  1
  Li  Li1  1  0.50000000  0.50000000  0.00000000  1
  Li  Li2  1  0.50000000  0.00000000  0.50000000  1
  Ti  Ti3  1  0.00000000  0.00000000  0.50000000  1
  Ti  Ti4  1  0.00000000  0.00000000  0.00000000  1
  V  V5  1  0.00000000  0.50000000  0.50000000  1
  V  V6  1  0.50000000  0.00000000  0.00000000  1
  O  O7  1  0.24660047  0.77908065  0.47365084  1
  O  O8  1  0.77093045  0.77912793  0.97488523  1
  O  O9  1  0.24647887  0.77894150  0.00078897  1
  O  O10  1  0.22904106  0.22952263  0.52079965  1
  O  O11  1  0.77095894  0.77047737  0.47920035  1
  O  O12  1  0.75352113  0.22105850  0.99921103  1
  O  O13  1  0.22906955  0.22087207  0.02511477  1
  O  O14  1  0.75339953  0.22091935  0.52634916  1
