# generated using pymatgen
data_Li2Ti2VO6
_symmetry_space_group_name_H-M   'P 1'
_cell_length_a   6.71013083
_cell_length_b   6.76629014
_cell_length_c   8.52215380
_cell_angle_alpha   71.06125613
_cell_angle_beta   109.24229587
_cell_angle_gamma   96.93391568
_symmetry_Int_Tables_number   1
_chemical_formula_structural   Li2Ti2VO6
_chemical_formula_sum   'Li6 Ti6 V3 O18'
_cell_volume   345.49549904
_cell_formula_units_Z   3
loop_
 _symmetry_equiv_pos_site_id
 _symmetry_equiv_pos_as_xyz
  1  'x, y, z'
loop_
 _atom_site_type_symbol
 _atom_site_label
 _atom_site_symmetry_multiplicity
 _atom_site_fract_x
 _atom_site_fract_y
 _atom_site_fract_z
 _atom_site_occupancy
  Li  Li0  1  0.00516274  0.66841671  0.83708110  1
  Li  Li1  1  0.00612698  0.33853796  0.17029013  1
  Li  Li2  1  0.33021923  0.33055945  0.50103081  1
  Li  Li3  1  0.33644777  0.00277355  0.83230319  1
  Li  Li4  1  0.66150326  0.66491629  0.49625290  1
  Li  Li5  1  0.66053902  0.99479504  0.16304287  1
  Ti  Ti6  1  0.01419550  0.67174112  0.33944640  1
  Ti  Ti7  1  0.00901903  0.33430035  0.67113039  1
  Ti  Ti8  1  0.65764797  0.99903365  0.66220261  1
  Ti  Ti9  1  0.65247150  0.66159188  0.99388660  1
  Ti  Ti10  1  0.01603470  0.00251792  0.00587538  1
  Ti  Ti11  1  0.65063230  0.33081508  0.32745762  1
  V  V12  1  0.33333300  0.66666700  0.66666700  1
  V  V13  1  0.34014250  0.33895803  0.00079396  1
  V  V14  1  0.32652450  0.99437497  0.33253904  1
  O  O15  1  0.35117652  0.66736238  0.91394760  1
  O  O16  1  0.67865656  0.97239709  0.91367326  1
  O  O17  1  0.31533433  0.01210671  0.07643927  1
  O  O18  1  0.31548948  0.66597062  0.41938640  1
  O  O19  1  0.30446669  0.33379997  0.74233297  1
  O  O20  1  0.67008080  0.69201503  0.75550475  1
  O  O21  1  0.35133267  0.32122629  0.25689373  1
  O  O22  1  0.36219931  0.99953403  0.59100003  1
  O  O23  1  0.68582869  0.64682493  0.24599487  1
  O  O24  1  0.68155972  0.31510013  0.57121895  1
  O  O25  1  0.99358358  0.98413930  0.23384206  1
  O  O26  1  0.99658520  0.64131797  0.57782825  1
  O  O27  1  0.00976698  0.31697679  0.91005665  1
  O  O28  1  0.67308342  0.34919470  0.09949194  1
  O  O29  1  0.65689902  0.01635621  0.42327635  1
  O  O30  1  0.98083831  0.68650807  0.08733813  1
  O  O31  1  0.98801044  0.36093591  0.41965974  1
  O  O32  1  0.98510728  0.01823387  0.76211405  1
