# generated using pymatgen
data_Mn3O2F5
_symmetry_space_group_name_H-M   'P 1'
_cell_length_a   8.43001932
_cell_length_b   13.89236130
_cell_length_c   6.42829684
_cell_angle_alpha   89.84807875
_cell_angle_beta   67.78404412
_cell_angle_gamma   145.30680553
_symmetry_Int_Tables_number   1
_chemical_formula_structural   Mn3O2F5
_chemical_formula_sum   'Mn6 O4 F10'
_cell_volume   318.82756862
_cell_formula_units_Z   2
loop_
 _symmetry_equiv_pos_site_id
 _symmetry_equiv_pos_as_xyz
  1  'x, y, z'
loop_
 _atom_site_type_symbol
 _atom_site_label
 _atom_site_symmetry_multiplicity
 _atom_site_fract_x
 _atom_site_fract_y
 _atom_site_fract_z
 _atom_site_occupancy
  Mn  Mn0  1  0.00345953  0.11055753  0.99961196  1
  Mn  Mn1  1  0.49992299  0.99934311  0.50203584  1
  Mn  Mn2  1  0.50238316  0.00163453  0.00072924  1
  Mn  Mn3  1  0.49951255  0.49920115  0.00402998  1
  Mn  Mn4  1  0.50298848  0.50189504  0.50173429  1
  Mn  Mn5  1  0.00272689  0.89248864  0.99896071  1
  O  O6  1  0.00243592  0.79987250  0.22147871  1
  O  O7  1  0.99971362  0.79819536  0.78055884  1
  O  O8  1  0.00280922  0.20373776  0.77987943  1
  O  O9  1  0.00017979  0.20088976  0.22350144  1
  F  F10  1  0.00505138  0.00212215  0.19059031  1
  F  F11  1  0.00848450  0.00447491  0.80389135  1
  F  F12  1  0.59625546  0.44452894  0.70724228  1
  F  F13  1  0.59454014  0.15082061  0.70486223  1
  F  F14  1  0.56072209  0.11104170  0.22329088  1
  F  F15  1  0.56487796  0.45142864  0.22244036  1
  F  F16  1  0.43968428  0.88889395  0.78192407  1
  F  F17  1  0.43907194  0.54998290  0.78369935  1
  F  F18  1  0.40717386  0.55659962  0.29778289  1
  F  F19  1  0.41272824  0.85198120  0.29297686  1
