# generated using pymatgen
data_NaV5O10
_symmetry_space_group_name_H-M   'P 1'
_cell_length_a   6.04264452
_cell_length_b   7.32382867
_cell_length_c   5.61303122
_cell_angle_alpha   65.36808993
_cell_angle_beta   58.54483303
_cell_angle_gamma   79.51583129
_symmetry_Int_Tables_number   1
_chemical_formula_structural   NaV5O10
_chemical_formula_sum   'Na1 V5 O10'
_cell_volume   192.41815437
_cell_formula_units_Z   1
loop_
 _symmetry_equiv_pos_site_id
 _symmetry_equiv_pos_as_xyz
  1  'x, y, z'
loop_
 _atom_site_type_symbol
 _atom_site_label
 _atom_site_symmetry_multiplicity
 _atom_site_fract_x
 _atom_site_fract_y
 _atom_site_fract_z
 _atom_site_occupancy
  Na  Na0  1  0.98187067  0.26876934  0.30667917  1
  V  V1  1  0.00473970  0.00588347  0.97029362  1
  V  V2  1  0.48635244  0.40094069  0.31160056  1
  V  V3  1  0.51360725  0.16134434  0.96933527  1
  V  V4  1  0.00279013  0.77176822  0.64229757  1
  V  V5  1  0.50246775  0.62962192  0.64229915  1
  O  O6  1  0.21259559  0.01125766  0.18912653  1
  O  O7  1  0.36107878  0.42100754  0.04246365  1
  O  O8  1  0.68615877  0.16675910  0.16181122  1
  O  O9  1  0.79504091  0.98722648  0.80857493  1
  O  O10  1  0.19609549  0.21409007  0.66662948  1
  O  O11  1  0.31896145  0.62572353  0.45738042  1
  O  O12  1  0.63031654  0.37198955  0.57718418  1
  O  O13  1  0.80231893  0.77999990  0.41421467  1
  O  O14  1  0.21313943  0.80669608  0.79067488  1
  O  O15  1  0.79246517  0.57692612  0.94943368  1
