# generated using pymatgen
data_Li2Mn3WO8
_symmetry_space_group_name_H-M   'P 1'
_cell_length_a   9.09924230
_cell_length_b   8.52205293
_cell_length_c   8.51085379
_cell_angle_alpha   89.99989245
_cell_angle_beta   90.00026156
_cell_angle_gamma   90.00008546
_symmetry_Int_Tables_number   1
_chemical_formula_structural   Li2Mn3WO8
_chemical_formula_sum   'Li8 Mn12 W4 O32'
_cell_volume   659.96755703
_cell_formula_units_Z   4
loop_
 _symmetry_equiv_pos_site_id
 _symmetry_equiv_pos_as_xyz
  1  'x, y, z'
loop_
 _atom_site_type_symbol
 _atom_site_label
 _atom_site_symmetry_multiplicity
 _atom_site_fract_x
 _atom_site_fract_y
 _atom_site_fract_z
 _atom_site_occupancy
  Li  Li0  1  0.00265648  0.99895447  0.99609541  1
  Li  Li1  1  0.24950209  0.26034294  0.24776035  1
  Li  Li2  1  0.25048402  0.73965021  0.74776541  1
  Li  Li3  1  0.49735121  0.00104458  0.49608384  1
  Li  Li4  1  0.50263326  0.50097041  0.00380713  1
  Li  Li5  1  0.74933651  0.23974450  0.75219664  1
  Li  Li6  1  0.75066646  0.76026897  0.25219541  1
  Li  Li7  1  0.99736246  0.49904943  0.50383658  1
  Mn  Mn8  1  0.11434180  0.14426929  0.61966650  1
  Mn  Mn9  1  0.12480571  0.38592309  0.87787240  1
  Mn  Mn10  1  0.12989876  0.62113508  0.12901159  1
  Mn  Mn11  1  0.37009721  0.37885685  0.62899852  1
  Mn  Mn12  1  0.37518804  0.61406336  0.37785652  1
  Mn  Mn13  1  0.38568632  0.85572113  0.11966610  1
  Mn  Mn14  1  0.61438819  0.35592116  0.38030654  1
  Mn  Mn15  1  0.62471370  0.11405823  0.12218794  1
  Mn  Mn16  1  0.62999873  0.87885067  0.87107266  1
  Mn  Mn17  1  0.87001582  0.12116080  0.37106775  1
  Mn  Mn18  1  0.87528235  0.88595780  0.62216855  1
  Mn  Mn19  1  0.88562753  0.64413155  0.88031426  1
  W  W20  1  0.13300058  0.87442547  0.37851406  1
  W  W21  1  0.36701346  0.12557585  0.87851497  1
  W  W22  1  0.63294509  0.62571585  0.62144319  1
  W  W23  1  0.86703850  0.37429668  0.12142700  1
  O  O24  1  0.13358547  0.09635747  0.36726576  1
  O  O25  1  0.12032098  0.86950297  0.60111051  1
  O  O26  1  0.11788428  0.61295187  0.90010677  1
  O  O27  1  0.15440272  0.14623238  0.87777374  1
  O  O28  1  0.09562109  0.38877614  0.11543925  1
  O  O29  1  0.13368975  0.38601686  0.65402275  1
  O  O30  1  0.11876239  0.64200184  0.36172336  1
  O  O31  1  0.12893966  0.85314957  0.14397208  1
  O  O32  1  0.37105836  0.14683953  0.64397094  1
  O  O33  1  0.38124655  0.35798722  0.86171354  1
  O  O34  1  0.36630896  0.61398010  0.15400176  1
  O  O35  1  0.40436350  0.61121536  0.61541996  1
  O  O36  1  0.34560052  0.85376157  0.37776473  1
  O  O37  1  0.38211236  0.38703162  0.40009271  1
  O  O38  1  0.37968170  0.13049117  0.10111058  1
  O  O39  1  0.36641639  0.90363849  0.86726730  1
  O  O40  1  0.63348154  0.40378712  0.63276745  1
  O  O41  1  0.62031641  0.63059079  0.39885659  1
  O  O42  1  0.61793668  0.88700434  0.09997595  1
  O  O43  1  0.65440833  0.35371058  0.12217337  1
  O  O44  1  0.59561028  0.11113217  0.88460268  1
  O  O45  1  0.63363806  0.11409894  0.34602445  1
  O  O46  1  0.61870801  0.85808754  0.63833497  1
  O  O47  1  0.62901253  0.64687189  0.85604825  1
  O  O48  1  0.87097901  0.35314684  0.35605122  1
  O  O49  1  0.88128060  0.14192733  0.13833049  1
  O  O50  1  0.86636907  0.88591995  0.84602152  1
  O  O51  1  0.90439499  0.88887937  0.38459626  1
  O  O52  1  0.84557308  0.64630591  0.62216933  1
  O  O53  1  0.88208181  0.11300968  0.59997164  1
  O  O54  1  0.87967104  0.36941816  0.89886825  1
  O  O55  1  0.86650960  0.59622984  0.13276550  1
