# generated using pymatgen
data_LiCo5O5F
_symmetry_space_group_name_H-M   'P 1'
_cell_length_a   3.29376214
_cell_length_b   3.29338654
_cell_length_c   15.66298921
_cell_angle_alpha   90.00101515
_cell_angle_beta   90.00157906
_cell_angle_gamma   119.99756447
_symmetry_Int_Tables_number   1
_chemical_formula_structural   LiCo5O5F
_chemical_formula_sum   'Li1 Co5 O5 F1'
_cell_volume   147.14681860
_cell_formula_units_Z   1
loop_
 _symmetry_equiv_pos_site_id
 _symmetry_equiv_pos_as_xyz
  1  'x, y, z'
loop_
 _atom_site_type_symbol
 _atom_site_label
 _atom_site_symmetry_multiplicity
 _atom_site_fract_x
 _atom_site_fract_y
 _atom_site_fract_z
 _atom_site_occupancy
  Li  Li0  1  0.33330780  0.66670461  0.00672471  1
  Co  Co1  1  0.33334633  0.66672637  0.33135461  1
  Co  Co2  1  0.33329217  0.66669397  0.66544766  1
  Co  Co3  1  0.66668193  0.33339216  0.49872851  1
  Co  Co4  1  0.66670673  0.33341416  0.16510093  1
  Co  Co5  1  0.66670264  0.33339713  0.83041327  1
  O  O6  1  0.33330080  0.66669380  0.46213912  1
  O  O7  1  0.33327292  0.66667539  0.12648969  1
  O  O8  1  0.33331594  0.66669997  0.79577146  1
  O  O9  1  0.66671622  0.33341369  0.29540463  1
  O  O10  1  0.66666990  0.33338787  0.62937751  1
  F  F11  1  0.66668763  0.33340088  0.95904992  1
