# generated using pymatgen
data_Li3Co2(GeO4)2
_symmetry_space_group_name_H-M   'P 1'
_cell_length_a   5.14920661
_cell_length_b   6.53028052
_cell_length_c   5.56039685
_cell_angle_alpha   89.76626642
_cell_angle_beta   89.87359907
_cell_angle_gamma   89.30960783
_symmetry_Int_Tables_number   1
_chemical_formula_structural   Li3Co2(GeO4)2
_chemical_formula_sum   'Li3 Co2 Ge2 O8'
_cell_volume   186.95702629
_cell_formula_units_Z   1
loop_
 _symmetry_equiv_pos_site_id
 _symmetry_equiv_pos_as_xyz
  1  'x, y, z'
loop_
 _atom_site_type_symbol
 _atom_site_label
 _atom_site_symmetry_multiplicity
 _atom_site_fract_x
 _atom_site_fract_y
 _atom_site_fract_z
 _atom_site_occupancy
  Li  Li0  1  0.49888132  0.00000719  0.83078801  1
  Li  Li1  1  0.99676945  0.74495650  0.66327081  1
  Li  Li2  1  0.00501102  0.49350392  0.17002717  1
  Co  Co3  1  0.00611437  0.00823954  0.16991328  1
  Co  Co4  1  0.49499596  0.49985975  0.83200470  1
  Ge  Ge5  1  0.00737661  0.24802553  0.67527443  1
  Ge  Ge6  1  0.50111669  0.74225768  0.32363907  1
  O  O7  1  0.34247195  0.25080366  0.72310692  1
  O  O8  1  0.39192958  0.53094783  0.16140852  1
  O  O9  1  0.39583921  0.73666801  0.62773602  1
  O  O10  1  0.37156354  0.96203815  0.16723509  1
  O  O11  1  0.85465759  0.76062447  0.31412846  1
  O  O12  1  0.89411160  0.01822837  0.83181261  1
  O  O13  1  0.93162244  0.23778038  0.36095789  1
  O  O14  1  0.87781468  0.47329102  0.81252102  1
