# generated using pymatgen
data_KNa7V6(MoO12)2
_symmetry_space_group_name_H-M   'P 1'
_cell_length_a   7.65634628
_cell_length_b   7.65634628
_cell_length_c   7.67877820
_cell_angle_alpha   90.00000000
_cell_angle_beta   90.00000000
_cell_angle_gamma   90.03645092
_symmetry_Int_Tables_number   1
_chemical_formula_structural   KNa7V6(MoO12)2
_chemical_formula_sum   'K1 Na7 V6 Mo2 O24'
_cell_volume   450.12710972
_cell_formula_units_Z   1
loop_
 _symmetry_equiv_pos_site_id
 _symmetry_equiv_pos_as_xyz
  1  'x, y, z'
loop_
 _atom_site_type_symbol
 _atom_site_label
 _atom_site_symmetry_multiplicity
 _atom_site_fract_x
 _atom_site_fract_y
 _atom_site_fract_z
 _atom_site_occupancy
  K  K0  1  0.25536809  0.74463191  0.25000000  1
  Na  Na1  1  0.25958148  0.25935476  0.25000000  1
  Na  Na2  1  0.25933775  0.25940275  0.75000000  1
  Na  Na3  1  0.25954397  0.74045603  0.75000000  1
  Na  Na4  1  0.74060168  0.25939832  0.25000000  1
  Na  Na5  1  0.74072808  0.25927192  0.75000000  1
  Na  Na6  1  0.74064524  0.74041852  0.25000000  1
  Na  Na7  1  0.74059725  0.74066225  0.75000000  1
  V  V8  1  0.99847665  0.49872209  0.99894353  1
  V  V9  1  0.99847665  0.49872209  0.50105647  1
  V  V10  1  0.50127791  0.00152335  0.99894353  1
  V  V11  1  0.50127791  0.00152335  0.50105647  1
  V  V12  1  0.50056571  0.49943429  0.99887839  1
  V  V13  1  0.50056571  0.49943429  0.50112161  1
  Mo  Mo14  1  0.99946529  0.00053471  0.99936551  1
  Mo  Mo15  1  0.99946529  0.00053471  0.50063449  1
  O  O16  1  0.24970686  0.00241025  0.99758129  1
  O  O17  1  0.24970686  0.00241025  0.50241871  1
  O  O18  1  0.25053376  0.49693226  0.99695531  1
  O  O19  1  0.25053376  0.49693226  0.50304469  1
  O  O20  1  0.74989098  0.00108369  0.99897772  1
  O  O21  1  0.74989098  0.00108369  0.50102228  1
  O  O22  1  0.75049155  0.49892072  0.99871349  1
  O  O23  1  0.75049155  0.49892072  0.50128651  1
  O  O24  1  0.99891631  0.25010902  0.99897772  1
  O  O25  1  0.99891631  0.25010902  0.50102228  1
  O  O26  1  0.99758975  0.75029314  0.99758129  1
  O  O27  1  0.99758975  0.75029314  0.50241871  1
  O  O28  1  0.50107928  0.24950845  0.99871349  1
  O  O29  1  0.50107928  0.24950845  0.50128651  1
  O  O30  1  0.50306774  0.74946624  0.99695531  1
  O  O31  1  0.50306774  0.74946624  0.50304469  1
  O  O32  1  0.99795406  0.00204594  0.25000000  1
  O  O33  1  0.99880633  0.00119367  0.75000000  1
  O  O34  1  0.99728768  0.49730178  0.25000000  1
  O  O35  1  0.99907098  0.49924829  0.75000000  1
  O  O36  1  0.50269822  0.00271232  0.25000000  1
  O  O37  1  0.50075171  0.00092902  0.75000000  1
  O  O38  1  0.50342127  0.49657873  0.25000000  1
  O  O39  1  0.50148268  0.49851732  0.75000000  1
