# generated using pymatgen
data_Li2FeCo3O8
_symmetry_space_group_name_H-M   'P 1'
_cell_length_a   5.81958508
_cell_length_b   5.76957021
_cell_length_c   5.92299011
_cell_angle_alpha   119.14678336
_cell_angle_beta   89.99482987
_cell_angle_gamma   60.28388393
_symmetry_Int_Tables_number   1
_chemical_formula_structural   Li2FeCo3O8
_chemical_formula_sum   'Li2 Fe1 Co3 O8'
_cell_volume   142.99786822
_cell_formula_units_Z   1
loop_
 _symmetry_equiv_pos_site_id
 _symmetry_equiv_pos_as_xyz
  1  'x, y, z'
loop_
 _atom_site_type_symbol
 _atom_site_label
 _atom_site_symmetry_multiplicity
 _atom_site_fract_x
 _atom_site_fract_y
 _atom_site_fract_z
 _atom_site_occupancy
  Li  Li0  1  0.50000000  0.00000000  0.50000000  1
  Li  Li1  1  0.50000000  0.50000000  0.50000000  1
  Fe  Fe2  1  0.00000000  0.00000000  0.00000000  1
  Co  Co3  1  0.00000000  0.50000000  0.00000000  1
  Co  Co4  1  0.50000000  0.00000000  0.00000000  1
  Co  Co5  1  0.50000000  0.50000000  0.00000000  1
  O  O6  1  0.25849523  0.01644952  0.78670165  1
  O  O7  1  0.28625964  0.45764022  0.20154009  1
  O  O8  1  0.25849523  0.51175590  0.78670165  1
  O  O9  1  0.71198930  0.04345860  0.79890651  1
  O  O10  1  0.28801070  0.95654140  0.20109349  1
  O  O11  1  0.74150477  0.48824410  0.21329835  1
  O  O12  1  0.71374036  0.54235978  0.79845991  1
  O  O13  1  0.74150477  0.98355048  0.21329835  1
