# generated using pymatgen
data_Mn12O5F19
_symmetry_space_group_name_H-M   'P 1'
_cell_length_a   4.83523726
_cell_length_b   5.85588926
_cell_length_c   15.99555420
_cell_angle_alpha   89.28302085
_cell_angle_beta   89.61765395
_cell_angle_gamma   89.38485190
_symmetry_Int_Tables_number   1
_chemical_formula_structural   Mn12O5F19
_chemical_formula_sum   'Mn12 O5 F19'
_cell_volume   452.83669727
_cell_formula_units_Z   1
loop_
 _symmetry_equiv_pos_site_id
 _symmetry_equiv_pos_as_xyz
  1  'x, y, z'
loop_
 _atom_site_type_symbol
 _atom_site_label
 _atom_site_symmetry_multiplicity
 _atom_site_fract_x
 _atom_site_fract_y
 _atom_site_fract_z
 _atom_site_occupancy
  Mn  Mn0  1  0.99818544  0.17328690  0.40589114  1
  Mn  Mn1  1  0.01709670  0.85222056  0.24971891  1
  Mn  Mn2  1  0.98794183  0.18192696  0.08037498  1
  Mn  Mn3  1  0.02878109  0.14524998  0.74684339  1
  Mn  Mn4  1  0.01023017  0.85291363  0.58347226  1
  Mn  Mn5  1  0.01415153  0.83980984  0.91125577  1
  Mn  Mn6  1  0.48995280  0.31530541  0.58947027  1
  Mn  Mn7  1  0.52075555  0.33752935  0.92094133  1
  Mn  Mn8  1  0.49680199  0.32591709  0.26119258  1
  Mn  Mn9  1  0.51790620  0.64275869  0.08283156  1
  Mn  Mn10  1  0.51627444  0.64473551  0.41812632  1
  Mn  Mn11  1  0.47929193  0.67653738  0.75185771  1
  O  O12  1  0.21637343  0.12398598  0.30545088  1
  O  O13  1  0.21048261  0.09927995  0.64099142  1
  O  O14  1  0.21878165  0.90009056  0.80237587  1
  O  O15  1  0.71607473  0.40603505  0.03175533  1
  O  O16  1  0.71648559  0.37456341  0.36043653  1
  F  F17  1  0.22456465  0.11364161  0.97281909  1
  F  F18  1  0.24728018  0.87437299  0.13286955  1
  F  F19  1  0.22899945  0.89834826  0.46867366  1
  F  F20  1  0.27793405  0.38207699  0.15051866  1
  F  F21  1  0.26603938  0.61841085  0.30931207  1
  F  F22  1  0.26191690  0.39268687  0.47686651  1
  F  F23  1  0.26620444  0.59997558  0.63910298  1
  F  F24  1  0.27104229  0.39875946  0.81104634  1
  F  F25  1  0.26663905  0.61581487  0.97884927  1
  F  F26  1  0.72764667  0.60364572  0.19671435  1
  F  F27  1  0.73828920  0.61709576  0.53379840  1
  F  F28  1  0.72889445  0.61989116  0.85952632  1
  F  F29  1  0.74228231  0.37580669  0.69963749  1
  F  F30  1  0.76116915  0.10116393  0.19071685  1
  F  F31  1  0.77344607  0.12031953  0.51647111  1
  F  F32  1  0.76583563  0.87971446  0.35893597  1
  F  F33  1  0.76658916  0.89046845  0.02287501  1
  F  F34  1  0.78286121  0.12416131  0.85199927  1
  F  F35  1  0.74679707  0.88149726  0.68628385  1
