# generated using pymatgen
data_Li5MnV3O8
_symmetry_space_group_name_H-M   'P 1'
_cell_length_a   8.65820867
_cell_length_b   8.65158864
_cell_length_c   8.64926316
_cell_angle_alpha   90.02820588
_cell_angle_beta   90.00014873
_cell_angle_gamma   90.00678569
_symmetry_Int_Tables_number   1
_chemical_formula_structural   Li5MnV3O8
_chemical_formula_sum   'Li20 Mn4 V12 O32'
_cell_volume   647.89251901
_cell_formula_units_Z   4
loop_
 _symmetry_equiv_pos_site_id
 _symmetry_equiv_pos_as_xyz
  1  'x, y, z'
loop_
 _atom_site_type_symbol
 _atom_site_label
 _atom_site_symmetry_multiplicity
 _atom_site_fract_x
 _atom_site_fract_y
 _atom_site_fract_z
 _atom_site_occupancy
  Li  Li0  1  0.94765904  0.05266727  0.94728753  1
  Li  Li1  1  0.61118882  0.13782947  0.62496922  1
  Li  Li2  1  0.36235736  0.12495371  0.38767297  1
  Li  Li3  1  0.12484470  0.11201096  0.13736305  1
  Li  Li4  1  0.80260738  0.19703819  0.80314652  1
  Li  Li5  1  0.30206390  0.30226944  0.19755017  1
  Li  Li6  1  0.62501903  0.38813029  0.86226715  1
  Li  Li7  1  0.86213579  0.37524311  0.61245664  1
  Li  Li8  1  0.11219042  0.36112344  0.37510218  1
  Li  Li9  1  0.44705574  0.44686966  0.05324061  1
  Li  Li10  1  0.05302915  0.55266814  0.55290288  1
  Li  Li11  1  0.38818016  0.63730368  0.87467360  1
  Li  Li12  1  0.63896154  0.62498397  0.11205358  1
  Li  Li13  1  0.87484005  0.61154324  0.36290101  1
  Li  Li14  1  0.19738218  0.69745618  0.69745275  1
  Li  Li15  1  0.69728702  0.80245244  0.30232059  1
  Li  Li16  1  0.37531735  0.88745830  0.63832704  1
  Li  Li17  1  0.13768600  0.87509414  0.88857732  1
  Li  Li18  1  0.88749140  0.86247991  0.12491302  1
  Li  Li19  1  0.55337684  0.94706936  0.44688381  1
  Mn  Mn20  1  0.62512238  0.12453245  0.12512763  1
  Mn  Mn21  1  0.12504058  0.37472515  0.87535203  1
  Mn  Mn22  1  0.37482639  0.62483569  0.37556076  1
  Mn  Mn23  1  0.87499304  0.87452652  0.62502014  1
  V  V24  1  0.37505291  0.12420500  0.87427692  1
  V  V25  1  0.12591125  0.12411134  0.62386022  1
  V  V26  1  0.87556342  0.12551585  0.37500936  1
  V  V27  1  0.37566797  0.37457494  0.62539900  1
  V  V28  1  0.62585712  0.37450190  0.37568988  1
  V  V29  1  0.87530307  0.37587727  0.12580415  1
  V  V30  1  0.62494031  0.62433892  0.62565224  1
  V  V31  1  0.87440882  0.62463029  0.87555609  1
  V  V32  1  0.12386966  0.62647381  0.12583879  1
  V  V33  1  0.62401976  0.87418841  0.87583686  1
  V  V34  1  0.37440491  0.87450877  0.12435679  1
  V  V35  1  0.12477232  0.87608518  0.37378701  1
  O  O36  1  0.36937734  0.11381408  0.11121652  1
  O  O37  1  0.61268252  0.11295301  0.86796083  1
  O  O38  1  0.11989437  0.11809849  0.37936209  1
  O  O39  1  0.13677205  0.11934147  0.86428499  1
  O  O40  1  0.88924667  0.13168845  0.61410325  1
  O  O41  1  0.36759669  0.12943205  0.63123003  1
  O  O42  1  0.88040541  0.13808647  0.13583584  1
  O  O43  1  0.63551663  0.13724415  0.38155778  1
  O  O44  1  0.13864439  0.36349955  0.61883073  1
  O  O45  1  0.38177367  0.36452696  0.86264267  1
  O  O46  1  0.87021394  0.36767253  0.36958070  1
  O  O47  1  0.38624767  0.36922942  0.38683250  1
  O  O48  1  0.63678754  0.38171644  0.13775839  1
  O  O49  1  0.61846787  0.38062421  0.61877080  1
  O  O50  1  0.11360821  0.38643396  0.13082427  1
  O  O51  1  0.86827889  0.38710639  0.88645584  1
  O  O52  1  0.63105195  0.61301115  0.38689013  1
  O  O53  1  0.38711988  0.61469481  0.63120600  1
  O  O54  1  0.88227919  0.61900645  0.12047053  1
  O  O55  1  0.86299866  0.61870019  0.63542760  1
  O  O56  1  0.11121458  0.63113772  0.88591465  1
  O  O57  1  0.63176353  0.63075289  0.86953447  1
  O  O58  1  0.11895299  0.63842707  0.36430002  1
  O  O59  1  0.36094939  0.63633925  0.11840062  1
  O  O60  1  0.86305381  0.86346516  0.88044963  1
  O  O61  1  0.61863210  0.86312959  0.63696082  1
  O  O62  1  0.12909743  0.86989709  0.13186885  1
  O  O63  1  0.61528363  0.86875414  0.11286746  1
  O  O64  1  0.36531510  0.88114480  0.35980625  1
  O  O65  1  0.38024830  0.87979811  0.88262445  1
  O  O66  1  0.88460420  0.88966396  0.36953380  1
  O  O67  1  0.13131562  0.88640458  0.61217500  1
