# generated using pymatgen
data_WOF4
_symmetry_space_group_name_H-M   'P 1'
_cell_length_a   7.75180919
_cell_length_b   10.64669799
_cell_length_c   10.45325154
_cell_angle_alpha   90.00000000
_cell_angle_beta   111.96130252
_cell_angle_gamma   90.00000000
_symmetry_Int_Tables_number   1
_chemical_formula_structural   WOF4
_chemical_formula_sum   'W8 O8 F32'
_cell_volume   800.11730835
_cell_formula_units_Z   8
loop_
 _symmetry_equiv_pos_site_id
 _symmetry_equiv_pos_as_xyz
  1  'x, y, z'
loop_
 _atom_site_type_symbol
 _atom_site_label
 _atom_site_symmetry_multiplicity
 _atom_site_fract_x
 _atom_site_fract_y
 _atom_site_fract_z
 _atom_site_occupancy
  W  W0  1  0.21082253  0.40893450  0.83970886  1
  W  W1  1  0.28917747  0.90893450  0.66029114  1
  W  W2  1  0.12854543  0.85750132  0.07565349  1
  W  W3  1  0.37145457  0.35750132  0.42434651  1
  W  W4  1  0.62854543  0.64249868  0.57565349  1
  W  W5  1  0.87145457  0.14249868  0.92434651  1
  W  W6  1  0.71082253  0.09106550  0.33970886  1
  W  W7  1  0.78917747  0.59106550  0.16029114  1
  O  O8  1  0.24177944  0.04057966  0.73554682  1
  O  O9  1  0.25822056  0.54057966  0.76445318  1
  O  O10  1  0.25251622  0.29230552  0.26642473  1
  O  O11  1  0.24748378  0.79230552  0.23357527  1
  O  O12  1  0.75251622  0.20769448  0.76642473  1
  O  O13  1  0.74748378  0.70769448  0.73357527  1
  O  O14  1  0.74177944  0.45942034  0.23554682  1
  O  O15  1  0.75822056  0.95942034  0.26445318  1
  F  F16  1  0.11816507  0.20018317  0.95022611  1
  F  F17  1  0.13825137  0.73454316  0.95096988  1
  F  F18  1  0.07059055  0.31050586  0.68515736  1
  F  F19  1  0.08258921  0.80497397  0.63959305  1
  F  F20  1  0.17766741  0.94382787  0.46903568  1
  F  F21  1  0.18000518  0.44657697  0.45324728  1
  F  F22  1  0.02029654  0.55088439  0.14577262  1
  F  F23  1  0.04957182  0.02032489  0.12632693  1
  F  F24  1  0.41741079  0.30497397  0.86040695  1
  F  F25  1  0.42940945  0.81050586  0.81484264  1
  F  F26  1  0.36174863  0.23454316  0.54903012  1
  F  F27  1  0.38183493  0.70018317  0.54977389  1
  F  F28  1  0.67766741  0.55617213  0.96903568  1
  F  F29  1  0.68000518  0.05342303  0.95324728  1
  F  F30  1  0.52029654  0.94911561  0.64577262  1
  F  F31  1  0.54957182  0.47967511  0.62632693  1
  F  F32  1  0.45042818  0.52032489  0.37367307  1
  F  F33  1  0.47970346  0.05088439  0.35422738  1
  F  F34  1  0.31999482  0.94657697  0.04675272  1
  F  F35  1  0.32233259  0.44382787  0.03096432  1
  F  F36  1  0.61816507  0.29981683  0.45022611  1
  F  F37  1  0.63825137  0.76545684  0.45096988  1
  F  F38  1  0.57059055  0.18949414  0.18515736  1
  F  F39  1  0.58258921  0.69502603  0.13959305  1
  F  F40  1  0.95042818  0.97967511  0.87367307  1
  F  F41  1  0.97970346  0.44911561  0.85422738  1
  F  F42  1  0.81999482  0.55342303  0.54675272  1
  F  F43  1  0.82233259  0.05617213  0.53096432  1
  F  F44  1  0.91741079  0.19502603  0.36040695  1
  F  F45  1  0.92940945  0.68949414  0.31484264  1
  F  F46  1  0.86174863  0.26545684  0.04903012  1
  F  F47  1  0.88183493  0.79981683  0.04977389  1
