# generated using pymatgen
data_MnOF
_symmetry_space_group_name_H-M   'P 1'
_cell_length_a   4.66507899
_cell_length_b   7.63951032
_cell_length_c   7.66857035
_cell_angle_alpha   95.20610370
_cell_angle_beta   88.62041541
_cell_angle_gamma   90.94966759
_symmetry_Int_Tables_number   1
_chemical_formula_structural   MnOF
_chemical_formula_sum   'Mn8 O8 F8'
_cell_volume   272.06481055
_cell_formula_units_Z   8
loop_
 _symmetry_equiv_pos_site_id
 _symmetry_equiv_pos_as_xyz
  1  'x, y, z'
loop_
 _atom_site_type_symbol
 _atom_site_label
 _atom_site_symmetry_multiplicity
 _atom_site_fract_x
 _atom_site_fract_y
 _atom_site_fract_z
 _atom_site_occupancy
  Mn  Mn0  1  0.51767068  0.69083188  0.05908422  1
  Mn  Mn1  1  0.56531480  0.29175676  0.94302529  1
  Mn  Mn2  1  0.51283571  0.20939210  0.53157750  1
  Mn  Mn3  1  0.43252368  0.80341778  0.45079150  1
  Mn  Mn4  1  0.98568765  0.94068662  0.80511324  1
  Mn  Mn5  1  0.96838222  0.55557805  0.71060165  1
  Mn  Mn6  1  0.98646750  0.46451086  0.29021569  1
  Mn  Mn7  1  0.01352384  0.06145869  0.20795560  1
  O  O8  1  0.80163430  0.09628160  0.98696722  1
  O  O9  1  0.75765577  0.73260480  0.85833972  1
  O  O10  1  0.79117111  0.24469663  0.33956264  1
  O  O11  1  0.73642349  0.33975111  0.72374807  1
  O  O12  1  0.74971090  0.48940035  0.09334219  1
  O  O13  1  0.26290470  0.65815772  0.26574597  1
  O  O14  1  0.26954535  0.02829047  0.39877427  1
  O  O15  1  0.18996629  0.76276704  0.65730553  1
  F  F16  1  0.71426806  0.60456451  0.48361812  1
  F  F17  1  0.69735945  0.96365298  0.59452588  1
  F  F18  1  0.74016975  0.85275648  0.25351090  1
  F  F19  1  0.27238496  0.13616696  0.76003823  1
  F  F20  1  0.28434576  0.48899905  0.89679871  1
  F  F21  1  0.20621737  0.41920721  0.51585540  1
  F  F22  1  0.28771593  0.26819709  0.14194040  1
  F  F23  1  0.25612073  0.89687328  0.03156404  1
