# generated using pymatgen
data_LiFe2(BO3)2
_symmetry_space_group_name_H-M   'P 1'
_cell_length_a   5.20812045
_cell_length_b   9.11939496
_cell_length_c   11.41725329
_cell_angle_alpha   67.03255144
_cell_angle_beta   77.46766175
_cell_angle_gamma   89.75892557
_symmetry_Int_Tables_number   1
_chemical_formula_structural   LiFe2(BO3)2
_chemical_formula_sum   'Li4 Fe8 B8 O24'
_cell_volume   485.42163822
_cell_formula_units_Z   4
loop_
 _symmetry_equiv_pos_site_id
 _symmetry_equiv_pos_as_xyz
  1  'x, y, z'
loop_
 _atom_site_type_symbol
 _atom_site_label
 _atom_site_symmetry_multiplicity
 _atom_site_fract_x
 _atom_site_fract_y
 _atom_site_fract_z
 _atom_site_occupancy
  Li  Li0  1  0.97344185  0.97154818  0.38715468  1
  Li  Li1  1  0.70328851  0.72534106  0.91745465  1
  Li  Li2  1  0.02131951  0.99878541  0.65920003  1
  Li  Li3  1  0.25768126  0.25853524  0.13695476  1
  Fe  Fe4  1  0.98412495  0.64221023  0.37353561  1
  Fe  Fe5  1  0.74270383  0.07095896  0.88402787  1
  Fe  Fe6  1  0.53295054  0.83937432  0.62376226  1
  Fe  Fe7  1  0.75900435  0.43558312  0.14476682  1
  Fe  Fe8  1  0.22734295  0.55787267  0.86916453  1
  Fe  Fe9  1  0.47040116  0.15436429  0.38789590  1
  Fe  Fe10  1  0.01750526  0.35377596  0.63278776  1
  Fe  Fe11  1  0.25281072  0.93108067  0.12390279  1
  B  B12  1  0.97040123  0.31273959  0.38140854  1
  B  B13  1  0.72548582  0.40526025  0.87819541  1
  B  B14  1  0.51353364  0.18059887  0.63431462  1
  B  B15  1  0.76259965  0.11123909  0.13267548  1
  B  B16  1  0.48683063  0.81464541  0.37415941  1
  B  B17  1  0.23357417  0.88431133  0.87691123  1
  B  B18  1  0.03708064  0.69046451  0.61823632  1
  B  B19  1  0.26528557  0.59407212  0.12942471  1
  O  O20  1  0.97992644  0.89916210  0.85729759  1
  O  O21  1  0.87356649  0.31277761  0.82312953  1
  O  O22  1  0.84807278  0.50678839  0.92142982  1
  O  O23  1  0.92085924  0.83056627  0.60290679  1
  O  O24  1  0.95152846  0.58266554  0.57292281  1
  O  O25  1  0.76797869  0.16956668  0.66090603  1
  O  O26  1  0.74344223  0.34662245  0.33297376  1
  O  O27  1  0.45808018  0.39866464  0.89693521  1
  O  O28  1  0.38221743  0.76506512  0.84810732  1
  O  O29  1  0.57356973  0.92728384  0.41542149  1
  O  O30  1  0.63927366  0.69649446  0.36590286  1
  O  O31  1  0.35331697  0.97620565  0.92299705  1
  O  O32  1  0.64195921  0.02225600  0.08402098  1
  O  O33  1  0.36290058  0.29970184  0.64236513  1
  O  O34  1  0.41908064  0.06567630  0.59695117  1
  O  O35  1  0.61381186  0.22840469  0.16530399  1
  O  O36  1  0.53424603  0.60095601  0.10929118  1
  O  O37  1  0.24709487  0.65519447  0.67898162  1
  O  O38  1  0.23567375  0.82526026  0.34417698  1
  O  O39  1  0.05747085  0.41445170  0.43206919  1
  O  O40  1  0.10019982  0.18444792  0.37476984  1
  O  O41  1  0.14012257  0.48810722  0.09170851  1
  O  O42  1  0.11843349  0.68937100  0.18093402  1
  O  O43  1  0.01413880  0.09587852  0.15104774  1
