# generated using pymatgen
data_Li3Fe4(BO3)4
_symmetry_space_group_name_H-M   'P 1'
_cell_length_a   5.23778167
_cell_length_b   9.03743471
_cell_length_c   11.48973960
_cell_angle_alpha   113.35305983
_cell_angle_beta   78.52483725
_cell_angle_gamma   89.38977812
_symmetry_Int_Tables_number   1
_chemical_formula_structural   Li3Fe4(BO3)4
_chemical_formula_sum   'Li6 Fe8 B8 O24'
_cell_volume   486.91614932
_cell_formula_units_Z   2
loop_
 _symmetry_equiv_pos_site_id
 _symmetry_equiv_pos_as_xyz
  1  'x, y, z'
loop_
 _atom_site_type_symbol
 _atom_site_label
 _atom_site_symmetry_multiplicity
 _atom_site_fract_x
 _atom_site_fract_y
 _atom_site_fract_z
 _atom_site_occupancy
  Li  Li0  1  0.17020788  0.15999979  0.33368282  1
  Li  Li1  1  0.35845964  0.29205531  0.59886127  1
  Li  Li2  1  0.60984190  0.04986148  0.08763332  1
  Li  Li3  1  0.91799095  0.42570039  0.83694780  1
  Li  Li4  1  0.68177217  0.65379109  0.33133422  1
  Li  Li5  1  0.42159492  0.93476457  0.83430191  1
  Fe  Fe6  1  0.39976515  0.27379259  0.87461484  1
  Fe  Fe7  1  0.09060524  0.23877604  0.11820483  1
  Fe  Fe8  1  0.83970622  0.13603708  0.62208183  1
  Fe  Fe9  1  0.65980803  0.34508498  0.37185518  1
  Fe  Fe10  1  0.34914774  0.64645327  0.62177531  1
  Fe  Fe11  1  0.15540565  0.84576875  0.36318722  1
  Fe  Fe12  1  0.90858816  0.77758512  0.87043654  1
  Fe  Fe13  1  0.60673751  0.71349670  0.11043990  1
  B  B14  1  0.64003163  0.01512254  0.37365171  1
  B  B15  1  0.89447133  0.10644560  0.87298333  1
  B  B16  1  0.15187177  0.52417887  0.37792368  1
  B  B17  1  0.40798884  0.60027512  0.86081396  1
  B  B18  1  0.85743472  0.47637719  0.62363332  1
  B  B19  1  0.59500487  0.38826047  0.12578978  1
  B  B20  1  0.34252172  0.97852472  0.61821052  1
  B  B21  1  0.09843433  0.90231133  0.13029225  1
  O  O22  1  0.13842131  0.11611453  0.90219006  1
  O  O23  1  0.44475385  0.12761756  0.65910677  1
  O  O24  1  0.23016955  0.03585827  0.13862014  1
  O  O25  1  0.49297564  0.15159984  0.38885373  1
  O  O26  1  0.89101983  0.02969470  0.39938184  1
  O  O27  1  0.79958668  0.21664947  0.83042421  1
  O  O28  1  0.26604167  0.47258938  0.85354234  1
  O  O29  1  0.05510000  0.37452901  0.34435643  1
  O  O30  1  0.69493809  0.27310070  0.16526829  1
  O  O31  1  0.61379957  0.46721775  0.58807665  1
  O  O32  1  0.97789370  0.34546106  0.63050263  1
  O  O33  1  0.38422137  0.35165496  0.06789366  1
  O  O34  1  0.64308748  0.61734738  0.90199390  1
  O  O35  1  0.38945772  0.54702939  0.42154158  1
  O  O36  1  0.31773278  0.72014830  0.82309632  1
  O  O37  1  0.97622594  0.61939370  0.65510469  1
  O  O38  1  0.70549462  0.52911752  0.14813430  1
  O  O39  1  0.20034928  0.79192762  0.17203500  1
  O  O40  1  0.13770806  0.95563081  0.55508773  1
  O  O41  1  0.44435643  0.85672439  0.64409988  1
  O  O42  1  0.02554476  0.64890579  0.36590439  1
  O  O43  1  0.74099884  0.98935287  0.89067111  1
  O  O44  1  0.54318808  0.86434970  0.33757772  1
  O  O45  1  0.86854130  0.87660231  0.08445008  1
