# generated using pymatgen
data_Li2MnF4
_symmetry_space_group_name_H-M   'P 1'
_cell_length_a   8.99139957
_cell_length_b   8.99139898
_cell_length_c   8.99139884
_cell_angle_alpha   107.56057378
_cell_angle_beta   107.56056913
_cell_angle_gamma   107.56056663
_symmetry_Int_Tables_number   1
_chemical_formula_structural   Li2MnF4
_chemical_formula_sum   'Li12 Mn6 F24'
_cell_volume   595.87963854
_cell_formula_units_Z   6
loop_
 _symmetry_equiv_pos_site_id
 _symmetry_equiv_pos_as_xyz
  1  'x, y, z'
loop_
 _atom_site_type_symbol
 _atom_site_label
 _atom_site_symmetry_multiplicity
 _atom_site_fract_x
 _atom_site_fract_y
 _atom_site_fract_z
 _atom_site_occupancy
  Li  Li0  1  0.05659794  0.91823671  0.29304897  1
  Li  Li1  1  0.08176329  0.70695103  0.94340206  1
  Li  Li2  1  0.22511269  0.64514784  0.36424603  1
  Li  Li3  1  0.70695103  0.94340206  0.08176329  1
  Li  Li4  1  0.35485216  0.63575397  0.77488731  1
  Li  Li5  1  0.63575397  0.77488731  0.35485216  1
  Li  Li6  1  0.36424603  0.22511269  0.64514784  1
  Li  Li7  1  0.64514784  0.36424603  0.22511269  1
  Li  Li8  1  0.29304897  0.05659794  0.91823671  1
  Li  Li9  1  0.77488731  0.35485216  0.63575397  1
  Li  Li10  1  0.91823671  0.29304897  0.05659794  1
  Li  Li11  1  0.94340206  0.08176329  0.70695103  1
  Mn  Mn12  1  0.99043971  0.70621149  0.55314395  1
  Mn  Mn13  1  0.44685605  0.00956029  0.29378851  1
  Mn  Mn14  1  0.29378851  0.44685605  0.00956029  1
  Mn  Mn15  1  0.70621149  0.55314395  0.99043971  1
  Mn  Mn16  1  0.55314395  0.99043971  0.70621149  1
  Mn  Mn17  1  0.00956029  0.29378851  0.44685605  1
  F  F18  1  0.12135827  0.82756431  0.81024025  1
  F  F19  1  0.08461881  0.75965002  0.38911875  1
  F  F20  1  0.18975975  0.87864173  0.17243569  1
  F  F21  1  0.61088125  0.91538119  0.24034998  1
  F  F22  1  0.46130564  0.81694172  0.44494191  1
  F  F23  1  0.15421110  0.46278512  0.15448239  1
  F  F24  1  0.53721488  0.84551761  0.84578890  1
  F  F25  1  0.24034998  0.61088125  0.91538119  1
  F  F26  1  0.18305828  0.55505809  0.53869436  1
  F  F27  1  0.55505809  0.53869436  0.18305828  1
  F  F28  1  0.17243569  0.18975975  0.87864173  1
  F  F29  1  0.84551761  0.84578890  0.53721488  1
  F  F30  1  0.15448239  0.15421110  0.46278512  1
  F  F31  1  0.82756431  0.81024025  0.12135827  1
  F  F32  1  0.44494191  0.46130564  0.81694172  1
  F  F33  1  0.81694172  0.44494191  0.46130564  1
  F  F34  1  0.75965002  0.38911875  0.08461881  1
  F  F35  1  0.46278512  0.15448239  0.15421110  1
  F  F36  1  0.84578890  0.53721488  0.84551761  1
  F  F37  1  0.53869436  0.18305828  0.55505809  1
  F  F38  1  0.38911875  0.08461881  0.75965002  1
  F  F39  1  0.81024025  0.12135827  0.82756431  1
  F  F40  1  0.91538119  0.24034998  0.61088125  1
  F  F41  1  0.87864173  0.17243569  0.18975975  1
