# generated using pymatgen
data_La7SmTi3V5O24
_symmetry_space_group_name_H-M   'P 1'
_cell_length_a   7.91835460
_cell_length_b   7.91335087
_cell_length_c   7.91835460
_cell_angle_alpha   90.06035683
_cell_angle_beta   90.27721368
_cell_angle_gamma   89.93964317
_symmetry_Int_Tables_number   1
_chemical_formula_structural   La7SmTi3V5O24
_chemical_formula_sum   'La7 Sm1 Ti3 V5 O24'
_cell_volume   496.16343049
_cell_formula_units_Z   1
loop_
 _symmetry_equiv_pos_site_id
 _symmetry_equiv_pos_as_xyz
  1  'x, y, z'
loop_
 _atom_site_type_symbol
 _atom_site_label
 _atom_site_symmetry_multiplicity
 _atom_site_fract_x
 _atom_site_fract_y
 _atom_site_fract_z
 _atom_site_occupancy
  La  La0  1  0.25214831  0.25395499  0.25236497  1
  La  La1  1  0.25091196  0.25357234  0.74908804  1
  La  La2  1  0.25236130  0.74634385  0.25204271  1
  La  La3  1  0.25156126  0.74630151  0.74843874  1
  La  La4  1  0.74763503  0.25395499  0.74785169  1
  La  La5  1  0.74903148  0.74612945  0.25096852  1
  La  La6  1  0.74795729  0.74634385  0.74763870  1
  Sm  Sm7  1  0.74747043  0.25605180  0.25252957  1
  Ti  Ti8  1  0.99941252  0.00074951  0.00058748  1
  Ti  Ti9  1  0.99921499  0.00065059  0.49931524  1
  Ti  Ti10  1  0.50068476  0.00065059  0.00078501  1
  V  V11  1  0.99999681  0.50001128  0.00000319  1
  V  V12  1  0.99983472  0.49968771  0.49957203  1
  V  V13  1  0.49998108  0.99990760  0.50001892  1
  V  V14  1  0.50042797  0.49968771  0.00016528  1
  V  V15  1  0.50041893  0.49946799  0.49958107  1
  O  O16  1  0.25048884  0.00058414  0.00051819  1
  O  O17  1  0.24483097  0.00033324  0.49974503  1
  O  O18  1  0.25415060  0.49989179  0.00063826  1
  O  O19  1  0.24892231  0.50033020  0.50079654  1
  O  O20  1  0.74958388  0.00101630  0.00151213  1
  O  O21  1  0.75455842  0.00165188  0.49803632  1
  O  O22  1  0.74625505  0.49736833  0.00199228  1
  O  O23  1  0.75122085  0.49687947  0.49634935  1
  O  O24  1  0.99805585  0.24360595  0.00194415  1
  O  O25  1  0.99797939  0.24506452  0.49828585  1
  O  O26  1  0.00017190  0.75691772  0.99982810  1
  O  O27  1  -0.00008831  0.75518812  0.49971454  1
  O  O28  1  0.50171415  0.24506452  0.00202061  1
  O  O29  1  0.50256563  0.25387438  0.49743437  1
  O  O30  1  0.50028546  0.75518812  0.00008831  1
  O  O31  1  0.49984425  0.74552024  0.50015575  1
  O  O32  1  0.99848787  0.00101630  0.25041612  1
  O  O33  1  0.99948181  0.00058414  0.74951116  1
  O  O34  1  0.99800772  0.49736833  0.25374495  1
  O  O35  1  0.99936174  0.49989179  0.74584940  1
  O  O36  1  0.50196368  0.00165188  0.24544158  1
  O  O37  1  0.50025497  0.00033324  0.75516903  1
  O  O38  1  0.50365065  0.49687947  0.24877915  1
  O  O39  1  0.49920346  0.50033020  0.75107769  1
