# generated using pymatgen
data_Li6MnV3(PO4)6
_symmetry_space_group_name_H-M   'P 1'
_cell_length_a   9.89201017
_cell_length_b   9.86197554
_cell_length_c   9.86197529
_cell_angle_alpha   87.57421894
_cell_angle_beta   86.96288106
_cell_angle_gamma   86.96288008
_symmetry_Int_Tables_number   1
_chemical_formula_structural   Li6MnV3(PO4)6
_chemical_formula_sum   'Li12 Mn2 V6 P12 O48'
_cell_volume   958.62826734
_cell_formula_units_Z   2
loop_
 _symmetry_equiv_pos_site_id
 _symmetry_equiv_pos_as_xyz
  1  'x, y, z'
loop_
 _atom_site_type_symbol
 _atom_site_label
 _atom_site_symmetry_multiplicity
 _atom_site_fract_x
 _atom_site_fract_y
 _atom_site_fract_z
 _atom_site_occupancy
  Li  Li0  1  0.00518411  0.04915732  0.97904768  1
  Li  Li1  1  0.06139615  0.73594731  0.14404638  1
  Li  Li2  1  0.13729269  0.07172784  0.72856111  1
  Li  Li3  1  0.23143628  0.55967981  0.64542780  1
  Li  Li4  1  0.26856372  0.85457220  0.94032019  1
  Li  Li5  1  0.36270731  0.77143889  0.42827216  1
  Li  Li6  1  0.43860385  0.35595362  0.76405269  1
  Li  Li7  1  0.49481589  0.52095232  0.45084268  1
  Li  Li8  1  0.64148364  0.23277883  0.55847871  1
  Li  Li9  1  0.76782256  0.46242402  0.35783404  1
  Li  Li10  1  0.73217744  0.14216596  0.03757598  1
  Li  Li11  1  0.85851636  0.94152129  0.26722117  1
  Mn  Mn12  1  0.52749995  0.96838240  0.74356890  1
  Mn  Mn13  1  0.97250005  0.75643110  0.53161760  1
  V  V14  1  0.03322908  0.25407818  0.47108595  1
  V  V15  1  0.25000000  0.24991949  0.25008051  1
  V  V16  1  0.25000000  0.46387428  0.03612572  1
  V  V17  1  0.46677092  0.02891405  0.24592182  1
  V  V18  1  0.75000000  0.53200306  0.96799694  1
  V  V19  1  0.75000000  0.75144904  0.74855096  1
  P  P20  1  0.05092752  0.66866336  0.85939889  1
  P  P21  1  0.14871917  0.95393274  0.33206637  1
  P  P22  1  0.17249798  0.55020450  0.35310471  1
  P  P23  1  0.32750202  0.14689529  0.94979550  1
  P  P24  1  0.35128083  0.16793363  0.54606726  1
  P  P25  1  0.44907248  0.64060111  0.83133664  1
  P  P26  1  0.55018534  0.34694844  0.17657172  1
  P  P27  1  0.64287037  0.82194364  0.44948288  1
  P  P28  1  0.67217552  0.84784042  0.04674780  1
  P  P29  1  0.82782448  0.45325220  0.65215958  1
  P  P30  1  0.85712963  0.05051712  0.67805636  1
  P  P31  1  0.94981466  0.32342828  0.15305156  1
  O  O32  1  0.03286745  0.61483977  0.39755968  1
  O  O33  1  0.05615505  0.90631098  0.22610916  1
  O  O34  1  0.10943416  0.32936189  0.12336063  1
  O  O35  1  0.12246604  0.11455748  0.33170082  1
  O  O36  1  0.09073125  0.69035236  0.70694266  1
  O  O37  1  0.11738215  0.89133576  0.47535461  1
  O  O38  1  0.09206790  0.78138371  0.94950906  1
  O  O39  1  0.11525238  0.52988517  0.90678258  1
  O  O40  1  0.17026152  0.38959065  0.37862303  1
  O  O41  1  0.19309756  0.58554579  0.19820605  1
  O  O42  1  0.19766783  0.20301895  0.58294612  1
  O  O43  1  0.21345362  0.06024866  0.90643397  1
  O  O44  1  0.32973848  0.12137697  0.11040935  1
  O  O45  1  0.28654638  0.59356603  0.43975134  1
  O  O46  1  0.30233217  0.91705388  0.29698105  1
  O  O47  1  0.30690244  0.30179395  0.91445421  1
  O  O48  1  0.37753396  0.16829918  0.38544252  1
  O  O49  1  0.39056584  0.37663937  0.17063811  1
  O  O50  1  0.38261785  0.02464539  0.60866424  1
  O  O51  1  0.38474762  0.59321742  0.97011483  1
  O  O52  1  0.40793210  0.55049094  0.71861629  1
  O  O53  1  0.44384495  0.27389084  0.59368902  1
  O  O54  1  0.40926875  0.79305734  0.80964764  1
  O  O55  1  0.46713255  0.10244032  0.88516023  1
  O  O56  1  0.53219251  0.88736324  0.11082854  1
  O  O57  1  0.58187007  0.18918486  0.17422497  1
  O  O58  1  0.59512828  0.41037016  0.30310158  1
  O  O59  1  0.55760797  0.70579511  0.41403301  1
  O  O60  1  0.61760905  0.40578516  0.04247115  1
  O  O61  1  0.58561068  0.96007172  0.38630198  1
  O  O62  1  0.61053233  0.62168322  0.83667514  1
  O  O63  1  0.62308664  0.83255088  0.61040803  1
  O  O64  1  0.70460588  0.09248923  0.69100559  1
  O  O65  1  0.70268201  0.68846439  0.07223184  1
  O  O66  1  0.71728152  0.40336615  0.56607953  1
  O  O67  1  0.67160883  0.87677827  0.88823661  1
  O  O68  1  0.78271848  0.93392047  0.09663385  1
  O  O69  1  0.79731799  0.42776816  0.81153561  1
  O  O70  1  0.79539412  0.80899441  0.40751077  1
  O  O71  1  0.82839117  0.61176339  0.62322173  1
  O  O72  1  0.88239095  0.45752885  0.09421484  1
  O  O73  1  0.90487172  0.19689842  0.08962984  1
  O  O74  1  0.91438932  0.11369802  0.53992828  1
  O  O75  1  0.91812993  0.32577503  0.31081514  1
  O  O76  1  0.87691336  0.88959197  0.66744912  1
  O  O77  1  0.94239203  0.08596699  0.79420489  1
  O  O78  1  0.88946767  0.66332486  0.87831678  1
  O  O79  1  0.96780749  0.38917146  0.61263676  1
