# generated using pymatgen
data_LiV3OF11
_symmetry_space_group_name_H-M   'P 1'
_cell_length_a   5.47800680
_cell_length_b   7.04899611
_cell_length_c   6.01785736
_cell_angle_alpha   104.46095441
_cell_angle_beta   93.25260234
_cell_angle_gamma   103.60238854
_symmetry_Int_Tables_number   1
_chemical_formula_structural   LiV3OF11
_chemical_formula_sum   'Li1 V3 O1 F11'
_cell_volume   217.05052052
_cell_formula_units_Z   1
loop_
 _symmetry_equiv_pos_site_id
 _symmetry_equiv_pos_as_xyz
  1  'x, y, z'
loop_
 _atom_site_type_symbol
 _atom_site_label
 _atom_site_symmetry_multiplicity
 _atom_site_fract_x
 _atom_site_fract_y
 _atom_site_fract_z
 _atom_site_occupancy
  Li  Li0  1  0.81343465  0.37741969  0.47343723  1
  V  V1  1  0.40701687  0.63686488  0.84043641  1
  V  V2  1  0.68336832  0.83880926  0.34040570  1
  V  V3  1  0.02526736  0.04452450  0.02387566  1
  O  O4  1  0.69473028  0.84480280  0.03234876  1
  F  F5  1  0.16940779  0.80276443  0.92583205  1
  F  F6  1  0.03491412  0.99011175  0.33426004  1
  F  F7  1  0.12855615  0.43223705  0.68869734  1
  F  F8  1  0.34155940  0.19019477  0.06962931  1
  F  F9  1  0.45120805  0.76113447  0.59612151  1
  F  F10  1  0.38743309  0.61240829  0.15838013  1
  F  F11  1  0.60357607  0.46619535  0.74509117  1
  F  F12  1  0.58410020  0.06921418  0.43496673  1
  F  F13  1  0.82229662  0.63558195  0.38475660  1
  F  F14  1  0.90489945  0.01157450  0.72766701  1
  F  F15  1  0.90431661  0.26462214  0.15031234  1
