# generated using pymatgen
data_Fe12O13
_symmetry_space_group_name_H-M   'P 1'
_cell_length_a   7.55130639
_cell_length_b   6.87511288
_cell_length_c   6.87511288
_cell_angle_alpha   72.60625716
_cell_angle_beta   68.52360665
_cell_angle_gamma   111.47639332
_symmetry_Int_Tables_number   1
_chemical_formula_structural   Fe12O13
_chemical_formula_sum   'Fe12 O13'
_cell_volume   267.67578025
_cell_formula_units_Z   1
loop_
 _symmetry_equiv_pos_site_id
 _symmetry_equiv_pos_as_xyz
  1  'x, y, z'
loop_
 _atom_site_type_symbol
 _atom_site_label
 _atom_site_symmetry_multiplicity
 _atom_site_fract_x
 _atom_site_fract_y
 _atom_site_fract_z
 _atom_site_occupancy
  Fe  Fe0  1  0.92673324  0.63609869  0.84213004  1
  Fe  Fe1  1  0.76886228  0.84213004  0.52177127  1
  Fe  Fe2  1  0.37652408  0.91827906  0.77552189  1
  Fe  Fe3  1  0.45824602  0.30619905  0.91827906  1
  Fe  Fe4  1  0.84795403  0.22447811  0.69380095  1
  Fe  Fe5  1  0.70936645  0.47822873  0.36390131  1
  Fe  Fe6  1  0.29063355  0.52177127  0.63609869  1
  Fe  Fe7  1  0.54175398  0.69380095  0.08172094  1
  Fe  Fe8  1  0.15204597  0.77552189  0.30619905  1
  Fe  Fe9  1  0.23113772  0.15786996  0.47822873  1
  Fe  Fe10  1  0.62347592  0.08172094  0.22447811  1
  Fe  Fe11  1  0.07326676  0.36390131  0.15786996  1
  O  O12  1  0.87070385  0.91772651  0.75480467  1
  O  O13  1  0.95297733  0.32746881  0.91772651  1
  O  O14  1  0.42479040  0.61480448  0.85551861  1
  O  O15  1  0.80998592  0.52967691  0.61480448  1
  O  O16  1  0.62550852  0.75480467  0.32746881  1
  O  O17  1  0.37449148  0.24519533  0.67253119  1
  O  O18  1  0.28030900  0.85551861  0.52967691  1
  O  O19  1  0.71969100  0.14448139  0.47032309  1
  O  O20  1  0.57520960  0.38519552  0.14448139  1
  O  O21  1  0.19001408  0.47032309  0.38519552  1
  O  O22  1  0.04702267  0.67253119  0.08227349  1
  O  O23  1  0.12929615  0.08227349  0.24519533  1
  O  O24  1  0.50000000  0.00000000  0.00000000  1
