# generated using pymatgen
data_LiFe2(BO3)2
_symmetry_space_group_name_H-M   'P 1'
_cell_length_a   5.24991226
_cell_length_b   9.08730800
_cell_length_c   10.20399730
_cell_angle_alpha   90.78653293
_cell_angle_beta   90.04837740
_cell_angle_gamma   89.52470429
_symmetry_Int_Tables_number   1
_chemical_formula_structural   LiFe2(BO3)2
_chemical_formula_sum   'Li4 Fe8 B8 O24'
_cell_volume   486.74516568
_cell_formula_units_Z   4
loop_
 _symmetry_equiv_pos_site_id
 _symmetry_equiv_pos_as_xyz
  1  'x, y, z'
loop_
 _atom_site_type_symbol
 _atom_site_label
 _atom_site_symmetry_multiplicity
 _atom_site_fract_x
 _atom_site_fract_y
 _atom_site_fract_z
 _atom_site_occupancy
  Li  Li0  1  0.81985826  0.83385833  0.15718192  1
  Li  Li1  1  0.67949610  0.67022595  0.41696846  1
  Li  Li2  1  0.66351508  0.67245510  0.90799049  1
  Li  Li3  1  0.33970771  0.32271234  0.65590551  1
  Fe  Fe4  1  0.84977266  0.15177844  0.62895416  1
  Fe  Fe5  1  0.81713496  0.49338844  0.13198826  1
  Fe  Fe6  1  0.68108977  0.00896231  0.87411872  1
  Fe  Fe7  1  0.67009890  0.32663750  0.37667606  1
  Fe  Fe8  1  0.31806855  0.66745943  0.63108985  1
  Fe  Fe9  1  0.33068514  0.00608680  0.12851421  1
  Fe  Fe10  1  0.16227413  0.85349589  0.38395073  1
  Fe  Fe11  1  0.17152365  0.49265892  0.88926691  1
  B  B12  1  0.82411362  0.49584814  0.62014954  1
  B  B13  1  0.83470353  0.16279213  0.13050630  1
  B  B14  1  0.65671511  0.00055360  0.37067212  1
  B  B15  1  0.66743077  0.33762964  0.87089564  1
  B  B16  1  0.34579910  0.99976540  0.63535735  1
  B  B17  1  0.32413182  0.67606949  0.12441314  1
  B  B18  1  0.17258240  0.50367763  0.38407131  1
  B  B19  1  0.17963063  0.83305976  0.88053231  1
  O  O20  1  0.90880184  0.50093229  0.35375795  1
  O  O21  1  0.91829191  0.84128222  0.88703865  1
  O  O22  1  0.80490360  0.20604482  0.84733912  1
  O  O23  1  0.76446417  0.12554111  0.42382617  1
  O  O24  1  0.78666011  0.86795863  0.36269745  1
  O  O25  1  0.79307737  0.46213240  0.91913258  1
  O  O26  1  0.67744708  0.62287715  0.61958151  1
  O  O27  1  0.69248938  0.04040231  0.08320767  1
  O  O28  1  0.71497015  0.36227102  0.58291290  1
  O  O29  1  0.70837513  0.28444172  0.18230260  1
  O  O30  1  0.58858481  0.67659662  0.11617930  1
  O  O31  1  0.59278236  0.99264921  0.68679223  1
  O  O32  1  0.41117212  0.00827183  0.32076982  1
  O  O33  1  0.41644791  0.34272532  0.84155223  1
  O  O34  1  0.30480833  0.70723097  0.83057141  1
  O  O35  1  0.28022508  0.63840810  0.42578739  1
  O  O36  1  0.32136014  0.38114522  0.37853371  1
  O  O37  1  0.33415983  0.94631651  0.92859730  1
  O  O38  1  0.18475284  0.55605628  0.08947908  1
  O  O39  1  0.21936695  0.12881306  0.62570520  1
  O  O40  1  0.23683233  0.86898551  0.58937298  1
  O  O41  1  0.19288606  0.80673966  0.16294415  1
  O  O42  1  0.09109373  0.15548551  0.12543681  1
  O  O43  1  0.08128991  0.50115127  0.65576481  1
