# generated using pymatgen
data_LiFe2(BO3)2
_symmetry_space_group_name_H-M   'P 1'
_cell_length_a   5.24191953
_cell_length_b   9.05851752
_cell_length_c   11.39505402
_cell_angle_alpha   66.93139811
_cell_angle_beta   77.42443732
_cell_angle_gamma   89.89454034
_symmetry_Int_Tables_number   1
_chemical_formula_structural   LiFe2(BO3)2
_chemical_formula_sum   'Li4 Fe8 B8 O24'
_cell_volume   483.76949330
_cell_formula_units_Z   4
loop_
 _symmetry_equiv_pos_site_id
 _symmetry_equiv_pos_as_xyz
  1  'x, y, z'
loop_
 _atom_site_type_symbol
 _atom_site_label
 _atom_site_symmetry_multiplicity
 _atom_site_fract_x
 _atom_site_fract_y
 _atom_site_fract_z
 _atom_site_occupancy
  Li  Li0  1  0.72793445  0.72786709  0.88252273  1
  Li  Li1  1  0.51303358  0.49093626  0.66309777  1
  Li  Li2  1  0.74529191  0.75688747  0.15411245  1
  Li  Li3  1  0.46954928  0.46369701  0.40454131  1
  Fe  Fe4  1  0.97686142  0.65912554  0.38353564  1
  Fe  Fe5  1  0.73940114  0.07267042  0.87623960  1
  Fe  Fe6  1  0.50972708  0.84816149  0.63185748  1
  Fe  Fe7  1  0.74898507  0.42914478  0.13020222  1
  Fe  Fe8  1  0.23168396  0.54651935  0.89067293  1
  Fe  Fe9  1  0.47995367  0.14380093  0.37357283  1
  Fe  Fe10  1  0.02852669  0.33926871  0.63063309  1
  Fe  Fe11  1  0.26605927  0.94092610  0.13036958  1
  B  B12  1  0.98587246  0.31590872  0.37581392  1
  B  B13  1  0.73271098  0.39735832  0.87324896  1
  B  B14  1  0.53349338  0.18788117  0.62299058  1
  B  B15  1  0.77080017  0.09712053  0.13076037  1
  B  B16  1  0.47200788  0.81350956  0.37674355  1
  B  B17  1  0.23312915  0.89475300  0.88139038  1
  B  B18  1  0.00564504  0.67807098  0.63627725  1
  B  B19  1  0.26166220  0.61451753  0.12557900  1
  O  O20  1  0.96903699  0.90101510  0.88683762  1
  O  O21  1  0.88644209  0.28083588  0.84756237  1
  O  O22  1  0.83266279  0.50043600  0.91995042  1
  O  O23  1  0.84834680  0.79064114  0.65854449  1
  O  O24  1  0.91081133  0.56931457  0.59340306  1
  O  O25  1  0.73924212  0.15456731  0.68581143  1
  O  O26  1  0.73333092  0.32720729  0.34770952  1
  O  O27  1  0.48997490  0.40830322  0.84901621  1
  O  O28  1  0.37991842  0.79519054  0.82982883  1
  O  O29  1  0.55535728  0.91272524  0.43206211  1
  O  O30  1  0.60621978  0.68674215  0.36714698  1
  O  O31  1  0.36428248  0.98378607  0.93001178  1
  O  O32  1  0.65051223  0.99655480  0.08504969  1
  O  O33  1  0.41623707  0.32888840  0.60283412  1
  O  O34  1  0.45074785  0.07753150  0.57783898  1
  O  O35  1  0.61651954  0.19170930  0.18179672  1
  O  O36  1  0.52815843  0.61795691  0.11976011  1
  O  O37  1  0.25942996  0.66823628  0.65826196  1
  O  O38  1  0.25290833  0.84997112  0.32522050  1
  O  O39  1  0.07737987  0.42794541  0.41687566  1
  O  O40  1  0.13512251  0.19486260  0.36902916  1
  O  O41  1  0.13761107  0.51289456  0.08891586  1
  O  O42  1  0.11289061  0.72579572  0.16408854  1
  O  O43  1  0.02885986  0.09309591  0.12676421  1
