# generated using pymatgen
data_Li3Fe8(BO3)8
_symmetry_space_group_name_H-M   'P 1'
_cell_length_a   5.25584236
_cell_length_b   5.27095839
_cell_length_c   20.07931482
_cell_angle_alpha   89.68989973
_cell_angle_beta   90.40631763
_cell_angle_gamma   60.74818843
_symmetry_Int_Tables_number   1
_chemical_formula_structural   Li3Fe8(BO3)8
_chemical_formula_sum   'Li3 Fe8 B8 O24'
_cell_volume   485.29203235
_cell_formula_units_Z   1
loop_
 _symmetry_equiv_pos_site_id
 _symmetry_equiv_pos_as_xyz
  1  'x, y, z'
loop_
 _atom_site_type_symbol
 _atom_site_label
 _atom_site_symmetry_multiplicity
 _atom_site_fract_x
 _atom_site_fract_y
 _atom_site_fract_z
 _atom_site_occupancy
  Li  Li0  1  0.35819079  0.66712632  0.91887242  1
  Li  Li1  1  0.33378261  0.64222487  0.17081678  1
  Li  Li2  1  0.65595844  0.34450616  0.54923442  1
  Fe  Fe3  1  0.98165747  0.67708250  0.81046264  1
  Fe  Fe4  1  0.00101726  0.67339524  0.30981484  1
  Fe  Fe5  1  0.68430350  0.00848428  0.93709061  1
  Fe  Fe6  1  0.67515475  0.99491314  0.43504788  1
  Fe  Fe7  1  0.31888623  0.99368024  0.56075004  1
  Fe  Fe8  1  0.32373685  0.01540663  0.06064662  1
  Fe  Fe9  1  0.00478578  0.33335938  0.68348346  1
  Fe  Fe10  1  0.99141593  0.31437141  0.18733141  1
  B  B11  1  0.00375386  0.33698512  0.93583356  1
  B  B12  1  0.00229659  0.33709058  0.43664683  1
  B  B13  1  0.32655625  0.01203438  0.81176116  1
  B  B14  1  0.33924030  0.00311737  0.31203644  1
  B  B15  1  0.66208679  0.00171210  0.68512703  1
  B  B16  1  0.66127224  0.99487847  0.18592401  1
  B  B17  1  0.99870478  0.66470918  0.55975036  1
  B  B18  1  0.99026386  0.67131334  0.06324406  1
  O  O19  1  0.11218715  0.27563221  0.78485690  1
  O  O20  1  0.11715942  0.27181128  0.29026318  1
  O  O21  1  0.25448258  0.08292509  0.95872523  1
  O  O22  1  0.03501066  0.57407568  0.91335120  1
  O  O23  1  0.27422983  0.11461885  0.45630760  1
  O  O24  1  0.97936766  0.59828006  0.41329002  1
  O  O25  1  0.59260085  0.98437512  0.83194550  1
  O  O26  1  0.26254926  0.65116622  0.55989683  1
  O  O27  1  0.60421448  0.98396213  0.33330283  1
  O  O28  1  0.22183296  0.71939655  0.07123931  1
  O  O29  1  0.27348512  0.78611900  0.82211247  1
  O  O30  1  0.30402151  0.76443323  0.30999472  1
  O  O31  1  0.71202081  0.22909986  0.67769078  1
  O  O32  1  0.64874880  0.25781328  0.18484458  1
  O  O33  1  0.73882315  0.35200104  0.93440084  1
  O  O34  1  0.39835025  0.02289206  0.66557508  1
  O  O35  1  0.76176337  0.30364742  0.44477966  1
  O  O36  1  0.42180508  0.96605437  0.16369124  1
  O  O37  1  0.96892508  0.42621741  0.58224139  1
  O  O38  1  0.02191847  0.40256456  0.08125166  1
  O  O39  1  0.74373843  0.91361261  0.53747243  1
  O  O40  1  0.72536579  0.88772272  0.03880708  1
  O  O41  1  0.88040372  0.73394850  0.71105143  1
  O  O42  1  0.91415328  0.74227303  0.20833248  1
