# generated using pymatgen
data_Mn12O5F19
_symmetry_space_group_name_H-M   'P 1'
_cell_length_a   4.81270823
_cell_length_b   5.83095421
_cell_length_c   16.13350379
_cell_angle_alpha   89.80226488
_cell_angle_beta   90.10222015
_cell_angle_gamma   87.54076262
_symmetry_Int_Tables_number   1
_chemical_formula_structural   Mn12O5F19
_chemical_formula_sum   'Mn12 O5 F19'
_cell_volume   452.32885421
_cell_formula_units_Z   1
loop_
 _symmetry_equiv_pos_site_id
 _symmetry_equiv_pos_as_xyz
  1  'x, y, z'
loop_
 _atom_site_type_symbol
 _atom_site_label
 _atom_site_symmetry_multiplicity
 _atom_site_fract_x
 _atom_site_fract_y
 _atom_site_fract_z
 _atom_site_occupancy
  Mn  Mn0  1  0.99502983  0.16972995  0.41295920  1
  Mn  Mn1  1  0.02450933  0.83381630  0.24007855  1
  Mn  Mn2  1  0.99836014  0.15770519  0.08244181  1
  Mn  Mn3  1  0.00526563  0.17092662  0.73992484  1
  Mn  Mn4  1  0.00872781  0.85301590  0.58345009  1
  Mn  Mn5  1  0.00436884  0.84025404  0.91296906  1
  Mn  Mn6  1  0.49165806  0.32043119  0.59338474  1
  Mn  Mn7  1  0.52812296  0.33467113  0.92578623  1
  Mn  Mn8  1  0.51651154  0.33532930  0.25702482  1
  Mn  Mn9  1  0.49587749  0.65582658  0.08427132  1
  Mn  Mn10  1  0.52410167  0.64516584  0.41659029  1
  Mn  Mn11  1  0.51169067  0.64082361  0.74874005  1
  O  O12  1  0.21308274  0.12120637  0.63861910  1
  O  O13  1  0.22255671  0.88732557  0.12826330  1
  O  O14  1  0.72564764  0.39130412  0.03817490  1
  O  O15  1  0.72529071  0.40184490  0.36740044  1
  O  O16  1  0.71283549  0.36744855  0.69322143  1
  F  F17  1  0.22323808  0.11042271  0.30455422  1
  F  F18  1  0.20986223  0.12381028  0.97254356  1
  F  F19  1  0.24579651  0.87861106  0.46693661  1
  F  F20  1  0.23626352  0.89721600  0.80020368  1
  F  F21  1  0.25399083  0.39098509  0.14661804  1
  F  F22  1  0.27018862  0.61695656  0.31462142  1
  F  F23  1  0.27855195  0.38224941  0.48267846  1
  F  F24  1  0.26008219  0.61313034  0.64247692  1
  F  F25  1  0.26769892  0.38993650  0.81437649  1
  F  F26  1  0.27921277  0.61832187  0.97687933  1
  F  F27  1  0.70780723  0.62614044  0.19288891  1
  F  F28  1  0.72415248  0.61014310  0.53021967  1
  F  F29  1  0.72993802  0.61206166  0.86202589  1
  F  F30  1  0.77699688  0.11496821  0.18885799  1
  F  F31  1  0.75993923  0.10453015  0.52159682  1
  F  F32  1  0.77057266  0.88627471  0.35491953  1
  F  F33  1  0.74844347  0.89924675  0.02098586  1
  F  F34  1  0.78607098  0.12132623  0.85016828  1
  F  F35  1  0.76755217  0.87684476  0.69314614  1
