# generated using pymatgen
data_LiNi6O6F
_symmetry_space_group_name_H-M   'P 1'
_cell_length_a   2.97358299
_cell_length_b   2.97358299
_cell_length_c   15.00139599
_cell_angle_alpha   95.68793469
_cell_angle_beta   84.31206531
_cell_angle_gamma   90.00000000
_symmetry_Int_Tables_number   1
_chemical_formula_structural   LiNi6O6F
_chemical_formula_sum   'Li1 Ni6 O6 F1'
_cell_volume   131.33586552
_cell_formula_units_Z   1
loop_
 _symmetry_equiv_pos_site_id
 _symmetry_equiv_pos_as_xyz
  1  'x, y, z'
loop_
 _atom_site_type_symbol
 _atom_site_label
 _atom_site_symmetry_multiplicity
 _atom_site_fract_x
 _atom_site_fract_y
 _atom_site_fract_z
 _atom_site_occupancy
  Li  Li0  1  0.57142900  0.42857100  0.85714300  1
  Ni  Ni1  1  0.99853013  0.00146987  0.00294074  1
  Ni  Ni2  1  0.42846597  0.57153403  0.14306706  1
  Ni  Ni3  1  0.85697502  0.14302498  0.28604996  1
  Ni  Ni4  1  0.28588198  0.71411802  0.42823604  1
  Ni  Ni5  1  0.71439103  0.28560897  0.57121894  1
  Ni  Ni6  1  0.14432687  0.85567313  0.71134526  1
  O  O7  1  0.49983503  0.50016497  0.00032993  1
  O  O8  1  0.92811758  0.07188242  0.14376384  1
  O  O9  1  0.35701072  0.64298928  0.28597856  1
  O  O10  1  0.78584628  0.21415372  0.42830744  1
  O  O11  1  0.21473942  0.78526058  0.57052216  1
  O  O12  1  0.64302197  0.35697803  0.71395607  1
  F  F13  1  0.07142900  0.92857100  0.85714300  1
