# generated using pymatgen
data_Li4Fe5Ni(PO4)6
_symmetry_space_group_name_H-M   'P 1'
_cell_length_a   8.35496334
_cell_length_b   8.91460821
_cell_length_c   8.91562803
_cell_angle_alpha   59.93215906
_cell_angle_beta   58.40203314
_cell_angle_gamma   58.61867717
_symmetry_Int_Tables_number   1
_chemical_formula_structural   Li4Fe5Ni(PO4)6
_chemical_formula_sum   'Li4 Fe5 Ni1 P6 O24'
_cell_volume   458.47265809
_cell_formula_units_Z   1
loop_
 _symmetry_equiv_pos_site_id
 _symmetry_equiv_pos_as_xyz
  1  'x, y, z'
loop_
 _atom_site_type_symbol
 _atom_site_label
 _atom_site_symmetry_multiplicity
 _atom_site_fract_x
 _atom_site_fract_y
 _atom_site_fract_z
 _atom_site_occupancy
  Li  Li0  1  0.25148102  0.85467222  0.64250809  1
  Li  Li1  1  0.74813470  0.15417132  0.34298897  1
  Li  Li2  1  0.74713077  0.75756928  0.15002547  1
  Li  Li3  1  0.74669413  0.34523906  0.75704053  1
  Fe  Fe4  1  0.00507092  0.00093391  0.00295316  1
  Fe  Fe5  1  0.06585068  0.64253175  0.64575792  1
  Fe  Fe6  1  0.49955754  0.49551345  0.49799073  1
  Fe  Fe7  1  0.43404902  0.85367253  0.85849575  1
  Fe  Fe8  1  0.95582530  0.34813390  0.34513617  1
  Ni  Ni9  1  0.55390517  0.15200946  0.14811827  1
  P  P10  1  0.25120293  0.25239531  0.55458722  1
  P  P11  1  0.24964343  0.94472341  0.24959581  1
  P  P12  1  0.24987046  0.55489052  0.94468767  1
  P  P13  1  0.74981132  0.45472101  0.04261852  1
  P  P14  1  0.76022410  0.04223665  0.75037046  1
  P  P15  1  0.73846449  0.75317675  0.45650056  1
  O  O16  1  0.05440169  0.09925255  0.31182928  1
  O  O17  1  0.05268001  0.53224890  0.09807351  1
  O  O18  1  0.05409218  0.31963457  0.52880790  1
  O  O19  1  0.23053689  0.09034172  0.74453353  1
  O  O20  1  0.44230057  0.19060876  0.39574558  1
  O  O21  1  0.27335088  0.40505540  0.57481500  1
  O  O22  1  0.23200762  0.92110577  0.09667004  1
  O  O23  1  0.27084364  0.75573914  0.41222356  1
  O  O24  1  0.56549398  0.60864709  0.99640904  1
  O  O25  1  0.27522528  0.58136208  0.74529669  1
  O  O26  1  0.77841246  0.25947607  0.05693963  1
  O  O27  1  0.58568034  0.98432821  0.81601882  1
  O  O28  1  0.44190047  0.97788645  0.18588511  1
  O  O29  1  0.22738760  0.75314131  0.91947352  1
  O  O30  1  0.71994952  0.43331085  0.23958011  1
  O  O31  1  0.43981297  0.39607020  0.97522862  1
  O  O32  1  0.72562357  0.23774395  0.60167415  1
  O  O33  1  0.77617280  0.06479344  0.90573471  1
  O  O34  1  0.72019996  0.60142854  0.43189184  1
  O  O35  1  0.53925367  0.82268665  0.60654518  1
  O  O36  1  0.77478375  0.90431791  0.26023836  1
  O  O37  1  0.91461307  0.68761355  0.51277214  1
  O  O38  1  0.93795269  0.49782695  0.88895168  1
  O  O39  1  0.96040642  0.89178644  0.68228469  1
