# generated using pymatgen
data_LiNiPO4
_symmetry_space_group_name_H-M   'P 1'
_cell_length_a   7.46736308
_cell_length_b   13.95621568
_cell_length_c   5.75278509
_cell_angle_alpha   90.00012617
_cell_angle_beta   90.00042347
_cell_angle_gamma   89.99994652
_symmetry_Int_Tables_number   1
_chemical_formula_structural   LiNiPO4
_chemical_formula_sum   'Li8 Ni8 P8 O32'
_cell_volume   599.53299710
_cell_formula_units_Z   8
loop_
 _symmetry_equiv_pos_site_id
 _symmetry_equiv_pos_as_xyz
  1  'x, y, z'
loop_
 _atom_site_type_symbol
 _atom_site_label
 _atom_site_symmetry_multiplicity
 _atom_site_fract_x
 _atom_site_fract_y
 _atom_site_fract_z
 _atom_site_occupancy
  Li  Li0  1  0.19309159  0.22075785  0.15287012  1
  Li  Li1  1  0.19309268  0.27924191  0.65286905  1
  Li  Li2  1  0.30690950  0.77924158  0.65286982  1
  Li  Li3  1  0.30690914  0.72075853  0.15286875  1
  Li  Li4  1  0.69309005  0.22075885  0.34712902  1
  Li  Li5  1  0.69308957  0.27924194  0.84712960  1
  Li  Li6  1  0.80690896  0.72075805  0.34713019  1
  Li  Li7  1  0.80690918  0.77924102  0.84712930  1
  Ni  Ni8  1  0.17923856  0.53353412  0.40088612  1
  Ni  Ni9  1  0.17924383  0.96646455  0.90087746  1
  Ni  Ni10  1  0.32075432  0.03353383  0.40087545  1
  Ni  Ni11  1  0.32075442  0.46646744  0.90088065  1
  Ni  Ni12  1  0.67922744  0.53354025  0.09912722  1
  Ni  Ni13  1  0.67923897  0.96646427  0.59911314  1
  Ni  Ni14  1  0.82076275  0.03353638  0.09911093  1
  Ni  Ni15  1  0.82077454  0.46645856  0.59912498  1
  P  P16  1  0.04471569  0.62639650  0.90148405  1
  P  P17  1  0.04471798  0.87360356  0.40147924  1
  P  P18  1  0.45528260  0.12639608  0.90147748  1
  P  P19  1  0.45528368  0.37360498  0.40147985  1
  P  P20  1  0.54472116  0.62639464  0.59852310  1
  P  P21  1  0.54471872  0.87360356  0.09851826  1
  P  P22  1  0.95528100  0.12639665  0.59851744  1
  P  P23  1  0.95528094  0.37360427  0.09852072  1
  O  O24  1  0.97686822  0.06131689  0.81852269  1
  O  O25  1  0.97686924  0.43868302  0.31852489  1
  O  O26  1  0.10907195  0.77347942  0.34373627  1
  O  O27  1  0.10907159  0.72651912  0.84373602  1
  O  O28  1  0.13482364  0.13325487  0.46764217  1
  O  O29  1  0.13481939  0.36674794  0.96764157  1
  O  O30  1  0.19074222  0.57738473  0.06057387  1
  O  O31  1  0.19074613  0.92261572  0.56056983  1
  O  O32  1  0.30925427  0.07738486  0.06056779  1
  O  O33  1  0.30925609  0.42261639  0.56056848  1
  O  O34  1  0.36518113  0.63325243  0.46764411  1
  O  O35  1  0.36517552  0.86674520  0.96764103  1
  O  O36  1  0.39092770  0.22652035  0.84373665  1
  O  O37  1  0.39092879  0.27348140  0.34373650  1
  O  O38  1  0.52313138  0.56131752  0.81852867  1
  O  O39  1  0.52313127  0.93868301  0.31852352  1
  O  O40  1  0.47686504  0.43868352  0.18147313  1
  O  O41  1  0.47686481  0.06131591  0.68147072  1
  O  O42  1  0.60907591  0.72651872  0.65625966  1
  O  O43  1  0.60907248  0.77347919  0.15626075  1
  O  O44  1  0.63482538  0.13325470  0.03235691  1
  O  O45  1  0.63482622  0.36674599  0.53235712  1
  O  O46  1  0.69075055  0.57737888  0.43944768  1
  O  O47  1  0.69074530  0.92261571  0.93942862  1
  O  O48  1  0.80925440  0.07738331  0.43942677  1
  O  O49  1  0.80925217  0.42261989  0.93944400  1
  O  O50  1  0.86517360  0.63325438  0.03235816  1
  O  O51  1  0.86517579  0.86674527  0.53235556  1
  O  O52  1  0.89092742  0.22652094  0.65626202  1
  O  O53  1  0.89092439  0.27348132  0.15626068  1
  O  O54  1  0.02313472  0.56131648  0.68147921  1
  O  O55  1  0.02313602  0.93868358  0.18147305  1
