# generated using pymatgen
data_Li6V5(P2O7)4
_symmetry_space_group_name_H-M   'P 1'
_cell_length_a   13.20451032
_cell_length_b   9.18197221
_cell_length_c   10.52497630
_cell_angle_alpha   66.17918948
_cell_angle_beta   87.86025907
_cell_angle_gamma   73.76906853
_symmetry_Int_Tables_number   1
_chemical_formula_structural   Li6V5(P2O7)4
_chemical_formula_sum   'Li12 V10 P16 O56'
_cell_volume   1116.69637380
_cell_formula_units_Z   2
loop_
 _symmetry_equiv_pos_site_id
 _symmetry_equiv_pos_as_xyz
  1  'x, y, z'
loop_
 _atom_site_type_symbol
 _atom_site_label
 _atom_site_symmetry_multiplicity
 _atom_site_fract_x
 _atom_site_fract_y
 _atom_site_fract_z
 _atom_site_occupancy
  Li  Li0  1  0.18936660  0.08426180  0.87217621  1
  Li  Li1  1  0.07837140  0.87855854  0.59128739  1
  Li  Li2  1  0.25000000  0.50000000  0.50000000  1
  Li  Li3  1  0.42162860  0.12144146  0.40871261  1
  Li  Li4  1  0.31063340  0.91573820  0.12782379  1
  Li  Li5  1  0.52774837  0.82260926  0.01131827  1
  Li  Li6  1  0.69392435  0.10830208  0.86093280  1
  Li  Li7  1  0.57050258  0.88899345  0.59524652  1
  Li  Li8  1  0.75000000  0.50000000  0.50000000  1
  Li  Li9  1  0.92949742  0.11100655  0.40475348  1
  Li  Li10  1  0.80607565  0.89169792  0.13906720  1
  Li  Li11  1  0.97225163  0.17739074  0.98868173  1
  V  V12  1  0.13850247  0.10171480  0.27821163  1
  V  V13  1  0.00858904  0.80440385  0.98968244  1
  V  V14  1  0.18427448  0.49122695  0.24337688  1
  V  V15  1  0.31572552  0.50877305  0.75662312  1
  V  V16  1  0.49141096  0.19559615  0.01031756  1
  V  V17  1  0.36149753  0.89828520  0.72178837  1
  V  V18  1  0.64241379  0.10065683  0.28218981  1
  V  V19  1  0.68245138  0.50126495  0.24121698  1
  V  V20  1  0.81754862  0.49873505  0.75878302  1
  V  V21  1  0.85758621  0.89934317  0.71781019  1
  P  P22  1  0.15075835  0.19366454  0.55499938  1
  P  P23  1  0.06317777  0.55079930  0.80810710  1
  P  P24  1  0.03889319  0.80845805  0.30280137  1
  P  P25  1  0.22240535  0.28452775  0.03895738  1
  P  P26  1  0.27759465  0.71547225  0.96104262  1
  P  P27  1  0.46110681  0.19154195  0.69719863  1
  P  P28  1  0.43682223  0.44920070  0.19189290  1
  P  P29  1  0.34924165  0.80633546  0.44500062  1
  P  P30  1  0.64939164  0.20224315  0.55126186  1
  P  P31  1  0.56749923  0.53697540  0.80631353  1
  P  P32  1  0.54000032  0.82069176  0.30481500  1
  P  P33  1  0.72048721  0.28966106  0.03975784  1
  P  P34  1  0.77951279  0.71033894  0.96024216  1
  P  P35  1  0.95999968  0.17930824  0.69518500  1
  P  P36  1  0.93250077  0.46302460  0.19368647  1
  P  P37  1  0.85060836  0.79775685  0.44873814  1
  O  O38  1  0.01138347  0.07334482  0.84862422  1
  O  O39  1  0.03975408  0.27911826  0.60410142  1
  O  O40  1  0.01390158  0.56252434  0.16716388  1
  O  O41  1  0.12932122  0.08434586  0.48662130  1
  O  O42  1  0.01170495  0.72482150  0.81048641  1
  O  O43  1  0.18369168  0.13694962  0.04462212  1
  O  O44  1  0.13153865  0.45308769  0.96035388  1
  O  O45  1  0.04696372  0.93359673  0.36222504  1
  O  O46  1  0.21994776  0.08868549  0.69275491  1
  O  O47  1  0.19034242  0.33590266  0.45770637  1
  O  O48  1  0.23249602  0.27562214  0.18729833  1
  O  O49  1  0.14406116  0.67876937  0.32052509  1
  O  O50  1  0.14367603  0.56240702  0.69925069  1
  O  O51  1  0.17828029  0.70487229  0.03949541  1
  O  O52  1  0.32171971  0.29512771  0.96050459  1
  O  O53  1  0.35632397  0.43759298  0.30074931  1
  O  O54  1  0.35593884  0.32123063  0.67947491  1
  O  O55  1  0.26750398  0.72437786  0.81270167  1
  O  O56  1  0.30965758  0.66409734  0.54229363  1
  O  O57  1  0.28005224  0.91131451  0.30724509  1
  O  O58  1  0.45303628  0.06640327  0.63777496  1
  O  O59  1  0.36846135  0.54691231  0.03964612  1
  O  O60  1  0.31630832  0.86305038  0.95537788  1
  O  O61  1  0.48829505  0.27517850  0.18951359  1
  O  O62  1  0.51522533  0.09962404  0.84906065  1
  O  O63  1  0.37067878  0.91565414  0.51337870  1
  O  O64  1  0.48609842  0.43747566  0.83283612  1
  O  O65  1  0.53861048  0.29128946  0.59778866  1
  O  O66  1  0.46024592  0.72088174  0.39589858  1
  O  O67  1  0.51491684  0.54410182  0.18862351  1
  O  O68  1  0.62474916  0.09578674  0.48231844  1
  O  O69  1  0.48861653  0.92665518  0.15137578  1
  O  O70  1  0.51677037  0.72140594  0.77237721  1
  O  O71  1  0.67370039  0.14570939  0.04536874  1
  O  O72  1  0.63142490  0.46289460  0.96173824  1
  O  O73  1  0.55036194  0.93478281  0.37495560  1
  O  O74  1  0.71740921  0.09079717  0.68942015  1
  O  O75  1  0.69392457  0.33920367  0.45562400  1
  O  O76  1  0.73255949  0.27836556  0.18846541  1
  O  O77  1  0.64283002  0.68926897  0.31754843  1
  O  O78  1  0.65274860  0.50579501  0.71169198  1
  O  O79  1  0.68067064  0.71338656  0.03807536  1
  O  O80  1  0.81932936  0.28661344  0.96192464  1
  O  O81  1  0.84725140  0.49420499  0.28830802  1
  O  O82  1  0.85716998  0.31073103  0.68245157  1
  O  O83  1  0.76744051  0.72163444  0.81153459  1
  O  O84  1  0.80607543  0.66079633  0.54437600  1
  O  O85  1  0.78259079  0.90920283  0.31057985  1
  O  O86  1  0.94963806  0.06521719  0.62504440  1
  O  O87  1  0.86857510  0.53710540  0.03826176  1
  O  O88  1  0.82629961  0.85429061  0.95463126  1
  O  O89  1  0.98322963  0.27859406  0.22762279  1
  O  O90  1  0.87525084  0.90421326  0.51768156  1
  O  O91  1  0.98508316  0.45589818  0.81137649  1
  O  O92  1  0.96138952  0.70871054  0.40221134  1
  O  O93  1  0.98477467  0.90037596  0.15093935  1
