# generated using pymatgen
data_ZnNi4O5
_symmetry_space_group_name_H-M   'P 1'
_cell_length_a   3.00552243
_cell_length_b   9.96149019
_cell_length_c   6.71446861
_cell_angle_alpha   78.30289876
_cell_angle_beta   102.93826482
_cell_angle_gamma   89.97956989
_symmetry_Int_Tables_number   1
_chemical_formula_structural   ZnNi4O5
_chemical_formula_sum   'Zn2 Ni8 O10'
_cell_volume   191.63469324
_cell_formula_units_Z   2
loop_
 _symmetry_equiv_pos_site_id
 _symmetry_equiv_pos_as_xyz
  1  'x, y, z'
loop_
 _atom_site_type_symbol
 _atom_site_label
 _atom_site_symmetry_multiplicity
 _atom_site_fract_x
 _atom_site_fract_y
 _atom_site_fract_z
 _atom_site_occupancy
  Zn  Zn0  1  0.00002192  0.00007786  0.00008172  1
  Zn  Zn1  1  0.79997808  0.59992214  0.59991828  1
  Ni  Ni2  1  0.29961304  0.10059789  0.59932606  1
  Ni  Ni3  1  0.60036499  0.20086745  0.20061929  1
  Ni  Ni4  1  0.50038696  0.49940211  0.00067394  1
  Ni  Ni5  1  0.19963501  0.39913255  0.39938071  1
  Ni  Ni6  1  0.10024362  0.69919435  0.20032202  1
  Ni  Ni7  1  0.90000000  0.30000000  0.80000000  1
  Ni  Ni8  1  0.69975638  0.90080565  0.39967798  1
  Ni  Ni9  1  0.40000000  0.80000000  0.80000000  1
  O  O10  1  0.15155985  0.05136960  0.30300882  1
  O  O11  1  0.05055416  0.34990985  0.10112773  1
  O  O12  1  0.44893038  0.15305794  0.89779950  1
  O  O13  1  0.74944584  0.25009015  0.49887227  1
  O  O14  1  0.64844015  0.54863040  0.29699118  1
  O  O15  1  0.35106962  0.44694206  0.70220050  1
  O  O16  1  0.24896909  0.75337544  0.49794369  1
  O  O17  1  0.55103091  0.84662456  0.10205631  1
  O  O18  1  0.95125300  0.65052965  0.90264389  1
  O  O19  1  0.84874700  0.94947035  0.69735611  1
