# generated using pymatgen
data_Zr9VO20
_symmetry_space_group_name_H-M   'P 1'
_cell_length_a   8.11095450
_cell_length_b   7.35919013
_cell_length_c   6.47492953
_cell_angle_alpha   71.40747659
_cell_angle_beta   75.49552291
_cell_angle_gamma   77.07398471
_symmetry_Int_Tables_number   1
_chemical_formula_structural   Zr9VO20
_chemical_formula_sum   'Zr9 V1 O20'
_cell_volume   350.25854142
_cell_formula_units_Z   1
loop_
 _symmetry_equiv_pos_site_id
 _symmetry_equiv_pos_as_xyz
  1  'x, y, z'
loop_
 _atom_site_type_symbol
 _atom_site_label
 _atom_site_symmetry_multiplicity
 _atom_site_fract_x
 _atom_site_fract_y
 _atom_site_fract_z
 _atom_site_occupancy
  Zr  Zr0  1  0.59422843  0.04931810  0.69684358  1
  Zr  Zr1  1  0.60310506  0.55054497  0.69088766  1
  Zr  Zr2  1  0.19571706  0.34660733  0.90217734  1
  Zr  Zr3  1  0.79784484  0.15481726  0.10347989  1
  Zr  Zr4  1  0.00026246  0.24332083  0.50793228  1
  Zr  Zr5  1  0.80589595  0.64968578  0.09559038  1
  Zr  Zr6  1  0.39591087  0.46123920  0.28884558  1
  Zr  Zr7  1  0.00377210  0.74386808  0.50850543  1
  Zr  Zr8  1  0.40536748  0.94828173  0.30139867  1
  V  V9  1  0.19538332  0.85609201  0.90597241  1
  O  O10  1  0.34867535  0.01188040  0.91710562  1
  O  O11  1  0.75799938  0.23073398  0.70985632  1
  O  O12  1  0.86846535  0.02342654  0.41496710  1
  O  O13  1  0.73869077  0.77265590  0.78438977  1
  O  O14  1  0.84170842  0.57858571  0.47215065  1
  O  O15  1  0.43751996  0.36396513  0.70062930  1
  O  O16  1  0.93308996  0.36606533  0.19091024  1
  O  O17  1  0.32661204  0.59965252  0.97373964  1
  O  O18  1  0.02890356  0.18521715  0.87463759  1
  O  O19  1  0.54270511  0.18130644  0.37911382  1
  O  O20  1  0.48120721  0.83463714  0.60088723  1
  O  O21  1  0.26263085  0.22599493  0.21484516  1
  O  O22  1  0.16329951  0.42504630  0.51385060  1
  O  O23  1  0.97730270  0.83357278  0.09645620  1
  O  O24  1  0.56547155  0.62087294  0.31944170  1
  O  O25  1  0.04631369  0.61454017  0.82585498  1
  O  O26  1  0.65368508  0.43097819  0.01230010  1
  O  O27  1  0.24411650  0.76529381  0.30369891  1
  O  O28  1  0.64083641  0.97118662  0.08177290  1
  O  O29  1  0.14327703  0.96061074  0.61175794  1
