# generated using pymatgen
data_WOF4
_symmetry_space_group_name_H-M   'P 1'
_cell_length_a   11.07890773
_cell_length_b   5.12076547
_cell_length_c   15.05845915
_cell_angle_alpha   90.00000000
_cell_angle_beta   75.14980445
_cell_angle_gamma   90.00000000
_symmetry_Int_Tables_number   1
_chemical_formula_structural   WOF4
_chemical_formula_sum   'W8 O8 F32'
_cell_volume   825.76944620
_cell_formula_units_Z   8
loop_
 _symmetry_equiv_pos_site_id
 _symmetry_equiv_pos_as_xyz
  1  'x, y, z'
loop_
 _atom_site_type_symbol
 _atom_site_label
 _atom_site_symmetry_multiplicity
 _atom_site_fract_x
 _atom_site_fract_y
 _atom_site_fract_z
 _atom_site_occupancy
  W  W0  1  0.16015051  0.92499328  0.42095059  1
  W  W1  1  0.33984949  0.42499328  0.07904941  1
  W  W2  1  0.08828590  0.98396617  0.82914665  1
  W  W3  1  0.41171410  0.48396617  0.67085335  1
  W  W4  1  0.58828590  0.51603383  0.32914665  1
  W  W5  1  0.91171410  0.01603383  0.17085335  1
  W  W6  1  0.66015051  0.57500672  0.92095059  1
  W  W7  1  0.83984949  0.07500672  0.57904941  1
  O  O8  1  0.03436111  0.80117660  0.14521513  1
  O  O9  1  0.21650119  0.21194863  0.09723964  1
  O  O10  1  0.28349881  0.71194863  0.40276036  1
  O  O11  1  0.46563889  0.30117660  0.35478487  1
  O  O12  1  0.53436111  0.69882340  0.64521513  1
  O  O13  1  0.71650119  0.28805137  0.59723964  1
  O  O14  1  0.78349881  0.78805137  0.90276036  1
  O  O15  1  0.96563889  0.19882340  0.85478487  1
  F  F16  1  0.05642423  0.75617582  0.35699231  1
  F  F17  1  0.04382969  0.79207063  0.53144382  1
  F  F18  1  0.29504171  0.67421173  0.00114717  1
  F  F19  1  0.04232668  0.73612839  0.75101677  1
  F  F20  1  0.20604707  0.16241207  0.32310222  1
  F  F21  1  0.29395293  0.66241207  0.17689778  1
  F  F22  1  0.04780171  0.73428257  0.92407227  1
  F  F23  1  0.20495829  0.17421173  0.49885283  1
  F  F24  1  0.19588644  0.13666195  0.72066728  1
  F  F25  1  0.44357577  0.25617582  0.14300769  1
  F  F26  1  0.20024020  0.12940539  0.89107331  1
  F  F27  1  0.29975980  0.62940539  0.60892669  1
  F  F28  1  0.54382969  0.70792937  0.03144382  1
  F  F29  1  0.30411356  0.63666195  0.77933272  1
  F  F30  1  0.54232668  0.76387161  0.25101677  1
  F  F31  1  0.45219829  0.23428257  0.57592773  1
  F  F32  1  0.54780171  0.76571743  0.42407227  1
  F  F33  1  0.45767332  0.23612839  0.74898323  1
  F  F34  1  0.69588644  0.36333805  0.22066728  1
  F  F35  1  0.45617031  0.29207063  0.96855618  1
  F  F36  1  0.70024020  0.37059461  0.39107331  1
  F  F37  1  0.79975980  0.87059461  0.10892669  1
  F  F38  1  0.55642423  0.74382418  0.85699231  1
  F  F39  1  0.80411356  0.86333805  0.27933272  1
  F  F40  1  0.79504171  0.82578827  0.50114717  1
  F  F41  1  0.95219829  0.26571743  0.07592773  1
  F  F42  1  0.70604707  0.33758793  0.82310222  1
  F  F43  1  0.79395293  0.83758793  0.67689778  1
  F  F44  1  0.95767332  0.26387161  0.24898323  1
  F  F45  1  0.70495829  0.32578827  0.99885283  1
  F  F46  1  0.95617031  0.20792937  0.46855618  1
  F  F47  1  0.94357577  0.24382418  0.64300769  1
