# generated using pymatgen
data_Li6NbFe5O12
_symmetry_space_group_name_H-M   'P 1'
_cell_length_a   5.21304401
_cell_length_b   5.21320815
_cell_length_c   10.31009894
_cell_angle_alpha   94.14127848
_cell_angle_beta   85.84661286
_cell_angle_gamma   59.84949536
_symmetry_Int_Tables_number   1
_chemical_formula_structural   Li6NbFe5O12
_chemical_formula_sum   'Li6 Nb1 Fe5 O12'
_cell_volume   239.72693182
_cell_formula_units_Z   1
loop_
 _symmetry_equiv_pos_site_id
 _symmetry_equiv_pos_as_xyz
  1  'x, y, z'
loop_
 _atom_site_type_symbol
 _atom_site_label
 _atom_site_symmetry_multiplicity
 _atom_site_fract_x
 _atom_site_fract_y
 _atom_site_fract_z
 _atom_site_occupancy
  Li  Li0  1  0.29739645  0.05332887  0.24711371  1
  Li  Li1  1  0.04300423  0.29989517  0.75771908  1
  Li  Li2  1  0.38559494  0.61439641  0.74792198  1
  Li  Li3  1  0.61751515  0.38251910  0.24249208  1
  Li  Li4  1  0.94668714  0.70276509  0.24720651  1
  Li  Li5  1  0.70006762  0.95691291  0.75777251  1
  Nb  Nb6  1  0.02182037  0.97820244  0.00099803  1
  Fe  Fe7  1  0.66141538  0.66966569  0.99985994  1
  Fe  Fe8  1  0.50023169  0.49982590  0.49714113  1
  Fe  Fe9  1  0.33022091  0.33864577  0.99986879  1
  Fe  Fe10  1  0.83260717  0.83575691  0.50101265  1
  Fe  Fe11  1  0.16426598  0.16736250  0.50096934  1
  O  O12  1  0.65748320  0.01994134  0.11431681  1
  O  O13  1  0.03020434  0.65604269  0.87749506  1
  O  O14  1  0.53729275  0.79974577  0.38742988  1
  O  O15  1  0.13305984  0.86690523  0.60908600  1
  O  O16  1  0.79671772  0.53587809  0.61269027  1
  O  O17  1  0.28379645  0.71617000  0.12560022  1
  O  O18  1  0.70569295  0.29430500  0.89181755  1
  O  O19  1  0.20028183  0.46279404  0.38743031  1
  O  O20  1  0.86663447  0.13338914  0.38948136  1
  O  O21  1  0.46406036  0.20323033  0.61268191  1
  O  O22  1  0.98001073  0.34245771  0.11431292  1
  O  O23  1  0.34394934  0.96985293  0.87757794  1
