# generated using pymatgen
data_La6Sm2V3Cr5O24
_symmetry_space_group_name_H-M   'P 1'
_cell_length_a   7.87447156
_cell_length_b   7.91822724
_cell_length_c   7.81597501
_cell_angle_alpha   90.00000000
_cell_angle_beta   90.00000000
_cell_angle_gamma   89.96498727
_symmetry_Int_Tables_number   1
_chemical_formula_structural   La6Sm2V3Cr5O24
_chemical_formula_sum   'La6 Sm2 V3 Cr5 O24'
_cell_volume   487.34045096
_cell_formula_units_Z   1
loop_
 _symmetry_equiv_pos_site_id
 _symmetry_equiv_pos_as_xyz
  1  'x, y, z'
loop_
 _atom_site_type_symbol
 _atom_site_label
 _atom_site_symmetry_multiplicity
 _atom_site_fract_x
 _atom_site_fract_y
 _atom_site_fract_z
 _atom_site_occupancy
  La  La0  1  0.25155539  0.25232269  0.24971316  1
  La  La1  1  0.25155539  0.25232269  0.75028684  1
  La  La2  1  0.25148170  0.74752957  0.25001040  1
  La  La3  1  0.25148170  0.74752957  0.74998960  1
  La  La4  1  0.74855121  0.74745046  0.24969836  1
  La  La5  1  0.74855121  0.74745046  0.75030164  1
  Sm  Sm6  1  0.74806399  0.25329877  0.24982983  1
  Sm  Sm7  1  0.74806399  0.25329877  0.75017017  1
  V  V8  1  0.99920355  0.00082367  0.00000000  1
  V  V9  1  0.99958817  0.00047179  0.50000000  1
  V  V10  1  0.50049581  0.00071648  0.00000000  1
  Cr  Cr11  1  0.99960146  0.49959985  0.00000000  1
  Cr  Cr12  1  0.99947376  0.49939992  0.50000000  1
  Cr  Cr13  1  0.50055688  0.00047621  0.50000000  1
  Cr  Cr14  1  0.50047231  0.49957301  0.00000000  1
  Cr  Cr15  1  0.50048670  0.49948367  0.50000000  1
  O  O16  1  0.25210550  0.99919879  0.00000000  1
  O  O17  1  0.25218119  0.00157785  0.50000000  1
  O  O18  1  0.24992045  0.49958825  0.00000000  1
  O  O19  1  0.25053107  0.49990203  0.50000000  1
  O  O20  1  0.74777802  0.00447313  0.00000000  1
  O  O21  1  0.74796558  0.00226527  0.50000000  1
  O  O22  1  0.75012406  0.49641130  0.00000000  1
  O  O23  1  0.74947641  0.49607513  0.50000000  1
  O  O24  1  0.99495527  0.25209176  0.00000000  1
  O  O25  1  0.99768016  0.25290114  0.50000000  1
  O  O26  1  0.00125206  0.74820293  0.00000000  1
  O  O27  1  0.99838442  0.74683537  0.50000000  1
  O  O28  1  0.50395448  0.25456342  0.00000000  1
  O  O29  1  0.50391683  0.25052787  0.50000000  1
  O  O30  1  0.50015976  0.74547528  0.00000000  1
  O  O31  1  0.50009214  0.74936131  0.50000000  1
  O  O32  1  0.99825776  0.00166840  0.24988132  1
  O  O33  1  0.99825776  0.00166840  0.75011868  1
  O  O34  1  0.99802210  0.49796155  0.24988468  1
  O  O35  1  0.99802210  0.49796155  0.75011532  1
  O  O36  1  0.50181593  0.00185096  0.25098397  1
  O  O37  1  0.50181593  0.00185096  0.74901603  1
  O  O38  1  0.50207392  0.49791987  0.25049188  1
  O  O39  1  0.50207392  0.49791987  0.74950812  1
