# generated using pymatgen
data_Mn2F7
_symmetry_space_group_name_H-M   'P 1'
_cell_length_a   7.42407097
_cell_length_b   7.35369298
_cell_length_c   9.50791545
_cell_angle_alpha   90.00000000
_cell_angle_beta   88.49373511
_cell_angle_gamma   90.00000000
_symmetry_Int_Tables_number   1
_chemical_formula_structural   Mn2F7
_chemical_formula_sum   'Mn8 F28'
_cell_volume   518.89899094
_cell_formula_units_Z   4
loop_
 _symmetry_equiv_pos_site_id
 _symmetry_equiv_pos_as_xyz
  1  'x, y, z'
loop_
 _atom_site_type_symbol
 _atom_site_label
 _atom_site_symmetry_multiplicity
 _atom_site_fract_x
 _atom_site_fract_y
 _atom_site_fract_z
 _atom_site_occupancy
  Mn  Mn0  1  0.09156003  0.63711961  0.09907536  1
  Mn  Mn1  1  0.09156003  0.86288039  0.59907536  1
  Mn  Mn2  1  0.37362425  0.64054045  0.43377155  1
  Mn  Mn3  1  0.37362425  0.85945955  0.93377155  1
  Mn  Mn4  1  0.62637575  0.14054045  0.06622845  1
  Mn  Mn5  1  0.62637575  0.35945955  0.56622845  1
  Mn  Mn6  1  0.90843997  0.13711961  0.40092464  1
  Mn  Mn7  1  0.90843997  0.36288039  0.90092464  1
  F  F8  1  0.03851122  0.38570994  0.08764687  1
  F  F9  1  0.03851122  0.11429006  0.58764687  1
  F  F10  1  0.11462882  0.19229377  0.31795065  1
  F  F11  1  0.17191073  0.88830719  0.07050442  1
  F  F12  1  0.20873344  0.62353304  0.27925629  1
  F  F13  1  0.11462882  0.30770623  0.81795065  1
  F  F14  1  0.17191073  0.61169281  0.57050442  1
  F  F15  1  0.20873344  0.87646696  0.77925629  1
  F  F16  1  0.31533709  0.61064097  0.98688456  1
  F  F17  1  0.31533709  0.88935903  0.48688456  1
  F  F18  1  0.43226068  0.39018121  0.42150110  1
  F  F19  1  0.43226068  0.10981879  0.92150110  1
  F  F20  1  0.45500979  0.20358604  0.18644180  1
  F  F21  1  0.45500979  0.29641396  0.68644180  1
  F  F22  1  0.54499021  0.70358604  0.31355820  1
  F  F23  1  0.54499021  0.79641396  0.81355820  1
  F  F24  1  0.56773932  0.89018121  0.07849890  1
  F  F25  1  0.56773932  0.60981879  0.57849890  1
  F  F26  1  0.68466291  0.11064097  0.51311544  1
  F  F27  1  0.68466291  0.38935903  0.01311544  1
  F  F28  1  0.79126656  0.12353304  0.22074371  1
  F  F29  1  0.82808927  0.38830719  0.42949558  1
  F  F30  1  0.88537118  0.69229377  0.18204935  1
  F  F31  1  0.79126656  0.37646696  0.72074371  1
  F  F32  1  0.82808927  0.11169281  0.92949558  1
  F  F33  1  0.88537118  0.80770623  0.68204935  1
  F  F34  1  0.96148878  0.88570994  0.41235313  1
  F  F35  1  0.96148878  0.61429006  0.91235313  1
