# generated using pymatgen
data_LiV2O5F
_symmetry_space_group_name_H-M   'P 1'
_cell_length_a   14.06815042
_cell_length_b   5.63665881
_cell_length_c   4.98633020
_cell_angle_alpha   90.00000000
_cell_angle_beta   90.00000000
_cell_angle_gamma   90.00000000
_symmetry_Int_Tables_number   1
_chemical_formula_structural   LiV2O5F
_chemical_formula_sum   'Li4 V8 O20 F4'
_cell_volume   395.40284092
_cell_formula_units_Z   4
loop_
 _symmetry_equiv_pos_site_id
 _symmetry_equiv_pos_as_xyz
  1  'x, y, z'
loop_
 _atom_site_type_symbol
 _atom_site_label
 _atom_site_symmetry_multiplicity
 _atom_site_fract_x
 _atom_site_fract_y
 _atom_site_fract_z
 _atom_site_occupancy
  Li  Li0  1  0.00000000  0.20019375  0.25000000  1
  Li  Li1  1  0.00000000  0.82074840  0.75000000  1
  Li  Li2  1  0.50000000  0.29980625  0.75000000  1
  Li  Li3  1  0.50000000  0.67925160  0.25000000  1
  V  V4  1  0.17230244  0.64234614  0.27032634  1
  V  V5  1  0.15714631  0.31511656  0.80471281  1
  V  V6  1  0.34285369  0.18488344  0.30471281  1
  V  V7  1  0.32769756  0.85765386  0.77032634  1
  V  V8  1  0.65714631  0.18488344  0.19528719  1
  V  V9  1  0.67230244  0.85765386  0.72967366  1
  V  V10  1  0.84285369  0.31511656  0.69528719  1
  V  V11  1  0.82769756  0.64234614  0.22967366  1
  O  O12  1  0.08427785  0.11647087  0.93718542  1
  O  O13  1  0.09977092  0.59235776  0.99402929  1
  O  O14  1  0.10368371  0.38792563  0.50270724  1
  O  O15  1  0.24974138  0.64356985  0.65534649  1
  O  O16  1  0.24271215  0.37078022  0.16192522  1
  O  O17  1  0.25728785  0.12921978  0.66192522  1
  O  O18  1  0.25025862  0.85643015  0.15534649  1
  O  O19  1  0.39631629  0.11207437  0.00270724  1
  O  O20  1  0.40022908  0.90764224  0.49402929  1
  O  O21  1  0.41572215  0.38352913  0.43718542  1
  O  O22  1  0.58427785  0.38352913  0.06281458  1
  O  O23  1  0.60368371  0.11207437  0.49729276  1
  O  O24  1  0.59977092  0.90764224  0.00597071  1
  O  O25  1  0.74271215  0.12921978  0.83807478  1
  O  O26  1  0.74974138  0.85643015  0.34465351  1
  O  O27  1  0.75728785  0.37078022  0.33807478  1
  O  O28  1  0.75025862  0.64356985  0.84465351  1
  O  O29  1  0.89631629  0.38792563  0.99729276  1
  O  O30  1  0.90022908  0.59235776  0.50597071  1
  O  O31  1  0.91572215  0.11647087  0.56281458  1
  F  F32  1  0.08846623  0.84445828  0.44823239  1
  F  F33  1  0.41153377  0.65554172  0.94823239  1
  F  F34  1  0.58846623  0.65554172  0.55176761  1
  F  F35  1  0.91153377  0.84445828  0.05176761  1
