# generated using pymatgen
data_LiFePO4
_symmetry_space_group_name_H-M   'P 1'
_cell_length_a   6.60129886
_cell_length_b   9.56104653
_cell_length_c   5.94663015
_cell_angle_alpha   97.01297857
_cell_angle_beta   99.69917998
_cell_angle_gamma   72.39298575
_symmetry_Int_Tables_number   1
_chemical_formula_structural   LiFePO4
_chemical_formula_sum   'Li4 Fe4 P4 O16'
_cell_volume   351.61525878
_cell_formula_units_Z   4
loop_
 _symmetry_equiv_pos_site_id
 _symmetry_equiv_pos_as_xyz
  1  'x, y, z'
loop_
 _atom_site_type_symbol
 _atom_site_label
 _atom_site_symmetry_multiplicity
 _atom_site_fract_x
 _atom_site_fract_y
 _atom_site_fract_z
 _atom_site_occupancy
  Li  Li0  1  0.18845450  0.27769338  0.58662985  1
  Li  Li1  1  0.33679002  0.68036324  0.43806706  1
  Li  Li2  1  0.66320998  0.31963676  0.56193294  1
  Li  Li3  1  0.81154550  0.72230662  0.41337015  1
  Fe  Fe4  1  0.07991724  0.71238597  0.98250163  1
  Fe  Fe5  1  0.35628748  0.93401022  0.79356688  1
  Fe  Fe6  1  0.64371252  0.06598978  0.20643312  1
  Fe  Fe7  1  0.92008276  0.28761403  0.01749837  1
  P  P8  1  0.29105978  0.38412318  0.15107838  1
  P  P9  1  0.18083423  0.00943463  0.28477250  1
  P  P10  1  0.81916577  0.99056537  0.71522750  1
  P  P11  1  0.70894022  0.61587682  0.84892162  1
  O  O12  1  0.26054020  0.06319459  0.53105659  1
  O  O13  1  0.12562511  0.35932304  0.29151256  1
  O  O14  1  0.22859042  0.33281001  0.90138722  1
  O  O15  1  0.04944141  0.88795270  0.78887903  1
  O  O16  1  0.33382716  0.02640517  0.12319818  1
  O  O17  1  0.28170393  0.55039120  0.17883808  1
  O  O18  1  0.18136611  0.84727229  0.27500262  1
  O  O19  1  0.47603104  0.70324382  0.74577481  1
  O  O20  1  0.52396896  0.29675618  0.25422519  1
  O  O21  1  0.81863389  0.15272771  0.72499738  1
  O  O22  1  0.71829607  0.44960880  0.82116192  1
  O  O23  1  0.66617284  0.97359483  0.87680182  1
  O  O24  1  0.95055859  0.11204730  0.21112097  1
  O  O25  1  0.77140958  0.66718999  0.09861278  1
  O  O26  1  0.87437489  0.64067696  0.70848744  1
  O  O27  1  0.73945980  0.93680541  0.46894341  1
