# generated using pymatgen
data_La7SmMnFe7O24
_symmetry_space_group_name_H-M   'P 1'
_cell_length_a   7.88873453
_cell_length_b   7.88873453
_cell_length_c   7.88873453
_cell_angle_alpha   90.01166815
_cell_angle_beta   89.98833185
_cell_angle_gamma   90.01166815
_symmetry_Int_Tables_number   1
_chemical_formula_structural   La7SmMnFe7O24
_chemical_formula_sum   'La7 Sm1 Mn1 Fe7 O24'
_cell_volume   490.93274221
_cell_formula_units_Z   1
loop_
 _symmetry_equiv_pos_site_id
 _symmetry_equiv_pos_as_xyz
  1  'x, y, z'
loop_
 _atom_site_type_symbol
 _atom_site_label
 _atom_site_symmetry_multiplicity
 _atom_site_fract_x
 _atom_site_fract_y
 _atom_site_fract_z
 _atom_site_occupancy
  La  La0  1  0.25011346  0.25073083  0.24926917  1
  La  La1  1  0.25065317  0.25032965  0.75065317  1
  La  La2  1  0.25065317  0.74934683  0.24967035  1
  La  La3  1  0.25088354  0.74911646  0.75088354  1
  La  La4  1  0.74926917  0.25073083  0.75011346  1
  La  La5  1  0.74926917  0.74988654  0.24926917  1
  La  La6  1  0.74967035  0.74934683  0.75065317  1
  Sm  Sm7  1  0.75135646  0.24864354  0.25135646  1
  Mn  Mn8  1  0.50060988  0.49939012  0.00060988  1
  Fe  Fe9  1  0.99944437  0.00055563  0.00039374  1
  Fe  Fe10  1  0.99960037  0.00039963  0.49960037  1
  Fe  Fe11  1  0.99913285  0.49940484  0.00059516  1
  Fe  Fe12  1  0.99944437  0.49960626  0.49944437  1
  Fe  Fe13  1  0.50059516  0.00086715  0.00059516  1
  Fe  Fe14  1  0.50039374  0.00055563  0.49944437  1
  Fe  Fe15  1  0.50059516  0.49940484  0.49913285  1
  O  O16  1  0.25005542  0.00018944  0.00042829  1
  O  O17  1  0.24997694  0.00025518  0.49974482  1
  O  O18  1  0.24797860  0.49969091  0.00030909  1
  O  O19  1  0.25005542  0.49957171  0.49981056  1
  O  O20  1  0.74986076  0.00188627  0.00201113  1
  O  O21  1  0.74993650  0.00255379  0.49744621  1
  O  O22  1  0.75198213  0.49855930  0.00144070  1
  O  O23  1  0.74986076  0.49798887  0.49811373  1
  O  O24  1  0.99811373  0.25013924  0.00201113  1
  O  O25  1  0.99744621  0.25006350  0.49744621  1
  O  O26  1  0.99981056  0.74994458  0.00042829  1
  O  O27  1  0.99974482  0.75002306  0.49974482  1
  O  O28  1  0.50144070  0.24801787  0.00144070  1
  O  O29  1  0.50201113  0.25013924  0.49811373  1
  O  O30  1  0.50030909  0.75202140  0.00030909  1
  O  O31  1  0.50042829  0.74994458  0.49981056  1
  O  O32  1  0.99744621  0.00255379  0.24993650  1
  O  O33  1  0.99974482  0.00025518  0.74997694  1
  O  O34  1  0.99811373  0.49798887  0.24986076  1
  O  O35  1  0.99981056  0.49957171  0.75005542  1
  O  O36  1  0.50201113  0.00188627  0.24986076  1
  O  O37  1  0.50042829  0.00018944  0.75005542  1
  O  O38  1  0.50144070  0.49855930  0.25198213  1
  O  O39  1  0.50030909  0.49969091  0.74797860  1
