# generated using pymatgen
data_Mn6O5F7
_symmetry_space_group_name_H-M   'P 1'
_cell_length_a   4.75080950
_cell_length_b   7.91963340
_cell_length_c   5.66489454
_cell_angle_alpha   93.19366666
_cell_angle_beta   88.34048473
_cell_angle_gamma   91.80224742
_symmetry_Int_Tables_number   1
_chemical_formula_structural   Mn6O5F7
_chemical_formula_sum   'Mn6 O5 F7'
_cell_volume   212.62442665
_cell_formula_units_Z   1
loop_
 _symmetry_equiv_pos_site_id
 _symmetry_equiv_pos_as_xyz
  1  'x, y, z'
loop_
 _atom_site_type_symbol
 _atom_site_label
 _atom_site_symmetry_multiplicity
 _atom_site_fract_x
 _atom_site_fract_y
 _atom_site_fract_z
 _atom_site_occupancy
  Mn  Mn0  1  0.48753086  0.99629657  0.48752082  1
  Mn  Mn1  1  0.49234008  0.66472082  0.16718684  1
  Mn  Mn2  1  0.53421632  0.34413293  0.83620157  1
  Mn  Mn3  1  0.00321128  0.67093395  0.66698604  1
  Mn  Mn4  1  0.94458478  0.32973102  0.33404540  1
  Mn  Mn5  1  0.02601236  0.99260109  0.01328318  1
  O  O6  1  0.80935698  0.44896532  0.63920642  1
  O  O7  1  0.80361613  0.09207961  0.28621830  1
  O  O8  1  0.67614456  0.44966051  0.12044722  1
  O  O9  1  0.30990318  0.88271739  0.21596010  1
  O  O10  1  0.19534492  0.89451867  0.71011366  1
  F  F11  1  0.79103969  0.76723932  0.97035039  1
  F  F12  1  0.70320081  0.09157447  0.78618958  1
  F  F13  1  0.70794499  0.75887032  0.47086078  1
  F  F14  1  0.28911862  0.57344059  0.85985180  1
  F  F15  1  0.32252150  0.24534337  0.54949960  1
  F  F16  1  0.19244676  0.55667009  0.35652340  1
  F  F17  1  0.21146817  0.24050498  0.02955589  1
