# generated using pymatgen
data_Li3V3P8O29
_symmetry_space_group_name_H-M   'P 1'
_cell_length_a   9.76064375
_cell_length_b   9.78460333
_cell_length_c   13.88175536
_cell_angle_alpha   90.01575904
_cell_angle_beta   89.88338355
_cell_angle_gamma   59.92128335
_symmetry_Int_Tables_number   1
_chemical_formula_structural   Li3V3P8O29
_chemical_formula_sum   'Li6 V6 P16 O58'
_cell_volume   1147.22945322
_cell_formula_units_Z   2
loop_
 _symmetry_equiv_pos_site_id
 _symmetry_equiv_pos_as_xyz
  1  'x, y, z'
loop_
 _atom_site_type_symbol
 _atom_site_label
 _atom_site_symmetry_multiplicity
 _atom_site_fract_x
 _atom_site_fract_y
 _atom_site_fract_z
 _atom_site_occupancy
  Li  Li0  1  0.77456141  0.90882137  0.55479300  1
  Li  Li1  1  0.77441275  0.32367118  0.06146519  1
  Li  Li2  1  0.31912377  0.77088001  0.55705558  1
  Li  Li3  1  0.68082297  0.09019009  0.94297664  1
  Li  Li4  1  0.22548681  0.68344840  0.94518953  1
  Li  Li5  1  0.22557254  0.09816455  0.43856474  1
  V  V6  1  0.56498179  0.43108719  0.25730124  1
  V  V7  1  0.43538156  0.56183865  0.74915343  1
  V  V8  1  0.56462633  0.99720884  0.75084933  1
  V  V9  1  0.43502329  0.99601376  0.24267279  1
  V  V10  1  0.00003224  0.56828531  0.24999438  1
  V  V11  1  0.99999720  0.43336602  0.74997716  1
  P  P12  1  0.91571086  0.76923038  0.84411047  1
  P  P13  1  0.76967811  0.91230945  0.34173501  1
  P  P14  1  0.91579754  0.31523974  0.34363361  1
  P  P15  1  0.67037839  0.66122589  0.12703055  1
  P  P16  1  0.66729785  0.66542664  0.62734925  1
  P  P17  1  0.77212808  0.31571625  0.84117885  1
  P  P18  1  0.68829144  0.22589095  0.65452447  1
  P  P19  1  0.31170593  0.91425148  0.84548560  1
  P  P20  1  0.68495349  0.08830067  0.15787819  1
  P  P21  1  0.31506957  0.77329493  0.34212782  1
  P  P22  1  0.23034304  0.68196186  0.15822951  1
  P  P23  1  0.32960321  0.33174256  0.37297957  1
  P  P24  1  0.33265428  0.33289195  0.87263399  1
  P  P25  1  0.08431822  0.68490195  0.65594174  1
  P  P26  1  0.22786356  0.08777018  0.65882651  1
  P  P27  1  0.08420183  0.23093694  0.15637506  1
  O  O28  1  0.99439236  0.76594207  0.56848304  1
  O  O29  1  0.91350694  0.74316735  0.33430985  1
  O  O30  1  0.75522669  0.00648830  0.06547145  1
  O  O31  1  0.74492245  0.91559823  0.84005384  1
  O  O32  1  0.90617635  0.61739757  0.82391589  1
  O  O33  1  0.81529585  0.66483077  0.17328652  1
  O  O34  1  0.90725131  0.47564282  0.32490383  1
  O  O35  1  0.99534742  0.23792056  0.06839796  1
  O  O36  1  0.91473190  0.34154327  0.83568651  1
  O  O37  1  0.66916564  0.81697618  0.67032840  1
  O  O38  1  0.61574959  0.90719775  0.32052377  1
  O  O39  1  0.81389923  0.51991354  0.67378819  1
  O  O40  1  0.66724388  0.66481082  0.01990383  1
  O  O41  1  0.66300072  0.67350490  0.52058961  1
  O  O42  1  0.66878735  0.51260075  0.16823357  1
  O  O43  1  0.47505951  0.90581093  0.82190789  1
  O  O44  1  0.51937375  0.81417226  0.17199856  1
  O  O45  1  0.74423833  0.34325485  0.33590225  1
  O  O46  1  0.79122782  0.20327596  0.75220237  1
  O  O47  1  0.76387909  0.23844184  0.56624827  1
  O  O48  1  0.75472030  0.24591906  0.93290747  1
  O  O49  1  0.61784491  0.47762221  0.82159419  1
  O  O50  1  0.51304938  0.66986100  0.66888268  1
  O  O51  1  0.66107055  0.25757629  0.16162141  1
  O  O52  1  0.47775147  0.61955623  0.32346172  1
  O  O53  1  0.33894785  0.91869155  0.33840097  1
  O  O54  1  0.79275495  0.00175115  0.25003149  1
  O  O55  1  0.75937588  0.99437027  0.43345356  1
  O  O56  1  0.24531998  0.00051529  0.56707734  1
  O  O57  1  0.66002871  0.08265052  0.66181286  1
  O  O58  1  0.52494632  0.38080849  0.67809903  1
  O  O59  1  0.33996745  0.74275050  0.83824201  1
  O  O60  1  0.48053212  0.33376145  0.32799262  1
  O  O61  1  0.38428824  0.52294360  0.17942578  1
  O  O62  1  0.24057143  0.75375303  0.06656678  1
  O  O63  1  0.24474809  0.76177788  0.43450804  1
  O  O64  1  0.20726779  0.79447347  0.24997563  1
  O  O65  1  0.25511715  0.66044558  0.65994261  1
  O  O66  1  0.48691714  0.18299027  0.83118346  1
  O  O67  1  0.52227915  0.09720388  0.17652292  1
  O  O68  1  0.33077810  0.48625994  0.82960753  1
  O  O69  1  0.33676129  0.33702068  0.97939718  1
  O  O70  1  0.33265867  0.33240278  0.48012176  1
  O  O71  1  0.18467776  0.48022166  0.32671302  1
  O  O72  1  0.38216388  0.09540171  0.67840062  1
  O  O73  1  0.33124129  0.18148612  0.33177820  1
  O  O74  1  0.08657013  0.65652728  0.16565714  1
  O  O75  1  0.00010723  0.79217443  0.75005607  1
  O  O76  1  0.00560850  0.76037477  0.93157707  1
  O  O77  1  0.09377241  0.52357015  0.67606223  1
  O  O78  1  0.18611320  0.33387647  0.82614468  1
  O  O79  1  0.09276891  0.38279964  0.17509158  1
  O  O80  1  0.25575645  0.08739679  0.16410188  1
  O  O81  1  0.23610926  0.00258587  0.93371954  1
  O  O82  1  0.20879178  0.99447360  0.74779211  1
  O  O83  1  0.08522626  0.25617736  0.66429661  1
  O  O84  1  0.00466962  0.23346445  0.43160673  1
  O  O85  1  0.00000513  0.20628266  0.25000867  1
