# generated using pymatgen
data_LiV3(OF3)2
_symmetry_space_group_name_H-M   'P 1'
_cell_length_a   7.53081802
_cell_length_b   7.20749782
_cell_length_c   5.22802922
_cell_angle_alpha   90.55189421
_cell_angle_beta   91.38027547
_cell_angle_gamma   78.76346807
_symmetry_Int_Tables_number   1
_chemical_formula_structural   LiV3(OF3)2
_chemical_formula_sum   'Li2 V6 O4 F12'
_cell_volume   278.24500157
_cell_formula_units_Z   2
loop_
 _symmetry_equiv_pos_site_id
 _symmetry_equiv_pos_as_xyz
  1  'x, y, z'
loop_
 _atom_site_type_symbol
 _atom_site_label
 _atom_site_symmetry_multiplicity
 _atom_site_fract_x
 _atom_site_fract_y
 _atom_site_fract_z
 _atom_site_occupancy
  Li  Li0  1  0.16516793  0.16218591  0.77941699  1
  Li  Li1  1  0.83483207  0.83781409  0.22058301  1
  V  V2  1  0.18310589  0.66703958  0.71682616  1
  V  V3  1  0.32465350  0.82909482  0.24461132  1
  V  V4  1  0.68532371  0.68351057  0.74787595  1
  V  V5  1  0.31467629  0.31648943  0.25212405  1
  V  V6  1  0.67534650  0.17090518  0.75538868  1
  V  V7  1  0.81689411  0.33296042  0.28317384  1
  O  O8  1  0.29795428  0.57630035  0.41101640  1
  O  O9  1  0.68743213  0.92702688  0.87604685  1
  O  O10  1  0.31256787  0.07297312  0.12395315  1
  O  O11  1  0.70204572  0.42369965  0.58898360  1
  F  F12  1  0.19272254  0.92557687  0.57429363  1
  F  F13  1  0.09048020  0.80116642  0.05207644  1
  F  F14  1  0.42624764  0.68767250  0.90383987  1
  F  F15  1  0.19301454  0.42191448  0.91852112  1
  F  F16  1  0.06850388  0.31215474  0.41611386  1
  F  F17  1  0.57195873  0.79490853  0.41345591  1
  F  F18  1  0.42804127  0.20509147  0.58654409  1
  F  F19  1  0.93149612  0.68784526  0.58388614  1
  F  F20  1  0.80698546  0.57808552  0.08147888  1
  F  F21  1  0.57375236  0.31232750  0.09616013  1
  F  F22  1  0.90951980  0.19883358  0.94792356  1
  F  F23  1  0.80727746  0.07442313  0.42570637  1
