# generated using pymatgen
data_BaCaI4
_symmetry_space_group_name_H-M   'P 1'
_cell_length_a   8.19251693
_cell_length_b   17.42505687
_cell_length_c   8.03954823
_cell_angle_alpha   90.00000000
_cell_angle_beta   90.00000000
_cell_angle_gamma   90.00000000
_symmetry_Int_Tables_number   1
_chemical_formula_structural   BaCaI4
_chemical_formula_sum   'Ba4 Ca4 I16'
_cell_volume   1147.68629779
_cell_formula_units_Z   4
loop_
 _symmetry_equiv_pos_site_id
 _symmetry_equiv_pos_as_xyz
  1  'x, y, z'
loop_
 _atom_site_type_symbol
 _atom_site_label
 _atom_site_symmetry_multiplicity
 _atom_site_fract_x
 _atom_site_fract_y
 _atom_site_fract_z
 _atom_site_occupancy
  Ba  Ba0  1  0.00000000  0.13602164  0.25000000  1
  Ba  Ba1  1  0.00000000  0.86397836  0.75000000  1
  Ba  Ba2  1  0.50000000  0.63602164  0.25000000  1
  Ba  Ba3  1  0.50000000  0.36397836  0.75000000  1
  Ca  Ca4  1  0.00000000  0.41230335  0.25000000  1
  Ca  Ca5  1  0.00000000  0.58769665  0.75000000  1
  Ca  Ca6  1  0.50000000  0.08769665  0.75000000  1
  Ca  Ca7  1  0.50000000  0.91230335  0.25000000  1
  I  I8  1  0.15898066  0.28928192  0.02386805  1
  I  I9  1  0.15898066  0.71071808  0.52386805  1
  I  I10  1  0.24948907  0.01845427  0.99814570  1
  I  I11  1  0.24948907  0.98154573  0.49814570  1
  I  I12  1  0.25051093  0.48154573  0.49814570  1
  I  I13  1  0.25051093  0.51845427  0.99814570  1
  I  I14  1  0.34101934  0.21071808  0.52386805  1
  I  I15  1  0.34101934  0.78928192  0.02386805  1
  I  I16  1  0.65898066  0.21071808  0.97613195  1
  I  I17  1  0.65898066  0.78928192  0.47613195  1
  I  I18  1  0.74948907  0.48154573  0.00185430  1
  I  I19  1  0.74948907  0.51845427  0.50185430  1
  I  I20  1  0.75051093  0.01845427  0.50185430  1
  I  I21  1  0.75051093  0.98154573  0.00185430  1
  I  I22  1  0.84101934  0.71071808  0.97613195  1
  I  I23  1  0.84101934  0.28928192  0.47613195  1
