# generated using pymatgen
data_LiFe2(BO3)2
_symmetry_space_group_name_H-M   'P 1'
_cell_length_a   5.21643627
_cell_length_b   9.14071685
_cell_length_c   10.17925138
_cell_angle_alpha   91.15782870
_cell_angle_beta   91.11396010
_cell_angle_gamma   89.54309416
_symmetry_Int_Tables_number   1
_chemical_formula_structural   LiFe2(BO3)2
_chemical_formula_sum   'Li4 Fe8 B8 O24'
_cell_volume   485.16196003
_cell_formula_units_Z   4
loop_
 _symmetry_equiv_pos_site_id
 _symmetry_equiv_pos_as_xyz
  1  'x, y, z'
loop_
 _atom_site_type_symbol
 _atom_site_label
 _atom_site_symmetry_multiplicity
 _atom_site_fract_x
 _atom_site_fract_y
 _atom_site_fract_z
 _atom_site_occupancy
  Li  Li0  1  0.84775483  0.82681573  0.65110969  1
  Li  Li1  1  0.66780456  0.67007313  0.40033958  1
  Li  Li2  1  0.66798877  0.68428315  0.92514007  1
  Li  Li3  1  0.33914270  0.32483097  0.65490466  1
  Fe  Fe4  1  0.83922243  0.16266000  0.62953026  1
  Fe  Fe5  1  0.82391702  0.49688969  0.13783064  1
  Fe  Fe6  1  0.68590587  0.01058951  0.88170404  1
  Fe  Fe7  1  0.66515691  0.32807878  0.37125473  1
  Fe  Fe8  1  0.33713905  0.65796910  0.62811822  1
  Fe  Fe9  1  0.32970161  0.99675462  0.12593092  1
  Fe  Fe10  1  0.15637400  0.84909850  0.37268813  1
  Fe  Fe11  1  0.17090815  0.50018712  0.88883199  1
  B  B12  1  0.83875650  0.49494713  0.62386495  1
  B  B13  1  0.83420936  0.16342039  0.13190873  1
  B  B14  1  0.65587379  0.99880840  0.38431083  1
  B  B15  1  0.67464858  0.34310822  0.86446245  1
  B  B16  1  0.33498591  -0.00011826  0.63185706  1
  B  B17  1  0.33127031  0.67208847  0.12342095  1
  B  B18  1  0.17274195  0.50505186  0.38237841  1
  B  B19  1  0.17259079  0.82452248  0.87816265  1
  O  O20  1  0.90431989  0.50106948  0.35580632  1
  O  O21  1  0.91111985  0.82879565  0.85736659  1
  O  O22  1  0.80094711  0.21719706  0.82220093  1
  O  O23  1  0.76381864  0.13158332  0.43260414  1
  O  O24  1  0.78413647  0.86969762  0.40261322  1
  O  O25  1  0.80850767  0.46383985  0.91562736  1
  O  O26  1  0.71476804  0.62748147  0.61350916  1
  O  O27  1  0.67635603  0.05379054  0.08120205  1
  O  O28  1  0.71047124  0.36462228  0.58602841  1
  O  O29  1  0.71813537  0.29038945  0.18381560  1
  O  O30  1  0.59233243  0.66530252  0.11812610  1
  O  O31  1  0.60055107  0.99906165  0.66284535  1
  O  O32  1  0.41630383  0.00546413  0.32453933  1
  O  O33  1  0.41404112  0.35258409  0.84989533  1
  O  O34  1  0.30863231  0.69291325  0.84475738  1
  O  O35  1  0.28522634  0.63864888  0.41557459  1
  O  O36  1  0.31532809  0.37976153  0.38114664  1
  O  O37  1  0.31639139  0.93954525  0.92672955  1
  O  O38  1  0.18533000  0.55100437  0.07989395  1
  O  O39  1  0.20313774  0.13104997  0.63285789  1
  O  O40  1  0.21243569  0.87049700  0.59995968  1
  O  O41  1  0.20352495  0.79868969  0.16410069  1
  O  O42  1  0.09178368  0.15124200  0.12779065  1
  O  O43  1  0.08934000  0.48612794  0.67175112  1
