# generated using pymatgen
data_Li4CrS4
_symmetry_space_group_name_H-M   'P 1'
_cell_length_a   14.20032880
_cell_length_b   7.75691502
_cell_length_c   6.11183430
_cell_angle_alpha   90.00000000
_cell_angle_beta   90.00000000
_cell_angle_gamma   90.00000000
_symmetry_Int_Tables_number   1
_chemical_formula_structural   Li4CrS4
_chemical_formula_sum   'Li16 Cr4 S16'
_cell_volume   673.22309387
_cell_formula_units_Z   4
loop_
 _symmetry_equiv_pos_site_id
 _symmetry_equiv_pos_as_xyz
  1  'x, y, z'
loop_
 _atom_site_type_symbol
 _atom_site_label
 _atom_site_symmetry_multiplicity
 _atom_site_fract_x
 _atom_site_fract_y
 _atom_site_fract_z
 _atom_site_occupancy
  Li  Li0  1  0.00000000  0.00000000  0.50000000  1
  Li  Li1  1  0.00000000  0.50000000  0.50000000  1
  Li  Li2  1  0.08637663  0.25000000  0.86961923  1
  Li  Li3  1  0.17767642  0.49854041  0.30314029  1
  Li  Li4  1  0.17767642  0.00145959  0.30314029  1
  Li  Li5  1  0.32232458  0.99854041  0.80314029  1
  Li  Li6  1  0.32232458  0.50145959  0.80314029  1
  Li  Li7  1  0.41362337  0.75000000  0.36961923  1
  Li  Li8  1  0.50000000  0.00000000  0.00000000  1
  Li  Li9  1  0.50000000  0.50000000  0.00000000  1
  Li  Li10  1  0.58637663  0.25000000  0.63038077  1
  Li  Li11  1  0.67767542  0.49854041  0.19685971  1
  Li  Li12  1  0.67767542  0.00145959  0.19685971  1
  Li  Li13  1  0.82232458  0.99854041  0.69685971  1
  Li  Li14  1  0.82232458  0.50145959  0.69685971  1
  Li  Li15  1  0.91362337  0.75000000  0.13038077  1
  Cr  Cr16  1  0.08739809  0.75000000  0.84779491  1
  Cr  Cr17  1  0.41260191  0.25000000  0.34779491  1
  Cr  Cr18  1  0.58739809  0.75000000  0.65220509  1
  Cr  Cr19  1  0.91260191  0.25000000  0.15220509  1
  S  S20  1  0.06046816  0.25000000  0.26710735  1
  S  S21  1  0.08373827  0.75000000  0.20562287  1
  S  S22  1  0.15549249  0.51645210  0.71874063  1
  S  S23  1  0.15549249  0.98354790  0.71874063  1
  S  S24  1  0.34450751  0.01645210  0.21874063  1
  S  S25  1  0.34450751  0.48354790  0.21874063  1
  S  S26  1  0.41626173  0.25000000  0.70562287  1
  S  S27  1  0.43953184  0.75000000  0.76710735  1
  S  S28  1  0.56046816  0.25000000  0.23289265  1
  S  S29  1  0.58373827  0.75000000  0.29437713  1
  S  S30  1  0.65549249  0.51645210  0.78125937  1
  S  S31  1  0.65549249  0.98354790  0.78125937  1
  S  S32  1  0.84450751  0.01645210  0.28125937  1
  S  S33  1  0.84450751  0.48354790  0.28125937  1
  S  S34  1  0.91626173  0.25000000  0.79437713  1
  S  S35  1  0.93953184  0.75000000  0.73289265  1
