# generated using pymatgen
data_Li2V(Si2O5)3
_symmetry_space_group_name_H-M   'P 1'
_cell_length_a   6.87099585
_cell_length_b   12.68773185
_cell_length_c   7.44627292
_cell_angle_alpha   90.00000000
_cell_angle_beta   110.75411581
_cell_angle_gamma   90.00000000
_symmetry_Int_Tables_number   1
_chemical_formula_structural   Li2V(Si2O5)3
_chemical_formula_sum   'Li4 V2 Si12 O30'
_cell_volume   607.02309675
_cell_formula_units_Z   2
loop_
 _symmetry_equiv_pos_site_id
 _symmetry_equiv_pos_as_xyz
  1  'x, y, z'
loop_
 _atom_site_type_symbol
 _atom_site_label
 _atom_site_symmetry_multiplicity
 _atom_site_fract_x
 _atom_site_fract_y
 _atom_site_fract_z
 _atom_site_occupancy
  Li  Li0  1  0.14229908  0.33856979  0.45855533  1
  Li  Li1  1  0.16825258  0.16454599  0.15888098  1
  Li  Li2  1  0.83174742  0.66454599  0.84111902  1
  Li  Li3  1  0.85770092  0.83856979  0.54144467  1
  V  V4  1  0.26137420  0.75035021  0.75703352  1
  V  V5  1  0.73862580  0.25035021  0.24296648  1
  Si  Si6  1  0.03127614  0.66706223  0.30807819  1
  Si  Si7  1  0.00742813  0.84419847  0.02383168  1
  Si  Si8  1  0.29956239  0.51218505  0.91641520  1
  Si  Si9  1  0.30930360  0.00985013  0.70453056  1
  Si  Si10  1  0.53114434  0.34275366  0.80084081  1
  Si  Si11  1  0.49110599  0.66595712  0.47731121  1
  Si  Si12  1  0.50889401  0.16595712  0.52268879  1
  Si  Si13  1  0.46885566  0.84275366  0.19915919  1
  Si  Si14  1  0.69069640  0.50985013  0.29546944  1
  Si  Si15  1  0.70043761  0.01218505  0.08358480  1
  Si  Si16  1  0.99257187  0.34419847  0.97616832  1
  Si  Si17  1  0.96872386  0.16706223  0.69192181  1
  O  O18  1  0.00692639  0.80797926  0.81460756  1
  O  O19  1  0.07282653  0.23557855  0.89425649  1
  O  O20  1  0.15610943  0.43989939  0.00134244  1
  O  O21  1  0.03790570  0.73503819  0.49135037  1
  O  O22  1  0.08894636  0.05365465  0.71493721  1
  O  O23  1  0.16927319  0.61682672  0.81941811  1
  O  O24  1  0.30129023  0.88410557  0.67082484  1
  O  O25  1  0.26595206  0.63620031  0.31790793  1
  O  O26  1  0.45380333  0.77605062  0.01140108  1
  O  O27  1  0.36131181  0.44071734  0.75725687  1
  O  O28  1  0.23346925  0.88349191  0.17754406  1
  O  O29  1  0.48494587  0.04125773  0.90954645  1
  O  O30  1  0.34866314  0.07053606  0.52469007  1
  O  O31  1  0.49873669  0.68366725  0.69477880  1
  O  O32  1  0.42768705  0.27595180  0.59711083  1
  O  O33  1  0.57231295  0.77595180  0.40288917  1
  O  O34  1  0.50126331  0.18366725  0.30522120  1
  O  O35  1  0.65133686  0.57053606  0.47530993  1
  O  O36  1  0.51505413  0.54125773  0.09045355  1
  O  O37  1  0.76653075  0.38349191  0.82245594  1
  O  O38  1  0.63868819  0.94071734  0.24274313  1
  O  O39  1  0.54619667  0.27605062  0.98859892  1
  O  O40  1  0.73404794  0.13620031  0.68209207  1
  O  O41  1  0.69870977  0.38410557  0.32917516  1
  O  O42  1  0.83072681  0.11682672  0.18058189  1
  O  O43  1  0.91105364  0.55365465  0.28506279  1
  O  O44  1  0.96209430  0.23503819  0.50864963  1
  O  O45  1  0.84389057  0.93989939  0.99865756  1
  O  O46  1  0.92717347  0.73557855  0.10574351  1
  O  O47  1  0.99307361  0.30797926  0.18539244  1
