# generated using pymatgen
data_LiMn2(PO4)2
_symmetry_space_group_name_H-M   'P 1'
_cell_length_a   8.05305601
_cell_length_b   4.89882888
_cell_length_c   8.74463430
_cell_angle_alpha   88.43528231
_cell_angle_beta   103.84925451
_cell_angle_gamma   89.64126633
_symmetry_Int_Tables_number   1
_chemical_formula_structural   LiMn2(PO4)2
_chemical_formula_sum   'Li2 Mn4 P4 O16'
_cell_volume   334.79759448
_cell_formula_units_Z   2
loop_
 _symmetry_equiv_pos_site_id
 _symmetry_equiv_pos_as_xyz
  1  'x, y, z'
loop_
 _atom_site_type_symbol
 _atom_site_label
 _atom_site_symmetry_multiplicity
 _atom_site_fract_x
 _atom_site_fract_y
 _atom_site_fract_z
 _atom_site_occupancy
  Li  Li0  1  0.37089886  0.48961893  0.06292849  1
  Li  Li1  1  0.86337597  0.50459748  0.43343418  1
  Mn  Mn2  1  0.01410567  0.97909104  0.17966607  1
  Mn  Mn3  1  0.46835425  0.38012682  0.73819168  1
  Mn  Mn4  1  0.52613066  0.91588008  0.27555353  1
  Mn  Mn5  1  0.97174034  0.49682118  0.82781454  1
  P  P6  1  0.24321435  0.02653355  0.92471715  1
  P  P7  1  0.23264626  0.49628670  0.37154106  1
  P  P8  1  0.78001809  0.04892518  0.62175892  1
  P  P9  1  0.74123088  0.50552446  0.07483225  1
  O  O10  1  0.08576421  0.18394651  0.96662063  1
  O  O11  1  0.06173310  0.65559820  0.35124430  1
  O  O12  1  0.19968143  0.72181015  0.90579958  1
  O  O13  1  0.19877214  0.19402047  0.33702939  1
  O  O14  1  0.28040394  0.15480050  0.77522019  1
  O  O15  1  0.34284131  0.53178641  0.54283039  1
  O  O16  1  0.33800592  0.62211893  0.25982289  1
  O  O17  1  0.39470263  0.07886759  0.06518616  1
  O  O18  1  0.56868483  0.52653516  0.94462049  1
  O  O19  1  0.65756252  0.13019165  0.72406116  1
  O  O20  1  0.70033774  0.09499483  0.44448088  1
  O  O21  1  0.70714933  0.64559482  0.22055166  1
  O  O22  1  0.83450250  0.74217824  0.65476437  1
  O  O23  1  0.79487317  0.20940226  0.11635255  1
  O  O24  1  0.93840813  0.23967271  0.65397713  1
  O  O25  1  0.88380579  0.66132914  0.01152435  1
