# generated using pymatgen
data_Li4Mn5O9F
_symmetry_space_group_name_H-M   'P 1'
_cell_length_a   2.89744102
_cell_length_b   5.13428316
_cell_length_c   13.87928588
_cell_angle_alpha   80.53436983
_cell_angle_beta   95.99144959
_cell_angle_gamma   106.38952527
_symmetry_Int_Tables_number   1
_chemical_formula_structural   Li4Mn5O9F
_chemical_formula_sum   'Li4 Mn5 O9 F1'
_cell_volume   195.01826243
_cell_formula_units_Z   1
loop_
 _symmetry_equiv_pos_site_id
 _symmetry_equiv_pos_as_xyz
  1  'x, y, z'
loop_
 _atom_site_type_symbol
 _atom_site_label
 _atom_site_symmetry_multiplicity
 _atom_site_fract_x
 _atom_site_fract_y
 _atom_site_fract_z
 _atom_site_occupancy
  Li  Li0  1  0.80328464  0.00075363  0.60581466  1
  Li  Li1  1  0.60774595  0.01195071  0.20354119  1
  Li  Li2  1  0.38360713  0.95327906  0.81393420  1
  Li  Li3  1  0.20972276  0.02127803  0.39816749  1
  Mn  Mn4  1  0.90971618  0.51914300  0.30028935  1
  Mn  Mn5  1  0.66779788  0.43904186  0.89655390  1
  Mn  Mn6  1  0.32933659  0.56760855  0.09106463  1
  Mn  Mn7  1  0.51056096  0.52584640  0.49527552  1
  Mn  Mn8  1  0.09322646  0.49025135  0.69620158  1
  O  O9  1  0.87693257  0.31202491  0.44184022  1
  O  O10  1  0.95310231  0.73176908  0.17443455  1
  O  O11  1  0.72699848  0.71492391  0.73907404  1
  O  O12  1  0.54374021  0.74497186  0.34250856  1
  O  O13  1  0.46186008  0.28121625  0.64250491  1
  O  O14  1  0.27725505  0.28697798  0.26753213  1
  O  O15  1  0.29820974  0.65695527  0.93946421  1
  O  O16  1  0.03975061  0.23632058  0.84318064  1
  O  O17  1  0.14540484  0.75525046  0.53555923  1
  F  F18  1  0.66174856  0.25043913  0.07305800  1
