# generated using pymatgen
data_Zr7VO16
_symmetry_space_group_name_H-M   'P 1'
_cell_length_a   7.26799402
_cell_length_b   7.32455373
_cell_length_c   6.50513300
_cell_angle_alpha   71.18857538
_cell_angle_beta   90.00000000
_cell_angle_gamma   60.25511243
_symmetry_Int_Tables_number   1
_chemical_formula_structural   Zr7VO16
_chemical_formula_sum   'Zr7 V1 O16'
_cell_volume   279.16751732
_cell_formula_units_Z   1
loop_
 _symmetry_equiv_pos_site_id
 _symmetry_equiv_pos_as_xyz
  1  'x, y, z'
loop_
 _atom_site_type_symbol
 _atom_site_label
 _atom_site_symmetry_multiplicity
 _atom_site_fract_x
 _atom_site_fract_y
 _atom_site_fract_z
 _atom_site_occupancy
  Zr  Zr0  1  0.61646391  0.50569031  0.74289958  1
  Zr  Zr1  1  0.87695713  0.00120435  0.24874483  1
  Zr  Zr2  1  0.63611642  0.97776816  0.77855029  1
  Zr  Zr3  1  0.37382844  0.50234412  0.26013108  1
  Zr  Zr4  1  0.12784578  0.50569031  0.74289958  1
  Zr  Zr5  1  0.37183753  0.00120435  0.24874483  1
  Zr  Zr6  1  0.11924465  0.01151070  0.74022703  1
  V  V7  1  0.88937542  0.47125017  0.24079681  1
  O  O8  1  0.91892888  0.90647029  0.65303461  1
  O  O9  1  0.82680823  0.59638454  0.83406851  1
  O  O10  1  0.94173582  0.36652836  0.56598537  1
  O  O11  1  0.72022507  0.80955086  0.12356181  1
  O  O12  1  0.50579749  0.66046273  0.41061231  1
  O  O13  1  0.68574069  0.41255380  0.16260173  1
  O  O14  1  0.79791039  0.15371879  0.90457662  1
  O  O15  1  0.42460183  0.90647029  0.65303461  1
  O  O16  1  0.33328633  0.58342733  0.86393887  1
  O  O17  1  0.46169832  0.32660437  0.60523864  1
  O  O18  1  0.56465825  0.12068450  0.30929134  1
  O  O19  1  0.19639870  0.85720361  0.08191230  1
  O  O20  1  0.08373978  0.66046273  0.41061231  1
  O  O21  1  0.15170651  0.41255380  0.16260173  1
  O  O22  1  0.29837082  0.15371879  0.90457662  1
  O  O23  1  0.07672663  0.09654673  0.35135858  1
