# generated using pymatgen
data_La3SmCr2(FeO6)2
_symmetry_space_group_name_H-M   'P 1'
_cell_length_a   7.86447679
_cell_length_b   7.86543733
_cell_length_c   7.86405931
_cell_angle_alpha   90.00000000
_cell_angle_beta   90.00000000
_cell_angle_gamma   90.00000000
_symmetry_Int_Tables_number   1
_chemical_formula_structural   La3SmCr2(FeO6)2
_chemical_formula_sum   'La6 Sm2 Cr4 Fe4 O24'
_cell_volume   486.45143666
_cell_formula_units_Z   2
loop_
 _symmetry_equiv_pos_site_id
 _symmetry_equiv_pos_as_xyz
  1  'x, y, z'
loop_
 _atom_site_type_symbol
 _atom_site_label
 _atom_site_symmetry_multiplicity
 _atom_site_fract_x
 _atom_site_fract_y
 _atom_site_fract_z
 _atom_site_occupancy
  La  La0  1  0.25000000  0.25122117  0.25000000  1
  La  La1  1  0.25000000  0.25122117  0.75000000  1
  La  La2  1  0.25000000  0.74883171  0.25000000  1
  La  La3  1  0.25000000  0.74883171  0.75000000  1
  La  La4  1  0.75000000  0.74881031  0.25000000  1
  La  La5  1  0.75000000  0.74881031  0.75000000  1
  Sm  Sm6  1  0.75000000  0.25130478  0.25000000  1
  Sm  Sm7  1  0.75000000  0.25130478  0.75000000  1
  Cr  Cr8  1  0.99954847  0.49960116  -0.00000000  1
  Cr  Cr9  1  0.99954847  0.49960116  0.50000000  1
  Cr  Cr10  1  0.50045153  0.49960116  -0.00000000  1
  Cr  Cr11  1  0.50045153  0.49960116  0.50000000  1
  Fe  Fe12  1  0.99930332  0.00071941  -0.00000000  1
  Fe  Fe13  1  0.99930332  0.00071941  0.50000000  1
  Fe  Fe14  1  0.50069668  0.00071941  -0.00000000  1
  Fe  Fe15  1  0.50069668  0.00071941  0.50000000  1
  O  O16  1  0.25000000  0.00025625  -0.00000000  1
  O  O17  1  0.25000000  0.00025625  0.50000000  1
  O  O18  1  0.25000000  0.49982763  -0.00000000  1
  O  O19  1  0.25000000  0.49982763  0.50000000  1
  O  O20  1  0.75000000  0.00271308  0.00000000  1
  O  O21  1  0.75000000  0.00271308  0.50000000  1
  O  O22  1  0.75000000  0.49683010  -0.00000000  1
  O  O23  1  0.75000000  0.49683010  0.50000000  1
  O  O24  1  0.99711173  0.25113979  -0.00000000  1
  O  O25  1  0.99711173  0.25113979  0.50000000  1
  O  O26  1  0.99979565  0.74883042  0.00000000  1
  O  O27  1  0.99979565  0.74883042  0.50000000  1
  O  O28  1  0.50288827  0.25113979  -0.00000000  1
  O  O29  1  0.50288827  0.25113979  0.50000000  1
  O  O30  1  0.50020435  0.74883042  0.00000000  1
  O  O31  1  0.50020435  0.74883042  0.50000000  1
  O  O32  1  0.99855730  0.00151261  0.25000000  1
  O  O33  1  0.99855730  0.00151261  0.75000000  1
  O  O34  1  0.99830259  0.49829911  0.25000000  1
  O  O35  1  0.99830259  0.49829911  0.75000000  1
  O  O36  1  0.50144270  0.00151261  0.25000000  1
  O  O37  1  0.50144270  0.00151261  0.75000000  1
  O  O38  1  0.50169741  0.49829911  0.25000000  1
  O  O39  1  0.50169741  0.49829911  0.75000000  1
