# generated using pymatgen
data_LiVF5
_symmetry_space_group_name_H-M   'P 1'
_cell_length_a   7.65578262
_cell_length_b   7.35387105
_cell_length_c   6.84388283
_cell_angle_alpha   90.00000000
_cell_angle_beta   90.00000000
_cell_angle_gamma   90.00000000
_symmetry_Int_Tables_number   1
_chemical_formula_structural   LiVF5
_chemical_formula_sum   'Li4 V4 F20'
_cell_volume   385.30812704
_cell_formula_units_Z   4
loop_
 _symmetry_equiv_pos_site_id
 _symmetry_equiv_pos_as_xyz
  1  'x, y, z'
loop_
 _atom_site_type_symbol
 _atom_site_label
 _atom_site_symmetry_multiplicity
 _atom_site_fract_x
 _atom_site_fract_y
 _atom_site_fract_z
 _atom_site_occupancy
  Li  Li0  1  0.12189715  0.25000000  0.82252900  1
  Li  Li1  1  0.37810285  0.75000000  0.32252900  1
  Li  Li2  1  0.62189715  0.25000000  0.67747100  1
  Li  Li3  1  0.87810285  0.75000000  0.17747100  1
  V  V4  1  0.12443750  0.75000000  0.74514606  1
  V  V5  1  0.37556250  0.25000000  0.24514606  1
  V  V6  1  0.62443750  0.75000000  0.75485394  1
  V  V7  1  0.87556250  0.25000000  0.25485394  1
  F  F8  1  0.08966193  0.75000000  0.01383795  1
  F  F9  1  0.12410129  0.00117499  0.74200770  1
  F  F10  1  0.12410129  0.49882501  0.74200770  1
  F  F11  1  0.12614488  0.25000000  0.28859509  1
  F  F12  1  0.16033935  0.75000000  0.47727619  1
  F  F13  1  0.33966065  0.25000000  0.97727619  1
  F  F14  1  0.37385512  0.75000000  0.78859509  1
  F  F15  1  0.37589871  0.50117499  0.24200770  1
  F  F16  1  0.37589871  0.99882501  0.24200770  1
  F  F17  1  0.41033807  0.25000000  0.51383795  1
  F  F18  1  0.58966193  0.75000000  0.48616205  1
  F  F19  1  0.62410129  0.00117499  0.75799230  1
  F  F20  1  0.62410129  0.49882501  0.75799230  1
  F  F21  1  0.62614488  0.25000000  0.21140491  1
  F  F22  1  0.66033935  0.75000000  0.02272381  1
  F  F23  1  0.83966065  0.25000000  0.52272381  1
  F  F24  1  0.87385512  0.75000000  0.71140491  1
  F  F25  1  0.87589871  0.50117499  0.25799230  1
  F  F26  1  0.87589871  0.99882501  0.25799230  1
  F  F27  1  0.91033807  0.25000000  0.98616205  1
