# generated using pymatgen
data_Li2MnFe2(PO4)3
_symmetry_space_group_name_H-M   'P 1'
_cell_length_a   8.47469798
_cell_length_b   8.57165599
_cell_length_c   8.57165572
_cell_angle_alpha   62.97597367
_cell_angle_beta   63.43224485
_cell_angle_gamma   63.43224852
_symmetry_Int_Tables_number   1
_chemical_formula_structural   Li2MnFe2(PO4)3
_chemical_formula_sum   'Li4 Mn2 Fe4 P6 O24'
_cell_volume   472.26408103
_cell_formula_units_Z   2
loop_
 _symmetry_equiv_pos_site_id
 _symmetry_equiv_pos_as_xyz
  1  'x, y, z'
loop_
 _atom_site_type_symbol
 _atom_site_label
 _atom_site_symmetry_multiplicity
 _atom_site_fract_x
 _atom_site_fract_y
 _atom_site_fract_z
 _atom_site_occupancy
  Li  Li0  1  0.75000000  0.14344550  0.35655450  1
  Li  Li1  1  0.25000000  0.84181822  0.65818178  1
  Li  Li2  1  0.65635092  0.24683148  0.84319298  1
  Li  Li3  1  0.84364908  0.65680702  0.25316852  1
  Mn  Mn4  1  0.00923033  0.99686469  0.99240807  1
  Mn  Mn5  1  0.49076967  0.50759193  0.50313531  1
  Fe  Fe6  1  0.14651633  0.14754831  0.14415232  1
  Fe  Fe7  1  0.35348367  0.35584768  0.35245169  1
  Fe  Fe8  1  0.65238627  0.65438941  0.65736608  1
  Fe  Fe9  1  0.84761373  0.84263392  0.84561059  1
  P  P10  1  0.06060748  0.74795260  0.44064818  1
  P  P11  1  0.43939252  0.05935182  0.75204740  1
  P  P12  1  0.75000000  0.44155208  0.05844792  1
  P  P13  1  0.25000000  0.54130404  0.95869596  1
  P  P14  1  0.55013904  0.96078461  0.25247520  1
  P  P15  1  0.94986096  0.24752480  0.53921539  1
  O  O16  1  0.11607014  0.31074637  0.47969359  1
  O  O17  1  0.32645159  0.49685024  0.10940605  1
  O  O18  1  0.06647087  0.91259084  0.25551738  1
  O  O19  1  0.53359121  0.10808982  0.31928767  1
  O  O20  1  0.03695291  0.80493864  0.59710628  1
  O  O21  1  0.24980194  0.59188670  0.41880209  1
  O  O22  1  0.25019806  0.08119791  0.90811330  1
  O  O23  1  0.43352913  0.24448262  0.58740916  1
  O  O24  1  0.17354841  0.39059495  0.00314976  1
  O  O25  1  0.59872795  0.41692424  0.25340307  1
  O  O26  1  0.10029981  0.73653317  0.93871498  1
  O  O27  1  0.38392986  0.02030641  0.18925363  1
  O  O28  1  0.59932000  0.03021722  0.81262762  1
  O  O29  1  0.90127205  0.24659693  0.08307576  1
  O  O30  1  0.39970019  0.56128502  0.76346683  1
  O  O31  1  0.81031354  0.59756342  0.03253343  1
  O  O32  1  0.55908429  0.76705850  0.40498450  1
  O  O33  1  0.74187457  0.93274401  0.09931364  1
  O  O34  1  0.75812543  0.40068636  0.56725599  1
  O  O35  1  0.96640879  0.18071233  0.39191018  1
  O  O36  1  0.46304709  0.90289372  0.69506136  1
  O  O37  1  0.94091571  0.09501550  0.73294150  1
  O  O38  1  0.68968646  0.46746657  0.90243658  1
  O  O39  1  0.90068000  0.68737238  0.46978278  1
