# generated using pymatgen
data_LiVSiO4
_symmetry_space_group_name_H-M   'P 1'
_cell_length_a   4.77146905
_cell_length_b   6.23015739
_cell_length_c   10.35251295
_cell_angle_alpha   89.98940675
_cell_angle_beta   90.00718700
_cell_angle_gamma   90.00054221
_symmetry_Int_Tables_number   1
_chemical_formula_structural   LiVSiO4
_chemical_formula_sum   'Li4 V4 Si4 O16'
_cell_volume   307.74917745
_cell_formula_units_Z   4
loop_
 _symmetry_equiv_pos_site_id
 _symmetry_equiv_pos_as_xyz
  1  'x, y, z'
loop_
 _atom_site_type_symbol
 _atom_site_label
 _atom_site_symmetry_multiplicity
 _atom_site_fract_x
 _atom_site_fract_y
 _atom_site_fract_z
 _atom_site_occupancy
  Li  Li0  1  0.01909216  0.00565165  0.21443125  1
  Li  Li1  1  0.48096469  0.00563187  0.71442767  1
  Li  Li2  1  0.51903116  0.50578802  0.28557348  1
  Li  Li3  1  0.98091694  0.50578427  0.78556936  1
  V  V4  1  0.00005734  0.25656334  0.50009990  1
  V  V5  1  0.49993778  0.25656052  0.00009735  1
  V  V6  1  0.50006721  0.75656245  0.99989131  1
  V  V7  1  0.99991210  0.75655020  0.49990087  1
  Si  Si8  1  0.08211487  0.50669401  0.08855119  1
  Si  Si9  1  0.41794238  0.50668790  0.58855377  1
  Si  Si10  1  0.58204307  0.00676019  0.41145511  1
  Si  Si11  1  0.91789962  0.00676561  0.91144831  1
  O  O12  1  0.23928225  0.50657378  0.94206243  1
  O  O13  1  0.22331067  0.28725535  0.14844777  1
  O  O14  1  0.22327159  0.72609219  0.14821456  1
  O  O15  1  0.23601466  0.00667879  0.41922400  1
  O  O16  1  0.26394603  0.00668211  0.91922199  1
  O  O17  1  0.27681022  0.72609967  0.64822089  1
  O  O18  1  0.27679285  0.28725064  0.64844701  1
  O  O19  1  0.26068060  0.50658287  0.44206458  1
  O  O20  1  0.73930813  0.00652188  0.55793932  1
  O  O21  1  0.72325272  0.78737458  0.35153502  1
  O  O22  1  0.72314395  0.22622854  0.35180876  1
  O  O23  1  0.73606251  0.50666290  0.08077278  1
  O  O24  1  0.76397711  0.50667430  0.58078380  1
  O  O25  1  0.77676822  0.22621279  0.85179374  1
  O  O26  1  0.77667045  0.78737306  0.85153222  1
  O  O27  1  0.76072870  0.00653651  0.05793158  1
