# generated using pymatgen
data_Li3MnPCO7
_symmetry_space_group_name_H-M   'P 1'
_cell_length_a   8.59484061
_cell_length_b   9.95353370
_cell_length_c   6.58420233
_cell_angle_alpha   89.68664400
_cell_angle_beta   90.42636393
_cell_angle_gamma   85.45835276
_symmetry_Int_Tables_number   1
_chemical_formula_structural   Li3MnPCO7
_chemical_formula_sum   'Li12 Mn4 P4 C4 O28'
_cell_volume   561.47759106
_cell_formula_units_Z   4
loop_
 _symmetry_equiv_pos_site_id
 _symmetry_equiv_pos_as_xyz
  1  'x, y, z'
loop_
 _atom_site_type_symbol
 _atom_site_label
 _atom_site_symmetry_multiplicity
 _atom_site_fract_x
 _atom_site_fract_y
 _atom_site_fract_z
 _atom_site_occupancy
  Li  Li0  1  0.09869674  0.38786924  0.25654840  1
  Li  Li1  1  0.09082714  0.87701641  0.25371194  1
  Li  Li2  1  0.27571197  0.13020507  0.48367111  1
  Li  Li3  1  0.27386619  0.61155904  0.01663864  1
  Li  Li4  1  0.27475691  0.61130773  0.48124449  1
  Li  Li5  1  0.34498040  0.40082390  0.74533423  1
  Li  Li6  1  0.72079495  0.37860319  0.53624155  1
  Li  Li7  1  0.72086472  0.37805278  0.96413884  1
  Li  Li8  1  0.72572710  0.87548114  0.53102273  1
  Li  Li9  1  0.72662462  0.87553831  0.96953946  1
  Li  Li10  1  0.90479565  0.11962119  0.74781987  1
  Li  Li11  1  0.90491175  0.61655193  0.74916765  1
  Mn  Mn12  1  0.26745363  0.14393395  0.00001653  1
  Mn  Mn13  1  0.34456435  0.87544550  0.74438361  1
  Mn  Mn14  1  0.65835339  0.11225732  0.25050061  1
  Mn  Mn15  1  0.66036669  0.60921712  0.24989255  1
  P  P16  1  0.40818960  0.36263146  0.25164179  1
  P  P17  1  0.41003435  0.86152467  0.24944735  1
  P  P18  1  0.59069199  0.14131666  0.74978638  1
  P  P19  1  0.58930252  0.63831254  0.74983193  1
  C  C20  1  0.03571625  0.35157171  0.75449586  1
  C  C21  1  0.03357638  0.85264880  0.75224893  1
  C  C22  1  0.96457667  0.14886775  0.25133899  1
  C  C23  1  0.96713188  0.64878319  0.24968150  1
  O  O24  1  0.07001535  0.47364053  0.74893552  1
  O  O25  1  0.11072460  0.18153385  0.25193863  1
  O  O26  1  0.06918076  0.97703171  0.75511612  1
  O  O27  1  0.14705831  0.25235846  0.76127291  1
  O  O28  1  0.11240225  0.67772499  0.24933500  1
  O  O29  1  0.14487164  0.75592832  0.75054900  1
  O  O30  1  0.31088498  0.40845852  0.06067127  1
  O  O31  1  0.31242672  0.41239895  0.43741389  1
  O  O32  1  0.31182160  0.91840858  0.06140597  1
  O  O33  1  0.31027944  0.91699907  0.43131193  1
  O  O34  1  0.42298599  0.08927343  0.74858471  1
  O  O35  1  0.42154833  0.20186774  0.25059471  1
  O  O36  1  0.42054235  0.59691446  0.74946114  1
  O  O37  1  0.42285753  0.70445427  0.24895960  1
  O  O38  1  0.57393117  0.29664161  0.74988703  1
  O  O39  1  0.57818533  0.40440610  0.25113560  1
  O  O40  1  0.58122216  0.79671062  0.74933095  1
  O  O41  1  0.57803118  0.90716495  0.25038814  1
  O  O42  1  0.68879860  0.08430808  0.93531778  1
  O  O43  1  0.68730895  0.08437575  0.56618312  1
  O  O44  1  0.68865705  0.58475781  0.56647506  1
  O  O45  1  0.68950146  0.58365303  0.93448260  1
  O  O46  1  0.85418715  0.24445832  0.25210045  1
  O  O47  1  0.89105125  0.31895643  0.75032468  1
  O  O48  1  0.85590301  0.74632196  0.24943607  1
  O  O49  1  0.93321890  0.02459665  0.25043749  1
  O  O50  1  0.88951508  0.82203918  0.75017596  1
  O  O51  1  0.93037400  0.52547202  0.25042672  1
