# generated using pymatgen
data_Ti4Ni(PO5)4
_symmetry_space_group_name_H-M   'P 1'
_cell_length_a   12.95935331
_cell_length_b   7.28858670
_cell_length_c   7.44316691
_cell_angle_alpha   90.00000000
_cell_angle_beta   90.41455202
_cell_angle_gamma   90.00000000
_symmetry_Int_Tables_number   1
_chemical_formula_structural   Ti4Ni(PO5)4
_chemical_formula_sum   'Ti8 Ni2 P8 O40'
_cell_volume   703.02868409
_cell_formula_units_Z   2
loop_
 _symmetry_equiv_pos_site_id
 _symmetry_equiv_pos_as_xyz
  1  'x, y, z'
loop_
 _atom_site_type_symbol
 _atom_site_label
 _atom_site_symmetry_multiplicity
 _atom_site_fract_x
 _atom_site_fract_y
 _atom_site_fract_z
 _atom_site_occupancy
  Ti  Ti0  1  0.11654349  0.77724508  0.64605716  1
  Ti  Ti1  1  0.12982640  0.75434591  0.11755030  1
  Ti  Ti2  1  0.37017360  0.24565409  0.88244970  1
  Ti  Ti3  1  0.38345651  0.22275492  0.35394284  1
  Ti  Ti4  1  0.62982640  0.74565409  0.61755030  1
  Ti  Ti5  1  0.61654349  0.72275492  0.14605716  1
  Ti  Ti6  1  0.88345651  0.27724508  0.85394284  1
  Ti  Ti7  1  0.87017360  0.25434591  0.38244970  1
  Ni  Ni8  1  0.25000000  0.50000000  0.50000000  1
  Ni  Ni9  1  0.75000000  0.00000000  0.00000000  1
  P  P10  1  0.12986826  0.37686744  0.87388253  1
  P  P11  1  0.12072710  0.13167765  0.37377409  1
  P  P12  1  0.37927290  0.86832235  0.62622591  1
  P  P13  1  0.37013174  0.62313256  0.12611747  1
  P  P14  1  0.62072710  0.36832235  0.87377409  1
  P  P15  1  0.62986826  0.12313256  0.37388253  1
  P  P16  1  0.87013174  0.87686744  0.62611747  1
  P  P17  1  0.87927290  0.63167765  0.12622591  1
  O  O18  1  0.02833673  0.26467407  0.86595767  1
  O  O19  1  0.02137865  0.24322378  0.35662439  1
  O  O20  1  0.12714737  0.82461949  0.88176237  1
  O  O21  1  0.12423314  0.01953770  0.55181480  1
  O  O22  1  0.15265157  0.64955998  0.39738173  1
  O  O23  1  0.12820645  0.49717993  0.04255668  1
  O  O24  1  0.13732496  0.49892064  0.70047546  1
  O  O25  1  0.13126974  0.99709252  0.21705021  1
  O  O26  1  0.22003013  0.24301622  0.87579821  1
  O  O27  1  0.21547257  0.26372148  0.36916658  1
  O  O28  1  0.28452743  0.73627852  0.63083342  1
  O  O29  1  0.27996987  0.75698378  0.12420179  1
  O  O30  1  0.36873026  0.00290748  0.78294979  1
  O  O31  1  0.36267504  0.50107936  0.29952454  1
  O  O32  1  0.37179355  0.50282007  0.95744332  1
  O  O33  1  0.34734843  0.35044002  0.60261827  1
  O  O34  1  0.37576686  0.98046230  0.44818520  1
  O  O35  1  0.37285263  0.17538051  0.11823763  1
  O  O36  1  0.47862135  0.75677622  0.64337561  1
  O  O37  1  0.47166327  0.73532593  0.13404233  1
  O  O38  1  0.52137865  0.25677622  0.85662439  1
  O  O39  1  0.52833673  0.23532593  0.36595767  1
  O  O40  1  0.65265157  0.85044002  0.89738173  1
  O  O41  1  0.62820645  0.00282007  0.54255668  1
  O  O42  1  0.62714737  0.67538051  0.38176237  1
  O  O43  1  0.62423314  0.48046230  0.05181480  1
  O  O44  1  0.63126974  0.50290748  0.71705021  1
  O  O45  1  0.63732496  0.00107936  0.20047546  1
  O  O46  1  0.71547257  0.23627852  0.86916658  1
  O  O47  1  0.72003013  0.25698378  0.37579821  1
  O  O48  1  0.77996987  0.74301622  0.62420179  1
  O  O49  1  0.78452743  0.76372148  0.13083342  1
  O  O50  1  0.86267504  0.99892064  0.79952454  1
  O  O51  1  0.86873026  0.49709252  0.28294979  1
  O  O52  1  0.87576686  0.51953770  0.94818520  1
  O  O53  1  0.87285263  0.32461949  0.61823763  1
  O  O54  1  0.87179355  0.99717993  0.45744332  1
  O  O55  1  0.84734843  0.14955998  0.10261827  1
  O  O56  1  0.97166327  0.76467407  0.63404233  1
  O  O57  1  0.97862135  0.74322378  0.14337561  1
