# generated using pymatgen
data_LiMn2(PO4)2
_symmetry_space_group_name_H-M   'P 1'
_cell_length_a   5.06664702
_cell_length_b   5.06664682
_cell_length_c   7.23191869
_cell_angle_alpha   90.36246814
_cell_angle_beta   89.63753106
_cell_angle_gamma   90.79347261
_symmetry_Int_Tables_number   1
_chemical_formula_structural   LiMn2(PO4)2
_chemical_formula_sum   'Li1 Mn2 P2 O8'
_cell_volume   185.62481124
_cell_formula_units_Z   1
loop_
 _symmetry_equiv_pos_site_id
 _symmetry_equiv_pos_as_xyz
  1  'x, y, z'
loop_
 _atom_site_type_symbol
 _atom_site_label
 _atom_site_symmetry_multiplicity
 _atom_site_fract_x
 _atom_site_fract_y
 _atom_site_fract_z
 _atom_site_occupancy
  Li  Li0  1  0.49859117  0.49859117  1.00000000  1
  Mn  Mn1  1  0.97389345  0.97389345  0.00000000  1
  Mn  Mn2  1  0.51832475  0.51832475  0.50000000  1
  P  P3  1  0.49371571  0.00544978  0.24718896  1
  P  P4  1  0.00544978  0.49371571  0.75281104  1
  O  O5  1  0.56264983  0.70760399  0.24047824  1
  O  O6  1  0.64562635  0.13903191  0.07818463  1
  O  O7  1  0.12917067  0.57501704  0.56892983  1
  O  O8  1  0.19695994  0.05396442  0.21303297  1
  O  O9  1  0.05396442  0.19695994  0.78696703  1
  O  O10  1  0.57501704  0.12917067  0.43107017  1
  O  O11  1  0.13903191  0.64562635  0.92181537  1
  O  O12  1  0.70760399  0.56264983  0.75952176  1
