# generated using pymatgen
data_Li2V2SiGeO10
_symmetry_space_group_name_H-M   'P 1'
_cell_length_a   9.01622622
_cell_length_b   9.14027450
_cell_length_c   4.65402132
_cell_angle_alpha   90.00000000
_cell_angle_beta   90.00000000
_cell_angle_gamma   90.00000000
_symmetry_Int_Tables_number   1
_chemical_formula_structural   Li2V2SiGeO10
_chemical_formula_sum   'Li4 V4 Si2 Ge2 O20'
_cell_volume   383.54153914
_cell_formula_units_Z   2
loop_
 _symmetry_equiv_pos_site_id
 _symmetry_equiv_pos_as_xyz
  1  'x, y, z'
loop_
 _atom_site_type_symbol
 _atom_site_label
 _atom_site_symmetry_multiplicity
 _atom_site_fract_x
 _atom_site_fract_y
 _atom_site_fract_z
 _atom_site_occupancy
  Li  Li0  1  0.25000000  0.25699084  0.00000000  1
  Li  Li1  1  0.75000000  0.25699084  0.00000000  1
  Li  Li2  1  0.25000000  0.74300916  0.00000000  1
  Li  Li3  1  0.75000000  0.74300916  0.00000000  1
  V  V4  1  0.00000000  0.25537502  0.60937405  1
  V  V5  1  0.50000000  0.25537502  0.39062595  1
  V  V6  1  0.00000000  0.74462498  0.39062595  1
  V  V7  1  0.50000000  0.74462498  0.60937405  1
  Si  Si8  1  0.25000000  0.50000000  0.50000000  1
  Si  Si9  1  0.75000000  0.50000000  0.50000000  1
  Ge  Ge10  1  0.25000000  0.00000000  0.50000000  1
  Ge  Ge11  1  0.75000000  0.00000000  0.50000000  1
  O  O12  1  0.00000000  0.25107482  0.25912695  1
  O  O13  1  0.14500346  0.11625805  0.72618787  1
  O  O14  1  0.35499654  0.11625805  0.27381213  1
  O  O15  1  0.14774976  0.39545437  0.70917453  1
  O  O16  1  0.64500346  0.11625805  0.27381213  1
  O  O17  1  0.50000000  0.25107482  0.74087305  1
  O  O18  1  0.35225024  0.39545437  0.29082547  1
  O  O19  1  0.14774976  0.60454563  0.29082547  1
  O  O20  1  0.00000000  0.74892518  0.74087305  1
  O  O21  1  0.85499654  0.11625805  0.72618787  1
  O  O22  1  0.35225024  0.60454563  0.70917453  1
  O  O23  1  0.64774976  0.39545437  0.29082547  1
  O  O24  1  0.14500346  0.88374195  0.27381213  1
  O  O25  1  0.85225024  0.39545437  0.70917453  1
  O  O26  1  0.64774976  0.60454563  0.70917453  1
  O  O27  1  0.50000000  0.74892518  0.25912695  1
  O  O28  1  0.35499654  0.88374195  0.72618787  1
  O  O29  1  0.85225024  0.60454563  0.29082547  1
  O  O30  1  0.64500346  0.88374195  0.72618787  1
  O  O31  1  0.85499654  0.88374195  0.27381213  1
