# generated using pymatgen
data_Li6VCoP2(CO7)2
_symmetry_space_group_name_H-M   'P 1'
_cell_length_a   8.44905115
_cell_length_b   4.99369939
_cell_length_c   6.55552048
_cell_angle_alpha   90.00000000
_cell_angle_beta   90.00000000
_cell_angle_gamma   84.99894364
_symmetry_Int_Tables_number   1
_chemical_formula_structural   Li6VCoP2(CO7)2
_chemical_formula_sum   'Li6 V1 Co1 P2 C2 O14'
_cell_volume   275.53770635
_cell_formula_units_Z   1
loop_
 _symmetry_equiv_pos_site_id
 _symmetry_equiv_pos_as_xyz
  1  'x, y, z'
loop_
 _atom_site_type_symbol
 _atom_site_label
 _atom_site_symmetry_multiplicity
 _atom_site_fract_x
 _atom_site_fract_y
 _atom_site_fract_z
 _atom_site_occupancy
  Li  Li0  1  0.09431846  0.76091185  0.25000000  1
  Li  Li1  1  0.27655819  0.24708409  0.02810912  1
  Li  Li2  1  0.27655819  0.24708409  0.47189088  1
  Li  Li3  1  0.72390361  0.75402553  0.52353828  1
  Li  Li4  1  0.72390361  0.75402553  0.97646172  1
  Li  Li5  1  0.90700495  0.23835107  0.75000000  1
  V  V6  1  0.33001634  0.79327246  0.75000000  1
  Co  Co7  1  0.66729621  0.21049923  0.25000000  1
  P  P8  1  0.41270406  0.72043239  0.25000000  1
  P  P9  1  0.58898559  0.28067731  0.75000000  1
  C  C10  1  0.03442890  0.70056705  0.75000000  1
  C  C11  1  0.96351918  0.29590151  0.25000000  1
  O  O12  1  0.07514653  0.94563471  0.75000000  1
  O  O13  1  0.11017914  0.35596101  0.25000000  1
  O  O14  1  0.14805981  0.50669412  0.75000000  1
  O  O15  1  0.30876169  0.82557123  0.06645841  1
  O  O16  1  0.30876169  0.82557123  0.43354159  1
  O  O17  1  0.42089320  0.18064273  0.75000000  1
  O  O18  1  0.43202413  0.40567386  0.25000000  1
  O  O19  1  0.57035721  0.59465941  0.75000000  1
  O  O20  1  0.58004822  0.82372063  0.25000000  1
  O  O21  1  0.69170241  0.17470716  0.93577194  1
  O  O22  1  0.69170241  0.17470716  0.56422806  1
  O  O23  1  0.84851999  0.48734163  0.25000000  1
  O  O24  1  0.88764238  0.64657344  0.75000000  1
  O  O25  1  0.92700089  0.04971057  0.25000000  1
