# generated using pymatgen
data_MnV3Sb2(PO4)6
_symmetry_space_group_name_H-M   'P 1'
_cell_length_a   8.88241039
_cell_length_b   8.73675730
_cell_length_c   8.73675675
_cell_angle_alpha   60.00000308
_cell_angle_beta   60.54097005
_cell_angle_gamma   60.54097064
_symmetry_Int_Tables_number   1
_chemical_formula_structural   MnV3Sb2(PO4)6
_chemical_formula_sum   'Mn1 V3 Sb2 P6 O24'
_cell_volume   483.30301929
_cell_formula_units_Z   1
loop_
 _symmetry_equiv_pos_site_id
 _symmetry_equiv_pos_as_xyz
  1  'x, y, z'
loop_
 _atom_site_type_symbol
 _atom_site_label
 _atom_site_symmetry_multiplicity
 _atom_site_fract_x
 _atom_site_fract_y
 _atom_site_fract_z
 _atom_site_occupancy
  Mn  Mn0  1  0.55007288  0.14997604  0.14997604  1
  V  V1  1  0.05543315  0.64818862  0.64818862  1
  V  V2  1  0.43654386  0.85448538  0.85448538  1
  V  V3  1  0.94184221  0.35271893  0.35271893  1
  Sb  Sb4  1  0.98616037  0.00461354  0.00461354  1
  Sb  Sb5  1  0.49215998  0.50261367  0.50261367  1
  P  P6  1  0.24926491  0.24969139  0.54409519  1
  P  P7  1  0.24926491  0.95694852  0.24969139  1
  P  P8  1  0.24926491  0.54409519  0.95694852  1
  P  P9  1  0.75244509  0.46259376  0.03894588  1
  P  P10  1  0.75244509  0.03894588  0.74601426  1
  P  P11  1  0.75244509  0.74601426  0.46259376  1
  O  O12  1  0.07451368  0.11590774  0.30173074  1
  O  O13  1  0.07451368  0.50784885  0.11590774  1
  O  O14  1  0.07451368  0.30173074  0.50784885  1
  O  O15  1  0.24169302  0.08655177  0.73718831  1
  O  O16  1  0.42762834  0.20272961  0.39397179  1
  O  O17  1  0.24575682  0.42013656  0.57003100  1
  O  O18  1  0.24169302  0.93456690  0.08655177  1
  O  O19  1  0.24575682  0.76407462  0.42013656  1
  O  O20  1  0.57752878  0.61645921  0.00568428  1
  O  O21  1  0.24575682  0.57003100  0.76407462  1
  O  O22  1  0.76873995  0.26997949  0.05306752  1
  O  O23  1  0.57752878  0.00568428  0.80032773  1
  O  O24  1  0.42762834  0.97567026  0.20272961  1
  O  O25  1  0.24169302  0.73718831  0.93456690  1
  O  O26  1  0.74744365  0.44090493  0.23126026  1
  O  O27  1  0.42762834  0.39397179  0.97567026  1
  O  O28  1  0.74744365  0.23126026  0.58039116  1
  O  O29  1  0.76873995  0.05306752  0.90821204  1
  O  O30  1  0.74744365  0.58039116  0.44090493  1
  O  O31  1  0.57752878  0.80032773  0.61645921  1
  O  O32  1  0.76873995  0.90821204  0.26997949  1
  O  O33  1  0.92758095  0.68560571  0.50365624  1
  O  O34  1  0.92758095  0.50365624  0.88315711  1
  O  O35  1  0.92758095  0.88315711  0.68560571  1
