# generated using pymatgen
data_Mn5O5F
_symmetry_space_group_name_H-M   'P 1'
_cell_length_a   3.53740360
_cell_length_b   3.53739910
_cell_length_c   14.32262550
_cell_angle_alpha   90.00003130
_cell_angle_beta   89.99999253
_cell_angle_gamma   59.98474976
_symmetry_Int_Tables_number   1
_chemical_formula_structural   Mn5O5F
_chemical_formula_sum   'Mn5 O5 F1'
_cell_volume   155.18694485
_cell_formula_units_Z   1
loop_
 _symmetry_equiv_pos_site_id
 _symmetry_equiv_pos_as_xyz
  1  'x, y, z'
loop_
 _atom_site_type_symbol
 _atom_site_label
 _atom_site_symmetry_multiplicity
 _atom_site_fract_x
 _atom_site_fract_y
 _atom_site_fract_z
 _atom_site_occupancy
  Mn  Mn0  1  0.33333549  0.33344276  0.13752770  1
  Mn  Mn1  1  0.33318132  0.33328023  0.49484408  1
  Mn  Mn2  1  0.66666959  0.66677069  0.30974685  1
  Mn  Mn3  1  0.66662757  0.66672510  0.96251275  1
  Mn  Mn4  1  0.66681705  0.66691588  0.68017970  1
  O  O5  1  0.33334617  0.33344517  0.27629890  1
  O  O6  1  0.33350348  0.33360173  0.64055367  1
  O  O7  1  0.33331925  0.33341649  0.00079716  1
  O  O8  1  0.66658307  0.66668192  0.13949036  1
  O  O9  1  0.66662430  0.66672302  0.45711859  1
  F  F10  1  0.66608973  0.66619399  0.82172924  1
