# generated using pymatgen
data_LiMn2(PO4)2
_symmetry_space_group_name_H-M   'P 1'
_cell_length_a   5.11706224
_cell_length_b   8.86379608
_cell_length_c   8.78362078
_cell_angle_alpha   110.20849933
_cell_angle_beta   89.99999945
_cell_angle_gamma   90.00000235
_symmetry_Int_Tables_number   1
_chemical_formula_structural   LiMn2(PO4)2
_chemical_formula_sum   'Li2 Mn4 P4 O16'
_cell_volume   373.87064964
_cell_formula_units_Z   2
loop_
 _symmetry_equiv_pos_site_id
 _symmetry_equiv_pos_as_xyz
  1  'x, y, z'
loop_
 _atom_site_type_symbol
 _atom_site_label
 _atom_site_symmetry_multiplicity
 _atom_site_fract_x
 _atom_site_fract_y
 _atom_site_fract_z
 _atom_site_occupancy
  Li  Li0  1  0.56103289  0.00497092  0.50205853  1
  Li  Li1  1  0.43896711  0.50497092  0.00205853  1
  Mn  Mn2  1  0.05799850  0.24220372  0.74106927  1
  Mn  Mn3  1  0.45324864  0.75822536  0.75980443  1
  Mn  Mn4  1  0.54675136  0.25822536  0.25980443  1
  Mn  Mn5  1  0.94200150  0.74220372  0.24106927  1
  P  P6  1  0.54309707  0.12952178  0.87552019  1
  P  P7  1  0.95586055  0.62159763  0.87138993  1
  P  P8  1  0.04413945  0.12159763  0.37138993  1
  P  P9  1  0.45690293  0.62952178  0.37552019  1
  O  O10  1  0.83721496  0.17550503  0.88455611  1
  O  O11  1  0.65702581  0.64366857  0.90323613  1
  O  O12  1  0.38910319  0.27801120  0.85718657  1
  O  O13  1  0.91323262  0.11307258  0.53335703  1
  O  O14  1  0.06989337  0.75976630  0.82731849  1
  O  O15  1  0.48322029  0.98195287  0.72194727  1
  O  O16  1  0.93010663  0.25976630  0.32731849  1
  O  O17  1  0.02377287  0.45913914  0.73794412  1
  O  O18  1  0.53516792  0.60050690  0.53027191  1
  O  O19  1  0.34297419  0.14366857  0.40323613  1
  O  O20  1  0.61089681  0.77801120  0.35718657  1
  O  O21  1  0.97622713  0.95913914  0.23794412  1
  O  O22  1  0.16278504  0.67550503  0.38455611  1
  O  O23  1  0.51677971  0.48195287  0.22194727  1
  O  O24  1  0.46483208  0.10050690  0.03027191  1
  O  O25  1  0.08676738  0.61307258  0.03335703  1
