# generated using pymatgen
data_KCN
_symmetry_space_group_name_H-M   'P 1'
_cell_length_a   4.49356029
_cell_length_b   4.49356029
_cell_length_c   8.20421028
_cell_angle_alpha   91.68656464
_cell_angle_beta   105.68561205
_cell_angle_gamma   116.91391222
_symmetry_Int_Tables_number   1
_chemical_formula_structural   KCN
_chemical_formula_sum   'K2 C2 N2'
_cell_volume   139.97476603
_cell_formula_units_Z   2
loop_
 _symmetry_equiv_pos_site_id
 _symmetry_equiv_pos_as_xyz
  1  'x, y, z'
loop_
 _atom_site_type_symbol
 _atom_site_label
 _atom_site_symmetry_multiplicity
 _atom_site_fract_x
 _atom_site_fract_y
 _atom_site_fract_z
 _atom_site_occupancy
  K  K0  1  0.97456279  0.45431291  0.54118638  1
  K  K1  1  0.08687347  0.06662359  0.04118638  1
  C  C2  1  0.45989206  0.68483920  0.33168325  1
  C  C3  1  0.64684405  0.37179119  0.83168325  1
  N  N4  1  0.58520369  0.83150643  0.23013037  1
  N  N5  1  0.39862394  0.14492668  0.73013037  1
