# generated using pymatgen
data_Al4(NiO4)3
_symmetry_space_group_name_H-M   'P 1'
_cell_length_a   5.67475936
_cell_length_b   5.67475977
_cell_length_c   17.26432930
_cell_angle_alpha   59.55812591
_cell_angle_beta   59.55811976
_cell_angle_gamma   60.88002168
_symmetry_Int_Tables_number   1
_chemical_formula_structural   Al4(NiO4)3
_chemical_formula_sum   'Al8 Ni6 O24'
_cell_volume   392.97222633
_cell_formula_units_Z   2
loop_
 _symmetry_equiv_pos_site_id
 _symmetry_equiv_pos_as_xyz
  1  'x, y, z'
loop_
 _atom_site_type_symbol
 _atom_site_label
 _atom_site_symmetry_multiplicity
 _atom_site_fract_x
 _atom_site_fract_y
 _atom_site_fract_z
 _atom_site_occupancy
  Al  Al0  1  0.11086086  0.11086086  0.05474627  1
  Al  Al1  1  0.12454343  0.12454343  0.37019378  1
  Al  Al2  1  0.50451098  0.50451098  0.33506673  1
  Al  Al3  1  0.49548902  0.49548902  0.66493327  1
  Al  Al4  1  0.50526940  0.50526940  0.15353678  1
  Al  Al5  1  0.49473060  0.49473060  0.84646322  1
  Al  Al6  1  0.87545657  0.87545657  0.62980622  1
  Al  Al7  1  0.88913914  0.88913914  0.94525373  1
  Ni  Ni8  1  0.51088147  0.99725984  0.16186278  1
  Ni  Ni9  1  0.50000000  0.00000000  0.50000000  1
  Ni  Ni10  1  0.48911853  0.00274016  0.83813722  1
  Ni  Ni11  1  0.99725984  0.51088147  0.16186278  1
  Ni  Ni12  1  0.00000000  0.50000000  0.50000000  1
  Ni  Ni13  1  0.00274016  0.48911853  0.83813722  1
  O  O14  1  0.24271785  0.24271785  0.09495895  1
  O  O15  1  0.26024059  0.26024059  0.40913083  1
  O  O16  1  0.25310838  0.25310838  0.76228572  1
  O  O17  1  0.24767432  0.73325197  0.09096202  1
  O  O18  1  0.24619838  0.74169985  0.40706948  1
  O  O19  1  0.28311899  0.67250982  0.76216112  1
  O  O20  1  0.26242698  0.26242698  0.23975798  1
  O  O21  1  0.25099050  0.25099050  0.56420971  1
  O  O22  1  0.25009667  0.25009667  0.92373377  1
  O  O23  1  0.73325197  0.24767432  0.09096202  1
  O  O24  1  0.74169985  0.24619938  0.40706948  1
  O  O25  1  0.67250982  0.28311899  0.76216112  1
  O  O26  1  0.32749018  0.71688101  0.23783888  1
  O  O27  1  0.25830015  0.75380162  0.59293052  1
  O  O28  1  0.26674803  0.75232568  0.90903798  1
  O  O29  1  0.71688201  0.32749018  0.23783888  1
  O  O30  1  0.75380162  0.25830015  0.59293052  1
  O  O31  1  0.75232668  0.26674803  0.90903798  1
  O  O32  1  0.74990333  0.74990333  0.07626623  1
  O  O33  1  0.74900950  0.74900950  0.43579029  1
  O  O34  1  0.73757302  0.73757302  0.76024202  1
  O  O35  1  0.74689162  0.74689162  0.23771428  1
  O  O36  1  0.73975941  0.73975941  0.59086917  1
  O  O37  1  0.75728215  0.75728215  0.90504105  1
