# generated using pymatgen
data_Li4Mn3(FeO5)2
_symmetry_space_group_name_H-M   'P 1'
_cell_length_a   5.22075925
_cell_length_b   5.14828610
_cell_length_c   7.90480475
_cell_angle_alpha   109.56568003
_cell_angle_beta   102.92591786
_cell_angle_gamma   98.29984113
_symmetry_Int_Tables_number   1
_chemical_formula_structural   Li4Mn3(FeO5)2
_chemical_formula_sum   'Li4 Mn3 Fe2 O10'
_cell_volume   189.48112825
_cell_formula_units_Z   1
loop_
 _symmetry_equiv_pos_site_id
 _symmetry_equiv_pos_as_xyz
  1  'x, y, z'
loop_
 _atom_site_type_symbol
 _atom_site_label
 _atom_site_symmetry_multiplicity
 _atom_site_fract_x
 _atom_site_fract_y
 _atom_site_fract_z
 _atom_site_occupancy
  Li  Li0  1  0.22561004  0.94219226  0.43371466  1
  Li  Li1  1  0.50271934  0.48483418  0.51245939  1
  Li  Li2  1  0.60218237  0.72011812  0.22085421  1
  Li  Li3  1  0.79499859  0.08353516  0.59377807  1
  Mn  Mn4  1  0.99729770  0.49938875  0.99525554  1
  Mn  Mn5  1  0.69032824  0.89252144  0.89614921  1
  Mn  Mn6  1  0.30311452  0.11168764  0.10147598  1
  Fe  Fe7  1  0.11213253  0.69234990  0.68396210  1
  Fe  Fe8  1  0.88757717  0.30765021  0.31006305  1
  O  O9  1  0.02499867  0.09193331  0.86330288  1
  O  O10  1  0.35498256  0.74173504  0.95147869  1
  O  O11  1  0.12279156  0.30646172  0.53354434  1
  O  O12  1  0.22346000  0.47443763  0.22110601  1
  O  O13  1  0.46271414  0.87234931  0.66732229  1
  O  O14  1  0.53933832  0.11206675  0.33263979  1
  O  O15  1  0.79400408  0.53993556  0.77155201  1
  O  O16  1  0.86964893  0.69708071  0.45441229  1
  O  O17  1  0.67068874  0.26946266  0.05113545  1
  O  O18  1  0.92601548  0.87894265  0.12775204  1
