# generated using pymatgen
data_Li3MnPCO7
_symmetry_space_group_name_H-M   'P 1'
_cell_length_a   8.57228227
_cell_length_b   9.98789037
_cell_length_c   6.58524977
_cell_angle_alpha   90.07618676
_cell_angle_beta   90.52758443
_cell_angle_gamma   85.41027639
_symmetry_Int_Tables_number   1
_chemical_formula_structural   Li3MnPCO7
_chemical_formula_sum   'Li12 Mn4 P4 C4 O28'
_cell_volume   561.99063665
_cell_formula_units_Z   4
loop_
 _symmetry_equiv_pos_site_id
 _symmetry_equiv_pos_as_xyz
  1  'x, y, z'
loop_
 _atom_site_type_symbol
 _atom_site_label
 _atom_site_symmetry_multiplicity
 _atom_site_fract_x
 _atom_site_fract_y
 _atom_site_fract_z
 _atom_site_occupancy
  Li  Li0  1  0.09431633  0.38544088  0.25405298  1
  Li  Li1  1  0.09441482  0.87717812  0.25588897  1
  Li  Li2  1  0.27553791  0.11039095  0.48623552  1
  Li  Li3  1  0.27344282  0.63391374  0.02013928  1
  Li  Li4  1  0.27401173  0.63365868  0.47848344  1
  Li  Li5  1  0.34375392  0.87889447  0.74021315  1
  Li  Li6  1  0.72487787  0.38106565  0.53024877  1
  Li  Li7  1  0.72484412  0.38080614  0.96985594  1
  Li  Li8  1  0.72245693  0.87326843  0.53650318  1
  Li  Li9  1  0.72330495  0.87327729  0.96387177  1
  Li  Li10  1  0.90203025  0.11397337  0.74739348  1
  Li  Li11  1  0.90840139  0.62368583  0.74901990  1
  Mn  Mn12  1  0.26154504  0.11714072  0.99670758  1
  Mn  Mn13  1  0.34421423  0.39560344  0.74751232  1
  Mn  Mn14  1  0.65959022  0.10660479  0.25078200  1
  Mn  Mn15  1  0.65864150  0.61459315  0.24997321  1
  P  P16  1  0.40915043  0.36083275  0.24929138  1
  P  P17  1  0.40925333  0.86133251  0.25258993  1
  P  P18  1  0.59085242  0.14025220  0.74999901  1
  P  P19  1  0.58878412  0.64152059  0.74981935  1
  C  C20  1  0.03366463  0.35053004  0.75450985  1
  C  C21  1  0.03859100  0.85355458  0.75360589  1
  C  C22  1  0.96486465  0.14880478  0.25045239  1
  C  C23  1  0.96717312  0.64837481  0.24975893  1
  O  O24  1  0.06869763  0.47252545  0.74829356  1
  O  O25  1  0.11144288  0.18114949  0.24789033  1
  O  O26  1  0.07177048  0.97844365  0.76010408  1
  O  O27  1  0.14848174  0.25376392  0.76157392  1
  O  O28  1  0.11266560  0.67719629  0.24944383  1
  O  O29  1  0.14735404  0.75665425  0.75026284  1
  O  O30  1  0.30906959  0.41277276  0.06368928  1
  O  O31  1  0.30982536  0.41381818  0.43266051  1
  O  O32  1  0.31301821  0.91178211  0.06082571  1
  O  O33  1  0.31205999  0.91430653  0.43625200  1
  O  O34  1  0.42228615  0.09452977  0.74751040  1
  O  O35  1  0.42153701  0.20217451  0.24625587  1
  O  O36  1  0.42121482  0.59304350  0.74926624  1
  O  O37  1  0.42266651  0.70396170  0.25082071  1
  O  O38  1  0.57831288  0.29745302  0.75000579  1
  O  O39  1  0.57768668  0.40514727  0.25110035  1
  O  O40  1  0.57481901  0.79659444  0.74961257  1
  O  O41  1  0.57924615  0.90555047  0.25108744  1
  O  O42  1  0.68961823  0.08586547  0.93507053  1
  O  O43  1  0.68872342  0.08547298  0.56663006  1
  O  O44  1  0.68784511  0.58492110  0.56619880  1
  O  O45  1  0.68856676  0.58452372  0.93458667  1
  O  O46  1  0.85403984  0.24490074  0.25319934  1
  O  O47  1  0.89040160  0.31723677  0.75107720  1
  O  O48  1  0.85637334  0.74567735  0.24985259  1
  O  O49  1  0.93343004  0.02551860  0.25022859  1
  O  O50  1  0.89107126  0.82498283  0.74942817  1
  O  O51  1  0.93005992  0.52533019  0.25016441  1
