# generated using pymatgen
data_Li12Mn3VP4(CO7)4
_symmetry_space_group_name_H-M   'P 1'
_cell_length_a   8.52927439
_cell_length_b   10.00008483
_cell_length_c   6.62103019
_cell_angle_alpha   90.00000000
_cell_angle_beta   90.00000000
_cell_angle_gamma   85.44371192
_symmetry_Int_Tables_number   1
_chemical_formula_structural   Li12Mn3VP4(CO7)4
_chemical_formula_sum   'Li12 Mn3 V1 P4 C4 O28'
_cell_volume   562.94594603
_cell_formula_units_Z   1
loop_
 _symmetry_equiv_pos_site_id
 _symmetry_equiv_pos_as_xyz
  1  'x, y, z'
loop_
 _atom_site_type_symbol
 _atom_site_label
 _atom_site_symmetry_multiplicity
 _atom_site_fract_x
 _atom_site_fract_y
 _atom_site_fract_z
 _atom_site_occupancy
  Li  Li0  1  0.09065392  0.37934679  0.25000000  1
  Li  Li1  1  0.09218423  0.87969228  0.25000000  1
  Li  Li2  1  0.27329990  0.12280377  0.02727045  1
  Li  Li3  1  0.27329990  0.12280377  0.47272955  1
  Li  Li4  1  0.27436371  0.62314879  0.02712770  1
  Li  Li5  1  0.27436371  0.62314879  0.47287230  1
  Li  Li6  1  0.72648288  0.37709781  0.52773849  1
  Li  Li7  1  0.72648288  0.37709781  0.97226151  1
  Li  Li8  1  0.72606585  0.87663316  0.52700047  1
  Li  Li9  1  0.72606585  0.87663316  0.97299953  1
  Li  Li10  1  0.90863049  0.12088034  0.75000000  1
  Li  Li11  1  0.90837625  0.62095004  0.75000000  1
  Mn  Mn12  1  0.34061258  0.38977341  0.75000000  1
  Mn  Mn13  1  0.34052818  0.88972600  0.75000000  1
  Mn  Mn14  1  0.65942799  0.10988259  0.25000000  1
  V  V15  1  0.66871462  0.60404814  0.25000000  1
  P  P16  1  0.40933205  0.36088893  0.25000000  1
  P  P17  1  0.41129328  0.85912327  0.25000000  1
  P  P18  1  0.59005110  0.13986272  0.75000000  1
  P  P19  1  0.58977438  0.64012882  0.75000000  1
  C  C20  1  0.03288363  0.35210870  0.75000000  1
  C  C21  1  0.03282452  0.85208825  0.75000000  1
  C  C22  1  0.96703456  0.14797253  0.25000000  1
  C  C23  1  0.96550577  0.64917406  0.25000000  1
  O  O24  1  0.06979527  0.47539071  0.75000000  1
  O  O25  1  0.11288370  0.17750922  0.25000000  1
  O  O26  1  0.06979054  0.97504154  0.75000000  1
  O  O27  1  0.14457861  0.25523870  0.75000000  1
  O  O28  1  0.11125603  0.67650987  0.25000000  1
  O  O29  1  0.14446727  0.75491850  0.75000000  1
  O  O30  1  0.30967020  0.41401346  0.06608018  1
  O  O31  1  0.30967020  0.41401346  0.43391982  1
  O  O32  1  0.31063293  0.91293630  0.06654468  1
  O  O33  1  0.31063293  0.91293630  0.43345532  1
  O  O34  1  0.42044034  0.09423237  0.75000000  1
  O  O35  1  0.42439467  0.20400259  0.25000000  1
  O  O36  1  0.42035759  0.59404887  0.75000000  1
  O  O37  1  0.42704939  0.70199203  0.25000000  1
  O  O38  1  0.57625131  0.29703763  0.75000000  1
  O  O39  1  0.57823739  0.40786040  0.25000000  1
  O  O40  1  0.57599263  0.79708776  0.75000000  1
  O  O41  1  0.57934019  0.90743006  0.25000000  1
  O  O42  1  0.68949936  0.08638405  0.93382814  1
  O  O43  1  0.68949936  0.08638405  0.56617186  1
  O  O44  1  0.68965175  0.58628591  0.56681089  1
  O  O45  1  0.68965175  0.58628591  0.93318911  1
  O  O46  1  0.85536526  0.24516418  0.25000000  1
  O  O47  1  0.88710335  0.32274797  0.75000000  1
  O  O48  1  0.85354127  0.74574301  0.25000000  1
  O  O49  1  0.93013048  0.02496264  0.25000000  1
  O  O50  1  0.88696568  0.82254527  0.75000000  1
  O  O51  1  0.92489832  0.52628530  0.25000000  1
