# generated using pymatgen
data_VPH5O7
_symmetry_space_group_name_H-M   'P 1'
_cell_length_a   8.24718988
_cell_length_b   7.03966958
_cell_length_c   10.07689975
_cell_angle_alpha   90.00000000
_cell_angle_beta   101.52287928
_cell_angle_gamma   90.00000000
_symmetry_Int_Tables_number   1
_chemical_formula_structural   VPH5O7
_chemical_formula_sum   'V4 P4 H20 O28'
_cell_volume   573.24806102
_cell_formula_units_Z   4
loop_
 _symmetry_equiv_pos_site_id
 _symmetry_equiv_pos_as_xyz
  1  'x, y, z'
loop_
 _atom_site_type_symbol
 _atom_site_label
 _atom_site_symmetry_multiplicity
 _atom_site_fract_x
 _atom_site_fract_y
 _atom_site_fract_z
 _atom_site_occupancy
  V  V0  1  0.45558799  0.37688906  0.75922501  1
  V  V1  1  0.54441201  0.87688906  0.74077499  1
  V  V2  1  0.45558799  0.12311094  0.25922501  1
  V  V3  1  0.54441201  0.62311094  0.24077499  1
  P  P4  1  0.27450542  0.64888570  0.50929820  1
  P  P5  1  0.27450542  0.85111430  0.00929820  1
  P  P6  1  0.72549458  0.14888570  0.99070180  1
  P  P7  1  0.72549458  0.35111430  0.49070180  1
  H  H8  1  0.95784781  0.22903841  0.61269854  1
  H  H9  1  0.00262636  0.65255556  0.68025114  1
  H  H10  1  0.95784781  0.27096159  0.11269854  1
  H  H11  1  0.27560203  0.00850442  0.82079141  1
  H  H12  1  0.00262636  0.84744444  0.18025114  1
  H  H13  1  0.27560203  0.49149558  0.32079141  1
  H  H14  1  0.10388701  0.51439013  0.79028787  1
  H  H15  1  0.10388701  0.98560987  0.29028787  1
  H  H16  1  0.32738430  0.45932100  0.94866827  1
  H  H17  1  0.32738430  0.04067900  0.44866827  1
  H  H18  1  0.67261570  0.95932100  0.55133173  1
  H  H19  1  0.67261570  0.54067900  0.05133173  1
  H  H20  1  0.89611299  0.01439013  0.70971213  1
  H  H21  1  0.89611299  0.48560987  0.20971213  1
  H  H22  1  0.72439797  0.50850442  0.67920859  1
  H  H23  1  0.99737364  0.15255556  0.81974886  1
  H  H24  1  0.72439797  0.99149558  0.17920859  1
  H  H25  1  0.04215219  0.72903841  0.88730146  1
  H  H26  1  0.99737364  0.34744444  0.31974886  1
  H  H27  1  0.04215219  0.77096159  0.38730146  1
  O  O28  1  0.99886730  0.09646291  0.73116689  1
  O  O29  1  0.99886730  0.40353709  0.23116689  1
  O  O30  1  0.08442110  0.69052030  0.47518607  1
  O  O31  1  0.08442110  0.80947970  0.97518607  1
  O  O32  1  0.28615071  0.41303967  0.85587166  1
  O  O33  1  0.32763334  0.89275069  0.86546351  1
  O  O34  1  0.28615071  0.08696033  0.35587166  1
  O  O35  1  0.30040695  0.47074758  0.59485453  1
  O  O36  1  0.32763334  0.60724931  0.36546351  1
  O  O37  1  0.37372835  0.82270227  0.56724616  1
  O  O38  1  0.30040695  0.02925242  0.09485453  1
  O  O39  1  0.44899445  0.13520522  0.71844622  1
  O  O40  1  0.37372835  0.67729773  0.06724616  1
  O  O41  1  0.44899445  0.36479478  0.21844622  1
  O  O42  1  0.55100555  0.63520522  0.78155378  1
  O  O43  1  0.62627165  0.32270227  0.93275384  1
  O  O44  1  0.55100555  0.86479478  0.28155378  1
  O  O45  1  0.69959305  0.97074758  0.90514547  1
  O  O46  1  0.62627165  0.17729773  0.43275384  1
  O  O47  1  0.67236666  0.39275069  0.63453649  1
  O  O48  1  0.69959305  0.52925242  0.40514547  1
  O  O49  1  0.71384929  0.91303967  0.64412834  1
  O  O50  1  0.67236666  0.10724931  0.13453649  1
  O  O51  1  0.71384929  0.58696033  0.14412834  1
  O  O52  1  0.91557890  0.19052030  0.02481393  1
  O  O53  1  0.91557890  0.30947970  0.52481393  1
  O  O54  1  0.00113270  0.59646291  0.76883311  1
  O  O55  1  0.00113270  0.90353709  0.26883311  1
