# generated using pymatgen
data_LiFeSiO4
_symmetry_space_group_name_H-M   'P 1'
_cell_length_a   5.20489442
_cell_length_b   10.17259750
_cell_length_c   6.83634746
_cell_angle_alpha   90.00000000
_cell_angle_beta   88.48170992
_cell_angle_gamma   90.00000000
_symmetry_Int_Tables_number   1
_chemical_formula_structural   LiFeSiO4
_chemical_formula_sum   'Li4 Fe4 Si4 O16'
_cell_volume   361.83903230
_cell_formula_units_Z   4
loop_
 _symmetry_equiv_pos_site_id
 _symmetry_equiv_pos_as_xyz
  1  'x, y, z'
loop_
 _atom_site_type_symbol
 _atom_site_label
 _atom_site_symmetry_multiplicity
 _atom_site_fract_x
 _atom_site_fract_y
 _atom_site_fract_z
 _atom_site_occupancy
  Li  Li0  1  0.19490793  0.14013055  0.51868213  1
  Li  Li1  1  0.30509207  0.64013055  0.98131787  1
  Li  Li2  1  0.69490793  0.35986945  0.01868213  1
  Li  Li3  1  0.80509207  0.85986945  0.48131787  1
  Fe  Fe4  1  0.19852644  0.41038939  0.29764653  1
  Fe  Fe5  1  0.30147356  0.91038939  0.20235347  1
  Fe  Fe6  1  0.69852644  0.08961061  0.79764653  1
  Fe  Fe7  1  0.80147356  0.58961061  0.70235347  1
  Si  Si8  1  0.19223291  0.18627146  0.00979506  1
  Si  Si9  1  0.30776709  0.68627146  0.49020494  1
  Si  Si10  1  0.69223291  0.31372854  0.50979506  1
  Si  Si11  1  0.80776709  0.81372854  0.99020494  1
  O  O12  1  0.16196466  0.62272030  0.68408878  1
  O  O13  1  0.11838218  0.80559295  0.02684617  1
  O  O14  1  0.19351811  0.83634367  0.44867708  1
  O  O15  1  0.23651672  0.09218052  0.20364523  1
  O  O16  1  0.26348328  0.59218052  0.29635477  1
  O  O17  1  0.30648189  0.33634367  0.05132292  1
  O  O18  1  0.38161782  0.30559295  0.47315383  1
  O  O19  1  0.33803534  0.12272030  0.81591122  1
  O  O20  1  0.66196466  0.87727970  0.18408878  1
  O  O21  1  0.61838218  0.69440705  0.52684617  1
  O  O22  1  0.69351811  0.66365633  0.94867708  1
  O  O23  1  0.73651672  0.40781948  0.70364523  1
  O  O24  1  0.76348328  0.90781948  0.79635477  1
  O  O25  1  0.80648189  0.16365633  0.55132292  1
  O  O26  1  0.88161782  0.19440705  0.97315383  1
  O  O27  1  0.83803534  0.37727970  0.31591122  1
