# generated using pymatgen
data_Li12Mn3CrP4(CO7)4
_symmetry_space_group_name_H-M   'P 1'
_cell_length_a   8.58611677
_cell_length_b   10.00993270
_cell_length_c   6.56663713
_cell_angle_alpha   90.00000000
_cell_angle_beta   90.00000000
_cell_angle_gamma   85.57577848
_symmetry_Int_Tables_number   1
_chemical_formula_structural   Li12Mn3CrP4(CO7)4
_chemical_formula_sum   'Li12 Mn3 Cr1 P4 C4 O28'
_cell_volume   562.69743640
_cell_formula_units_Z   1
loop_
 _symmetry_equiv_pos_site_id
 _symmetry_equiv_pos_as_xyz
  1  'x, y, z'
loop_
 _atom_site_type_symbol
 _atom_site_label
 _atom_site_symmetry_multiplicity
 _atom_site_fract_x
 _atom_site_fract_y
 _atom_site_fract_z
 _atom_site_occupancy
  Li  Li0  1  0.09213796  0.37906083  0.25000000  1
  Li  Li1  1  0.09240591  0.87987980  0.25000000  1
  Li  Li2  1  0.27321934  0.12280776  0.02793394  1
  Li  Li3  1  0.27321934  0.12280776  0.47206606  1
  Li  Li4  1  0.27342206  0.62335773  0.02870825  1
  Li  Li5  1  0.27342206  0.62335773  0.47129175  1
  Li  Li6  1  0.72697627  0.37626868  0.52621591  1
  Li  Li7  1  0.72697627  0.37626868  0.97378409  1
  Li  Li8  1  0.72666758  0.87703133  0.52650475  1
  Li  Li9  1  0.72666758  0.87703133  0.97349525  1
  Li  Li10  1  0.90834982  0.12042291  0.75000000  1
  Li  Li11  1  0.90989632  0.62091564  0.75000000  1
  Mn  Mn12  1  0.34023036  0.38864587  0.75000000  1
  Mn  Mn13  1  0.33974369  0.88984264  0.75000000  1
  Mn  Mn14  1  0.65913598  0.11067354  0.25000000  1
  Cr  Cr15  1  0.66500320  0.60779918  0.25000000  1
  P  P16  1  0.40998951  0.36046939  0.25000000  1
  P  P17  1  0.40993400  0.85957271  0.25000000  1
  P  P18  1  0.58974154  0.13982933  0.75000000  1
  P  P19  1  0.58841380  0.64091990  0.75000000  1
  C  C20  1  0.03299918  0.35234138  0.75000000  1
  C  C21  1  0.03303479  0.85198456  0.75000000  1
  C  C22  1  0.96679189  0.14775116  0.25000000  1
  C  C23  1  0.96800239  0.64700205  0.25000000  1
  O  O24  1  0.06930753  0.47488418  0.75000000  1
  O  O25  1  0.11203437  0.17791991  0.25000000  1
  O  O26  1  0.06914987  0.97475954  0.75000000  1
  O  O27  1  0.14388599  0.25536697  0.75000000  1
  O  O28  1  0.11225997  0.67937322  0.25000000  1
  O  O29  1  0.14404379  0.75521338  0.75000000  1
  O  O30  1  0.31075613  0.41434573  0.06545276  1
  O  O31  1  0.31075613  0.41434573  0.43454724  1
  O  O32  1  0.31091445  0.91482500  0.06535137  1
  O  O33  1  0.31091445  0.91482500  0.43464863  1
  O  O34  1  0.42115885  0.09450826  0.75000000  1
  O  O35  1  0.42314888  0.20366135  0.25000000  1
  O  O36  1  0.42085557  0.59409571  0.75000000  1
  O  O37  1  0.42046447  0.70350002  0.25000000  1
  O  O38  1  0.57664546  0.29667156  0.75000000  1
  O  O39  1  0.57848445  0.40615750  0.25000000  1
  O  O40  1  0.57635090  0.79725043  0.75000000  1
  O  O41  1  0.57828497  0.90605143  0.25000000  1
  O  O42  1  0.68914680  0.08581513  0.93443064  1
  O  O43  1  0.68914680  0.08581513  0.56556936  1
  O  O44  1  0.68728677  0.58723266  0.56366752  1
  O  O45  1  0.68728677  0.58723266  0.93633248  1
  O  O46  1  0.85580333  0.24460399  0.25000000  1
  O  O47  1  0.88766366  0.32242099  0.75000000  1
  O  O48  1  0.85476020  0.74217292  0.25000000  1
  O  O49  1  0.93072986  0.02503894  0.25000000  1
  O  O50  1  0.88784742  0.82186828  0.75000000  1
  O  O51  1  0.93453034  0.52400450  0.25000000  1
