# generated using pymatgen
data_MgFe11O18
_symmetry_space_group_name_H-M   'P 1'
_cell_length_a   5.49697731
_cell_length_b   8.90357393
_cell_length_c   7.53401376
_cell_angle_alpha   66.72514252
_cell_angle_beta   95.31664474
_cell_angle_gamma   74.24217154
_symmetry_Int_Tables_number   1
_chemical_formula_structural   MgFe11O18
_chemical_formula_sum   'Mg1 Fe11 O18'
_cell_volume   317.54912213
_cell_formula_units_Z   1
loop_
 _symmetry_equiv_pos_site_id
 _symmetry_equiv_pos_as_xyz
  1  'x, y, z'
loop_
 _atom_site_type_symbol
 _atom_site_label
 _atom_site_symmetry_multiplicity
 _atom_site_fract_x
 _atom_site_fract_y
 _atom_site_fract_z
 _atom_site_occupancy
  Mg  Mg0  1  0.28587021  -0.00031405  0.85720853  1
  Fe  Fe1  1  0.29636069  0.99843798  0.35384683  1
  Fe  Fe2  1  0.70488063  0.00025622  0.14410557  1
  Fe  Fe3  1  0.04196518  0.33139052  0.48306444  1
  Fe  Fe4  1  0.63004035  0.33261499  0.18701548  1
  Fe  Fe5  1  0.70054235  -0.00106206  0.65208487  1
  Fe  Fe6  1  0.37290976  0.66896174  0.31102678  1
  Fe  Fe7  1  0.62866289  0.33284624  0.68896426  1
  Fe  Fe8  1  0.95519562  0.66724686  0.01767296  1
  Fe  Fe9  1  0.04171495  0.33261810  0.97702294  1
  Fe  Fe10  1  0.96034037  0.66692850  0.51978620  1
  Fe  Fe11  1  0.36912318  0.66888418  0.81417945  1
  O  O12  1  0.40198511  0.20266470  0.14596058  1
  O  O13  1  0.30278936  0.10263003  0.54359658  1
  O  O14  1  0.93546217  0.13068350  0.18283146  1
  O  O15  1  0.36869834  0.56588508  0.11795688  1
  O  O16  1  0.03070485  0.23961298  0.78099775  1
  O  O17  1  0.73483147  0.23047954  0.48270187  1
  O  O18  1  0.93562588  0.43279892  0.18583350  1
  O  O19  1  0.60696535  0.10156766  0.85110009  1
  O  O20  1  0.26773240  0.46534956  0.51554217  1
  O  O21  1  0.73171699  0.53704308  0.47943231  1
  O  O22  1  0.40451781  0.89653446  0.15764877  1
  O  O23  1  0.06765150  0.56311049  0.81515939  1
  O  O24  1  0.26777364  0.76662937  0.51929750  1
  O  O25  1  0.62975818  0.43648072  0.88171974  1
  O  O26  1  0.96556007  0.76844612  0.21388727  1
  O  O27  1  0.70521920  0.90002883  0.45511912  1
  O  O28  1  0.05574158  0.86536613  0.81338929  1
  O  O29  1  0.59965992  0.79587959  0.85184738  1
