# generated using pymatgen
data_Li5Mn17(SiO16)2
_symmetry_space_group_name_H-M   'P 1'
_cell_length_a   8.63365292
_cell_length_b   8.42886241
_cell_length_c   8.34877140
_cell_angle_alpha   90.63866069
_cell_angle_beta   90.04809109
_cell_angle_gamma   90.34428091
_symmetry_Int_Tables_number   1
_chemical_formula_structural   Li5Mn17(SiO16)2
_chemical_formula_sum   'Li5 Mn17 Si2 O32'
_cell_volume   607.50676763
_cell_formula_units_Z   1
loop_
 _symmetry_equiv_pos_site_id
 _symmetry_equiv_pos_as_xyz
  1  'x, y, z'
loop_
 _atom_site_type_symbol
 _atom_site_label
 _atom_site_symmetry_multiplicity
 _atom_site_fract_x
 _atom_site_fract_y
 _atom_site_fract_z
 _atom_site_occupancy
  Li  Li0  1  0.00000799  0.50149546  0.50507553  1
  Li  Li1  1  0.49201564  0.49826005  0.99357278  1
  Li  Li2  1  0.49813327  0.01169797  0.50300974  1
  Li  Li3  1  0.75641758  0.24612136  0.75393548  1
  Li  Li4  1  0.00208352  0.00676038  0.99766127  1
  Mn  Mn5  1  0.12875923  0.87389399  0.37876631  1
  Mn  Mn6  1  0.13649139  0.62197410  0.11605117  1
  Mn  Mn7  1  0.24798490  0.74775961  0.74211886  1
  Mn  Mn8  1  0.24245535  0.24822613  0.25144473  1
  Mn  Mn9  1  0.37569591  0.36330792  0.62403217  1
  Mn  Mn10  1  0.36456277  0.12162180  0.87367932  1
  Mn  Mn11  1  0.37528633  0.62627510  0.37429764  1
  Mn  Mn12  1  0.36650578  0.87687787  0.12564183  1
  Mn  Mn13  1  0.62725172  0.37041146  0.37543205  1
  Mn  Mn14  1  0.62657945  0.12607857  0.12611510  1
  Mn  Mn15  1  0.62624181  0.62157325  0.62674847  1
  Mn  Mn16  1  0.62618127  0.87808664  0.87345822  1
  Mn  Mn17  1  0.75426516  0.74623216  0.24987136  1
  Mn  Mn18  1  0.87796965  0.13568242  0.38208450  1
  Mn  Mn19  1  0.87521625  0.37561171  0.12291677  1
  Mn  Mn20  1  0.87790238  0.87849990  0.63397435  1
  Mn  Mn21  1  0.88166356  0.62327391  0.86883952  1
  Si  Si22  1  0.11335049  0.13205069  0.63661697  1
  Si  Si23  1  0.12068030  0.37018242  0.86417518  1
  O  O24  1  0.10745749  0.12595253  0.41450010  1
  O  O25  1  0.13040672  0.57834169  0.86075350  1
  O  O26  1  0.13474456  0.38742985  0.08462317  1
  O  O27  1  0.15180566  0.63349094  0.37694729  1
  O  O28  1  0.10766416  0.91457897  0.63438236  1
  O  O29  1  0.11239249  0.15510512  0.85295119  1
  O  O30  1  0.11584495  0.34518702  0.64651704  1
  O  O31  1  0.14494256  0.85577405  0.12459145  1
  O  O32  1  0.32596142  0.12542866  0.63661038  1
  O  O33  1  0.36707431  0.64646149  0.13596661  1
  O  O34  1  0.35382075  0.88569253  0.35579403  1
  O  O35  1  0.36975997  0.10237805  0.11000112  1
  O  O36  1  0.34026252  0.35579443  0.85642028  1
  O  O37  1  0.39125738  0.60745782  0.60880886  1
  O  O38  1  0.40080325  0.36345124  0.39271157  1
  O  O39  1  0.37283237  0.89005841  0.89380534  1
  O  O40  1  0.62237984  0.37327912  0.60341308  1
  O  O41  1  0.60209849  0.88680436  0.11956532  1
  O  O42  1  0.61799066  0.10897459  0.89440591  1
  O  O43  1  0.65453464  0.88313125  0.63761858  1
  O  O44  1  0.60737062  0.60756616  0.38611094  1
  O  O45  1  0.62201506  0.35892394  0.14181470  1
  O  O46  1  0.64545706  0.14131844  0.36396058  1
  O  O47  1  0.62282045  0.64466126  0.85511925  1
  O  O48  1  0.84940008  0.38960636  0.35638359  1
  O  O49  1  0.87953680  0.85561207  0.86283431  1
  O  O50  1  0.86181356  0.64625845  0.63569418  1
  O  O51  1  0.90823476  0.38592938  0.88580871  1
  O  O52  1  0.88257890  0.14478954  0.14948301  1
  O  O53  1  0.90170118  0.87205620  0.39718901  1
  O  O54  1  0.90177146  0.11285038  0.61967947  1
  O  O55  1  0.89956921  0.61379083  0.10610681  1
