# generated using pymatgen
data_LiMn7O12
_symmetry_space_group_name_H-M   'P 1'
_cell_length_a   6.42336668
_cell_length_b   6.42324857
_cell_length_c   6.42343765
_cell_angle_alpha   109.47012323
_cell_angle_beta   109.47143581
_cell_angle_gamma   109.47121722
_symmetry_Int_Tables_number   1
_chemical_formula_structural   LiMn7O12
_chemical_formula_sum   'Li1 Mn7 O12'
_cell_volume   204.01768372
_cell_formula_units_Z   1
loop_
 _symmetry_equiv_pos_site_id
 _symmetry_equiv_pos_as_xyz
  1  'x, y, z'
loop_
 _atom_site_type_symbol
 _atom_site_label
 _atom_site_symmetry_multiplicity
 _atom_site_fract_x
 _atom_site_fract_y
 _atom_site_fract_z
 _atom_site_occupancy
  Li  Li0  1  0.00000014  0.00000156  0.00000063  1
  Mn  Mn1  1  0.49999490  0.99999443  -0.00000043  1
  Mn  Mn2  1  0.50000201  0.49998894  0.99999043  1
  Mn  Mn3  1  0.49999473  0.99998775  0.49999992  1
  Mn  Mn4  1  -0.00000029  0.50000543  0.00000283  1
  Mn  Mn5  1  0.00000527  0.00000554  0.49999511  1
  Mn  Mn6  1  0.50000282  0.50000158  0.50000011  1
  Mn  Mn7  1  0.99999523  0.50000141  0.50000256  1
  O  O8  1  0.81772023  0.12863460  0.31091252  1
  O  O9  1  0.87137713  0.68909649  0.18228202  1
  O  O10  1  0.49318706  0.31090612  0.18227719  1
  O  O11  1  0.31091679  0.18228381  0.49319380  1
  O  O12  1  0.68909898  0.18228345  0.87137950  1
  O  O13  1  0.81772247  0.50681709  0.68908916  1
  O  O14  1  0.18227660  0.49318583  0.31091336  1
  O  O15  1  0.31090019  0.81771852  0.12862240  1
  O  O16  1  0.68908695  0.81771798  0.50680772  1
  O  O17  1  0.12862471  0.31090669  0.81771980  1
  O  O18  1  0.50681456  0.68909512  0.81772376  1
  O  O19  1  0.18227949  0.87136765  0.68908761  1
