# generated using pymatgen
data_Li5BO4
_symmetry_space_group_name_H-M   'P 1'
_cell_length_a   8.87783756
_cell_length_b   8.78947761
_cell_length_c   8.50412895
_cell_angle_alpha   90.00000000
_cell_angle_beta   90.00000000
_cell_angle_gamma   90.00000000
_symmetry_Int_Tables_number   1
_chemical_formula_structural   Li5BO4
_chemical_formula_sum   'Li40 B8 O32'
_cell_volume   663.59040129
_cell_formula_units_Z   8
loop_
 _symmetry_equiv_pos_site_id
 _symmetry_equiv_pos_as_xyz
  1  'x, y, z'
loop_
 _atom_site_type_symbol
 _atom_site_label
 _atom_site_symmetry_multiplicity
 _atom_site_fract_x
 _atom_site_fract_y
 _atom_site_fract_z
 _atom_site_occupancy
  Li  Li0  1  0.10399663  0.61668761  0.14972063  1
  Li  Li1  1  0.10399663  0.88331239  0.64972063  1
  Li  Li2  1  0.11166604  0.10811760  0.84005698  1
  Li  Li3  1  0.11166604  0.39188240  0.34005698  1
  Li  Li4  1  0.12112657  0.84649907  0.36130117  1
  Li  Li5  1  0.12112657  0.65350093  0.86130117  1
  Li  Li6  1  0.14249919  0.88073902  0.08568091  1
  Li  Li7  1  0.14249919  0.61926098  0.58568091  1
  Li  Li8  1  0.15974816  0.12080312  0.40141585  1
  Li  Li9  1  0.15974816  0.37919688  0.90141585  1
  Li  Li10  1  0.34025184  0.87919688  0.90141585  1
  Li  Li11  1  0.34025184  0.62080312  0.40141585  1
  Li  Li12  1  0.35750081  0.11926098  0.58568091  1
  Li  Li13  1  0.35750081  0.38073902  0.08568091  1
  Li  Li14  1  0.37887343  0.15350093  0.86130117  1
  Li  Li15  1  0.37887343  0.34649907  0.36130117  1
  Li  Li16  1  0.38833396  0.60811760  0.84005698  1
  Li  Li17  1  0.38833396  0.89188240  0.34005698  1
  Li  Li18  1  0.39600337  0.11668761  0.14972063  1
  Li  Li19  1  0.39600337  0.38331239  0.64972063  1
  Li  Li20  1  0.60399663  0.61668761  0.35027937  1
  Li  Li21  1  0.60399663  0.88331239  0.85027937  1
  Li  Li22  1  0.61166604  0.10811760  0.65994302  1
  Li  Li23  1  0.61166604  0.39188240  0.15994302  1
  Li  Li24  1  0.62112657  0.65350093  0.63869883  1
  Li  Li25  1  0.62112657  0.84649907  0.13869883  1
  Li  Li26  1  0.64249919  0.61926098  0.91431909  1
  Li  Li27  1  0.64249919  0.88073902  0.41431909  1
  Li  Li28  1  0.65974816  0.12080312  0.09858415  1
  Li  Li29  1  0.65974816  0.37919688  0.59858415  1
  Li  Li30  1  0.84025184  0.62080312  0.09858415  1
  Li  Li31  1  0.84025184  0.87919688  0.59858415  1
  Li  Li32  1  0.85750081  0.38073902  0.41431909  1
  Li  Li33  1  0.85750081  0.11926098  0.91431909  1
  Li  Li34  1  0.87887343  0.15350093  0.63869883  1
  Li  Li35  1  0.87887343  0.34649907  0.13869883  1
  Li  Li36  1  0.88833396  0.60811760  0.65994302  1
  Li  Li37  1  0.88833396  0.89188240  0.15994302  1
  Li  Li38  1  0.89600337  0.11668761  0.35027937  1
  Li  Li39  1  0.89600337  0.38331239  0.85027937  1
  B  B40  1  0.13342750  0.14311268  0.11726440  1
  B  B41  1  0.13342750  0.35688732  0.61726440  1
  B  B42  1  0.36657250  0.64311268  0.11726440  1
  B  B43  1  0.36657250  0.85688732  0.61726440  1
  B  B44  1  0.63342750  0.14311268  0.38273560  1
  B  B45  1  0.63342750  0.35688732  0.88273560  1
  B  B46  1  0.86657250  0.64311268  0.38273560  1
  B  B47  1  0.86657250  0.85688732  0.88273560  1
  O  O48  1  0.02577858  0.26718020  0.51665328  1
  O  O49  1  0.02577858  0.23281980  0.01665328  1
  O  O50  1  0.05144404  0.02933151  0.22483953  1
  O  O51  1  0.05144404  0.47066849  0.72483953  1
  O  O52  1  0.24119389  0.05231347  0.00865365  1
  O  O53  1  0.24119389  0.44768653  0.50865365  1
  O  O54  1  0.23142179  0.24368439  0.21834008  1
  O  O55  1  0.23142179  0.25631561  0.71834008  1
  O  O56  1  0.26857821  0.74368439  0.21834008  1
  O  O57  1  0.26857821  0.75631561  0.71834008  1
  O  O58  1  0.25880611  0.55231347  0.00865365  1
  O  O59  1  0.25880611  0.94768653  0.50865365  1
  O  O60  1  0.44855596  0.52933151  0.22483953  1
  O  O61  1  0.44855596  0.97066849  0.72483953  1
  O  O62  1  0.47422142  0.76718020  0.51665328  1
  O  O63  1  0.47422142  0.73281980  0.01665328  1
  O  O64  1  0.52577858  0.26718020  0.98334672  1
  O  O65  1  0.52577858  0.23281980  0.48334672  1
  O  O66  1  0.55144404  0.02933151  0.27516047  1
  O  O67  1  0.55144404  0.47066849  0.77516047  1
  O  O68  1  0.74119389  0.05231347  0.49134635  1
  O  O69  1  0.74119389  0.44768653  0.99134635  1
  O  O70  1  0.73142179  0.24368439  0.28165992  1
  O  O71  1  0.73142179  0.25631561  0.78165992  1
  O  O72  1  0.76857821  0.74368439  0.28165992  1
  O  O73  1  0.76857821  0.75631561  0.78165992  1
  O  O74  1  0.75880611  0.55231347  0.49134635  1
  O  O75  1  0.75880611  0.94768653  0.99134635  1
  O  O76  1  0.94855596  0.97066849  0.77516047  1
  O  O77  1  0.94855596  0.52933151  0.27516047  1
  O  O78  1  0.97422142  0.76718020  0.98334672  1
  O  O79  1  0.97422142  0.73281980  0.48334672  1
