# generated using pymatgen
data_Li3SbS4
_symmetry_space_group_name_H-M   'P 1'
_cell_length_a   8.00725238
_cell_length_b   7.39098785
_cell_length_c   10.10937787
_cell_angle_alpha   136.80668367
_cell_angle_beta   113.33028217
_cell_angle_gamma   57.20122761
_symmetry_Int_Tables_number   1
_chemical_formula_structural   Li3SbS4
_chemical_formula_sum   'Li6 Sb2 S8'
_cell_volume   344.22082005
_cell_formula_units_Z   2
loop_
 _symmetry_equiv_pos_site_id
 _symmetry_equiv_pos_as_xyz
  1  'x, y, z'
loop_
 _atom_site_type_symbol
 _atom_site_label
 _atom_site_symmetry_multiplicity
 _atom_site_fract_x
 _atom_site_fract_y
 _atom_site_fract_z
 _atom_site_occupancy
  Li  Li0  1  0.91058959  0.05790333  0.62787977  1
  Li  Li1  1  0.65938685  0.55790333  0.12787977  1
  Li  Li2  1  0.43051913  0.58764317  0.68239518  1
  Li  Li3  1  0.31561514  0.45544303  0.88778081  1
  Li  Li4  1  0.66423287  0.08764317  0.18239518  1
  Li  Li5  1  0.11672263  0.95544303  0.38778081  1
  Sb  Sb6  1  0.82625137  0.74942184  0.71216034  1
  Sb  Sb7  1  0.13648714  0.24942184  0.21216034  1
  S  S8  1  0.01410976  0.67225491  0.04932452  1
  S  S9  1  0.65430706  0.85896871  0.48335286  1
  S  S10  1  0.22355629  0.65853857  0.45709532  1
  S  S11  1  0.43940325  0.83311944  0.03240721  1
  S  S12  1  0.57499945  0.15853857  0.95709532  1
  S  S13  1  0.75988452  0.33311944  0.53240721  1
  S  S14  1  0.36295985  0.17225491  0.54932452  1
  S  S15  1  0.97007710  0.35896871  0.98335286  1
