# generated using pymatgen
data_Li4Fe5Sn3O16
_symmetry_space_group_name_H-M   'P 1'
_cell_length_a   6.10536856
_cell_length_b   6.11829138
_cell_length_c   9.69812004
_cell_angle_alpha   89.61600423
_cell_angle_beta   90.19545769
_cell_angle_gamma   120.11318704
_symmetry_Int_Tables_number   1
_chemical_formula_structural   Li4Fe5Sn3O16
_chemical_formula_sum   'Li4 Fe5 Sn3 O16'
_cell_volume   313.36754214
_cell_formula_units_Z   1
loop_
 _symmetry_equiv_pos_site_id
 _symmetry_equiv_pos_as_xyz
  1  'x, y, z'
loop_
 _atom_site_type_symbol
 _atom_site_label
 _atom_site_symmetry_multiplicity
 _atom_site_fract_x
 _atom_site_fract_y
 _atom_site_fract_z
 _atom_site_occupancy
  Li  Li0  1  0.35036991  0.68353819  0.88820096  1
  Li  Li1  1  0.96145289  0.97793415  0.99141725  1
  Li  Li2  1  0.97656525  0.98870630  0.49968265  1
  Li  Li3  1  0.67019974  0.33613998  0.39831902  1
  Fe  Fe4  1  0.33767357  0.65816818  0.49459982  1
  Fe  Fe5  1  0.66174702  0.82935772  0.21947355  1
  Fe  Fe6  1  0.67758595  0.34344678  0.98789717  1
  Fe  Fe7  1  0.83001387  0.65972083  0.71351823  1
  Fe  Fe8  1  0.83624817  0.17597511  0.71691604  1
  Sn  Sn9  1  0.17374282  0.83443603  0.21416742  1
  Sn  Sn10  1  0.17005943  0.34063901  0.21092704  1
  Sn  Sn11  1  0.33999415  0.16453231  0.71315844  1
  O  O12  1  0.14840371  0.82326207  0.59931359  1
  O  O13  1  0.03655531  0.51694917  0.34329245  1
  O  O14  1  0.34524706  0.67600769  0.09678336  1
  O  O15  1  0.99788798  -0.00045167  0.31464145  1
  O  O16  1  0.98721781  0.98320304  0.80759266  1
  O  O17  1  0.15768377  0.31996690  0.59634166  1
  O  O18  1  0.48721425  0.96128716  0.34658274  1
  O  O19  1  0.48405928  0.51841539  0.34227433  1
  O  O20  1  0.32375968  0.16461956  0.09056704  1
  O  O21  1  0.66771060  0.81991285  0.60582320  1
  O  O22  1  0.53144380  0.49196122  0.83620245  1
  O  O23  1  0.53311422  0.04701417  0.84449725  1
  O  O24  1  0.68083485  0.34717394  0.60543008  1
  O  O25  1  0.83399058  0.67158207  0.10013838  1
  O  O26  1  0.96474659  0.50130943  0.83410194  1
  O  O27  1  0.83447672  0.16549244  0.09598085  1
