# generated using pymatgen
data_Li4Mn3Co5O16
_symmetry_space_group_name_H-M   'P 1'
_cell_length_a   5.70604824
_cell_length_b   5.72347354
_cell_length_c   9.23104596
_cell_angle_alpha   89.78653533
_cell_angle_beta   89.94839178
_cell_angle_gamma   120.37514617
_symmetry_Int_Tables_number   1
_chemical_formula_structural   Li4Mn3Co5O16
_chemical_formula_sum   'Li4 Mn3 Co5 O16'
_cell_volume   260.08614280
_cell_formula_units_Z   1
loop_
 _symmetry_equiv_pos_site_id
 _symmetry_equiv_pos_as_xyz
  1  'x, y, z'
loop_
 _atom_site_type_symbol
 _atom_site_label
 _atom_site_symmetry_multiplicity
 _atom_site_fract_x
 _atom_site_fract_y
 _atom_site_fract_z
 _atom_site_occupancy
  Li  Li0  1  0.33562779  0.66810509  0.89774235  1
  Li  Li1  1  0.00865157  0.00597402  0.99922005  1
  Li  Li2  1  0.01374826  0.00562096  0.49520265  1
  Li  Li3  1  0.66093423  0.33255504  0.39462746  1
  Mn  Mn4  1  0.65687080  0.83028809  0.21328729  1
  Mn  Mn5  1  0.83279932  0.66306868  0.71356353  1
  Mn  Mn6  1  0.83355999  0.17046644  0.71347629  1
  Co  Co7  1  0.16626383  0.83122017  0.20957453  1
  Co  Co8  1  0.32711872  0.66329236  0.48104551  1
  Co  Co9  1  0.16666434  0.34012103  0.21375793  1
  Co  Co10  1  0.34341080  0.17190092  0.71417549  1
  Co  Co11  1  0.66532440  0.32815858  0.98370180  1
  O  O12  1  0.16454016  0.83428143  0.59998014  1
  O  O13  1  0.03821971  0.52292883  0.33638519  1
  O  O14  1  0.32904130  0.66597332  0.10654881  1
  O  O15  1  0.99807886  0.99858007  0.30744012  1
  O  O16  1  0.00330373  0.00165164  0.81076341  1
  O  O17  1  0.16426135  0.32972648  0.59927628  1
  O  O18  1  0.47120843  0.95632055  0.33964695  1
  O  O19  1  0.47479198  0.51869561  0.34140698  1
  O  O20  1  0.33106732  0.15894773  0.10562477  1
  O  O21  1  0.67238315  0.83648574  0.59921845  1
  O  O22  1  0.52043268  0.47913119  0.84270251  1
  O  O23  1  0.51987208  0.04108345  0.84196405  1
  O  O24  1  0.67133527  0.33557793  0.60608030  1
  O  O25  1  0.83705201  0.66908393  0.10127565  1
  O  O26  1  0.96112136  0.48093820  0.84251371  1
  O  O27  1  0.83231657  0.16012350  0.09763481  1
