# generated using pymatgen
data_Ba3Y2Cl12
_symmetry_space_group_name_H-M   'P 1'
_cell_length_a   9.14687119
_cell_length_b   9.14687119
_cell_length_c   15.30034767
_cell_angle_alpha   77.97700812
_cell_angle_beta   102.02299188
_cell_angle_gamma   69.54817727
_symmetry_Int_Tables_number   1
_chemical_formula_structural   Ba3Y2Cl12
_chemical_formula_sum   'Ba6 Y4 Cl24'
_cell_volume   1116.56014244
_cell_formula_units_Z   2
loop_
 _symmetry_equiv_pos_site_id
 _symmetry_equiv_pos_as_xyz
  1  'x, y, z'
loop_
 _atom_site_type_symbol
 _atom_site_label
 _atom_site_symmetry_multiplicity
 _atom_site_fract_x
 _atom_site_fract_y
 _atom_site_fract_z
 _atom_site_occupancy
  Ba  Ba0  1  0.47926622  0.78655721  0.92764396  1
  Ba  Ba1  1  0.88039232  0.88039232  0.75000000  1
  Ba  Ba2  1  0.21344279  0.52073378  0.42764396  1
  Ba  Ba3  1  0.78655721  0.47926622  0.57235604  1
  Ba  Ba4  1  0.11960768  0.11960768  0.25000000  1
  Ba  Ba5  1  0.52073378  0.21344279  0.07235604  1
  Y  Y6  1  0.25882621  0.96889438  0.59337942  1
  Y  Y7  1  0.03110562  0.74117379  0.09337942  1
  Y  Y8  1  0.96889438  0.25882621  0.90662058  1
  Y  Y9  1  0.74117379  0.03110562  0.40662058  1
  Cl  Cl10  1  0.08939460  0.93499457  0.92753018  1
  Cl  Cl11  1  0.24352601  0.76632040  0.74599948  1
  Cl  Cl12  1  0.50697717  0.94931883  0.72790196  1
  Cl  Cl13  1  0.06500543  0.91060540  0.42753018  1
  Cl  Cl14  1  0.23367960  0.75647399  0.24599948  1
  Cl  Cl15  1  0.70619464  0.86301962  0.55853573  1
  Cl  Cl16  1  0.30062361  0.16108706  0.90135307  1
  Cl  Cl17  1  0.67278773  0.42498422  0.93252620  1
  Cl  Cl18  1  0.05068117  0.49302283  0.22790196  1
  Cl  Cl19  1  0.42498422  0.67278773  0.56747380  1
  Cl  Cl20  1  0.16108706  0.30062361  0.59864693  1
  Cl  Cl21  1  0.86301962  0.70619464  0.94146427  1
  Cl  Cl22  1  0.13698038  0.29380536  0.05853573  1
  Cl  Cl23  1  0.83891294  0.69937639  0.40135307  1
  Cl  Cl24  1  0.57501578  0.32721227  0.43252620  1
  Cl  Cl25  1  0.94931883  0.50697717  0.77209804  1
  Cl  Cl26  1  0.32721227  0.57501578  0.06747380  1
  Cl  Cl27  1  0.69937639  0.83891294  0.09864693  1
  Cl  Cl28  1  0.29380536  0.13698038  0.44146427  1
  Cl  Cl29  1  0.76632040  0.24352601  0.75400052  1
  Cl  Cl30  1  0.93499457  0.08939460  0.57246982  1
  Cl  Cl31  1  0.49302283  0.05068117  0.27209804  1
  Cl  Cl32  1  0.75647399  0.23367960  0.25400052  1
  Cl  Cl33  1  0.91060540  0.06500543  0.07246982  1
