# generated using pymatgen
data_Li3VS4
_symmetry_space_group_name_H-M   'P 1'
_cell_length_a   13.51537626
_cell_length_b   7.39547114
_cell_length_c   12.96537534
_cell_angle_alpha   73.42914757
_cell_angle_beta   85.52469340
_cell_angle_gamma   74.12171391
_symmetry_Int_Tables_number   1
_chemical_formula_structural   Li3VS4
_chemical_formula_sum   'Li24 V8 S32'
_cell_volume   1194.70786656
_cell_formula_units_Z   8
loop_
 _symmetry_equiv_pos_site_id
 _symmetry_equiv_pos_as_xyz
  1  'x, y, z'
loop_
 _atom_site_type_symbol
 _atom_site_label
 _atom_site_symmetry_multiplicity
 _atom_site_fract_x
 _atom_site_fract_y
 _atom_site_fract_z
 _atom_site_occupancy
  Li  Li0  1  0.00000000  0.99375246  0.00000000  1
  Li  Li1  1  0.00000000  0.48026836  0.00000000  1
  Li  Li2  1  0.49166681  0.77543205  0.99384829  1
  Li  Li3  1  0.75351259  0.32124215  0.04966680  1
  Li  Li4  1  0.27995308  0.16476364  0.18997784  1
  Li  Li5  1  0.68602167  0.72421319  0.22515398  1
  Li  Li6  1  0.94390093  0.62314545  0.24270236  1
  Li  Li7  1  0.44390093  0.61584682  0.25729764  1
  Li  Li8  1  0.18602167  0.69936817  0.27484602  1
  Li  Li9  1  0.77995308  0.10474148  0.31002216  1
  Li  Li10  1  0.25351259  0.12090895  0.45033320  1
  Li  Li11  1  0.99166681  0.51928034  0.50615171  1
  Li  Li12  1  0.50000000  0.74375246  0.50000000  1
  Li  Li13  1  0.50000000  0.23026836  0.50000000  1
  Li  Li14  1  0.00833319  0.01709886  0.49384829  1
  Li  Li15  1  0.74648741  0.82475474  0.54966680  1
  Li  Li16  1  0.22004692  0.19471672  0.68997784  1
  Li  Li17  1  0.81397833  0.16023486  0.72515398  1
  Li  Li18  1  0.55609907  0.31704639  0.74270236  1
  Li  Li19  1  0.05609907  0.80974775  0.75729764  1
  Li  Li20  1  0.31397833  0.63538884  0.77484602  1
  Li  Li21  1  0.72004692  0.63469456  0.81002216  1
  Li  Li22  1  0.24648741  0.12442054  0.95033320  1
  Li  Li23  1  0.50833319  0.26094715  0.00615171  1
  V  V24  1  0.22996588  0.67851998  0.01825411  1
  V  V25  1  0.01199185  0.17130530  0.24510001  1
  V  V26  1  0.51199185  0.16640531  0.25489999  1
  V  V27  1  0.72996588  0.44677408  0.48174589  1
  V  V28  1  0.27003412  0.65848686  0.51825411  1
  V  V29  1  0.48800815  0.93329715  0.74510001  1
  V  V30  1  0.98800815  0.42839717  0.75489999  1
  V  V31  1  0.77003412  0.92673997  0.98174589  1
  S  S32  1  0.68766820  0.71030137  0.99738728  1
  S  S33  1  0.32498173  0.78864574  0.09782716  1
  S  S34  1  0.09266823  0.64993709  0.11030781  1
  S  S35  1  0.10669413  0.14932347  0.10488942  1
  S  S36  1  0.81111650  0.94072731  0.13744502  1
  S  S37  1  0.57391287  0.39000660  0.14651332  1
  S  S38  1  0.50063982  0.96640433  0.16642015  1
  S  S39  1  0.86361434  0.37134836  0.19161090  1
  S  S40  1  0.36361434  0.31295927  0.30838910  1
  S  S41  1  0.00063982  0.88282449  0.33357985  1
  S  S42  1  0.07391287  0.28651992  0.35348668  1
  S  S43  1  0.31111650  0.82817234  0.36255498  1
  S  S44  1  0.60669413  0.00421289  0.39511058  1
  S  S45  1  0.59266823  0.51024490  0.38969219  1
  S  S46  1  0.82498173  0.63647290  0.40217284  1
  S  S47  1  0.18766820  0.45768865  0.50261272  1
  S  S48  1  0.81233180  0.14796957  0.49738728  1
  S  S49  1  0.17501827  0.86362748  0.59782716  1
  S  S50  1  0.40733177  0.49260632  0.61030781  1
  S  S51  1  0.39330587  0.00601659  0.60488942  1
  S  S52  1  0.68888350  0.50184381  0.63744502  1
  S  S53  1  0.92608713  0.71392046  0.64651332  1
  S  S54  1  0.99936018  0.21704415  0.66642015  1
  S  S55  1  0.63638566  0.98496171  0.69161090  1
  S  S56  1  0.13638566  0.42657261  0.80838910  1
  S  S57  1  0.49936018  0.63346430  0.83357985  1
  S  S58  1  0.42608713  0.11043379  0.85348668  1
  S  S59  1  0.18888350  0.88928884  0.86255498  1
  S  S60  1  0.89330587  0.36090601  0.89511058  1
  S  S61  1  0.90733177  0.85291313  0.88969219  1
  S  S62  1  0.67501827  0.21145463  0.90217284  1
  S  S63  1  0.31233180  0.39535685  0.00261272  1
