# generated using pymatgen
data_V3(PO4)2
_symmetry_space_group_name_H-M   'P 1'
_cell_length_a   5.30494327
_cell_length_b   8.55726973
_cell_length_c   7.81018502
_cell_angle_alpha   90.00000000
_cell_angle_beta   89.92402888
_cell_angle_gamma   90.00000000
_symmetry_Int_Tables_number   1
_chemical_formula_structural   V3(PO4)2
_chemical_formula_sum   'V6 P4 O16'
_cell_volume   354.54952332
_cell_formula_units_Z   2
loop_
 _symmetry_equiv_pos_site_id
 _symmetry_equiv_pos_as_xyz
  1  'x, y, z'
loop_
 _atom_site_type_symbol
 _atom_site_label
 _atom_site_symmetry_multiplicity
 _atom_site_fract_x
 _atom_site_fract_y
 _atom_site_fract_z
 _atom_site_occupancy
  V  V0  1  0.00000000  0.00000000  0.00000000  1
  V  V1  1  0.11160968  0.64160110  0.88441109  1
  V  V2  1  0.38839032  0.14160110  0.61558891  1
  V  V3  1  0.50000000  0.50000000  0.50000000  1
  V  V4  1  0.61160968  0.85839890  0.38441109  1
  V  V5  1  0.88839032  0.35839890  0.11558891  1
  P  P6  1  0.03784519  0.69725094  0.30045294  1
  P  P7  1  0.46215481  0.19725094  0.19954706  1
  P  P8  1  0.53784519  0.80274906  0.80045294  1
  P  P9  1  0.96215481  0.30274906  0.69954706  1
  O  O10  1  0.04485500  0.58398578  0.14527214  1
  O  O11  1  0.04342747  0.13516218  0.75961610  1
  O  O12  1  0.20340711  0.20146877  0.10999042  1
  O  O13  1  0.17498438  0.35300698  0.57330184  1
  O  O14  1  0.29659289  0.70146877  0.39000958  1
  O  O15  1  0.32501562  0.85300698  0.92669816  1
  O  O16  1  0.45514500  0.08398578  0.35472786  1
  O  O17  1  0.45657253  0.63516218  0.74038390  1
  O  O18  1  0.54342747  0.36483782  0.25961610  1
  O  O19  1  0.54485500  0.91601422  0.64527214  1
  O  O20  1  0.67498438  0.14699302  0.07330184  1
  O  O21  1  0.70340711  0.29853123  0.60999042  1
  O  O22  1  0.82501562  0.64699302  0.42669816  1
  O  O23  1  0.79659289  0.79853123  0.89000958  1
  O  O24  1  0.95657253  0.86483782  0.24038390  1
  O  O25  1  0.95514500  0.41601422  0.85472786  1
