# generated using pymatgen
data_Al2FeS4
_symmetry_space_group_name_H-M   'P 1'
_cell_length_a   3.55876972
_cell_length_b   3.55876972
_cell_length_c   12.11601299
_cell_angle_alpha   81.55486755
_cell_angle_beta   81.55486755
_cell_angle_gamma   59.99998504
_symmetry_Int_Tables_number   1
_chemical_formula_structural   Al2FeS4
_chemical_formula_sum   'Al2 Fe1 S4'
_cell_volume   130.96456172
_cell_formula_units_Z   1
loop_
 _symmetry_equiv_pos_site_id
 _symmetry_equiv_pos_as_xyz
  1  'x, y, z'
loop_
 _atom_site_type_symbol
 _atom_site_label
 _atom_site_symmetry_multiplicity
 _atom_site_fract_x
 _atom_site_fract_y
 _atom_site_fract_z
 _atom_site_occupancy
  Al  Al0  1  0.24088196  0.24088196  0.27735411  1
  Al  Al1  1  0.75798508  0.75798508  0.72604475  1
  Fe  Fe2  1  0.99939740  0.99939740  0.00180781  1
  S  S3  1  0.12049730  0.12049730  0.63850809  1
  S  S4  1  0.87838134  0.87838134  0.36485597  1
  S  S5  1  0.69578391  0.69578391  0.91264826  1
  S  S6  1  0.30307299  0.30307299  0.09078102  1
