# generated using pymatgen
data_Li2V3CrO8
_symmetry_space_group_name_H-M   'P 1'
_cell_length_a   5.26849074
_cell_length_b   5.90651592
_cell_length_c   10.74377317
_cell_angle_alpha   104.68202770
_cell_angle_beta   83.26620302
_cell_angle_gamma   72.80308060
_symmetry_Int_Tables_number   1
_chemical_formula_structural   Li2V3CrO8
_chemical_formula_sum   'Li4 V6 Cr2 O16'
_cell_volume   302.19844604
_cell_formula_units_Z   2
loop_
 _symmetry_equiv_pos_site_id
 _symmetry_equiv_pos_as_xyz
  1  'x, y, z'
loop_
 _atom_site_type_symbol
 _atom_site_label
 _atom_site_symmetry_multiplicity
 _atom_site_fract_x
 _atom_site_fract_y
 _atom_site_fract_z
 _atom_site_occupancy
  Li  Li0  1  0.00483168  0.12218981  0.74901293  1
  Li  Li1  1  0.00000000  0.37500000  0.25000000  1
  Li  Li2  1  0.99516832  0.62781019  0.75098707  1
  Li  Li3  1  0.00000000  0.87500000  0.25000000  1
  V  V4  1  0.48037904  0.06903501  0.87808471  1
  V  V5  1  0.52916970  0.17756823  0.62068811  1
  V  V6  1  0.47240355  0.32561546  0.38090140  1
  V  V7  1  0.52759645  0.42438454  0.11909860  1
  V  V8  1  0.47083030  0.57243177  0.87931189  1
  V  V9  1  0.51962096  0.68096499  0.62191529  1
  Cr  Cr10  1  0.48365224  0.81735539  0.37584502  1
  Cr  Cr11  1  0.51634776  0.93264461  0.12415498  1
  O  O12  1  0.27923261  0.08830879  0.30535353  1
  O  O13  1  0.30178108  0.21494926  0.06530519  1
  O  O14  1  0.27977639  0.32208053  0.80619716  1
  O  O15  1  0.29829671  0.46707020  0.56779102  1
  O  O16  1  0.28337865  0.57292776  0.30795729  1
  O  O17  1  0.30490137  0.70040428  0.07451768  1
  O  O18  1  0.27480583  0.84005268  0.80441039  1
  O  O19  1  0.30733647  0.95125987  0.57122313  1
  O  O20  1  0.69509863  0.04959572  0.42548232  1
  O  O21  1  0.71662135  0.17707224  0.19204271  1
  O  O22  1  0.70170329  0.28292980  0.93220898  1
  O  O23  1  0.72022361  0.42791947  0.69380284  1
  O  O24  1  0.69821892  0.53505074  0.43469481  1
  O  O25  1  0.72076739  0.66169121  0.19464647  1
  O  O26  1  0.69266353  0.79874013  0.92877687  1
  O  O27  1  0.72519417  0.90994732  0.69558961  1
