# generated using pymatgen
data_Li2NbS3
_symmetry_space_group_name_H-M   'P 1'
_cell_length_a   6.24603517
_cell_length_b   6.20382106
_cell_length_c   12.46371545
_cell_angle_alpha   84.41977530
_cell_angle_beta   101.13750381
_cell_angle_gamma   120.22534861
_symmetry_Int_Tables_number   1
_chemical_formula_structural   Li2NbS3
_chemical_formula_sum   'Li8 Nb4 S12'
_cell_volume   409.44338939
_cell_formula_units_Z   4
loop_
 _symmetry_equiv_pos_site_id
 _symmetry_equiv_pos_as_xyz
  1  'x, y, z'
loop_
 _atom_site_type_symbol
 _atom_site_label
 _atom_site_symmetry_multiplicity
 _atom_site_fract_x
 _atom_site_fract_y
 _atom_site_fract_z
 _atom_site_occupancy
  Li  Li0  1  0.14763915  0.82505994  0.49943705  1
  Li  Li1  1  0.00000000  0.50000000  0.00000000  1
  Li  Li2  1  0.08709094  0.17418187  0.25000000  1
  Li  Li3  1  0.50000000  0.50000000  0.50000000  1
  Li  Li4  1  0.67742078  0.82505994  0.00056295  1
  Li  Li5  1  0.32257922  0.17494006  0.99943705  1
  Li  Li6  1  0.91290906  0.82581813  0.75000000  1
  Li  Li7  1  0.85236085  0.17494006  0.50056295  1
  Nb  Nb8  1  0.27250892  0.54501783  0.75000000  1
  Nb  Nb9  1  0.44594335  0.89188769  0.25000000  1
  Nb  Nb10  1  0.55405665  0.10811231  0.75000000  1
  Nb  Nb11  1  0.72749108  0.45498217  0.25000000  1
  S  S12  1  0.05054535  0.82458017  0.13523630  1
  S  S13  1  0.29517773  0.82753057  0.88009090  1
  S  S14  1  0.12308409  0.52238717  0.36423412  1
  S  S15  1  0.53235284  0.82753057  0.61990910  1
  S  S16  1  0.22596518  0.17541983  0.63523630  1
  S  S17  1  0.60069792  0.47761283  0.86423412  1
  S  S18  1  0.39930208  0.52238717  0.13576588  1
  S  S19  1  0.77403482  0.82458017  0.36476370  1
  S  S20  1  0.46764716  0.17246943  0.38009090  1
  S  S21  1  0.87691591  0.47761283  0.63576588  1
  S  S22  1  0.70482227  0.17246943  0.11990910  1
  S  S23  1  0.94945465  0.17541983  0.86476370  1
