# generated using pymatgen
data_Li3Co(BO2)5
_symmetry_space_group_name_H-M   'P 1'
_cell_length_a   6.94702734
_cell_length_b   7.09736092
_cell_length_c   9.37695748
_cell_angle_alpha   80.17001158
_cell_angle_beta   68.94587702
_cell_angle_gamma   61.83010894
_symmetry_Int_Tables_number   1
_chemical_formula_structural   Li3Co(BO2)5
_chemical_formula_sum   'Li6 Co2 B10 O20'
_cell_volume   380.36385425
_cell_formula_units_Z   2
loop_
 _symmetry_equiv_pos_site_id
 _symmetry_equiv_pos_as_xyz
  1  'x, y, z'
loop_
 _atom_site_type_symbol
 _atom_site_label
 _atom_site_symmetry_multiplicity
 _atom_site_fract_x
 _atom_site_fract_y
 _atom_site_fract_z
 _atom_site_occupancy
  Li  Li0  1  0.24136257  0.49280144  0.24854507  1
  Li  Li1  1  0.81570100  0.99199285  0.16251351  1
  Li  Li2  1  0.01988215  0.19343101  0.46434720  1
  Li  Li3  1  0.98011785  0.80656899  0.53565280  1
  Li  Li4  1  0.18429900  0.00800715  0.83748649  1
  Li  Li5  1  0.75863743  0.50719856  0.75145493  1
  Co  Co6  1  0.21423402  0.52347791  0.88429163  1
  Co  Co7  1  0.78576598  0.47652209  0.11570837  1
  B  B8  1  0.30422796  0.80435557  0.07367901  1
  B  B9  1  0.41036871  0.85921872  0.29011316  1
  B  B10  1  0.36343450  0.75021380  0.56815082  1
  B  B11  1  0.21562780  0.16829626  0.13159472  1
  B  B12  1  0.74449308  0.71597349  0.39694894  1
  B  B13  1  0.25550692  0.28402651  0.60305106  1
  B  B14  1  0.78437220  0.83170374  0.86840528  1
  B  B15  1  0.63656550  0.24978620  0.43184918  1
  B  B16  1  0.58963129  0.14078128  0.70988684  1
  B  B17  1  0.69577204  0.19564443  0.92632099  1
  O  O18  1  0.26987461  0.69366818  0.99450056  1
  O  O19  1  0.27201639  0.84213003  0.44816507  1
  O  O20  1  0.40854190  0.71984792  0.18772094  1
  O  O21  1  0.21876679  0.73950815  0.70592412  1
  O  O22  1  0.12960915  0.37959517  0.09922669  1
  O  O23  1  0.65595907  0.78366440  0.27281913  1
  O  O24  1  0.04725170  0.30585080  0.62222681  1
  O  O25  1  0.69366120  0.91149838  0.74983790  1
  O  O26  1  0.59959182  0.68233551  0.53973689  1
  O  O27  1  0.77891492  0.97418874  0.95799015  1
  O  O28  1  0.22108508  0.02581126  0.04200985  1
  O  O29  1  0.40040818  0.31766449  0.46026311  1
  O  O30  1  0.30633880  0.08850162  0.25016210  1
  O  O31  1  0.95274830  0.69414920  0.37777319  1
  O  O32  1  0.34404093  0.21633560  0.72718087  1
  O  O33  1  0.87039085  0.62040483  0.90077331  1
  O  O34  1  0.78123321  0.26049185  0.29407588  1
  O  O35  1  0.59145810  0.28015208  0.81227906  1
  O  O36  1  0.72798361  0.15786997  0.55183493  1
  O  O37  1  0.73012539  0.30633182  0.00549944  1
