# generated using pymatgen
data_Li3V3(BO5)2
_symmetry_space_group_name_H-M   'P 1'
_cell_length_a   9.11794735
_cell_length_b   12.39028247
_cell_length_c   3.06455631
_cell_angle_alpha   89.96301226
_cell_angle_beta   89.99870337
_cell_angle_gamma   89.99774360
_symmetry_Int_Tables_number   1
_chemical_formula_structural   Li3V3(BO5)2
_chemical_formula_sum   'Li6 V6 B4 O20'
_cell_volume   346.21493778
_cell_formula_units_Z   2
loop_
 _symmetry_equiv_pos_site_id
 _symmetry_equiv_pos_as_xyz
  1  'x, y, z'
loop_
 _atom_site_type_symbol
 _atom_site_label
 _atom_site_symmetry_multiplicity
 _atom_site_fract_x
 _atom_site_fract_y
 _atom_site_fract_z
 _atom_site_occupancy
  Li  Li0  1  0.98502622  0.00017506  0.99996227  1
  Li  Li1  1  0.99319321  0.49766464  0.49976432  1
  Li  Li2  1  0.51488334  0.50008727  0.99995217  1
  Li  Li3  1  0.50679061  0.99774325  0.49985268  1
  Li  Li4  1  0.73438628  0.39464354  0.49990803  1
  Li  Li5  1  0.76555626  0.89469950  0.49990675  1
  V  V6  1  0.99022469  0.29122331  0.00011283  1
  V  V7  1  0.23675694  0.11129675  0.50018709  1
  V  V8  1  0.26323840  0.61133742  0.50021828  1
  V  V9  1  0.50981971  0.79123296  0.00024378  1
  V  V10  1  0.51020459  0.21909497  0.99983119  1
  V  V11  1  0.98975916  0.71912643  0.99980162  1
  B  B12  1  0.22280992  0.86123807  0.49983509  1
  B  B13  1  0.27719815  0.36123444  0.49990570  1
  B  B14  1  0.71703026  0.63556717  0.50017173  1
  B  B15  1  0.78301024  0.13553995  0.50011432  1
  O  O16  1  0.10829441  0.15767016  0.00022062  1
  O  O17  1  0.11730901  0.58536568  0.00018150  1
  O  O18  1  0.12398626  0.34847633  0.49986825  1
  O  O19  1  0.14123338  0.76187502  0.49942640  1
  O  O20  1  0.15499139  0.95654436  0.50041002  1
  O  O21  1  0.34502044  0.45654809  0.50048456  1
  O  O22  1  0.35875500  0.26186251  0.49958131  1
  O  O23  1  0.37601963  0.84846273  0.49994994  1
  O  O24  1  0.38271760  0.08533499  0.00017562  1
  O  O25  1  0.39174590  0.65766905  0.00027156  1
  O  O26  1  0.59269539  0.34126978  0.99974617  1
  O  O27  1  0.60240873  0.91366647  0.99990042  1
  O  O28  1  0.62523388  0.14995185  0.50010339  1
  O  O29  1  0.63585109  0.73397726  0.50044664  1
  O  O30  1  0.65452319  0.54024676  0.49973071  1
  O  O31  1  0.84547361  0.04031168  0.49973168  1
  O  O32  1  0.86418063  0.23398936  0.50034345  1
  O  O33  1  0.87477829  0.64994071  0.50013686  1
  O  O34  1  0.89758060  0.41364248  0.99987798  1
  O  O35  1  0.90731358  0.84129002  0.99964606  1
