# generated using pymatgen
data_Mn(GaS2)2
_symmetry_space_group_name_H-M   'P 1'
_cell_length_a   3.74489012
_cell_length_b   3.74489012
_cell_length_c   12.58913922
_cell_angle_alpha   81.44637875
_cell_angle_beta   81.44637875
_cell_angle_gamma   59.99998449
_symmetry_Int_Tables_number   1
_chemical_formula_structural   Mn(GaS2)2
_chemical_formula_sum   'Mn1 Ga2 S4'
_cell_volume   150.62719913
_cell_formula_units_Z   1
loop_
 _symmetry_equiv_pos_site_id
 _symmetry_equiv_pos_as_xyz
  1  'x, y, z'
loop_
 _atom_site_type_symbol
 _atom_site_label
 _atom_site_symmetry_multiplicity
 _atom_site_fract_x
 _atom_site_fract_y
 _atom_site_fract_z
 _atom_site_occupancy
  Mn  Mn0  1  0.76535445  0.76535445  0.70393664  1
  Ga  Ga1  1  0.00074972  0.00074972  0.99775085  1
  Ga  Ga2  1  0.23507279  0.23507279  0.29478163  1
  S  S3  1  0.12184755  0.12184755  0.63445736  1
  S  S4  1  0.87662991  0.87662991  0.37011028  1
  S  S5  1  0.69989277  0.69989277  0.90032169  1
  S  S6  1  0.29645282  0.29645282  0.11064154  1
