# generated using pymatgen
data_Li5Cr2Cu3O10
_symmetry_space_group_name_H-M   'P 1'
_cell_length_a   5.03723820
_cell_length_b   5.40497439
_cell_length_c   7.62357958
_cell_angle_alpha   104.27558210
_cell_angle_beta   102.84222165
_cell_angle_gamma   105.04884397
_symmetry_Int_Tables_number   1
_chemical_formula_structural   Li5Cr2Cu3O10
_chemical_formula_sum   'Li5 Cr2 Cu3 O10'
_cell_volume   184.94082098
_cell_formula_units_Z   1
loop_
 _symmetry_equiv_pos_site_id
 _symmetry_equiv_pos_as_xyz
  1  'x, y, z'
loop_
 _atom_site_type_symbol
 _atom_site_label
 _atom_site_symmetry_multiplicity
 _atom_site_fract_x
 _atom_site_fract_y
 _atom_site_fract_z
 _atom_site_occupancy
  Li  Li0  1  0.20417793  0.89784954  0.39170921  1
  Li  Li1  1  0.40247077  0.29648324  0.79526182  1
  Li  Li2  1  0.50000000  0.50000000  0.50000000  1
  Li  Li3  1  0.59752923  0.70351676  0.20473818  1
  Li  Li4  1  0.79582207  0.10215046  0.60829079  1
  Cr  Cr5  1  0.10680349  0.67518610  0.69434087  1
  Cr  Cr6  1  0.89319651  0.32481390  0.30565913  1
  Cu  Cu7  1  0.00000000  0.50000000  0.00000000  1
  Cu  Cu8  1  0.69915285  0.89021722  0.90093867  1
  Cu  Cu9  1  0.30084715  0.10978278  0.09906133  1
  O  O10  1  0.05852712  0.02716225  0.83972763  1
  O  O11  1  0.35388430  0.67429848  0.93580898  1
  O  O12  1  0.13452134  0.33617811  0.55178300  1
  O  O13  1  0.21253932  0.51679047  0.24408059  1
  O  O14  1  0.45158567  0.88417502  0.66704318  1
  O  O15  1  0.54841433  0.11582498  0.33295682  1
  O  O16  1  0.78746068  0.48320953  0.75591941  1
  O  O17  1  0.86547866  0.66382189  0.44821700  1
  O  O18  1  0.64611570  0.32570152  0.06419102  1
  O  O19  1  0.94147288  0.97283775  0.16027237  1
