# generated using pymatgen
data_VSO4
_symmetry_space_group_name_H-M   'P 1'
_cell_length_a   8.88462400
_cell_length_b   6.91544167
_cell_length_c   4.90738739
_cell_angle_alpha   90.00000000
_cell_angle_beta   90.00000000
_cell_angle_gamma   90.00000000
_symmetry_Int_Tables_number   1
_chemical_formula_structural   VSO4
_chemical_formula_sum   'V4 S4 O16'
_cell_volume   301.51527462
_cell_formula_units_Z   4
loop_
 _symmetry_equiv_pos_site_id
 _symmetry_equiv_pos_as_xyz
  1  'x, y, z'
loop_
 _atom_site_type_symbol
 _atom_site_label
 _atom_site_symmetry_multiplicity
 _atom_site_fract_x
 _atom_site_fract_y
 _atom_site_fract_z
 _atom_site_occupancy
  V  V0  1  0.00000000  0.00000000  0.00000000  1
  V  V1  1  0.00000000  0.50000000  0.00000000  1
  V  V2  1  0.50000000  0.00000000  0.50000000  1
  V  V3  1  0.50000000  0.50000000  0.50000000  1
  S  S4  1  0.17966587  0.25000000  0.48107152  1
  S  S5  1  0.32033413  0.75000000  0.98107152  1
  S  S6  1  0.67966587  0.25000000  0.01892848  1
  S  S7  1  0.82033413  0.75000000  0.51892848  1
  O  O8  1  0.13058362  0.07118337  0.34669097  1
  O  O9  1  0.12301898  0.25000000  0.77101270  1
  O  O10  1  0.13058362  0.42881663  0.34669097  1
  O  O11  1  0.14932946  0.75000000  0.97409659  1
  O  O12  1  0.35067054  0.25000000  0.47409659  1
  O  O13  1  0.37698102  0.75000000  0.27101270  1
  O  O14  1  0.36941638  0.92881663  0.84669097  1
  O  O15  1  0.36941638  0.57118337  0.84669097  1
  O  O16  1  0.63058362  0.07118337  0.15330903  1
  O  O17  1  0.62301898  0.25000000  0.72898730  1
  O  O18  1  0.63058362  0.42881663  0.15330903  1
  O  O19  1  0.64932946  0.75000000  0.52590341  1
  O  O20  1  0.85067054  0.25000000  0.02590341  1
  O  O21  1  0.86941638  0.57118337  0.65330903  1
  O  O22  1  0.87698102  0.75000000  0.22898730  1
  O  O23  1  0.86941638  0.92881663  0.65330903  1
