# generated using pymatgen
data_Li3Cr3NiO8
_symmetry_space_group_name_H-M   'P 1'
_cell_length_a   10.31013388
_cell_length_b   5.84658053
_cell_length_c   10.20018219
_cell_angle_alpha   90.00003142
_cell_angle_beta   70.26203901
_cell_angle_gamma   89.99996427
_symmetry_Int_Tables_number   1
_chemical_formula_structural   Li3Cr3NiO8
_chemical_formula_sum   'Li12 Cr12 Ni4 O32'
_cell_volume   578.73236901
_cell_formula_units_Z   4
loop_
 _symmetry_equiv_pos_site_id
 _symmetry_equiv_pos_as_xyz
  1  'x, y, z'
loop_
 _atom_site_type_symbol
 _atom_site_label
 _atom_site_symmetry_multiplicity
 _atom_site_fract_x
 _atom_site_fract_y
 _atom_site_fract_z
 _atom_site_occupancy
  Li  Li0  1  0.99992363  0.99999524  0.00016316  1
  Li  Li1  1  0.00180558  0.24498396  0.24935601  1
  Li  Li2  1  0.00180942  0.75501831  0.24935516  1
  Li  Li3  1  0.00056975  0.50001664  0.49961930  1
  Li  Li4  1  0.99844863  0.24520505  0.75079421  1
  Li  Li5  1  0.99845220  0.75479904  0.75079157  1
  Li  Li6  1  0.49999820  0.99999592  0.00043548  1
  Li  Li7  1  0.50047618  0.25214510  0.25111368  1
  Li  Li8  1  0.50047377  0.74785631  0.25111977  1
  Li  Li9  1  0.49991902  0.99998769  0.49984617  1
  Li  Li10  1  0.49940523  0.25244977  0.74876669  1
  Li  Li11  1  0.49940654  0.74755355  0.74876494  1
  Cr  Cr12  1  0.24950426  0.25020690  0.99960991  1
  Cr  Cr13  1  0.24950659  0.74978691  0.99960931  1
  Cr  Cr14  1  0.25562171  0.49998569  0.24600546  1
  Cr  Cr15  1  0.25055455  0.24897057  0.49896830  1
  Cr  Cr16  1  0.25055693  0.75102926  0.49897015  1
  Cr  Cr17  1  0.24852199  0.49999806  0.74915652  1
  Cr  Cr18  1  0.75021216  0.25008986  0.00028281  1
  Cr  Cr19  1  0.75021255  0.74991525  0.00028327  1
  Cr  Cr20  1  0.75142570  0.49998479  0.25090446  1
  Cr  Cr21  1  0.74970139  0.24882882  0.50103382  1
  Cr  Cr22  1  0.74971095  0.75116006  0.50103227  1
  Cr  Cr23  1  0.74465158  0.50000867  0.75371352  1
  Ni  Ni24  1  0.24530789  0.00003309  0.25279304  1
  Ni  Ni25  1  0.25143498  -0.00002740  0.74944876  1
  Ni  Ni26  1  0.74849376  -0.00006139  0.25050842  1
  Ni  Ni27  1  0.75443892  0.00004957  0.74744087  1
  O  O28  1  0.13310355  -0.00000275  0.11705348  1
  O  O29  1  0.14303245  0.49999952  0.12336455  1
  O  O30  1  0.14424049  0.73348777  0.36706845  1
  O  O31  1  0.14423957  0.26651975  0.36706832  1
  O  O32  1  0.14345053  0.00000246  0.62527713  1
  O  O33  1  0.13679368  0.50000216  0.62033011  1
  O  O34  1  0.35592168  0.74997784  0.13166761  1
  O  O35  1  0.35591958  0.25001853  0.13166968  1
  O  O36  1  0.14501578  0.75984182  0.86495643  1
  O  O37  1  0.14501346  0.24015550  0.86495668  1
  O  O38  1  0.36054623  0.50000232  0.37541049  1
  O  O39  1  0.36481666  0.00000257  0.38230905  1
  O  O40  1  0.35530411  0.75848155  0.63392553  1
  O  O41  1  0.35530228  0.24151718  0.63392399  1
  O  O42  1  0.35731789  0.49999670  0.87542419  1
  O  O43  1  0.36299046  0.99999850  0.87769787  1
  O  O44  1  0.63634002  0.00000072  0.12156972  1
  O  O45  1  0.64270006  0.49999929  0.12460600  1
  O  O46  1  0.64492316  0.75797642  0.36621120  1
  O  O47  1  0.64491945  0.24201378  0.36621073  1
  O  O48  1  0.63530283  0.99999737  0.61769830  1
  O  O49  1  0.63975896  0.50000193  0.62446866  1
  O  O50  1  0.85476950  0.75933293  0.13488436  1
  O  O51  1  0.85477019  0.24066113  0.13488203  1
  O  O52  1  0.64407430  0.75058736  0.86811499  1
  O  O53  1  0.64407237  0.24943076  0.86811699  1
  O  O54  1  0.86319341  0.49999443  0.37969082  1
  O  O55  1  0.85702507  -0.00000073  0.37547643  1
  O  O56  1  0.85553516  0.73438209  0.63331132  1
  O  O57  1  0.85553031  0.26562637  0.63331287  1
  O  O58  1  0.85681372  0.50000348  0.87654308  1
  O  O59  1  0.86671504  0.00000393  0.88291188  1
