# generated using pymatgen
data_CrFe2O5
_symmetry_space_group_name_H-M   'P 1'
_cell_length_a   5.68593942
_cell_length_b   5.68593942
_cell_length_c   7.06658195
_cell_angle_alpha   70.69410382
_cell_angle_beta   109.30589618
_cell_angle_gamma   126.49133590
_symmetry_Int_Tables_number   1
_chemical_formula_structural   CrFe2O5
_chemical_formula_sum   'Cr2 Fe4 O10'
_cell_volume   170.61823291
_cell_formula_units_Z   2
loop_
 _symmetry_equiv_pos_site_id
 _symmetry_equiv_pos_as_xyz
  1  'x, y, z'
loop_
 _atom_site_type_symbol
 _atom_site_label
 _atom_site_symmetry_multiplicity
 _atom_site_fract_x
 _atom_site_fract_y
 _atom_site_fract_z
 _atom_site_occupancy
  Cr  Cr0  1  0.00000000  0.00000000  0.50000000  1
  Cr  Cr1  1  0.00000000  0.00000000  0.00000000  1
  Fe  Fe2  1  0.36302854  0.62611631  0.77540177  1
  Fe  Fe3  1  0.37388369  0.63697146  0.27540177  1
  Fe  Fe4  1  0.62611631  0.36302854  0.72459823  1
  Fe  Fe5  1  0.63697146  0.37388369  0.22459823  1
  O  O6  1  0.32788093  0.96532091  0.64674083  1
  O  O7  1  0.03467909  0.67211907  0.14674083  1
  O  O8  1  0.25325281  0.41726397  0.55028465  1
  O  O9  1  0.81417886  0.81417886  0.75000000  1
  O  O10  1  0.41726397  0.25325281  0.94971535  1
  O  O11  1  0.58273603  0.74674719  0.05028465  1
  O  O12  1  0.18582114  0.18582114  0.25000000  1
  O  O13  1  0.74674719  0.58273603  0.44971535  1
  O  O14  1  0.96532091  0.32788093  0.85325917  1
  O  O15  1  0.67211907  0.03467909  0.35325917  1
