# generated using pymatgen
data_VGeO3
_symmetry_space_group_name_H-M   'P 1'
_cell_length_a   6.77155414
_cell_length_b   6.77155414
_cell_length_c   5.33857569
_cell_angle_alpha   82.30757493
_cell_angle_beta   97.69242507
_cell_angle_gamma   93.83796928
_symmetry_Int_Tables_number   1
_chemical_formula_structural   VGeO3
_chemical_formula_sum   'V4 Ge4 O12'
_cell_volume   240.10907715
_cell_formula_units_Z   4
loop_
 _symmetry_equiv_pos_site_id
 _symmetry_equiv_pos_as_xyz
  1  'x, y, z'
loop_
 _atom_site_type_symbol
 _atom_site_label
 _atom_site_symmetry_multiplicity
 _atom_site_fract_x
 _atom_site_fract_y
 _atom_site_fract_z
 _atom_site_occupancy
  V  V0  1  0.72387992  0.72387992  0.75000000  1
  V  V1  1  0.09105399  0.09105399  0.75000000  1
  V  V2  1  0.27612008  0.27612008  0.25000000  1
  V  V3  1  0.90894601  0.90894601  0.25000000  1
  Ge  Ge4  1  0.20666486  0.60539431  0.70806609  1
  Ge  Ge5  1  0.39460569  0.79333514  0.20806609  1
  Ge  Ge6  1  0.60539431  0.20666486  0.79193391  1
  Ge  Ge7  1  0.79333514  0.39460569  0.29193391  1
  O  O8  1  0.02438458  0.78745745  0.63438859  1
  O  O9  1  0.21254255  0.97561542  0.13438859  1
  O  O10  1  0.42400804  0.70682076  0.90364460  1
  O  O11  1  0.13883995  0.37847448  0.87278551  1
  O  O12  1  0.29317924  0.57599196  0.40364460  1
  O  O13  1  0.62152552  0.86116005  0.37278551  1
  O  O14  1  0.37847448  0.13883995  0.62721449  1
  O  O15  1  0.70682076  0.42400804  0.59635540  1
  O  O16  1  0.86116005  0.62152552  0.12721449  1
  O  O17  1  0.57599196  0.29317924  0.09635540  1
  O  O18  1  0.78745745  0.02438458  0.86561141  1
  O  O19  1  0.97561542  0.21254255  0.36561141  1
