# generated using pymatgen
data_Li2CrFeO4
_symmetry_space_group_name_H-M   'P 1'
_cell_length_a   7.83227530
_cell_length_b   5.11403306
_cell_length_c   5.92958871
_cell_angle_alpha   106.57732331
_cell_angle_beta   100.98827388
_cell_angle_gamma   77.50814029
_symmetry_Int_Tables_number   1
_chemical_formula_structural   Li2CrFeO4
_chemical_formula_sum   'Li6 Cr3 Fe3 O12'
_cell_volume   220.12755652
_cell_formula_units_Z   3
loop_
 _symmetry_equiv_pos_site_id
 _symmetry_equiv_pos_as_xyz
  1  'x, y, z'
loop_
 _atom_site_type_symbol
 _atom_site_label
 _atom_site_symmetry_multiplicity
 _atom_site_fract_x
 _atom_site_fract_y
 _atom_site_fract_z
 _atom_site_occupancy
  Li  Li0  1  0.66702020  0.00342315  0.66745684  1
  Li  Li1  1  0.83245899  0.50119019  0.83383335  1
  Li  Li2  1  0.33321586  0.99619594  0.33200927  1
  Li  Li3  1  0.99997249  0.00051884  0.00074716  1
  Li  Li4  1  0.50067952  0.50008165  0.49961429  1
  Li  Li5  1  0.16673288  0.49882969  0.16642479  1
  Cr  Cr6  1  0.33555034  -0.00000888  0.83546197  1
  Cr  Cr7  1  0.66505607  -0.00004041  0.16504546  1
  Cr  Cr8  1  0.83069847  0.50023795  0.33078782  1
  Fe  Fe9  1  0.99991586  0.00005717  0.50009376  1
  Fe  Fe10  1  0.16918516  0.49987668  0.66922698  1
  Fe  Fe11  1  0.50012256  0.49982891  0.99985587  1
  O  O12  1  0.41269285  0.25891205  0.68693762  1
  O  O13  1  0.75551170  0.24255453  0.48235699  1
  O  O14  1  0.09203104  0.24076064  0.82106524  1
  O  O15  1  0.92183849  0.74152641  0.65126931  1
  O  O16  1  0.73739468  0.26222359  0.01518272  1
  O  O17  1  0.07528860  0.25916621  0.34681575  1
  O  O18  1  0.57402197  0.75423800  0.85260270  1
  O  O19  1  0.26257512  0.73975642  0.98739877  1
  O  O20  1  0.42630868  0.24554016  0.14774406  1
  O  O21  1  0.58936228  0.73835672  0.31161450  1
  O  O22  1  0.24508766  0.75881531  0.51654778  1
  O  O23  1  0.90727853  0.75795610  0.17990499  1
