# generated using pymatgen
data_Li3Sn(BO3)2
_symmetry_space_group_name_H-M   'P 1'
_cell_length_a   5.01435414
_cell_length_b   7.25439338
_cell_length_c   8.01114855
_cell_angle_alpha   69.26088533
_cell_angle_beta   87.42209394
_cell_angle_gamma   89.62318352
_symmetry_Int_Tables_number   1
_chemical_formula_structural   Li3Sn(BO3)2
_chemical_formula_sum   'Li6 Sn2 B4 O12'
_cell_volume   272.24196068
_cell_formula_units_Z   2
loop_
 _symmetry_equiv_pos_site_id
 _symmetry_equiv_pos_as_xyz
  1  'x, y, z'
loop_
 _atom_site_type_symbol
 _atom_site_label
 _atom_site_symmetry_multiplicity
 _atom_site_fract_x
 _atom_site_fract_y
 _atom_site_fract_z
 _atom_site_occupancy
  Li  Li0  1  0.17983195  0.91092572  0.93897071  1
  Li  Li1  1  0.31947769  0.05704795  0.25229576  1
  Li  Li2  1  0.32764235  0.76024632  0.62232896  1
  Li  Li3  1  0.67235765  0.23975368  0.37767104  1
  Li  Li4  1  0.68052231  0.94295205  0.74770424  1
  Li  Li5  1  0.82016805  0.08907428  0.06102929  1
  Sn  Sn6  1  0.13260026  0.55199063  0.32692814  1
  Sn  Sn7  1  0.86739974  0.44800937  0.67307186  1
  B  B8  1  0.16633594  0.13309904  0.57323097  1
  B  B9  1  0.34288297  0.31479467  0.89686476  1
  B  B10  1  0.65711703  0.68520533  0.10313524  1
  B  B11  1  0.83366406  0.86690096  0.42676903  1
  O  O12  1  0.10458697  0.83184043  0.39272645  1
  O  O13  1  0.22304497  0.48236471  0.77604453  1
  O  O14  1  0.20395225  0.15904084  0.01024945  1
  O  O15  1  0.28379640  0.25859001  0.40635670  1
  O  O16  1  0.30773310  0.99106338  0.69059139  1
  O  O17  1  0.37364346  0.68428905  0.10877964  1
  O  O18  1  0.62635654  0.31571095  0.89122036  1
  O  O19  1  0.69226690  0.00893662  0.30940861  1
  O  O20  1  0.71620360  0.74140999  0.59364330  1
  O  O21  1  0.79604775  0.84095916  0.98975055  1
  O  O22  1  0.77695503  0.51763529  0.22395547  1
  O  O23  1  0.89541303  0.16815957  0.60727355  1
