# generated using pymatgen
data_Si2As2O7
_symmetry_space_group_name_H-M   'P 1'
_cell_length_a   7.17574759
_cell_length_b   7.35409301
_cell_length_c   12.98680331
_cell_angle_alpha   93.80889515
_cell_angle_beta   83.48866846
_cell_angle_gamma   86.43549005
_symmetry_Int_Tables_number   1
_chemical_formula_structural   Si2As2O7
_chemical_formula_sum   'Si8 As8 O28'
_cell_volume   677.72179131
_cell_formula_units_Z   4
loop_
 _symmetry_equiv_pos_site_id
 _symmetry_equiv_pos_as_xyz
  1  'x, y, z'
loop_
 _atom_site_type_symbol
 _atom_site_label
 _atom_site_symmetry_multiplicity
 _atom_site_fract_x
 _atom_site_fract_y
 _atom_site_fract_z
 _atom_site_occupancy
  Si  Si0  1  0.18739805  0.63431268  0.38585927  1
  Si  Si1  1  0.02248623  0.18403148  0.87081915  1
  Si  Si2  1  0.33869164  0.75913055  0.59664411  1
  Si  Si3  1  0.41936563  0.68681952  0.80766136  1
  Si  Si4  1  0.58063437  0.31318048  0.19233864  1
  Si  Si5  1  0.66130836  0.24086945  0.40335589  1
  Si  Si6  1  0.97751377  0.81596852  0.12918085  1
  Si  Si7  1  0.81260195  0.36568732  0.61414073  1
  As  As8  1  0.99718297  0.24566549  0.11872950  1
  As  As9  1  0.25905831  0.18286523  0.34409634  1
  As  As10  1  0.38588559  0.72109961  0.16370220  1
  As  As11  1  0.24716257  0.19481689  0.64365134  1
  As  As12  1  0.75283743  0.80518311  0.35634866  1
  As  As13  1  0.61411441  0.27890039  0.83629780  1
  As  As14  1  0.74094169  0.81713477  0.65590366  1
  As  As15  1  0.00281703  0.75433451  0.88127050  1
  O  O16  1  0.94287516  0.98294203  0.84579670  1
  O  O17  1  0.15144297  0.66283454  0.13799116  1
  O  O18  1  0.02153012  0.25998791  0.60266698  1
  O  O19  1  0.17451611  0.42007951  0.34655430  1
  O  O20  1  0.20979076  0.95110851  0.62417761  1
  O  O21  1  0.09672674  0.20952900  0.98471751  1
  O  O22  1  0.33643626  0.73706019  0.30620176  1
  O  O23  1  0.26323480  0.64433143  0.50026111  1
  O  O24  1  0.25311657  0.78358578  0.89552723  1
  O  O25  1  0.20147714  0.21857102  0.78519878  1
  O  O26  1  0.48682570  0.48998239  0.14356895  1
  O  O27  1  0.41868700  0.16891520  0.22284529  1
  O  O28  1  0.32432994  0.63591661  0.69917874  1
  O  O29  1  0.43733659  0.20447150  0.43369296  1
  O  O30  1  0.56266341  0.79552850  0.56630704  1
  O  O31  1  0.67567006  0.36408339  0.30082126  1
  O  O32  1  0.58131300  0.83108480  0.77715471  1
  O  O33  1  0.51317430  0.51001761  0.85643105  1
  O  O34  1  0.79852286  0.78142898  0.21480122  1
  O  O35  1  0.74688343  0.21641422  0.10447277  1
  O  O36  1  0.73676520  0.35566857  0.49973889  1
  O  O37  1  0.66356374  0.26293981  0.69379824  1
  O  O38  1  0.90327326  0.79047100  0.01528249  1
  O  O39  1  0.79020924  0.04889149  0.37582239  1
  O  O40  1  0.82548389  0.57992049  0.65344570  1
  O  O41  1  0.97846988  0.74001209  0.39733302  1
  O  O42  1  0.84855703  0.33716546  0.86200884  1
  O  O43  1  0.05712484  0.01705797  0.15420330  1
