# generated using pymatgen
data_Li4Ti3Mn3(CoO8)2
_symmetry_space_group_name_H-M   'P 1'
_cell_length_a   5.87055994
_cell_length_b   5.89961203
_cell_length_c   9.72805862
_cell_angle_alpha   89.71467928
_cell_angle_beta   90.40658475
_cell_angle_gamma   120.06567211
_symmetry_Int_Tables_number   1
_chemical_formula_structural   Li4Ti3Mn3(CoO8)2
_chemical_formula_sum   'Li4 Ti3 Mn3 Co2 O16'
_cell_volume   291.58185135
_cell_formula_units_Z   1
loop_
 _symmetry_equiv_pos_site_id
 _symmetry_equiv_pos_as_xyz
  1  'x, y, z'
loop_
 _atom_site_type_symbol
 _atom_site_label
 _atom_site_symmetry_multiplicity
 _atom_site_fract_x
 _atom_site_fract_y
 _atom_site_fract_z
 _atom_site_occupancy
  Li  Li0  1  0.34344161  0.67076530  0.89058175  1
  Li  Li1  1  0.99357980  0.00102057  0.99729398  1
  Li  Li2  1  0.98648769  0.99362650  0.49850280  1
  Li  Li3  1  0.67066653  0.33315440  0.39303099  1
  Ti  Ti4  1  0.16367801  0.82293262  0.21702968  1
  Ti  Ti5  1  0.17974670  0.33576464  0.21455547  1
  Ti  Ti6  1  0.34043076  0.16769377  0.71393014  1
  Mn  Mn7  1  0.66250478  0.83565058  0.21357262  1
  Mn  Mn8  1  0.83265163  0.66210658  0.71526934  1
  Mn  Mn9  1  0.83308756  0.16856471  0.71504921  1
  Co  Co10  1  0.32992470  0.66499410  0.49219257  1
  Co  Co11  1  0.66954629  0.33700509  0.98938809  1
  O  O12  1  0.15551018  0.84045283  0.60585800  1
  O  O13  1  0.03384748  0.51919822  0.32926559  1
  O  O14  1  0.33456979  0.66930425  0.10446178  1
  O  O15  1  0.99197216  0.99689693  0.31344345  1
  O  O16  1  0.99386084  0.99493243  0.81215679  1
  O  O17  1  0.15478970  0.31406911  0.60595051  1
  O  O18  1  0.48573786  0.96655816  0.33081554  1
  O  O19  1  0.48547234  0.52045038  0.33217473  1
  O  O20  1  0.31823393  0.16373663  0.10613235  1
  O  O21  1  0.67847722  0.83895876  0.60955130  1
  O  O22  1  0.52258411  0.48354165  0.83010894  1
  O  O23  1  0.52170150  0.03547854  0.83024504  1
  O  O24  1  0.67414536  0.33691622  0.60699581  1
  O  O25  1  0.83673939  0.68606568  0.10569358  1
  O  O26  1  0.96990536  0.48295526  0.82833203  1
  O  O27  1  0.83670473  0.15750409  0.10625694  1
