# generated using pymatgen
data_Li3V(BO2)5
_symmetry_space_group_name_H-M   'P 1'
_cell_length_a   6.96062649
_cell_length_b   7.19659880
_cell_length_c   9.40065537
_cell_angle_alpha   81.38783880
_cell_angle_beta   69.76711687
_cell_angle_gamma   61.95812047
_symmetry_Int_Tables_number   1
_chemical_formula_structural   Li3V(BO2)5
_chemical_formula_sum   'Li6 V2 B10 O20'
_cell_volume   389.93014583
_cell_formula_units_Z   2
loop_
 _symmetry_equiv_pos_site_id
 _symmetry_equiv_pos_as_xyz
  1  'x, y, z'
loop_
 _atom_site_type_symbol
 _atom_site_label
 _atom_site_symmetry_multiplicity
 _atom_site_fract_x
 _atom_site_fract_y
 _atom_site_fract_z
 _atom_site_occupancy
  Li  Li0  1  0.22911474  0.50415769  0.24344462  1
  Li  Li1  1  0.81092416  0.00496872  0.15996898  1
  Li  Li2  1  0.02317500  0.18497022  0.46165828  1
  Li  Li3  1  0.97682500  0.81502978  0.53834172  1
  Li  Li4  1  0.18907584  0.99503128  0.84003102  1
  Li  Li5  1  0.77088526  0.49584231  0.75655538  1
  V  V6  1  0.22421175  0.50628464  0.87564471  1
  V  V7  1  0.77578825  0.49371536  0.12435529  1
  B  B8  1  0.29963212  0.80873220  0.07397313  1
  B  B9  1  0.40665271  0.86189041  0.29257415  1
  B  B10  1  0.36464576  0.75211176  0.56707918  1
  B  B11  1  0.22331295  0.16483034  0.13183916  1
  B  B12  1  0.74322209  0.71838330  0.39947101  1
  B  B13  1  0.25677791  0.28161670  0.60052899  1
  B  B14  1  0.77668705  0.83516966  0.86816084  1
  B  B15  1  0.63535424  0.24788824  0.43292082  1
  B  B16  1  0.59334729  0.13810959  0.70742585  1
  B  B17  1  0.70036788  0.19126780  0.92602687  1
  O  O18  1  0.25037470  0.70528644  0.99917006  1
  O  O19  1  0.27176019  0.84517458  0.44860887  1
  O  O20  1  0.40301932  0.72394376  0.18830728  1
  O  O21  1  0.22265699  0.74084133  0.70303764  1
  O  O22  1  0.14207407  0.37139715  0.09973424  1
  O  O23  1  0.65390331  0.78359198  0.27503559  1
  O  O24  1  0.04996483  0.30213158  0.61885270  1
  O  O25  1  0.69720754  0.91369316  0.74524576  1
  O  O26  1  0.60016488  0.68356921  0.53876834  1
  O  O27  1  0.76588606  0.97641364  0.96159037  1
  O  O28  1  0.23411394  0.02358636  0.03840963  1
  O  O29  1  0.39983512  0.31643079  0.46123166  1
  O  O30  1  0.30279246  0.08630684  0.25475424  1
  O  O31  1  0.95003517  0.69786842  0.38114730  1
  O  O32  1  0.34609669  0.21640802  0.72496441  1
  O  O33  1  0.85792593  0.62860285  0.90026576  1
  O  O34  1  0.77734301  0.25915867  0.29696236  1
  O  O35  1  0.59698068  0.27605624  0.81169272  1
  O  O36  1  0.72823981  0.15482542  0.55139113  1
  O  O37  1  0.74962530  0.29471356  0.00082994  1
