# generated using pymatgen
data_Li3V3(BO5)2
_symmetry_space_group_name_H-M   'P 1'
_cell_length_a   9.33821182
_cell_length_b   12.16492921
_cell_length_c   3.01378862
_cell_angle_alpha   90.24193193
_cell_angle_beta   90.73761979
_cell_angle_gamma   88.53325947
_symmetry_Int_Tables_number   1
_chemical_formula_structural   Li3V3(BO5)2
_chemical_formula_sum   'Li6 V6 B4 O20'
_cell_volume   342.21929479
_cell_formula_units_Z   2
loop_
 _symmetry_equiv_pos_site_id
 _symmetry_equiv_pos_as_xyz
  1  'x, y, z'
loop_
 _atom_site_type_symbol
 _atom_site_label
 _atom_site_symmetry_multiplicity
 _atom_site_fract_x
 _atom_site_fract_y
 _atom_site_fract_z
 _atom_site_occupancy
  Li  Li0  1  0.99782303  0.00045854  0.99902682  1
  Li  Li1  1  0.98225331  0.27735035  0.00328469  1
  Li  Li2  1  0.51556136  0.50363170  0.99812395  1
  Li  Li3  1  0.50031539  0.99917666  0.50080038  1
  Li  Li4  1  0.72879336  0.38412880  0.50316708  1
  Li  Li5  1  0.00154595  0.71871120  0.99831462  1
  V  V6  1  0.99467412  0.49748872  0.48399902  1
  V  V7  1  0.23487225  0.10896346  0.48170328  1
  V  V8  1  0.26175459  0.61242395  0.49733157  1
  V  V9  1  0.50326475  0.78194747  0.00301399  1
  V  V10  1  0.50404716  0.22071391  0.99962778  1
  V  V11  1  0.76594464  0.89026712  0.51892571  1
  B  B12  1  0.23051496  0.85824314  0.50196458  1
  B  B13  1  0.27152606  0.36783058  0.50109538  1
  B  B14  1  0.72819484  0.62999542  0.50044089  1
  B  B15  1  0.77446040  0.14380192  0.49832757  1
  O  O16  1  0.12139050  0.14483141  0.01826851  1
  O  O17  1  0.11525917  0.56852149  0.99418834  1
  O  O18  1  0.12639026  0.36285901  0.51004303  1
  O  O19  1  0.15725241  0.76272684  0.49749685  1
  O  O20  1  0.15924600  0.95992634  0.51254695  1
  O  O21  1  0.35012630  0.45997053  0.49907302  1
  O  O22  1  0.35060547  0.26105746  0.49608091  1
  O  O23  1  0.38272101  0.85600357  0.50226262  1
  O  O24  1  0.37936966  0.08107174  0.98582354  1
  O  O25  1  0.38826580  0.65396713  0.00171760  1
  O  O26  1  0.58802956  0.34063830  0.00105693  1
  O  O27  1  0.62267535  0.92092812  0.01290260  1
  O  O28  1  0.61585181  0.14710951  0.50252909  1
  O  O29  1  0.65434628  0.73935877  0.50280142  1
  O  O30  1  0.64982995  0.54100101  0.50170812  1
  O  O31  1  0.83866907  0.03901417  0.48200116  1
  O  O32  1  0.84586285  0.23641101  0.50267109  1
  O  O33  1  0.87660398  0.63548916  0.49520111  1
  O  O34  1  0.90123261  0.43936957  0.01040988  1
  O  O35  1  0.88072480  0.85461092  0.98206793  1
