# generated using pymatgen
data_Li3Al2FeO6
_symmetry_space_group_name_H-M   'P 1'
_cell_length_a   5.88693868
_cell_length_b   10.21703861
_cell_length_c   8.11068543
_cell_angle_alpha   90.00000000
_cell_angle_beta   89.38331487
_cell_angle_gamma   90.00000000
_symmetry_Int_Tables_number   1
_chemical_formula_structural   Li3Al2FeO6
_chemical_formula_sum   'Li12 Al8 Fe4 O24'
_cell_volume   487.80578733
_cell_formula_units_Z   4
loop_
 _symmetry_equiv_pos_site_id
 _symmetry_equiv_pos_as_xyz
  1  'x, y, z'
loop_
 _atom_site_type_symbol
 _atom_site_label
 _atom_site_symmetry_multiplicity
 _atom_site_fract_x
 _atom_site_fract_y
 _atom_site_fract_z
 _atom_site_occupancy
  Li  Li0  1  0.15645304  0.99511334  0.63918891  1
  Li  Li1  1  0.18444683  0.65337490  0.62375953  1
  Li  Li2  1  0.14544556  0.00082420  0.11428757  1
  Li  Li3  1  0.31555317  0.15337490  0.87624047  1
  Li  Li4  1  0.35455444  0.50082420  0.38571243  1
  Li  Li5  1  0.34354696  0.49511334  0.86081109  1
  Li  Li6  1  0.65645304  0.50488666  0.13918891  1
  Li  Li7  1  0.64544556  0.49917580  0.61428757  1
  Li  Li8  1  0.68444683  0.84662510  0.12375953  1
  Li  Li9  1  0.85455444  0.99917580  0.88571243  1
  Li  Li10  1  0.81555317  0.34662510  0.37624047  1
  Li  Li11  1  0.84354696  0.00488666  0.36081109  1
  Al  Al12  1  0.16638640  0.33234062  0.62089234  1
  Al  Al13  1  0.17165793  0.66131082  0.12626453  1
  Al  Al14  1  0.33361360  0.83234062  0.87910766  1
  Al  Al15  1  0.32834207  0.16131082  0.37373547  1
  Al  Al16  1  0.67165793  0.83868918  0.62626453  1
  Al  Al17  1  0.66638640  0.16765938  0.12089234  1
  Al  Al18  1  0.82834207  0.33868918  0.87373547  1
  Al  Al19  1  0.83361360  0.66765938  0.37910766  1
  Fe  Fe20  1  0.16279890  0.33595919  0.12633509  1
  Fe  Fe21  1  0.33720110  0.83595919  0.37366491  1
  Fe  Fe22  1  0.66279890  0.16404081  0.62633509  1
  Fe  Fe23  1  0.83720110  0.66404081  0.87366491  1
  O  O24  1  0.13749564  0.32643473  0.87392357  1
  O  O25  1  0.14597814  0.67742028  0.36300051  1
  O  O26  1  0.18643205  0.98006725  0.87752335  1
  O  O27  1  0.19456325  0.00257470  0.37153874  1
  O  O28  1  0.15716742  0.31012240  0.37742632  1
  O  O29  1  0.17359472  0.67638464  0.88714751  1
  O  O30  1  0.32640528  0.17638464  0.61285249  1
  O  O31  1  0.34283258  0.81012240  0.12257368  1
  O  O32  1  0.30543675  0.50257470  0.12846126  1
  O  O33  1  0.31356795  0.48006725  0.62247665  1
  O  O34  1  0.36250436  0.82643473  0.62607643  1
  O  O35  1  0.35402186  0.17742028  0.13699949  1
  O  O36  1  0.64597814  0.82257972  0.86300051  1
  O  O37  1  0.63749564  0.17356527  0.37392357  1
  O  O38  1  0.68643205  0.51993275  0.37752335  1
  O  O39  1  0.69456325  0.49742530  0.87153874  1
  O  O40  1  0.65716742  0.18987760  0.87742632  1
  O  O41  1  0.67359472  0.82361536  0.38714751  1
  O  O42  1  0.82640528  0.32361536  0.11285249  1
  O  O43  1  0.84283258  0.68987760  0.62257368  1
  O  O44  1  0.80543675  0.99742530  0.62846126  1
  O  O45  1  0.81356795  0.01993275  0.12247665  1
  O  O46  1  0.85402186  0.32257972  0.63699949  1
  O  O47  1  0.86250436  0.67356527  0.12607643  1
