# generated using pymatgen
data_Fe4C
_symmetry_space_group_name_H-M   'P 1'
_cell_length_a   2.65281461
_cell_length_b   6.00829050
_cell_length_c   6.34751652
_cell_angle_alpha   101.18845532
_cell_angle_beta   90.00000000
_cell_angle_gamma   90.00000000
_symmetry_Int_Tables_number   1
_chemical_formula_structural   Fe4C
_chemical_formula_sum   'Fe8 C2'
_cell_volume   99.24945599
_cell_formula_units_Z   2
loop_
 _symmetry_equiv_pos_site_id
 _symmetry_equiv_pos_as_xyz
  1  'x, y, z'
loop_
 _atom_site_type_symbol
 _atom_site_label
 _atom_site_symmetry_multiplicity
 _atom_site_fract_x
 _atom_site_fract_y
 _atom_site_fract_z
 _atom_site_occupancy
  Fe  Fe0  1  0.25000000  0.10450168  0.17986362  1
  Fe  Fe1  1  0.75000000  0.89549832  0.82013638  1
  Fe  Fe2  1  0.25000000  0.82704475  0.46519086  1
  Fe  Fe3  1  0.75000000  0.17295525  0.53480914  1
  Fe  Fe4  1  0.75000000  0.31606549  0.93573263  1
  Fe  Fe5  1  0.25000000  0.68393451  0.06426737  1
  Fe  Fe6  1  0.75000000  0.47760742  0.31720942  1
  Fe  Fe7  1  0.25000000  0.52239258  0.68279058  1
  C  C8  1  0.75000000  0.87685451  0.24664278  1
  C  C9  1  0.25000000  0.12314549  0.75335722  1
