# generated using pymatgen
data_V5BO9
_symmetry_space_group_name_H-M   'P 1'
_cell_length_a   6.15608468
_cell_length_b   8.57013340
_cell_length_c   8.35833651
_cell_angle_alpha   90.00000000
_cell_angle_beta   90.00000000
_cell_angle_gamma   111.04856922
_symmetry_Int_Tables_number   1
_chemical_formula_structural   V5BO9
_chemical_formula_sum   'V10 B2 O18'
_cell_volume   411.54967088
_cell_formula_units_Z   2
loop_
 _symmetry_equiv_pos_site_id
 _symmetry_equiv_pos_as_xyz
  1  'x, y, z'
loop_
 _atom_site_type_symbol
 _atom_site_label
 _atom_site_symmetry_multiplicity
 _atom_site_fract_x
 _atom_site_fract_y
 _atom_site_fract_z
 _atom_site_occupancy
  V  V0  1  0.13608816  0.77601687  0.99677716  1
  V  V1  1  0.30083973  0.60167946  0.33084616  1
  V  V2  1  0.25393433  0.50786865  0.67992689  1
  V  V3  1  0.44194360  0.88388721  0.69493958  1
  V  V4  1  0.63992971  0.77601687  0.99677716  1
  V  V5  1  0.36007029  0.22398313  0.49677716  1
  V  V6  1  0.55805640  0.11611279  0.19493958  1
  V  V7  1  0.69916027  0.39832054  0.83084616  1
  V  V8  1  0.74606567  0.49213135  0.17992689  1
  V  V9  1  0.86391184  0.22398313  0.49677716  1
  B  B10  1  0.01552227  0.03104355  0.22433088  1
  B  B11  1  0.98447773  0.96895645  0.72433088  1
  O  O12  1  0.14903150  0.90577614  0.78600019  1
  O  O13  1  0.07145550  0.62450792  0.19476940  1
  O  O14  1  0.19229622  0.38459245  0.44329441  1
  O  O15  1  0.04156448  0.08312796  0.60369862  1
  O  O16  1  0.33597006  0.67194011  0.85974963  1
  O  O17  1  0.45519122  0.91038344  0.06947889  1
  O  O18  1  0.35314451  0.70628801  0.54091147  1
  O  O19  1  0.24325636  0.09422386  0.28600019  1
  O  O20  1  0.55305143  0.62450792  0.19476940  1
  O  O21  1  0.44694857  0.37549208  0.69476940  1
  O  O22  1  0.75674364  0.90577614  0.78600019  1
  O  O23  1  0.54480878  0.08961656  0.56947889  1
  O  O24  1  0.64685549  0.29371199  0.04091147  1
  O  O25  1  0.80770378  0.61540755  0.94329441  1
  O  O26  1  0.95843552  0.91687204  0.10369862  1
  O  O27  1  0.66402994  0.32805989  0.35974963  1
  O  O28  1  0.92854450  0.37549208  0.69476940  1
  O  O29  1  0.85096850  0.09422386  0.28600019  1
