# generated using pymatgen
data_Li2VH2OF5
_symmetry_space_group_name_H-M   'P 1'
_cell_length_a   5.71277939
_cell_length_b   5.71277939
_cell_length_c   7.83349840
_cell_angle_alpha   85.62834880
_cell_angle_beta   94.37165120
_cell_angle_gamma   112.41753265
_symmetry_Int_Tables_number   1
_chemical_formula_structural   Li2VH2OF5
_chemical_formula_sum   'Li4 V2 H4 O2 F10'
_cell_volume   235.33683907
_cell_formula_units_Z   2
loop_
 _symmetry_equiv_pos_site_id
 _symmetry_equiv_pos_as_xyz
  1  'x, y, z'
loop_
 _atom_site_type_symbol
 _atom_site_label
 _atom_site_symmetry_multiplicity
 _atom_site_fract_x
 _atom_site_fract_y
 _atom_site_fract_z
 _atom_site_occupancy
  Li  Li0  1  0.28635630  0.74004753  0.99620895  1
  Li  Li1  1  0.25995247  0.71364370  0.49620895  1
  Li  Li2  1  0.74004753  0.28635630  0.50379105  1
  Li  Li3  1  0.71364370  0.25995247  0.00379105  1
  V  V4  1  0.77368057  0.77368057  0.75000000  1
  V  V5  1  0.22631943  0.22631943  0.25000000  1
  H  H6  1  0.14019668  0.21184667  0.84120063  1
  H  H7  1  0.78815333  0.85980332  0.34120063  1
  H  H8  1  0.21184667  0.14019668  0.65879937  1
  H  H9  1  0.85980332  0.78815333  0.15879937  1
  O  O10  1  0.08764504  0.08764504  0.75000000  1
  O  O11  1  0.91235496  0.91235496  0.25000000  1
  F  F12  1  0.59647623  0.95362985  0.86756601  1
  F  F13  1  0.04637015  0.40352377  0.36756601  1
  F  F14  1  0.65614061  0.88631315  0.52222874  1
  F  F15  1  0.11368685  0.34385939  0.02222874  1
  F  F16  1  0.47832657  0.47832657  0.75000000  1
  F  F17  1  0.52167343  0.52167343  0.25000000  1
  F  F18  1  0.88631315  0.65614061  0.97777126  1
  F  F19  1  0.34385939  0.11368685  0.47777126  1
  F  F20  1  0.95362985  0.59647623  0.63243399  1
  F  F21  1  0.40352377  0.04637015  0.13243399  1
