# generated using pymatgen
data_Li3V3(BO5)2
_symmetry_space_group_name_H-M   'P 1'
_cell_length_a   9.26259192
_cell_length_b   12.26353815
_cell_length_c   3.03396328
_cell_angle_alpha   89.91617274
_cell_angle_beta   89.58353952
_cell_angle_gamma   89.84740036
_symmetry_Int_Tables_number   1
_chemical_formula_structural   Li3V3(BO5)2
_chemical_formula_sum   'Li6 V6 B4 O20'
_cell_volume   344.62372491
_cell_formula_units_Z   2
loop_
 _symmetry_equiv_pos_site_id
 _symmetry_equiv_pos_as_xyz
  1  'x, y, z'
loop_
 _atom_site_type_symbol
 _atom_site_label
 _atom_site_symmetry_multiplicity
 _atom_site_fract_x
 _atom_site_fract_y
 _atom_site_fract_z
 _atom_site_occupancy
  Li  Li0  1  0.02377687  0.99457677  0.00059866  1
  Li  Li1  1  0.98828497  0.50968786  0.49923313  1
  Li  Li2  1  0.23295038  0.09883279  0.49992051  1
  Li  Li3  1  0.49814496  0.50431544  0.00046462  1
  Li  Li4  1  0.49047716  0.00059569  0.49954927  1
  Li  Li5  1  0.99047844  0.71205486  0.00177137  1
  V  V6  1  0.00988342  0.28186813  0.00025761  1
  V  V7  1  0.24733966  0.61532882  0.51502868  1
  V  V8  1  0.49814114  0.78466379  0.99741424  1
  V  V9  1  0.49143407  0.21132656  0.99930635  1
  V  V10  1  0.73624131  0.39265964  0.49917283  1
  V  V11  1  0.76636047  0.88963351  0.47719081  1
  B  B12  1  0.22420904  0.85779636  0.49941608  1
  B  B13  1  0.28002324  0.36589770  0.49823150  1
  B  B14  1  0.73105997  0.63592642  0.50069135  1
  B  B15  1  0.77469703  0.13903149  0.50237948  1
  O  O16  1  0.09096716  0.15816649  0.99993136  1
  O  O17  1  0.13383308  0.57365107  0.99200069  1
  O  O18  1  0.12717887  0.35094369  0.49840555  1
  O  O19  1  0.15588242  0.75676855  0.49642678  1
  O  O20  1  0.15346333  0.95240070  0.50064751  1
  O  O21  1  0.34271211  0.46431847  0.49701881  1
  O  O22  1  0.36556810  0.27092223  0.50054494  1
  O  O23  1  0.38086968  0.85359205  0.49731732  1
  O  O24  1  0.39669783  0.08946331  0.00059635  1
  O  O25  1  0.38537742  0.65145175  0.00438643  1
  O  O26  1  0.60768677  0.34211558  0.99939401  1
  O  O27  1  0.62246524  0.92061106  0.98923518  1
  O  O28  1  0.62414233  0.15166574  0.49822082  1
  O  O29  1  0.64705440  0.73831714  0.49659115  1
  O  O30  1  0.64823600  0.54076513  0.49806408  1
  O  O31  1  0.84063775  0.04140770  0.51272538  1
  O  O32  1  0.85713121  0.23764911  0.50136879  1
  O  O33  1  0.87380731  0.64216360  0.50475316  1
  O  O34  1  0.88395663  0.41342139  0.00028794  1
  O  O35  1  0.87883324  0.85600941  0.02145722  1
