# generated using pymatgen
data_SnO
_symmetry_space_group_name_H-M   'P 1'
_cell_length_a   3.58148942
_cell_length_b   3.58148942
_cell_length_c   12.17361827
_cell_angle_alpha   90.00000000
_cell_angle_beta   90.00000000
_cell_angle_gamma   101.97502438
_symmetry_Int_Tables_number   1
_chemical_formula_structural   SnO
_chemical_formula_sum   'Sn4 O4'
_cell_volume   152.75365689
_cell_formula_units_Z   4
loop_
 _symmetry_equiv_pos_site_id
 _symmetry_equiv_pos_as_xyz
  1  'x, y, z'
loop_
 _atom_site_type_symbol
 _atom_site_label
 _atom_site_symmetry_multiplicity
 _atom_site_fract_x
 _atom_site_fract_y
 _atom_site_fract_z
 _atom_site_occupancy
  Sn  Sn0  1  0.02778603  0.97221397  0.49982859  1
  Sn  Sn1  1  0.97221397  0.02778603  0.99982859  1
  Sn  Sn2  1  0.37643599  0.62356401  0.27072172  1
  Sn  Sn3  1  0.62356401  0.37643599  0.77072172  1
  O  O4  1  0.40729347  0.59270653  0.44945380  1
  O  O5  1  0.59270653  0.40729347  0.94945380  1
  O  O6  1  0.99525238  0.00474762  0.32153589  1
  O  O7  1  0.00474762  0.99525238  0.82153589  1
