# generated using pymatgen
data_Li3MnPCO7
_symmetry_space_group_name_H-M   'P 1'
_cell_length_a   8.45532806
_cell_length_b   5.10077885
_cell_length_c   6.56248050
_cell_angle_alpha   90.00000000
_cell_angle_beta   90.00000000
_cell_angle_gamma   88.63142670
_symmetry_Int_Tables_number   1
_chemical_formula_structural   Li3MnPCO7
_chemical_formula_sum   'Li6 Mn2 P2 C2 O14'
_cell_volume   282.95089919
_cell_formula_units_Z   2
loop_
 _symmetry_equiv_pos_site_id
 _symmetry_equiv_pos_as_xyz
  1  'x, y, z'
loop_
 _atom_site_type_symbol
 _atom_site_label
 _atom_site_symmetry_multiplicity
 _atom_site_fract_x
 _atom_site_fract_y
 _atom_site_fract_z
 _atom_site_occupancy
  Li  Li0  1  0.00200109  0.02323230  0.49969116  1
  Li  Li1  1  0.17153057  0.47187777  0.17981255  1
  Li  Li2  1  0.49603170  0.45078228  0.45200580  1
  Li  Li3  1  0.50396830  0.54921772  0.95200580  1
  Li  Li4  1  0.82846943  0.52812223  0.67981255  1
  Li  Li5  1  0.99799891  0.97676770  0.99969116  1
  Mn  Mn6  1  0.28842558  0.00522639  0.75330603  1
  Mn  Mn7  1  0.71157442  0.99477361  0.25330603  1
  P  P8  1  0.32557018  0.97315526  0.24568135  1
  P  P9  1  0.67442982  0.02684474  0.74568135  1
  C  C10  1  0.13553906  0.49387002  0.73931281  1
  C  C11  1  0.86446094  0.50612998  0.23931281  1
  O  O12  1  0.02846811  0.31657300  0.72166568  1
  O  O13  1  0.09025205  0.73540595  0.77801557  1
  O  O14  1  0.22471254  0.10409002  0.07105487  1
  O  O15  1  0.22709265  0.99461051  0.44242743  1
  O  O16  1  0.28534367  0.43508136  0.72350552  1
  O  O17  1  0.36559990  0.68111869  0.19491661  1
  O  O18  1  0.47927509  0.13203545  0.27320363  1
  O  O19  1  0.52072491  0.86796455  0.77320363  1
  O  O20  1  0.63440010  0.31888131  0.69491661  1
  O  O21  1  0.71465633  0.56491864  0.22350552  1
  O  O22  1  0.77290735  0.00538949  0.94242743  1
  O  O23  1  0.77528746  0.89590998  0.57105487  1
  O  O24  1  0.90974795  0.26459405  0.27801557  1
  O  O25  1  0.97153189  0.68342700  0.22166568  1
