# generated using pymatgen
data_V5Cr(PO4)6
_symmetry_space_group_name_H-M   'P 1'
_cell_length_a   8.53520629
_cell_length_b   8.60642792
_cell_length_c   8.60642833
_cell_angle_alpha   59.99999827
_cell_angle_beta   59.72357790
_cell_angle_gamma   59.72357879
_symmetry_Int_Tables_number   1
_chemical_formula_structural   V5Cr(PO4)6
_chemical_formula_sum   'V5 Cr1 P6 O24'
_cell_volume   445.16159351
_cell_formula_units_Z   1
loop_
 _symmetry_equiv_pos_site_id
 _symmetry_equiv_pos_as_xyz
  1  'x, y, z'
loop_
 _atom_site_type_symbol
 _atom_site_label
 _atom_site_symmetry_multiplicity
 _atom_site_fract_x
 _atom_site_fract_y
 _atom_site_fract_z
 _atom_site_occupancy
  V  V0  1  0.00072052  -0.00023984  -0.00023984  1
  V  V1  1  0.07036789  0.64321037  0.64321037  1
  V  V2  1  0.49741744  0.50086085  0.50086085  1
  V  V3  1  0.42892755  0.85702415  0.85702415  1
  V  V4  1  0.93034251  0.35655216  0.35655216  1
  Cr  Cr5  1  0.57484030  0.14171957  0.14171957  1
  P  P6  1  0.25159520  0.25060364  0.54080575  1
  P  P7  1  0.25159520  0.95699542  0.25060364  1
  P  P8  1  0.25159520  0.54080575  0.95699542  1
  P  P9  1  0.75067547  0.45558088  0.04356692  1
  P  P10  1  0.75067547  0.04356692  0.75017573  1
  P  P11  1  0.75067547  0.75017573  0.45558088  1
  O  O12  1  0.06620107  0.11628687  0.31591872  1
  O  O13  1  0.06620107  0.50159434  0.11628687  1
  O  O14  1  0.06620107  0.31591872  0.50159434  1
  O  O15  1  0.22596986  0.09005148  0.74146338  1
  O  O16  1  0.43411000  0.18701733  0.38576220  1
  O  O17  1  0.26994704  0.40977655  0.56191832  1
  O  O18  1  0.22596986  0.94251528  0.09005148  1
  O  O19  1  0.26994704  0.75835808  0.40977655  1
  O  O20  1  0.56645364  0.61351087  0.00493621  1
  O  O21  1  0.26994704  0.56191832  0.75835808  1
  O  O22  1  0.77387472  0.25722835  0.05876045  1
  O  O23  1  0.56645364  0.00493621  0.81509928  1
  O  O24  1  0.43411000  0.99311048  0.18701733  1
  O  O25  1  0.22596986  0.74146338  0.94251528  1
  O  O26  1  0.72942895  0.43874681  0.24342455  1
  O  O27  1  0.43411000  0.38576220  0.99311048  1
  O  O28  1  0.72942895  0.24342455  0.58839970  1
  O  O29  1  0.77387472  0.05876045  0.91013648  1
  O  O30  1  0.72942895  0.58839970  0.43874681  1
  O  O31  1  0.56645364  0.81509928  0.61351087  1
  O  O32  1  0.77387472  0.91013648  0.25722835  1
  O  O33  1  0.93087131  0.68228351  0.49790466  1
  O  O34  1  0.93087131  0.49790466  0.88894051  1
  O  O35  1  0.93087131  0.88894051  0.68228351  1
