# generated using pymatgen
data_Li(NiO2)2
_symmetry_space_group_name_H-M   'P 1'
_cell_length_a   5.63924451
_cell_length_b   5.63919997
_cell_length_c   9.34777830
_cell_angle_alpha   89.99856150
_cell_angle_beta   90.00077892
_cell_angle_gamma   120.00041575
_symmetry_Int_Tables_number   1
_chemical_formula_structural   Li(NiO2)2
_chemical_formula_sum   'Li4 Ni8 O16'
_cell_volume   257.43976892
_cell_formula_units_Z   4
loop_
 _symmetry_equiv_pos_site_id
 _symmetry_equiv_pos_as_xyz
  1  'x, y, z'
loop_
 _atom_site_type_symbol
 _atom_site_label
 _atom_site_symmetry_multiplicity
 _atom_site_fract_x
 _atom_site_fract_y
 _atom_site_fract_z
 _atom_site_occupancy
  Li  Li0  1  0.33334186  0.66665755  0.88907809  1
  Li  Li1  1  0.00000639  0.00003130  0.99679170  1
  Li  Li2  1  0.99998998  0.00001135  0.49680646  1
  Li  Li3  1  0.66666212  0.33335836  0.38905737  1
  Ni  Ni4  1  0.16895389  0.83105074  0.21508209  1
  Ni  Ni5  1  0.33333768  0.66669638  0.48964025  1
  Ni  Ni6  1  0.16895141  0.33792753  0.21508673  1
  Ni  Ni7  1  0.66207120  0.83105054  0.21508149  1
  Ni  Ni8  1  0.33786435  0.16893642  0.71507207  1
  Ni  Ni9  1  0.66666289  0.33333396  0.98958946  1
  Ni  Ni10  1  0.83106995  0.66213947  0.71506890  1
  Ni  Ni11  1  0.83107631  0.16893338  0.71507543  1
  O  O12  1  0.15870659  0.84131340  0.60575902  1
  O  O13  1  0.03526044  0.51764046  0.33167971  1
  O  O14  1  0.33332513  0.66668172  0.11358953  1
  O  O15  1  0.99998947  0.99999635  0.30733981  1
  O  O16  1  0.00001306  0.00001235  0.80728390  1
  O  O17  1  0.15871320  0.31742915  0.60576352  1
  O  O18  1  0.48236813  0.96475670  0.33167150  1
  O  O19  1  0.48235565  0.51764733  0.33168420  1
  O  O20  1  0.31740540  0.15872486  0.10578458  1
  O  O21  1  0.68259158  0.84130675  0.60576619  1
  O  O22  1  0.51764767  0.48236524  0.83165811  1
  O  O23  1  0.51763934  0.03526981  0.83165508  1
  O  O24  1  0.66667627  0.33334410  0.61355379  1
  O  O25  1  0.84128441  0.68259907  0.10578146  1
  O  O26  1  0.96473647  0.48236955  0.83165964  1
  O  O27  1  0.84129815  0.15871718  0.10577993  1
