# generated using pymatgen
data_Li3Mn(CoO2)4
_symmetry_space_group_name_H-M   'P 1'
_cell_length_a   5.93837304
_cell_length_b   5.93837293
_cell_length_c   5.93442176
_cell_angle_alpha   90.78411811
_cell_angle_beta   60.81407698
_cell_angle_gamma   60.06592056
_symmetry_Int_Tables_number   1
_chemical_formula_structural   Li3Mn(CoO2)4
_chemical_formula_sum   'Li3 Mn1 Co4 O8'
_cell_volume   148.91518081
_cell_formula_units_Z   1
loop_
 _symmetry_equiv_pos_site_id
 _symmetry_equiv_pos_as_xyz
  1  'x, y, z'
loop_
 _atom_site_type_symbol
 _atom_site_label
 _atom_site_symmetry_multiplicity
 _atom_site_fract_x
 _atom_site_fract_y
 _atom_site_fract_z
 _atom_site_occupancy
  Li  Li0  1  0.00000000  0.00000000  0.50000000  1
  Li  Li1  1  0.50000000  0.00000000  0.50000000  1
  Li  Li2  1  0.50000000  0.50000000  0.50000000  1
  Mn  Mn3  1  0.50000000  0.50000000  0.00000000  1
  Co  Co4  1  0.00000000  0.50000000  0.50000000  1
  Co  Co5  1  0.00000000  0.00000000  0.00000000  1
  Co  Co6  1  0.50000000  0.00000000  0.00000000  1
  Co  Co7  1  0.00000000  0.50000000  0.00000000  1
  O  O8  1  0.49343677  0.26436725  0.77093047  1
  O  O9  1  0.96520647  0.26754427  0.76794338  1
  O  O10  1  0.49960089  0.73314985  0.76794338  1
  O  O11  1  0.98545370  0.74959558  0.76414188  1
  O  O12  1  0.01454630  0.25040442  0.23585812  1
  O  O13  1  0.50039911  0.26685015  0.23205662  1
  O  O14  1  0.03479353  0.73245573  0.23205662  1
  O  O15  1  0.50656323  0.73563275  0.22906953  1
