# generated using pymatgen
data_Li2Cr2O7
_symmetry_space_group_name_H-M   'P 1'
_cell_length_a   6.61427290
_cell_length_b   6.61384593
_cell_length_c   12.45546412
_cell_angle_alpha   90.00069498
_cell_angle_beta   90.00277005
_cell_angle_gamma   89.99446520
_symmetry_Int_Tables_number   1
_chemical_formula_structural   Li2Cr2O7
_chemical_formula_sum   'Li8 Cr8 O28'
_cell_volume   544.87401359
_cell_formula_units_Z   4
loop_
 _symmetry_equiv_pos_site_id
 _symmetry_equiv_pos_as_xyz
  1  'x, y, z'
loop_
 _atom_site_type_symbol
 _atom_site_label
 _atom_site_symmetry_multiplicity
 _atom_site_fract_x
 _atom_site_fract_y
 _atom_site_fract_z
 _atom_site_occupancy
  Li  Li0  1  0.11312371  0.64738691  0.13176996  1
  Li  Li1  1  0.14736898  0.38684434  0.88176678  1
  Li  Li2  1  0.35257849  0.88685516  0.36823926  1
  Li  Li3  1  0.38686002  0.14739396  0.11823767  1
  Li  Li4  1  0.61313906  0.85260174  0.61822088  1
  Li  Li5  1  0.64738682  0.11315213  0.86824603  1
  Li  Li6  1  0.85263084  0.61313683  0.38174078  1
  Li  Li7  1  0.88683785  0.35261928  0.63172256  1
  Cr  Cr8  1  0.09366789  0.83839843  0.61929004  1
  Cr  Cr9  1  0.16163760  0.90630393  0.88067468  1
  Cr  Cr10  1  0.33830838  0.40625590  0.36926959  1
  Cr  Cr11  1  0.40634049  0.33830427  0.63073113  1
  Cr  Cr12  1  0.59370435  0.66169850  0.13075639  1
  Cr  Cr13  1  0.66171448  0.59380768  0.86927264  1
  Cr  Cr14  1  0.83835040  0.09367043  0.38071059  1
  Cr  Cr15  1  0.90628941  0.16162175  0.11929872  1
  O  O16  1  0.03984012  0.95090390  0.37613073  1
  O  O17  1  0.04876221  0.34993943  0.07633458  1
  O  O18  1  0.04910297  0.96014648  0.12387506  1
  O  O19  1  0.13245128  0.70831942  0.95825632  1
  O  O20  1  0.15012965  0.54872191  0.32634002  1
  O  O21  1  0.20833522  0.36756608  0.70827917  1
  O  O22  1  0.19297433  0.80703904  0.74997928  1
  O  O23  1  0.30708501  0.30706698  0.50000517  1
  O  O24  1  0.29168084  0.86757990  0.54171360  1
  O  O25  1  0.34989364  0.04876851  0.92366589  1
  O  O26  1  0.36757464  0.20833712  0.29172503  1
  O  O27  1  0.45087215  0.46009160  0.12612360  1
  O  O28  1  0.45126731  0.84986308  0.17365724  1
  O  O29  1  0.46009922  0.45086387  0.87387522  1
  O  O30  1  0.53990344  0.54912212  0.37387346  1
  O  O31  1  0.54873700  0.15014721  0.67366434  1
  O  O32  1  0.54913418  0.53991872  0.62612364  1
  O  O33  1  0.63242395  0.79160579  0.79175847  1
  O  O34  1  0.65009778  0.95122657  0.42367235  1
  O  O35  1  0.70838778  0.13243296  0.04173419  1
  O  O36  1  0.69293571  0.69290812  0.00002731  1
  O  O37  1  0.80706383  0.19291830  0.25000171  1
  O  O38  1  0.79167376  0.63243994  0.20829867  1
  O  O39  1  0.84988152  0.45125086  0.82633454  1
  O  O40  1  0.86754144  0.29167833  0.45827911  1
  O  O41  1  0.95091806  0.03984441  0.62387545  1
  O  O42  1  0.95123673  0.65006683  0.57633485  1
  O  O43  1  0.96015843  0.04908027  0.87611334  1
