# generated using pymatgen
data_Ba5Sc6O14
_symmetry_space_group_name_H-M   'P 1'
_cell_length_a   8.99220328
_cell_length_b   8.99220328
_cell_length_c   11.79697066
_cell_angle_alpha   90.00000000
_cell_angle_beta   90.00000000
_cell_angle_gamma   92.24618193
_symmetry_Int_Tables_number   1
_chemical_formula_structural   Ba5Sc6O14
_chemical_formula_sum   'Ba10 Sc12 O28'
_cell_volume   953.16681471
_cell_formula_units_Z   2
loop_
 _symmetry_equiv_pos_site_id
 _symmetry_equiv_pos_as_xyz
  1  'x, y, z'
loop_
 _atom_site_type_symbol
 _atom_site_label
 _atom_site_symmetry_multiplicity
 _atom_site_fract_x
 _atom_site_fract_y
 _atom_site_fract_z
 _atom_site_occupancy
  Ba  Ba0  1  0.27027483  0.95389730  0.25309043  1
  Ba  Ba1  1  0.04610270  0.72972517  0.75309043  1
  Ba  Ba2  1  0.67976653  0.96105143  0.19786041  1
  Ba  Ba3  1  0.03894857  0.32023347  0.69786041  1
  Ba  Ba4  1  0.52122044  0.52122044  0.23901868  1
  Ba  Ba5  1  0.47877956  0.47877956  0.73901868  1
  Ba  Ba6  1  0.96105143  0.67976653  0.19786041  1
  Ba  Ba7  1  0.32023347  0.03894857  0.69786041  1
  Ba  Ba8  1  0.72972517  0.04610270  0.75309043  1
  Ba  Ba9  1  0.95389730  0.27027483  0.25309043  1
  Sc  Sc10  1  0.35555012  0.84127565  0.97436454  1
  Sc  Sc11  1  0.15872435  0.64444988  0.47436454  1
  Sc  Sc12  1  0.50448815  0.78912145  0.50806251  1
  Sc  Sc13  1  0.21087855  0.49551185  0.00806251  1
  Sc  Sc14  1  0.70101491  0.70101491  0.93893414  1
  Sc  Sc15  1  0.00359456  0.00359456  0.96715665  1
  Sc  Sc16  1  0.29898509  0.29898509  0.43893414  1
  Sc  Sc17  1  0.99640544  0.99640544  0.46715665  1
  Sc  Sc18  1  0.78912145  0.50448815  0.50806251  1
  Sc  Sc19  1  0.49551185  0.21087855  0.00806251  1
  Sc  Sc20  1  0.84127565  0.35555012  0.97436454  1
  Sc  Sc21  1  0.64444988  0.15872435  0.47436454  1
  O  O22  1  0.06531595  0.80967321  0.38980418  1
  O  O23  1  0.19032679  0.93468405  0.88980418  1
  O  O24  1  0.30124598  0.74829123  0.58122364  1
  O  O25  1  0.25170877  0.69875402  0.08122364  1
  O  O26  1  0.00628074  0.44050561  0.07241372  1
  O  O27  1  0.55949439  0.99371926  0.57241372  1
  O  O28  1  0.49045563  0.80426933  0.34221622  1
  O  O29  1  0.19573067  0.50954437  0.84221622  1
  O  O30  1  0.23859878  0.49130225  0.37073291  1
  O  O31  1  0.50869775  0.76140122  0.87073291  1
  O  O32  1  0.85721645  0.85721645  0.89487928  1
  O  O33  1  0.36924111  0.36924111  0.06699735  1
  O  O34  1  0.69681230  0.69681230  0.10456765  1
  O  O35  1  0.14278355  0.14278355  0.39487928  1
  O  O36  1  0.00949920  0.00949920  0.63303214  1
  O  O37  1  0.30318770  0.30318770  0.60456765  1
  O  O38  1  0.99050080  0.99050080  0.13303214  1
  O  O39  1  0.63075889  0.63075889  0.56699735  1
  O  O40  1  0.49130225  0.23859878  0.37073291  1
  O  O41  1  0.76140122  0.50869775  0.87073291  1
  O  O42  1  0.50954437  0.19573067  0.84221622  1
  O  O43  1  0.80426933  0.49045563  0.34221622  1
  O  O44  1  0.99371926  0.55949439  0.57241372  1
  O  O45  1  0.44050561  0.00628074  0.07241372  1
  O  O46  1  0.69875402  0.25170877  0.08122364  1
  O  O47  1  0.74829123  0.30124598  0.58122364  1
  O  O48  1  0.80967321  0.06531595  0.38980418  1
  O  O49  1  0.93468405  0.19032679  0.88980418  1
