# generated using pymatgen
data_Mn3TeO8
_symmetry_space_group_name_H-M   'P 1'
_cell_length_a   5.98561749
_cell_length_b   5.99618861
_cell_length_c   9.31289590
_cell_angle_alpha   90.00556363
_cell_angle_beta   89.99721799
_cell_angle_gamma   120.05843870
_symmetry_Int_Tables_number   1
_chemical_formula_structural   Mn3TeO8
_chemical_formula_sum   'Mn6 Te2 O16'
_cell_volume   289.29676636
_cell_formula_units_Z   2
loop_
 _symmetry_equiv_pos_site_id
 _symmetry_equiv_pos_as_xyz
  1  'x, y, z'
loop_
 _atom_site_type_symbol
 _atom_site_label
 _atom_site_symmetry_multiplicity
 _atom_site_fract_x
 _atom_site_fract_y
 _atom_site_fract_z
 _atom_site_occupancy
  Mn  Mn0  1  0.16786425  0.83233307  0.20855801  1
  Mn  Mn1  1  0.16787563  0.33557039  0.20855782  1
  Mn  Mn2  1  0.66546408  0.83275589  0.20781324  1
  Mn  Mn3  1  0.33453592  0.16729182  0.70781324  1
  Mn  Mn4  1  0.83213575  0.66446883  0.70855801  1
  Mn  Mn5  1  0.83212437  0.16769476  0.70855782  1
  Te  Te6  1  0.33264467  0.66633536  0.48483249  1
  Te  Te7  1  0.66735533  0.33369069  0.98483249  1
  O  O8  1  0.17294528  0.82441085  0.59670295  1
  O  O9  1  0.04058062  0.52025693  0.34809788  1
  O  O10  1  0.33318562  0.66659085  0.11487433  1
  O  O11  1  0.00026517  0.00015299  0.29734535  1
  O  O12  1  0.99973483  0.99988782  0.79734535  1
  O  O13  1  0.17293857  0.34857175  0.59671401  1
  O  O14  1  0.47759877  0.95835207  0.34879249  1
  O  O15  1  0.47756737  0.51921716  0.34877071  1
  O  O16  1  0.34855125  0.17429283  0.09679973  1
  O  O17  1  0.65144875  0.82574158  0.59679973  1
  O  O18  1  0.52240123  0.48075330  0.84879249  1
  O  O19  1  0.52243263  0.04164979  0.84877071  1
  O  O20  1  0.66681438  0.33340523  0.61487533  1
  O  O21  1  0.82705472  0.65146457  0.09670295  1
  O  O22  1  0.95941938  0.47967731  0.84809788  1
  O  O23  1  0.82706143  0.17563318  0.09671401  1
