# generated using pymatgen
data_Lu2(WO4)3
_symmetry_space_group_name_H-M   'P 1'
_cell_length_a   6.84509889
_cell_length_b   6.84509889
_cell_length_c   11.30470096
_cell_angle_alpha   78.96062376
_cell_angle_beta   101.03937624
_cell_angle_gamma   67.84662252
_symmetry_Int_Tables_number   1
_chemical_formula_structural   Lu2(WO4)3
_chemical_formula_sum   'Lu4 W6 O24'
_cell_volume   460.80273379
_cell_formula_units_Z   2
loop_
 _symmetry_equiv_pos_site_id
 _symmetry_equiv_pos_as_xyz
  1  'x, y, z'
loop_
 _atom_site_type_symbol
 _atom_site_label
 _atom_site_symmetry_multiplicity
 _atom_site_fract_x
 _atom_site_fract_y
 _atom_site_fract_z
 _atom_site_occupancy
  Lu  Lu0  1  0.30496014  0.95083730  0.59212233  1
  Lu  Lu1  1  0.04916270  0.69503986  0.09212233  1
  Lu  Lu2  1  0.95083730  0.30496014  0.90787767  1
  Lu  Lu3  1  0.69503986  0.04916270  0.40787767  1
  W  W4  1  0.48925287  0.79466765  0.94967555  1
  W  W5  1  0.20533235  0.51074713  0.44967555  1
  W  W6  1  0.88181434  0.88181434  0.75000000  1
  W  W7  1  0.11818566  0.11818566  0.25000000  1
  W  W8  1  0.79466765  0.48925287  0.55032445  1
  W  W9  1  0.51074713  0.20533235  0.05032445  1
  O  O10  1  0.34330818  0.79809786  0.79492468  1
  O  O11  1  0.58722062  0.99082231  0.71928285  1
  O  O12  1  0.97362629  0.94630912  0.89634469  1
  O  O13  1  0.33103598  0.61014682  0.56254903  1
  O  O14  1  0.78395485  0.61672227  0.96173594  1
  O  O15  1  0.10513244  0.31756936  0.57604476  1
  O  O16  1  0.20190214  0.65669182  0.29492468  1
  O  O17  1  0.31756936  0.10513244  0.92395524  1
  O  O18  1  0.61672227  0.78395485  0.53826406  1
  O  O19  1  0.61014682  0.33103598  0.93745097  1
  O  O20  1  0.94630912  0.97362629  0.60365531  1
  O  O21  1  0.00917769  0.41277938  0.21928285  1
  O  O22  1  0.99082231  0.58722062  0.78071715  1
  O  O23  1  0.05369088  0.02637371  0.39634469  1
  O  O24  1  0.38985318  0.66896402  0.06254903  1
  O  O25  1  0.38327773  0.21604515  0.46173594  1
  O  O26  1  0.68243064  0.89486756  0.07604476  1
  O  O27  1  0.79809786  0.34330818  0.70507532  1
  O  O28  1  0.89486756  0.68243064  0.42395524  1
  O  O29  1  0.21604515  0.38327773  0.03826406  1
  O  O30  1  0.66896402  0.38985318  0.43745097  1
  O  O31  1  0.02637371  0.05369088  0.10365531  1
  O  O32  1  0.41277938  0.00917769  0.28071715  1
  O  O33  1  0.65669182  0.20190214  0.20507532  1
