# generated using pymatgen
data_NaFe2(SiO3)4
_symmetry_space_group_name_H-M   'P 1'
_cell_length_a   6.60278599
_cell_length_b   6.60278599
_cell_length_c   5.36464311
_cell_angle_alpha   76.60311112
_cell_angle_beta   103.39688888
_cell_angle_gamma   95.74185078
_symmetry_Int_Tables_number   1
_chemical_formula_structural   NaFe2(SiO3)4
_chemical_formula_sum   'Na1 Fe2 Si4 O12'
_cell_volume   221.06003133
_cell_formula_units_Z   1
loop_
 _symmetry_equiv_pos_site_id
 _symmetry_equiv_pos_as_xyz
  1  'x, y, z'
loop_
 _atom_site_type_symbol
 _atom_site_label
 _atom_site_symmetry_multiplicity
 _atom_site_fract_x
 _atom_site_fract_y
 _atom_site_fract_z
 _atom_site_occupancy
  Na  Na0  1  0.70329193  0.70329193  0.75000000  1
  Fe  Fe1  1  0.10503787  0.10503787  0.75000000  1
  Fe  Fe2  1  0.90268923  0.90268923  0.25000000  1
  Si  Si3  1  0.20566554  0.61922391  0.73874065  1
  Si  Si4  1  0.37859110  0.79473059  0.23323713  1
  Si  Si5  1  0.61922391  0.20566554  0.76125935  1
  Si  Si6  1  0.79473059  0.37859110  0.26676287  1
  O  O7  1  0.03590824  0.80548179  0.63930738  1
  O  O8  1  0.18679932  0.95692878  0.13202861  1
  O  O9  1  0.09601556  0.38734600  0.78575576  1
  O  O10  1  0.35012385  0.64788599  0.51950545  1
  O  O11  1  0.61547239  0.89468030  0.29776882  1
  O  O12  1  0.36284930  0.65315829  0.01424524  1
  O  O13  1  0.64788599  0.35012385  0.98049455  1
  O  O14  1  0.38734600  0.09601556  0.71424424  1
  O  O15  1  0.65315829  0.36284930  0.48575476  1
  O  O16  1  0.89468030  0.61547239  0.20223118  1
  O  O17  1  0.80548179  0.03590824  0.86069262  1
  O  O18  1  0.95692878  0.18679932  0.36797139  1
