# generated using pymatgen
data_SrLaCl5
_symmetry_space_group_name_H-M   'P 1'
_cell_length_a   13.88667430
_cell_length_b   9.26424091
_cell_length_c   12.66715619
_cell_angle_alpha   90.00000000
_cell_angle_beta   86.78132760
_cell_angle_gamma   90.00000000
_symmetry_Int_Tables_number   1
_chemical_formula_structural   SrLaCl5
_chemical_formula_sum   'Sr8 La8 Cl40'
_cell_volume   1627.05256296
_cell_formula_units_Z   8
loop_
 _symmetry_equiv_pos_site_id
 _symmetry_equiv_pos_as_xyz
  1  'x, y, z'
loop_
 _atom_site_type_symbol
 _atom_site_label
 _atom_site_symmetry_multiplicity
 _atom_site_fract_x
 _atom_site_fract_y
 _atom_site_fract_z
 _atom_site_occupancy
  Sr  Sr0  1  0.23119997  0.75536760  0.84321907  1
  Sr  Sr1  1  0.28277721  0.75385680  0.48174312  1
  Sr  Sr2  1  0.26880003  0.25536760  0.65678093  1
  Sr  Sr3  1  0.21722279  0.25385680  0.01825688  1
  Sr  Sr4  1  0.78277721  0.74614320  0.98174312  1
  Sr  Sr5  1  0.73119997  0.74463240  0.34321907  1
  Sr  Sr6  1  0.71722279  0.24614320  0.51825688  1
  Sr  Sr7  1  0.76880003  0.24463240  0.15678093  1
  La  La8  1  0.97542868  0.25283479  0.80677442  1
  La  La9  1  0.09671614  0.25490810  0.36298841  1
  La  La10  1  0.40328386  0.75490810  0.13701159  1
  La  La11  1  0.52457132  0.75283479  0.69322558  1
  La  La12  1  0.47542868  0.24716521  0.30677442  1
  La  La13  1  0.59671614  0.24509190  0.86298841  1
  La  La14  1  0.90328386  0.74509190  0.63701159  1
  La  La15  1  0.02457132  0.74716521  0.19322558  1
  Cl  Cl16  1  0.04066723  0.27275712  0.59664630  1
  Cl  Cl17  1  0.10767151  0.74421049  0.64103172  1
  Cl  Cl18  1  0.05127405  0.76346054  0.98003438  1
  Cl  Cl19  1  0.15025983  0.42960063  0.83498919  1
  Cl  Cl20  1  0.07753435  0.04584058  0.20438768  1
  Cl  Cl21  1  0.08409856  0.44236193  0.18657524  1
  Cl  Cl22  1  0.15400681  0.07862162  0.82673846  1
  Cl  Cl23  1  0.21330649  0.45286414  0.46445962  1
  Cl  Cl24  1  0.20064937  0.05074796  0.47397240  1
  Cl  Cl25  1  0.21408581  0.74381336  0.26580048  1
  Cl  Cl26  1  0.34599319  0.57862162  0.67326154  1
  Cl  Cl27  1  0.28591419  0.24381336  0.23419952  1
  Cl  Cl28  1  0.29935063  0.55074796  0.02602760  1
  Cl  Cl29  1  0.28669351  0.95286414  0.03554038  1
  Cl  Cl30  1  0.34974017  0.92960063  0.66501081  1
  Cl  Cl31  1  0.39232849  0.24421049  0.85896828  1
  Cl  Cl32  1  0.41590144  0.94236193  0.31342476  1
  Cl  Cl33  1  0.42246565  0.54584058  0.29561232  1
  Cl  Cl34  1  0.45933277  0.77275712  0.90335370  1
  Cl  Cl35  1  0.44872595  0.26346054  0.51996562  1
  Cl  Cl36  1  0.55127405  0.73653946  0.48003438  1
  Cl  Cl37  1  0.54066723  0.22724288  0.09664630  1
  Cl  Cl38  1  0.57753435  0.45415942  0.70438768  1
  Cl  Cl39  1  0.58409856  0.05763807  0.68657524  1
  Cl  Cl40  1  0.60767151  0.75578951  0.14103172  1
  Cl  Cl41  1  0.65025983  0.07039937  0.33498919  1
  Cl  Cl42  1  0.71330649  0.04713586  0.96445962  1
  Cl  Cl43  1  0.70064937  0.44925204  0.97397240  1
  Cl  Cl44  1  0.71408581  0.75618664  0.76580048  1
  Cl  Cl45  1  0.65400681  0.42137838  0.32673846  1
  Cl  Cl46  1  0.78591419  0.25618664  0.73419952  1
  Cl  Cl47  1  0.79935063  0.94925204  0.52602760  1
  Cl  Cl48  1  0.78669351  0.54713586  0.53554038  1
  Cl  Cl49  1  0.84599319  0.92137838  0.17326154  1
  Cl  Cl50  1  0.91590144  0.55763807  0.81342476  1
  Cl  Cl51  1  0.92246565  0.95415942  0.79561232  1
  Cl  Cl52  1  0.84974017  0.57039937  0.16501081  1
  Cl  Cl53  1  0.94872595  0.23653946  0.01996562  1
  Cl  Cl54  1  0.89232849  0.25578951  0.35896828  1
  Cl  Cl55  1  0.95933277  0.72724288  0.40335370  1
