# generated using pymatgen
data_LiNbCrO4
_symmetry_space_group_name_H-M   'P 1'
_cell_length_a   6.30829159
_cell_length_b   6.30819600
_cell_length_c   8.46472208
_cell_angle_alpha   89.99784254
_cell_angle_beta   90.00281267
_cell_angle_gamma   89.99858358
_symmetry_Int_Tables_number   1
_chemical_formula_structural   LiNbCrO4
_chemical_formula_sum   'Li4 Nb4 Cr4 O16'
_cell_volume   336.84464029
_cell_formula_units_Z   4
loop_
 _symmetry_equiv_pos_site_id
 _symmetry_equiv_pos_as_xyz
  1  'x, y, z'
loop_
 _atom_site_type_symbol
 _atom_site_label
 _atom_site_symmetry_multiplicity
 _atom_site_fract_x
 _atom_site_fract_y
 _atom_site_fract_z
 _atom_site_occupancy
  Li  Li0  1  -0.00000016  0.23167921  0.99994573  1
  Li  Li1  1  0.99999485  0.76828818  0.50004876  1
  Li  Li2  1  0.23172606  0.99997997  0.24998265  1
  Li  Li3  1  0.76827275  0.99997551  0.75000378  1
  Nb  Nb4  1  0.24949730  0.24944383  0.62499138  1
  Nb  Nb5  1  0.24948480  0.75056940  0.87498787  1
  Nb  Nb6  1  0.75052723  0.24951206  0.37498178  1
  Nb  Nb7  1  0.75054525  0.75051417  0.12502466  1
  Cr  Cr8  1  0.24238354  0.49996859  0.25002039  1
  Cr  Cr9  1  0.49995195  0.24254409  0.00001901  1
  Cr  Cr10  1  0.49999929  0.75758372  0.49996191  1
  Cr  Cr11  1  0.75761346  0.49991765  0.74998622  1
  O  O12  1  0.99732713  0.25177799  0.25346348  1
  O  O13  1  0.99737248  0.74815239  0.24654903  1
  O  O14  1  0.25169682  0.99730428  0.99657600  1
  O  O15  1  0.25170178  0.00271899  0.50341550  1
  O  O16  1  0.25414688  0.50362351  0.00690204  1
  O  O17  1  0.25419055  0.49640884  0.49310822  1
  O  O18  1  0.50355095  0.25429849  0.24311519  1
  O  O19  1  0.50359385  0.74576579  0.25689043  1
  O  O20  1  0.49638223  0.25413601  0.75697297  1
  O  O21  1  0.49637483  0.74588681  0.74302718  1
  O  O22  1  0.74586400  0.49636324  0.50696031  1
  O  O23  1  0.74587108  0.50362628  0.99307618  1
  O  O24  1  0.74825291  0.99735530  0.00354270  1
  O  O25  1  0.74826380  0.00267500  0.49645459  1
  O  O26  1  0.00272760  0.25165039  0.74656622  1
  O  O27  1  0.00268681  0.74828028  0.75342581  1
