# generated using pymatgen
data_Li4FeCu3O8
_symmetry_space_group_name_H-M   'P 1'
_cell_length_a   10.23854153
_cell_length_b   10.23871885
_cell_length_c   14.49022750
_cell_angle_alpha   19.35001864
_cell_angle_beta   19.35030840
_cell_angle_gamma   33.35069808
_symmetry_Int_Tables_number   1
_chemical_formula_structural   Li4FeCu3O8
_chemical_formula_sum   'Li4 Fe1 Cu3 O8'
_cell_volume   144.42478131
_cell_formula_units_Z   1
loop_
 _symmetry_equiv_pos_site_id
 _symmetry_equiv_pos_as_xyz
  1  'x, y, z'
loop_
 _atom_site_type_symbol
 _atom_site_label
 _atom_site_symmetry_multiplicity
 _atom_site_fract_x
 _atom_site_fract_y
 _atom_site_fract_z
 _atom_site_occupancy
  Li  Li0  1  0.00000015  0.00000184  0.50000044  1
  Li  Li1  1  0.00000068  0.50000213  0.50000032  1
  Li  Li2  1  0.50000088  0.00000326  0.49999915  1
  Li  Li3  1  0.49999922  0.50000115  0.50000198  1
  Fe  Fe4  1  0.00001287  0.00002132  0.99996486  1
  Cu  Cu5  1  -0.00000524  0.49999694  0.00000854  1
  Cu  Cu6  1  0.49999315  0.99997162  0.00001555  1
  Cu  Cu7  1  0.49999993  0.50000365  -0.00000381  1
  O  O8  1  0.99990448  0.99993058  0.25757890  1
  O  O9  1  -0.00002523  0.50015273  0.25576118  1
  O  O10  1  0.50013641  0.00000534  0.25575437  1
  O  O11  1  0.00009490  0.00007223  0.74242250  1
  O  O12  1  0.49983209  0.49985237  0.25608213  1
  O  O13  1  0.00002419  0.49984325  0.74424579  1
  O  O14  1  0.49986343  -0.00001068  0.74425220  1
  O  O15  1  0.50016910  0.50015227  0.74391591  1
