# generated using pymatgen
data_Li2Ti13O22
_symmetry_space_group_name_H-M   'P 1'
_cell_length_a   7.67994734
_cell_length_b   14.05668148
_cell_length_c   7.67994734
_cell_angle_alpha   90.00000000
_cell_angle_beta   97.84195022
_cell_angle_gamma   90.00000000
_symmetry_Int_Tables_number   1
_chemical_formula_structural   Li2Ti13O22
_chemical_formula_sum   'Li4 Ti26 O44'
_cell_volume   821.33200538
_cell_formula_units_Z   2
loop_
 _symmetry_equiv_pos_site_id
 _symmetry_equiv_pos_as_xyz
  1  'x, y, z'
loop_
 _atom_site_type_symbol
 _atom_site_label
 _atom_site_symmetry_multiplicity
 _atom_site_fract_x
 _atom_site_fract_y
 _atom_site_fract_z
 _atom_site_occupancy
  Li  Li0  1  0.33411147  0.08718133  0.33411147  1
  Li  Li1  1  0.83411147  0.41281867  0.83411147  1
  Li  Li2  1  0.16588853  0.58718133  0.16588853  1
  Li  Li3  1  0.66588853  0.91281867  0.66588853  1
  Ti  Ti4  1  0.20110821  0.82235180  0.94347483  1
  Ti  Ti5  1  0.05652517  0.17764820  0.79889179  1
  Ti  Ti6  1  0.23838189  0.50000000  0.76161811  1
  Ti  Ti7  1  0.43260631  0.34858944  0.92597754  1
  Ti  Ti8  1  0.07402246  0.65141056  0.56739369  1
  Ti  Ti9  1  0.42597754  0.15141056  0.93260631  1
  Ti  Ti10  1  0.06739369  0.84858944  0.57402246  1
  Ti  Ti11  1  0.26161811  0.00000000  0.73838189  1
  Ti  Ti12  1  0.44347483  0.67764820  0.70110821  1
  Ti  Ti13  1  0.29889179  0.32235180  0.55652517  1
  Ti  Ti14  1  0.00000000  0.00000000  0.00000000  1
  Ti  Ti15  1  0.66246378  0.16135505  0.66246378  1
  Ti  Ti16  1  0.16246378  0.33864495  0.16246378  1
  Ti  Ti17  1  0.50000000  0.50000000  0.50000000  1
  Ti  Ti18  1  0.33753622  0.83864495  0.33753622  1
  Ti  Ti19  1  0.83753622  0.66135505  0.83753622  1
  Ti  Ti20  1  0.55652517  0.32235180  0.29889179  1
  Ti  Ti21  1  0.70110821  0.67764820  0.44347483  1
  Ti  Ti22  1  0.73838189  0.00000000  0.26161811  1
  Ti  Ti23  1  0.93260631  0.15141056  0.42597754  1
  Ti  Ti24  1  0.57402246  0.84858944  0.06739369  1
  Ti  Ti25  1  0.56739369  0.65141056  0.07402246  1
  Ti  Ti26  1  0.92597754  0.34858944  0.43260631  1
  Ti  Ti27  1  0.76161811  0.50000000  0.23838189  1
  Ti  Ti28  1  0.79889179  0.17764820  0.05652517  1
  Ti  Ti29  1  0.94347483  0.82235180  0.20110821  1
  O  O30  1  0.21789564  0.42133150  0.97493394  1
  O  O31  1  0.02506606  0.57866850  0.78210436  1
  O  O32  1  0.21128268  0.08032007  0.96294294  1
  O  O33  1  0.03705706  0.91967993  0.78871732  1
  O  O34  1  0.40092481  0.90931266  0.89821580  1
  O  O35  1  0.10178420  0.09068734  0.59907519  1
  O  O36  1  0.27519241  0.25000000  0.77519241  1
  O  O37  1  0.22480759  0.75000000  0.72480759  1
  O  O38  1  0.39821580  0.59068734  0.90092481  1
  O  O39  1  0.09907519  0.40931266  0.60178420  1
  O  O40  1  0.62416454  0.24567693  0.88190112  1
  O  O41  1  0.61809888  0.74567693  0.87583546  1
  O  O42  1  0.12416454  0.25432307  0.38190112  1
  O  O43  1  0.11809888  0.75432307  0.37583546  1
  O  O44  1  0.46294294  0.41967993  0.71128268  1
  O  O45  1  0.28871732  0.58032007  0.53705706  1
  O  O46  1  0.47493394  0.07866850  0.71789564  1
  O  O47  1  0.28210436  0.92133150  0.52506606  1
  O  O48  1  0.84449804  0.09560572  0.84449804  1
  O  O49  1  0.50344983  0.24495513  0.50344983  1
  O  O50  1  0.00344983  0.25504487  0.00344983  1
  O  O51  1  0.34449804  0.40439428  0.34449804  1
  O  O52  1  0.65550196  0.59560572  0.65550196  1
  O  O53  1  0.49655017  0.75504487  0.49655017  1
  O  O54  1  0.15550196  0.90439428  0.15550196  1
  O  O55  1  0.99655017  0.74495513  0.99655017  1
  O  O56  1  0.71789564  0.07866850  0.47493394  1
  O  O57  1  0.52506606  0.92133150  0.28210436  1
  O  O58  1  0.71128268  0.41967993  0.46294294  1
  O  O59  1  0.53705706  0.58032007  0.28871732  1
  O  O60  1  0.38190112  0.25432307  0.12416454  1
  O  O61  1  0.37583546  0.75432307  0.11809888  1
  O  O62  1  0.88190112  0.24567693  0.62416454  1
  O  O63  1  0.87583546  0.74567693  0.61809888  1
  O  O64  1  0.60178420  0.40931266  0.09907519  1
  O  O65  1  0.90092481  0.59068734  0.39821580  1
  O  O66  1  0.77519241  0.25000000  0.27519241  1
  O  O67  1  0.72480759  0.75000000  0.22480759  1
  O  O68  1  0.59907519  0.09068734  0.10178420  1
  O  O69  1  0.89821580  0.90931266  0.40092481  1
  O  O70  1  0.96294294  0.08032007  0.21128268  1
  O  O71  1  0.78871732  0.91967993  0.03705706  1
  O  O72  1  0.97493394  0.42133150  0.21789564  1
  O  O73  1  0.78210436  0.57866850  0.02506606  1
