# generated using pymatgen
data_Mn3Cr(PO4)6
_symmetry_space_group_name_H-M   'P 1'
_cell_length_a   8.66490755
_cell_length_b   8.66490855
_cell_length_c   8.66490835
_cell_angle_alpha   58.13087593
_cell_angle_beta   58.13087380
_cell_angle_gamma   58.13087376
_symmetry_Int_Tables_number   1
_chemical_formula_structural   Mn3Cr(PO4)6
_chemical_formula_sum   'Mn3 Cr1 P6 O24'
_cell_volume   440.31052648
_cell_formula_units_Z   1
loop_
 _symmetry_equiv_pos_site_id
 _symmetry_equiv_pos_as_xyz
  1  'x, y, z'
loop_
 _atom_site_type_symbol
 _atom_site_label
 _atom_site_symmetry_multiplicity
 _atom_site_fract_x
 _atom_site_fract_y
 _atom_site_fract_z
 _atom_site_occupancy
  Mn  Mn0  1  0.14413831  0.14413831  0.14413831  1
  Mn  Mn1  1  0.35644797  0.35644797  0.35644797  1
  Mn  Mn2  1  0.64436235  0.64436235  0.64436235  1
  Cr  Cr3  1  0.85761044  0.85761044  0.85761044  1
  P  P4  1  0.03449640  0.74981490  0.46429685  1
  P  P5  1  0.46429685  0.03449640  0.74981490  1
  P  P6  1  0.74981490  0.46429685  0.03449640  1
  P  P7  1  0.25183494  0.53238937  0.96710455  1
  P  P8  1  0.53238937  0.96710455  0.25183494  1
  P  P9  1  0.96710455  0.25183494  0.53238937  1
  O  O10  1  0.14309105  0.27044375  0.51400353  1
  O  O11  1  0.27044375  0.51400353  0.14309105  1
  O  O12  1  0.05802540  0.92723205  0.27988897  1
  O  O13  1  0.51400353  0.14309105  0.27044375  1
  O  O14  1  0.21992145  0.57229811  0.44517957  1
  O  O15  1  0.00655498  0.78107949  0.63822609  1
  O  O16  1  0.27988897  0.05802540  0.92723205  1
  O  O17  1  0.44517957  0.21992145  0.57229811  1
  O  O18  1  0.57229811  0.44517957  0.21992145  1
  O  O19  1  0.22723734  0.35831221  0.98841248  1
  O  O20  1  0.07481611  0.71853354  0.93699286  1
  O  O21  1  0.35831221  0.98841248  0.22723734  1
  O  O22  1  0.63822609  0.00655498  0.78107949  1
  O  O23  1  0.92723205  0.27988897  0.05802540  1
  O  O24  1  0.78107949  0.63822609  0.00655498  1
  O  O25  1  0.42573019  0.56024201  0.77978181  1
  O  O26  1  0.56024201  0.77978181  0.42573019  1
  O  O27  1  0.71853354  0.93699286  0.07481611  1
  O  O28  1  0.98841248  0.22723734  0.35831221  1
  O  O29  1  0.77978181  0.42573019  0.56024201  1
  O  O30  1  0.48619593  0.85968099  0.72562301  1
  O  O31  1  0.93699286  0.07481611  0.71853354  1
  O  O32  1  0.72562301  0.48619593  0.85968099  1
  O  O33  1  0.85968099  0.72562301  0.48619593  1
