# generated using pymatgen
data_Li4Cr3Fe3(SbO8)2
_symmetry_space_group_name_H-M   'P 1'
_cell_length_a   5.95488414
_cell_length_b   5.96858730
_cell_length_c   9.65235876
_cell_angle_alpha   89.99111064
_cell_angle_beta   89.82775121
_cell_angle_gamma   120.06525147
_symmetry_Int_Tables_number   1
_chemical_formula_structural   Li4Cr3Fe3(SbO8)2
_chemical_formula_sum   'Li4 Cr3 Fe3 Sb2 O16'
_cell_volume   296.90687871
_cell_formula_units_Z   1
loop_
 _symmetry_equiv_pos_site_id
 _symmetry_equiv_pos_as_xyz
  1  'x, y, z'
loop_
 _atom_site_type_symbol
 _atom_site_label
 _atom_site_symmetry_multiplicity
 _atom_site_fract_x
 _atom_site_fract_y
 _atom_site_fract_z
 _atom_site_occupancy
  Li  Li0  1  0.33132243  0.66561915  0.90760020  1
  Li  Li1  1  0.00099471  0.00043194  0.99659681  1
  Li  Li2  1  0.00330796  0.00174908  0.49867917  1
  Li  Li3  1  0.66661641  0.33331973  0.41172198  1
  Cr  Cr4  1  0.65745035  0.82872218  0.22085731  1
  Cr  Cr5  1  0.83053590  0.66070563  0.72088760  1
  Cr  Cr6  1  0.83047581  0.16981872  0.72092385  1
  Fe  Fe7  1  0.16794077  0.82859892  0.22165609  1
  Fe  Fe8  1  0.16795656  0.33934572  0.22166039  1
  Fe  Fe9  1  0.34329404  0.17167237  0.72079695  1
  Sb  Sb10  1  0.33624913  0.66813947  0.49831577  1
  Sb  Sb11  1  0.66313499  0.33161577  0.99174749  1
  O  O12  1  0.16902381  0.83863882  0.60367956  1
  O  O13  1  0.03721124  0.51861589  0.35810281  1
  O  O14  1  0.32885497  0.66440534  0.11374100  1
  O  O15  1  0.99927916  0.99965901  0.31153544  1
  O  O16  1  0.01005371  0.00495742  0.81081170  1
  O  O17  1  0.16900082  0.33042880  0.60372167  1
  O  O18  1  0.48564162  0.96373305  0.35337866  1
  O  O19  1  0.48574925  0.52199777  0.35343459  1
  O  O20  1  0.67202070  0.83608877  0.60431623  1
  O  O21  1  0.33236018  0.16621324  0.10191796  1
  O  O22  1  0.51456338  0.47950007  0.84831915  1
  O  O23  1  0.51453869  0.03511368  0.84837742  1
  O  O24  1  0.82989699  0.66556283  0.10098613  1
  O  O25  1  0.66039449  0.33028956  0.61786248  1
  O  O26  1  0.96222891  0.48104534  0.84923665  1
  O  O27  1  0.82990103  0.16431072  0.10097494  1
