# generated using pymatgen
data_La4CuO8
_symmetry_space_group_name_H-M   'P 1'
_cell_length_a   5.27671700
_cell_length_b   7.04592710
_cell_length_c   5.28760692
_cell_angle_alpha   112.04286273
_cell_angle_beta   89.99938950
_cell_angle_gamma   89.99863548
_symmetry_Int_Tables_number   1
_chemical_formula_structural   La4CuO8
_chemical_formula_sum   'La4 Cu1 O8'
_cell_volume   182.21979919
_cell_formula_units_Z   1
loop_
 _symmetry_equiv_pos_site_id
 _symmetry_equiv_pos_as_xyz
  1  'x, y, z'
loop_
 _atom_site_type_symbol
 _atom_site_label
 _atom_site_symmetry_multiplicity
 _atom_site_fract_x
 _atom_site_fract_y
 _atom_site_fract_z
 _atom_site_occupancy
  La  La0  1  -0.00000984  0.26879497  0.63439442  1
  La  La1  1  0.99998899  0.73122556  0.36560607  1
  La  La2  1  0.49997465  0.27288021  0.13645351  1
  La  La3  1  0.50001615  0.72710564  0.86357533  1
  Cu  Cu4  1  -0.00001173  0.00000165  0.00001243  1
  O  O5  1  0.00002213  0.36294795  0.18141165  1
  O  O6  1  0.00000177  0.63705568  0.81857639  1
  O  O7  1  0.24380574  0.00001928  0.75432929  1
  O  O8  1  0.24378702  0.99997384  0.24564818  1
  O  O9  1  0.50000322  0.37189204  0.68578259  1
  O  O10  1  0.49998036  0.62810422  0.31422311  1
  O  O11  1  0.75621680  0.00002169  0.75434238  1
  O  O12  1  0.75622374  0.99997728  0.24564466  1
