# generated using pymatgen
data_Fe5Cu(PO4)6
_symmetry_space_group_name_H-M   'P 1'
_cell_length_a   8.38817431
_cell_length_b   8.65545041
_cell_length_c   8.65545031
_cell_angle_alpha   60.00000512
_cell_angle_beta   58.94025358
_cell_angle_gamma   58.94025333
_symmetry_Int_Tables_number   1
_chemical_formula_structural   Fe5Cu(PO4)6
_chemical_formula_sum   'Fe5 Cu1 P6 O24'
_cell_volume   437.10549732
_cell_formula_units_Z   1
loop_
 _symmetry_equiv_pos_site_id
 _symmetry_equiv_pos_as_xyz
  1  'x, y, z'
loop_
 _atom_site_type_symbol
 _atom_site_label
 _atom_site_symmetry_multiplicity
 _atom_site_fract_x
 _atom_site_fract_y
 _atom_site_fract_z
 _atom_site_occupancy
  Fe  Fe0  1  0.99713243  0.00095619  0.00095619  1
  Fe  Fe1  1  0.05982270  0.64672543  0.64672543  1
  Fe  Fe2  1  0.49852482  0.50049173  0.50049173  1
  Fe  Fe3  1  0.43636295  0.85454535  0.85454535  1
  Fe  Fe4  1  0.93830165  0.35389978  0.35389978  1
  Cu  Cu5  1  0.56106970  0.14630977  0.14630977  1
  P  P6  1  0.25229598  0.25017226  0.54584392  1
  P  P7  1  0.25229598  0.95168784  0.25017226  1
  P  P8  1  0.25229598  0.54584392  0.95168784  1
  P  P9  1  0.74763852  0.45151524  0.04904395  1
  P  P10  1  0.74763852  0.04904395  0.75180129  1
  P  P11  1  0.74763852  0.75180129  0.45151524  1
  O  O12  1  0.06631614  0.10734940  0.32491679  1
  O  O13  1  0.06631614  0.50141868  0.10734940  1
  O  O14  1  0.06631614  0.32491679  0.50141868  1
  O  O15  1  0.21452553  0.09588450  0.74940442  1
  O  O16  1  0.44352883  0.18054849  0.39186891  1
  O  O17  1  0.28234726  0.40437031  0.56528803  1
  O  O18  1  0.21452553  0.94018655  0.09588450  1
  O  O19  1  0.28234726  0.74799440  0.40437031  1
  O  O20  1  0.56206494  0.60696826  0.00524500  1
  O  O21  1  0.28234726  0.56528803  0.74799440  1
  O  O22  1  0.78579453  0.24957992  0.05921016  1
  O  O23  1  0.56206494  0.00524500  0.82572281  1
  O  O24  1  0.44352883  0.98405378  0.18054849  1
  O  O25  1  0.21452553  0.74940442  0.94018655  1
  O  O26  1  0.71389950  0.43684101  0.25174973  1
  O  O27  1  0.44352883  0.39186891  0.98405378  1
  O  O28  1  0.71389950  0.25174973  0.59750976  1
  O  O29  1  0.78579453  0.05921016  0.90541639  1
  O  O30  1  0.71389950  0.59750976  0.43684101  1
  O  O31  1  0.56206494  0.82572281  0.60696826  1
  O  O32  1  0.78579453  0.90541639  0.24957992  1
  O  O33  1  0.93451902  0.67728477  0.49461605  1
  O  O34  1  0.93451902  0.49461605  0.89358016  1
  O  O35  1  0.93451902  0.89358016  0.67728477  1
