# generated using pymatgen
data_Ti2Mn3Co3O16
_symmetry_space_group_name_H-M   'P 1'
_cell_length_a   5.67784728
_cell_length_b   5.69766978
_cell_length_c   9.02587271
_cell_angle_alpha   89.99985770
_cell_angle_beta   90.69864239
_cell_angle_gamma   120.12994939
_symmetry_Int_Tables_number   1
_chemical_formula_structural   Ti2Mn3Co3O16
_chemical_formula_sum   'Ti2 Mn3 Co3 O16'
_cell_volume   252.51517535
_cell_formula_units_Z   1
loop_
 _symmetry_equiv_pos_site_id
 _symmetry_equiv_pos_as_xyz
  1  'x, y, z'
loop_
 _atom_site_type_symbol
 _atom_site_label
 _atom_site_symmetry_multiplicity
 _atom_site_fract_x
 _atom_site_fract_y
 _atom_site_fract_z
 _atom_site_occupancy
  Ti  Ti0  1  0.33041695  0.66521643  0.49513805  1
  Ti  Ti1  1  0.66653550  0.33319194  0.99681643  1
  Mn  Mn2  1  0.66561413  0.83281807  0.21345302  1
  Mn  Mn3  1  0.83283621  0.66421610  0.71388440  1
  Mn  Mn4  1  0.83285160  0.16865926  0.71390170  1
  Co  Co5  1  0.17015167  0.83285695  0.21229314  1
  Co  Co6  1  0.17018527  0.33728008  0.21233036  1
  Co  Co7  1  0.33691390  0.16846085  0.71182776  1
  O  O8  1  0.16851722  0.83842127  0.60109822  1
  O  O9  1  0.04005639  0.51997814  0.32786677  1
  O  O10  1  0.33125162  0.66563097  0.10436610  1
  O  O11  1  0.00536512  0.00268417  0.31696226  1
  O  O12  1  0.00287608  0.00147887  0.81855515  1
  O  O13  1  0.16850436  0.33008437  0.60110647  1
  O  O14  1  0.47823928  0.96200489  0.33331966  1
  O  O15  1  0.47815157  0.51624461  0.33334659  1
  O  O16  1  0.32541265  0.16275254  0.10522478  1
  O  O17  1  0.66548814  0.83275335  0.59815126  1
  O  O18  1  0.51408211  0.47639057  0.83262319  1
  O  O19  1  0.51404422  0.03768687  0.83262187  1
  O  O20  1  0.66669904  0.33332370  0.60320724  1
  O  O21  1  0.83601731  0.66728471  0.10045666  1
  O  O22  1  0.96376436  0.48195567  0.83669625  1
  O  O23  1  0.83602632  0.16882561  0.10047167  1
