# generated using pymatgen
data_Er(Bi3O5)4
_symmetry_space_group_name_H-M   'P 1'
_cell_length_a   8.95059443
_cell_length_b   8.95180184
_cell_length_c   8.94779722
_cell_angle_alpha   109.44133919
_cell_angle_beta   109.46378655
_cell_angle_gamma   109.47657393
_symmetry_Int_Tables_number   1
_chemical_formula_structural   Er(Bi3O5)4
_chemical_formula_sum   'Er1 Bi12 O20'
_cell_volume   552.11270601
_cell_formula_units_Z   1
loop_
 _symmetry_equiv_pos_site_id
 _symmetry_equiv_pos_as_xyz
  1  'x, y, z'
loop_
 _atom_site_type_symbol
 _atom_site_label
 _atom_site_symmetry_multiplicity
 _atom_site_fract_x
 _atom_site_fract_y
 _atom_site_fract_z
 _atom_site_occupancy
  Er  Er0  1  -0.00000862  -0.00017421  0.00025956  1
  Bi  Bi1  1  0.16887326  0.85819430  0.67471557  1
  Bi  Bi2  1  0.14192270  0.31068981  0.81654964  1
  Bi  Bi3  1  0.18349849  0.49414795  0.32544375  1
  Bi  Bi4  1  0.31053914  0.81660840  0.14188257  1
  Bi  Bi5  1  0.50584516  0.68935498  0.83127124  1
  Bi  Bi6  1  0.32530807  0.18344595  0.49398884  1
  Bi  Bi7  1  0.68938052  0.83120330  0.50587185  1
  Bi  Bi8  1  0.49402989  0.32536490  0.18349863  1
  Bi  Bi9  1  0.67483470  0.16887743  0.85822047  1
  Bi  Bi10  1  0.83123057  0.50591086  0.68940796  1
  Bi  Bi11  1  0.85822200  0.67486461  0.16876029  1
  Bi  Bi12  1  0.81657880  0.14188136  0.31056899  1
  O  O13  1  0.11529789  0.75604444  0.37886685  1
  O  O14  1  0.26354150  0.64074422  0.88465592  1
  O  O15  1  -0.00007194  -0.00004945  0.64332671  1
  O  O16  1  -0.00006204  0.64328132  -0.00005784  1
  O  O17  1  0.24397178  0.35946261  0.62288798  1
  O  O18  1  0.37720047  0.73649088  0.62138496  1
  O  O19  1  -0.00002561  -0.00015134  0.24041232  1
  O  O20  1  0.99974615  0.24065481  -0.00021565  1
  O  O21  1  0.35913475  0.62264304  0.24409941  1
  O  O22  1  0.37868948  0.11512545  0.75597236  1
  O  O23  1  0.35681005  0.35677754  0.35671813  1
  O  O24  1  0.24046690  0.99973741  0.99976641  1
  O  O25  1  0.62150669  0.37740828  0.73646203  1
  O  O26  1  0.64072227  0.88460570  0.26350749  1
  O  O27  1  0.75917757  0.75920887  0.75909407  1
  O  O28  1  0.73653928  0.62123393  0.37730169  1
  O  O29  1  0.62271948  0.24401874  0.35928880  1
  O  O30  1  0.88483494  0.26353751  0.64085062  1
  O  O31  1  0.75616421  0.37874939  0.11523984  1
  O  O32  1  0.64338249  0.00010802  0.00000055  1
