# generated using pymatgen
data_Mn3FeO8
_symmetry_space_group_name_H-M   'P 1'
_cell_length_a   5.79832035
_cell_length_b   5.79829072
_cell_length_c   9.04087021
_cell_angle_alpha   90.03049719
_cell_angle_beta   89.98474611
_cell_angle_gamma   119.99983358
_symmetry_Int_Tables_number   1
_chemical_formula_structural   Mn3FeO8
_chemical_formula_sum   'Mn6 Fe2 O16'
_cell_volume   263.23505620
_cell_formula_units_Z   2
loop_
 _symmetry_equiv_pos_site_id
 _symmetry_equiv_pos_as_xyz
  1  'x, y, z'
loop_
 _atom_site_type_symbol
 _atom_site_label
 _atom_site_symmetry_multiplicity
 _atom_site_fract_x
 _atom_site_fract_y
 _atom_site_fract_z
 _atom_site_occupancy
  Mn  Mn0  1  0.16773713  0.83231622  0.21172761  1
  Mn  Mn1  1  0.16774515  0.33553577  0.21160292  1
  Mn  Mn2  1  0.66455137  0.83231447  0.21164331  1
  Mn  Mn3  1  0.33544863  0.16776311  0.71164331  1
  Mn  Mn4  1  0.83226287  0.66457809  0.71172761  1
  Mn  Mn5  1  0.83225485  0.16778962  0.71160292  1
  Fe  Fe6  1  0.33330029  0.66653176  0.49485945  1
  Fe  Fe7  1  0.66669971  0.33323247  0.99485945  1
  O  O8  1  0.16297499  0.83687819  0.60108512  1
  O  O9  1  0.04068194  0.52039773  0.33509678  1
  O  O10  1  0.33332142  0.66666959  0.10277057  1
  O  O11  1  0.00001661  0.00021792  0.31672588  1
  O  O12  1  0.99998339  0.00020131  0.81672588  1
  O  O13  1  0.16316255  0.32622026  0.60106288  1
  O  O14  1  0.47957610  0.95921685  0.33524290  1
  O  O15  1  0.47974684  0.52032720  0.33496718  1
  O  O16  1  0.32616654  0.16296399  0.10107541  1
  O  O17  1  0.67383346  0.83679745  0.60107541  1
  O  O18  1  0.52042390  0.47964175  0.83524290  1
  O  O19  1  0.52025316  0.04058136  0.83496718  1
  O  O20  1  0.66667858  0.33334817  0.60277057  1
  O  O21  1  0.83702501  0.67390320  0.10108512  1
  O  O22  1  0.95931806  0.47971679  0.83509678  1
  O  O23  1  0.83683745  0.16305670  0.10106288  1
