# generated using pymatgen
data_Li2CrCuO4
_symmetry_space_group_name_H-M   'P 1'
_cell_length_a   5.10722693
_cell_length_b   10.20406750
_cell_length_c   9.76867159
_cell_angle_alpha   16.79769528
_cell_angle_beta   29.47499749
_cell_angle_gamma   33.54788324
_symmetry_Int_Tables_number   1
_chemical_formula_structural   Li2CrCuO4
_chemical_formula_sum   'Li2 Cr1 Cu1 O4'
_cell_volume   72.39114230
_cell_formula_units_Z   1
loop_
 _symmetry_equiv_pos_site_id
 _symmetry_equiv_pos_as_xyz
  1  'x, y, z'
loop_
 _atom_site_type_symbol
 _atom_site_label
 _atom_site_symmetry_multiplicity
 _atom_site_fract_x
 _atom_site_fract_y
 _atom_site_fract_z
 _atom_site_occupancy
  Li  Li0  1  0.00000000  0.00000000  0.00000000  1
  Li  Li1  1  0.00000000  0.50000000  0.00000000  1
  Cr  Cr2  1  0.50000000  0.50000000  0.50000000  1
  Cu  Cu3  1  0.50000000  0.00000000  0.50000000  1
  O  O4  1  0.25596733  0.00000000  0.23816705  1
  O  O5  1  0.23001073  0.50000000  0.24729636  1
  O  O6  1  0.74403267  1.00000000  0.76183295  1
  O  O7  1  0.76998927  0.50000000  0.75270364  1
