# generated using pymatgen
data_Lu2P4O13
_symmetry_space_group_name_H-M   'P 1'
_cell_length_a   6.70821207
_cell_length_b   6.83676624
_cell_length_c   12.85326253
_cell_angle_alpha   75.81959677
_cell_angle_beta   90.00000286
_cell_angle_gamma   60.62008123
_symmetry_Int_Tables_number   1
_chemical_formula_structural   Lu2P4O13
_chemical_formula_sum   'Lu4 P8 O26'
_cell_volume   492.94978517
_cell_formula_units_Z   2
loop_
 _symmetry_equiv_pos_site_id
 _symmetry_equiv_pos_as_xyz
  1  'x, y, z'
loop_
 _atom_site_type_symbol
 _atom_site_label
 _atom_site_symmetry_multiplicity
 _atom_site_fract_x
 _atom_site_fract_y
 _atom_site_fract_z
 _atom_site_occupancy
  Lu  Lu0  1  0.30533411  0.39437030  0.94783676  1
  Lu  Lu1  1  0.30029459  0.39437030  0.44783676  1
  Lu  Lu2  1  0.69970541  0.60562970  0.55216324  1
  Lu  Lu3  1  0.69466589  0.60562970  0.05216324  1
  P  P4  1  0.16300387  0.97535061  0.86736069  1
  P  P5  1  0.23988999  0.53352856  0.65987614  1
  P  P6  1  0.13835447  0.02464939  0.63263931  1
  P  P7  1  0.77341855  0.46647144  0.84012386  1
  P  P8  1  0.22658145  0.53352856  0.15987614  1
  P  P9  1  0.86164553  0.97535061  0.36736069  1
  P  P10  1  0.76011001  0.46647144  0.34012386  1
  P  P11  1  0.83699613  0.02464939  0.13263931  1
  O  O12  1  0.32953417  0.98717063  0.94267277  1
  O  O13  1  0.12275535  0.77270285  0.89715582  1
  O  O14  1  0.10010775  0.80719680  0.65285362  1
  O  O15  1  0.10454080  0.77270285  0.39715582  1
  O  O16  1  0.07489208  0.49807186  0.59429861  1
  O  O17  1  0.09269545  0.80719680  0.15285362  1
  O  O18  1  0.30650331  0.39839240  0.77814030  1
  O  O19  1  0.57296394  0.50192814  0.90570139  1
  O  O20  1  0.68329520  0.98717063  0.44267277  1
  O  O21  1  0.43952678  0.48794953  0.59303676  1
  O  O22  1  0.70489571  0.60160760  0.72185970  1
  O  O23  1  0.07252469  0.48794953  0.09303676  1
  O  O24  1  0.24822648  1.00000000  0.75000000  1
  O  O25  1  0.92747531  0.51205047  0.90696324  1
  O  O26  1  0.29510429  0.39839240  0.27814030  1
  O  O27  1  0.56047322  0.51205047  0.40696324  1
  O  O28  1  0.31670480  0.01282937  0.55732723  1
  O  O29  1  0.42703606  0.49807186  0.09429861  1
  O  O30  1  0.69349669  0.60160760  0.22185970  1
  O  O31  1  0.90730455  0.19280320  0.84714638  1
  O  O32  1  0.92510792  0.50192814  0.40570139  1
  O  O33  1  0.89545920  0.22729715  0.60284418  1
  O  O34  1  0.89989225  0.19280320  0.34714638  1
  O  O35  1  0.75177352  0.00000000  0.25000000  1
  O  O36  1  0.87724465  0.22729715  0.10284418  1
  O  O37  1  0.67046583  0.01282937  0.05732723  1
