# generated using pymatgen
data_NaSiSbCO7
_symmetry_space_group_name_H-M   'P 1'
_cell_length_a   9.31632425
_cell_length_b   6.52653876
_cell_length_c   5.35166240
_cell_angle_alpha   90.00000000
_cell_angle_beta   87.32391403
_cell_angle_gamma   90.00000000
_symmetry_Int_Tables_number   1
_chemical_formula_structural   NaSiSbCO7
_chemical_formula_sum   'Na2 Si2 Sb2 C2 O14'
_cell_volume   325.04414474
_cell_formula_units_Z   2
loop_
 _symmetry_equiv_pos_site_id
 _symmetry_equiv_pos_as_xyz
  1  'x, y, z'
loop_
 _atom_site_type_symbol
 _atom_site_label
 _atom_site_symmetry_multiplicity
 _atom_site_fract_x
 _atom_site_fract_y
 _atom_site_fract_z
 _atom_site_occupancy
  Na  Na0  1  0.22218178  0.47405614  0.24011440  1
  Na  Na1  1  0.77781822  0.97405614  0.75988560  1
  Si  Si2  1  0.43469601  0.25616209  0.72501090  1
  Si  Si3  1  0.56530399  0.75616209  0.27498910  1
  Sb  Sb4  1  0.34234171  0.76210899  0.78815907  1
  Sb  Sb5  1  0.65765829  0.26210899  0.21184093  1
  C  C6  1  0.07646572  0.74438788  0.72434148  1
  C  C7  1  0.92353428  0.24438788  0.27565852  1
  O  O8  1  0.05231994  0.24845723  0.30800259  1
  O  O9  1  0.13711125  0.74713497  0.94815540  1
  O  O10  1  0.18064915  0.73956545  0.53680372  1
  O  O11  1  0.33001270  0.06105097  0.78950606  1
  O  O12  1  0.33586203  0.45536181  0.80007303  1
  O  O13  1  0.41555127  0.74377709  0.12619648  1
  O  O14  1  0.47806766  0.26578638  0.42126327  1
  O  O15  1  0.52193234  0.76578638  0.57873673  1
  O  O16  1  0.58444873  0.24377709  0.87380352  1
  O  O17  1  0.66413797  0.95536181  0.19992697  1
  O  O18  1  0.66998730  0.56105097  0.21049394  1
  O  O19  1  0.81935085  0.23956545  0.46319628  1
  O  O20  1  0.86288875  0.24713497  0.05184460  1
  O  O21  1  0.94768006  0.74845723  0.69199741  1
