# generated using pymatgen
data_LiNiPO4
_symmetry_space_group_name_H-M   'P 1'
_cell_length_a   7.87395660
_cell_length_b   8.89668136
_cell_length_c   4.88253896
_cell_angle_alpha   89.99723936
_cell_angle_beta   89.99995238
_cell_angle_gamma   90.00009096
_symmetry_Int_Tables_number   1
_chemical_formula_structural   LiNiPO4
_chemical_formula_sum   'Li4 Ni4 P4 O16'
_cell_volume   342.03202385
_cell_formula_units_Z   4
loop_
 _symmetry_equiv_pos_site_id
 _symmetry_equiv_pos_as_xyz
  1  'x, y, z'
loop_
 _atom_site_type_symbol
 _atom_site_label
 _atom_site_symmetry_multiplicity
 _atom_site_fract_x
 _atom_site_fract_y
 _atom_site_fract_z
 _atom_site_occupancy
  Li  Li0  1  0.04828114  0.62017424  0.93736533  1
  Li  Li1  1  0.45171843  0.12017590  0.43736644  1
  Li  Li2  1  0.54828790  0.87982783  0.93736059  1
  Li  Li3  1  0.95171307  0.37982807  0.43736107  1
  Ni  Ni4  1  0.16680867  0.02623554  0.99822893  1
  Ni  Ni5  1  0.33319023  0.52624595  0.49819523  1
  Ni  Ni6  1  0.66678962  0.47375179  0.99818148  1
  Ni  Ni7  1  0.83320287  0.97373244  0.49812866  1
  P  P8  1  0.22491282  0.85896209  0.56154630  1
  P  P9  1  0.27508618  0.35895989  0.06154100  1
  P  P10  1  0.72491122  0.64104489  0.56153177  1
  P  P11  1  0.77508942  0.14104272  0.06152323  1
  O  O12  1  0.05766355  0.93437792  0.66902447  1
  O  O13  1  0.13542938  0.45829742  0.20217296  1
  O  O14  1  0.24159391  0.85970696  0.24926175  1
  O  O15  1  0.22181383  0.69708180  0.67447166  1
  O  O16  1  0.27818850  0.19708245  0.17447689  1
  O  O17  1  0.25840842  0.35971161  0.74925791  1
  O  O18  1  0.36456964  0.95829783  0.70217637  1
  O  O19  1  0.44233346  0.43437690  0.16902702  1
  O  O20  1  0.55765551  0.56562907  0.66900437  1
  O  O21  1  0.63543378  0.04170149  0.20217805  1
  O  O22  1  0.74159520  0.64029999  0.24924733  1
  O  O23  1  0.72180848  0.80291526  0.67447520  1
  O  O24  1  0.77819203  0.30291494  0.17447263  1
  O  O25  1  0.75840928  0.14029313  0.74924231  1
  O  O26  1  0.86456980  0.54170445  0.70217376  1
  O  O27  1  0.94234364  0.06562742  0.16900729  1
