# generated using pymatgen
data_Li4CrO5
_symmetry_space_group_name_H-M   'P 1'
_cell_length_a   5.11588755
_cell_length_b   7.56572531
_cell_length_c   4.99458214
_cell_angle_alpha   102.92173410
_cell_angle_beta   102.24177338
_cell_angle_gamma   106.33161871
_symmetry_Int_Tables_number   1
_chemical_formula_structural   Li4CrO5
_chemical_formula_sum   'Li8 Cr2 O10'
_cell_volume   172.83222423
_cell_formula_units_Z   2
loop_
 _symmetry_equiv_pos_site_id
 _symmetry_equiv_pos_as_xyz
  1  'x, y, z'
loop_
 _atom_site_type_symbol
 _atom_site_label
 _atom_site_symmetry_multiplicity
 _atom_site_fract_x
 _atom_site_fract_y
 _atom_site_fract_z
 _atom_site_occupancy
  Li  Li0  1  0.18884505  0.70640660  0.58707162  1
  Li  Li1  1  0.00000000  0.50000000  0.00000000  1
  Li  Li2  1  0.00000000  0.00000000  0.50000000  1
  Li  Li3  1  0.39156284  0.90353780  0.20808201  1
  Li  Li4  1  0.38264645  0.38979726  0.68248150  1
  Li  Li5  1  0.61735355  0.61020274  0.31751850  1
  Li  Li6  1  0.60843716  0.09646220  0.79191799  1
  Li  Li7  1  0.81115495  0.29359340  0.41292838  1
  Cr  Cr8  1  0.25011476  0.21831741  0.09215358  1
  Cr  Cr9  1  0.74988524  0.78168259  0.90784642  1
  O  O10  1  0.19732671  0.97765271  0.87542713  1
  O  O11  1  0.01401280  0.24553009  0.78468217  1
  O  O12  1  0.18112696  0.41322598  0.31831646  1
  O  O13  1  0.43122614  0.65992267  0.94576058  1
  O  O14  1  0.61120886  0.84193323  0.58688795  1
  O  O15  1  0.38879114  0.15806677  0.41311205  1
  O  O16  1  0.56877386  0.34007733  0.05423942  1
  O  O17  1  0.81887304  0.58677402  0.68168354  1
  O  O18  1  0.98598720  0.75446991  0.21531783  1
  O  O19  1  0.80267329  0.02234729  0.12457287  1
