# generated using pymatgen
data_Na3MnBSO7
_symmetry_space_group_name_H-M   'P 1'
_cell_length_a   9.08393410
_cell_length_b   6.96668711
_cell_length_c   5.30444232
_cell_angle_alpha   90.00000000
_cell_angle_beta   89.58807674
_cell_angle_gamma   90.00000000
_symmetry_Int_Tables_number   1
_chemical_formula_structural   Na3MnBSO7
_chemical_formula_sum   'Na6 Mn2 B2 S2 O14'
_cell_volume   335.68256715
_cell_formula_units_Z   2
loop_
 _symmetry_equiv_pos_site_id
 _symmetry_equiv_pos_as_xyz
  1  'x, y, z'
loop_
 _atom_site_type_symbol
 _atom_site_label
 _atom_site_symmetry_multiplicity
 _atom_site_fract_x
 _atom_site_fract_y
 _atom_site_fract_z
 _atom_site_occupancy
  Na  Na0  1  0.06371014  0.25000000  0.74876165  1
  Na  Na1  1  0.23370447  0.99077637  0.24631844  1
  Na  Na2  1  0.23370447  0.50922363  0.24631844  1
  Na  Na3  1  0.76629553  0.49077637  0.75368156  1
  Na  Na4  1  0.76629553  0.00922363  0.75368156  1
  Na  Na5  1  0.93628986  0.75000000  0.25123835  1
  Mn  Mn6  1  0.33867614  0.75000000  0.76522466  1
  Mn  Mn7  1  0.66132386  0.25000000  0.23477534  1
  B  B8  1  0.06230605  0.75000000  0.73628129  1
  B  B9  1  0.93769295  0.25000000  0.26371871  1
  S  S10  1  0.41720742  0.25000000  0.70458573  1
  S  S11  1  0.58279258  0.75000000  0.29541427  1
  O  O12  1  0.08718847  0.25000000  0.28647582  1
  O  O13  1  0.13515593  0.75000000  0.96930109  1
  O  O14  1  0.15710509  0.75000000  0.52413377  1
  O  O15  1  0.32949272  0.07767036  0.77859092  1
  O  O16  1  0.32949272  0.42232964  0.77859092  1
  O  O17  1  0.44151482  0.25000000  0.42368363  1
  O  O18  1  0.43669544  0.75000000  0.16859031  1
  O  O19  1  0.56330456  0.25000000  0.83140969  1
  O  O20  1  0.55848518  0.75000000  0.57631637  1
  O  O21  1  0.67050728  0.57767036  0.22140908  1
  O  O22  1  0.67050728  0.92232964  0.22140908  1
  O  O23  1  0.84289491  0.25000000  0.47586623  1
  O  O24  1  0.86484407  0.25000000  0.03069891  1
  O  O25  1  0.91281153  0.75000000  0.71352418  1
