# generated using pymatgen
data_Li5Nb2Fe3O10
_symmetry_space_group_name_H-M   'P 1'
_cell_length_a   5.33098652
_cell_length_b   5.27364068
_cell_length_c   8.08407943
_cell_angle_alpha   110.32723616
_cell_angle_beta   102.19166475
_cell_angle_gamma   99.50198238
_symmetry_Int_Tables_number   1
_chemical_formula_structural   Li5Nb2Fe3O10
_chemical_formula_sum   'Li5 Nb2 Fe3 O10'
_cell_volume   201.14084515
_cell_formula_units_Z   1
loop_
 _symmetry_equiv_pos_site_id
 _symmetry_equiv_pos_as_xyz
  1  'x, y, z'
loop_
 _atom_site_type_symbol
 _atom_site_label
 _atom_site_symmetry_multiplicity
 _atom_site_fract_x
 _atom_site_fract_y
 _atom_site_fract_z
 _atom_site_occupancy
  Li  Li0  1  0.22509338  0.91486062  0.39961304  1
  Li  Li1  1  0.40227296  0.30321431  0.79803368  1
  Li  Li2  1  0.50000000  0.50000000  0.50000000  1
  Li  Li3  1  0.59772704  0.69678569  0.20196632  1
  Li  Li4  1  0.77490662  0.08513938  0.60038696  1
  Nb  Nb5  1  0.10582486  0.70638615  0.68992460  1
  Nb  Nb6  1  0.89417514  0.29361385  0.31007540  1
  Fe  Fe7  1  0.00000000  0.50000000  0.00000000  1
  Fe  Fe8  1  0.69310066  0.89186715  0.89400834  1
  Fe  Fe9  1  0.30689934  0.10813285  0.10599166  1
  O  O10  1  0.05237870  0.08313993  0.84293022  1
  O  O11  1  0.33466637  0.70460779  0.93921937  1
  O  O12  1  0.15508660  0.30732712  0.54506678  1
  O  O13  1  0.21772585  0.48566666  0.24585849  1
  O  O14  1  0.42430549  0.88958027  0.64900164  1
  O  O15  1  0.57569451  0.11041973  0.35099836  1
  O  O16  1  0.78227415  0.51433334  0.75414151  1
  O  O17  1  0.84491340  0.69267288  0.45493322  1
  O  O18  1  0.66533363  0.29539221  0.06078063  1
  O  O19  1  0.94762130  0.91686007  0.15706978  1
