# generated using pymatgen
data_Li2VFe3O8
_symmetry_space_group_name_H-M   'P 1'
_cell_length_a   8.48116733
_cell_length_b   8.48128769
_cell_length_c   8.48050126
_cell_angle_alpha   90.00180348
_cell_angle_beta   90.00102191
_cell_angle_gamma   89.99915905
_symmetry_Int_Tables_number   1
_chemical_formula_structural   Li2VFe3O8
_chemical_formula_sum   'Li8 V4 Fe12 O32'
_cell_volume   610.01280223
_cell_formula_units_Z   4
loop_
 _symmetry_equiv_pos_site_id
 _symmetry_equiv_pos_as_xyz
  1  'x, y, z'
loop_
 _atom_site_type_symbol
 _atom_site_label
 _atom_site_symmetry_multiplicity
 _atom_site_fract_x
 _atom_site_fract_y
 _atom_site_fract_z
 _atom_site_occupancy
  Li  Li0  1  0.99950221  0.99948729  0.99947195  1
  Li  Li1  1  0.25046835  0.25049679  0.25051842  1
  Li  Li2  1  0.24951538  0.74950723  0.75051169  1
  Li  Li3  1  0.50055066  0.00052132  0.49944023  1
  Li  Li4  1  0.49949119  0.50050718  0.00051860  1
  Li  Li5  1  0.75045429  0.24955399  0.74955828  1
  Li  Li6  1  0.74951093  0.75046051  0.24956351  1
  Li  Li7  1  0.00053536  0.49948620  0.50045836  1
  V  V8  1  0.12500798  0.87502980  0.37502136  1
  V  V9  1  0.37501013  0.12500495  0.87497997  1
  V  V10  1  0.62501646  0.62498865  0.62503477  1
  V  V11  1  0.87502768  0.37497834  0.12499594  1
  Fe  Fe12  1  0.12453975  0.12539780  0.62504121  1
  Fe  Fe13  1  0.12501976  0.37545329  0.87458695  1
  Fe  Fe14  1  0.12536406  0.62503763  0.12458054  1
  Fe  Fe15  1  0.37461797  0.37497206  0.62457268  1
  Fe  Fe16  1  0.37497629  0.62455894  0.37459481  1
  Fe  Fe17  1  0.37542610  0.87463247  0.12500761  1
  Fe  Fe18  1  0.62457358  0.37461372  0.37495600  1
  Fe  Fe19  1  0.62501823  0.12459848  0.12539415  1
  Fe  Fe20  1  0.62542730  0.87497543  0.87546113  1
  Fe  Fe21  1  0.87461317  0.12502476  0.37545620  1
  Fe  Fe22  1  0.87496221  0.87542663  0.62539120  1
  Fe  Fe23  1  0.87542708  0.62537668  0.87499801  1
  O  O24  1  0.11862770  0.10123294  0.38192909  1
  O  O25  1  0.11805071  0.88136889  0.60125391  1
  O  O26  1  0.11199232  0.61202853  0.88797724  1
  O  O27  1  0.14883852  0.13133599  0.86813602  1
  O  O28  1  0.10122182  0.38192923  0.11866416  1
  O  O29  1  0.13805522  0.36192157  0.63801153  1
  O  O30  1  0.13184850  0.64885792  0.36867247  1
  O  O31  1  0.13129062  0.86816299  0.14885191  1
  O  O32  1  0.36869346  0.13183280  0.64883641  1
  O  O33  1  0.36814851  0.35117904  0.86868494  1
  O  O34  1  0.36193003  0.63806766  0.13798747  1
  O  O35  1  0.39878925  0.61805372  0.61867628  1
  O  O36  1  0.35114776  0.86870587  0.36813564  1
  O  O37  1  0.38795793  0.38794891  0.38797241  1
  O  O38  1  0.38193185  0.11869169  0.10123044  1
  O  O39  1  0.38137189  0.89879791  0.88191985  1
  O  O40  1  0.61865933  0.39877732  0.61807248  1
  O  O41  1  0.61804900  0.61863707  0.39877927  1
  O  O42  1  0.61203720  0.88799728  0.11204566  1
  O  O43  1  0.64883150  0.36868997  0.13184728  1
  O  O44  1  0.60123155  0.11806228  0.88134414  1
  O  O45  1  0.63810389  0.13805618  0.36196761  1
  O  O46  1  0.63185569  0.85115877  0.63133181  1
  O  O47  1  0.63131077  0.63183587  0.85118278  1
  O  O48  1  0.86871420  0.36815632  0.35113964  1
  O  O49  1  0.86816463  0.14885066  0.13130757  1
  O  O50  1  0.86195018  0.86190703  0.86195187  1
  O  O51  1  0.89876978  0.88192847  0.38135756  1
  O  O52  1  0.85115971  0.63127218  0.63184468  1
  O  O53  1  0.88796035  0.11202532  0.61205830  1
  O  O54  1  0.88193692  0.38136717  0.89876398  1
  O  O55  1  0.88131706  0.60121430  0.11809205  1
