# generated using pymatgen
data_Li5Mn5(PO4)6
_symmetry_space_group_name_H-M   'P 1'
_cell_length_a   8.70091770
_cell_length_b   8.90039637
_cell_length_c   8.93506358
_cell_angle_alpha   58.79594624
_cell_angle_beta   57.84103791
_cell_angle_gamma   58.39127011
_symmetry_Int_Tables_number   1
_chemical_formula_structural   Li5Mn5(PO4)6
_chemical_formula_sum   'Li5 Mn5 P6 O24'
_cell_volume   470.64497671
_cell_formula_units_Z   1
loop_
 _symmetry_equiv_pos_site_id
 _symmetry_equiv_pos_as_xyz
  1  'x, y, z'
loop_
 _atom_site_type_symbol
 _atom_site_label
 _atom_site_symmetry_multiplicity
 _atom_site_fract_x
 _atom_site_fract_y
 _atom_site_fract_z
 _atom_site_occupancy
  Li  Li0  1  0.51869224  0.15363178  0.16721654  1
  Li  Li1  1  0.25210464  0.84968812  0.65323648  1
  Li  Li2  1  0.71013279  0.15535048  0.32593368  1
  Li  Li3  1  0.71101280  0.80330582  0.14904209  1
  Li  Li4  1  0.71187383  0.33928880  0.81636056  1
  Mn  Mn5  1  0.99584518  0.99860893  0.01030116  1
  Mn  Mn6  1  0.06638769  0.64856092  0.63997083  1
  Mn  Mn7  1  0.49897376  0.48798629  0.50349505  1
  Mn  Mn8  1  0.43596329  0.85956543  0.84908335  1
  Mn  Mn9  1  0.95414253  0.34550235  0.34951808  1
  P  P10  1  0.25544904  0.25144986  0.55230801  1
  P  P11  1  0.25674731  0.94428859  0.24113728  1
  P  P12  1  0.26108323  0.54213603  0.95086185  1
  P  P13  1  0.75356570  0.46808719  0.03321647  1
  P  P14  1  0.77451820  0.03967837  0.74074954  1
  P  P15  1  0.73872666  0.74821144  0.45999668  1
  O  O16  1  0.07177481  0.10588542  0.29770182  1
  O  O17  1  0.07603601  0.49800443  0.11071191  1
  O  O18  1  0.07441570  0.30444071  0.52036275  1
  O  O19  1  0.23688490  0.08135622  0.74564883  1
  O  O20  1  0.44482635  0.19445994  0.39907108  1
  O  O21  1  0.25779737  0.40760754  0.58350409  1
  O  O22  1  0.23927522  0.92467152  0.08742500  1
  O  O23  1  0.26136890  0.75255001  0.41138761  1
  O  O24  1  0.57244498  0.61912670  0.98818714  1
  O  O25  1  0.28571366  0.56998080  0.75142090  1
  O  O26  1  0.78846626  0.27589975  0.03644942  1
  O  O27  1  0.60293535  0.99969123  0.78559384  1
  O  O28  1  0.44352425  0.96589975  0.18601109  1
  O  O29  1  0.21527226  0.74521662  0.93324592  1
  O  O30  1  0.71924503  0.43737722  0.23701354  1
  O  O31  1  0.44451231  0.39443164  0.98512476  1
  O  O32  1  0.75478968  0.24103352  0.58109418  1
  O  O33  1  0.77835471  0.05822342  0.90220662  1
  O  O34  1  0.73005542  0.59806138  0.42190059  1
  O  O35  1  0.53781794  0.80776654  0.61107162  1
  O  O36  1  0.76638714  0.91147905  0.26832690  1
  O  O37  1  0.90026086  0.67873087  0.52414858  1
  O  O38  1  0.93218146  0.52459655  0.89218550  1
  O  O39  1  0.97043853  0.89117078  0.67478166  1
