# generated using pymatgen
data_Li8Mn2O9
_symmetry_space_group_name_H-M   'P 1'
_cell_length_a   14.88346899
_cell_length_b   8.70135361
_cell_length_c   5.74174400
_cell_angle_alpha   70.37656652
_cell_angle_beta   79.19795221
_cell_angle_gamma   85.76584003
_symmetry_Int_Tables_number   1
_chemical_formula_structural   Li8Mn2O9
_chemical_formula_sum   'Li32 Mn8 O36'
_cell_volume   687.94602313
_cell_formula_units_Z   4
loop_
 _symmetry_equiv_pos_site_id
 _symmetry_equiv_pos_as_xyz
  1  'x, y, z'
loop_
 _atom_site_type_symbol
 _atom_site_label
 _atom_site_symmetry_multiplicity
 _atom_site_fract_x
 _atom_site_fract_y
 _atom_site_fract_z
 _atom_site_occupancy
  Li  Li0  1  0.03120725  0.12212037  0.78047170  1
  Li  Li1  1  0.04894619  0.62289269  0.54873822  1
  Li  Li2  1  0.04047600  0.62824410  0.04340294  1
  Li  Li3  1  0.04028325  0.12670362  0.30990043  1
  Li  Li4  1  0.15303569  0.40805810  0.85008777  1
  Li  Li5  1  0.15169737  0.84585069  0.12878782  1
  Li  Li6  1  0.24105045  0.62584787  0.96649562  1
  Li  Li7  1  0.24359317  0.62557572  0.42577586  1
  Li  Li8  1  0.25867438  0.12330483  0.66859565  1
  Li  Li9  1  0.25892194  0.12263943  0.20724638  1
  Li  Li10  1  0.34383283  0.34188356  0.78423436  1
  Li  Li11  1  0.35216204  0.90326788  0.49959520  1
  Li  Li12  1  0.45852296  0.62881211  0.85405370  1
  Li  Li13  1  0.45783621  0.12752682  0.58503791  1
  Li  Li14  1  0.47025331  0.62278758  0.31316385  1
  Li  Li15  1  0.54703878  0.87795878  0.91359917  1
  Li  Li16  1  0.45296122  0.12204122  0.08640083  1
  Li  Li17  1  0.52974669  0.37721242  0.68683615  1
  Li  Li18  1  0.54216379  0.87247318  0.41496209  1
  Li  Li19  1  0.54147704  0.37118789  0.14594630  1
  Li  Li20  1  0.64783796  0.09673212  0.50040480  1
  Li  Li21  1  0.65616717  0.65811644  0.21576564  1
  Li  Li22  1  0.74107806  0.87736057  0.79275362  1
  Li  Li23  1  0.74132562  0.87669517  0.33140435  1
  Li  Li24  1  0.75640683  0.37442428  0.57422414  1
  Li  Li25  1  0.75894955  0.37415213  0.03350438  1
  Li  Li26  1  0.84830263  0.15414931  0.87121218  1
  Li  Li27  1  0.84696431  0.59194190  0.14991223  1
  Li  Li28  1  0.95971675  0.87329638  0.69009957  1
  Li  Li29  1  0.95952400  0.37175590  0.95659706  1
  Li  Li30  1  0.95105381  0.37710731  0.45126178  1
  Li  Li31  1  0.96879275  0.87787963  0.21952830  1
  Mn  Mn32  1  0.15132307  0.87860991  0.61758008  1
  Mn  Mn33  1  0.14449012  0.37001403  0.37086397  1
  Mn  Mn34  1  0.35102104  0.87162430  0.01858466  1
  Mn  Mn35  1  0.35249490  0.37970119  0.26456156  1
  Mn  Mn36  1  0.64750510  0.62029881  0.73543844  1
  Mn  Mn37  1  0.64897896  0.12837570  0.98141534  1
  Mn  Mn38  1  0.85550988  0.62998597  0.62913603  1
  Mn  Mn39  1  0.84867693  0.12139009  0.38241992  1
  O  O40  1  0.06057980  0.88334883  0.89120646  1
  O  O41  1  0.06557624  0.88377620  0.41459167  1
  O  O42  1  0.06171767  0.35879705  0.66043960  1
  O  O43  1  0.06022946  0.36660246  0.17159688  1
  O  O44  1  0.15495816  0.64895484  0.72819458  1
  O  O45  1  0.14185897  0.59889038  0.25887074  1
  O  O46  1  0.15402573  0.12228404  0.48733799  1
  O  O47  1  0.25006924  0.87576920  0.81778751  1
  O  O48  1  0.25249385  0.87312938  0.31894950  1
  O  O49  1  0.24974810  0.37449202  0.54726801  1
  O  O50  1  0.24831435  0.37405317  0.09005077  1
  O  O51  1  0.34589616  0.10051469  0.90720232  1
  O  O52  1  0.34581794  0.62734514  0.14111740  1
  O  O53  1  0.35782372  0.15086064  0.37536924  1
  O  O54  1  0.43821501  0.86908046  0.73839383  1
  O  O55  1  0.43396664  0.38942493  0.97038776  1
  O  O56  1  0.44030488  0.86292118  0.21204970  1
  O  O57  1  0.44030689  0.38599185  0.45450216  1
  O  O58  1  0.55969311  0.61400815  0.54549784  1
  O  O59  1  0.55969512  0.13707882  0.78795030  1
  O  O60  1  0.56603336  0.61057507  0.02961224  1
  O  O61  1  0.56178499  0.13091954  0.26160617  1
  O  O62  1  0.64217628  0.84913936  0.62463076  1
  O  O63  1  0.65418206  0.37265486  0.85888260  1
  O  O64  1  0.65410384  0.89948531  0.09279768  1
  O  O65  1  0.75168565  0.62594683  0.90994923  1
  O  O66  1  0.75025190  0.62550798  0.45273199  1
  O  O67  1  0.74750615  0.12687062  0.68105050  1
  O  O68  1  0.74993076  0.12423080  0.18221249  1
  O  O69  1  0.84597427  0.87771596  0.51266201  1
  O  O70  1  0.85814103  0.40110962  0.74112926  1
  O  O71  1  0.84504184  0.35104516  0.27180542  1
  O  O72  1  0.93977054  0.63339754  0.82840312  1
  O  O73  1  0.93828233  0.64120295  0.33956040  1
  O  O74  1  0.93442376  0.11622380  0.58540833  1
  O  O75  1  0.93942020  0.11665117  0.10879354  1
