# generated using pymatgen
data_Li2Fe3(PO4)3
_symmetry_space_group_name_H-M   'P 1'
_cell_length_a   8.36895147
_cell_length_b   8.96615356
_cell_length_c   8.96615397
_cell_angle_alpha   60.02770506
_cell_angle_beta   58.66887096
_cell_angle_gamma   58.66886424
_symmetry_Int_Tables_number   1
_chemical_formula_structural   Li2Fe3(PO4)3
_chemical_formula_sum   'Li4 Fe6 P6 O24'
_cell_volume   466.03425680
_cell_formula_units_Z   2
loop_
 _symmetry_equiv_pos_site_id
 _symmetry_equiv_pos_as_xyz
  1  'x, y, z'
loop_
 _atom_site_type_symbol
 _atom_site_label
 _atom_site_symmetry_multiplicity
 _atom_site_fract_x
 _atom_site_fract_y
 _atom_site_fract_z
 _atom_site_occupancy
  Li  Li0  1  0.25000000  0.85650548  0.64349452  1
  Li  Li1  1  0.75000000  0.15583729  0.34416271  1
  Li  Li2  1  0.75011036  0.75037513  0.15265092  1
  Li  Li3  1  0.74988964  0.34734908  0.74962487  1
  Fe  Fe4  1  0.00133487  0.00153341  0.00411240  1
  Fe  Fe5  1  0.06522602  0.64283330  0.64636272  1
  Fe  Fe6  1  0.54062402  0.15568872  0.15254193  1
  Fe  Fe7  1  0.49866513  0.49588760  0.49846659  1
  Fe  Fe8  1  0.43477398  0.85363728  0.85716670  1
  Fe  Fe9  1  0.95937598  0.34745807  0.34431128  1
  P  P10  1  0.25068843  0.25177641  0.55862580  1
  P  P11  1  0.24931157  0.94137420  0.24822359  1
  P  P12  1  0.25000000  0.55848420  0.94151580  1
  P  P13  1  0.75000000  0.45693812  0.04306188  1
  P  P14  1  0.76226446  0.04081921  0.74779809  1
  P  P15  1  0.73773554  0.75220191  0.45918079  1
  O  O16  1  0.05672194  0.09725504  0.31033300  1
  O  O17  1  0.05663970  0.53202478  0.09659392  1
  O  O18  1  0.05630751  0.31760527  0.52838348  1
  O  O19  1  0.22989336  0.08906593  0.74506579  1
  O  O20  1  0.44327806  0.18966700  0.40274496  1
  O  O21  1  0.27096098  0.40502410  0.57808637  1
  O  O22  1  0.22903902  0.92191363  0.09497590  1
  O  O23  1  0.27010664  0.75493421  0.41093407  1
  O  O24  1  0.56491028  0.61048375  0.99885799  1
  O  O25  1  0.27302833  0.58325142  0.74463789  1
  O  O26  1  0.77710392  0.26119981  0.06231758  1
  O  O27  1  0.58881938  0.98193442  0.81482866  1
  O  O28  1  0.44369249  0.97161652  0.18239473  1
  O  O29  1  0.22697167  0.75536211  0.91674858  1
  O  O30  1  0.72289608  0.43768242  0.23880019  1
  O  O31  1  0.44336030  0.40340608  0.96797522  1
  O  O32  1  0.72662293  0.23531700  0.59788097  1
  O  O33  1  0.78046671  0.06609685  0.89940268  1
  O  O34  1  0.71953329  0.60059732  0.43390315  1
  O  O35  1  0.53899108  0.82020634  0.60877680  1
  O  O36  1  0.77337707  0.90211903  0.26468300  1
  O  O37  1  0.91118062  0.68517134  0.51806558  1
  O  O38  1  0.93508972  0.50114201  0.88951625  1
  O  O39  1  0.96100892  0.89122320  0.67979366  1
