# generated using pymatgen
data_LiCrPO4
_symmetry_space_group_name_H-M   'P 1'
_cell_length_a   8.51529247
_cell_length_b   7.44501550
_cell_length_c   14.89447511
_cell_angle_alpha   90.00000000
_cell_angle_beta   91.97323945
_cell_angle_gamma   90.00000000
_symmetry_Int_Tables_number   1
_chemical_formula_structural   LiCrPO4
_chemical_formula_sum   'Li12 Cr12 P12 O48'
_cell_volume   943.69743198
_cell_formula_units_Z   12
loop_
 _symmetry_equiv_pos_site_id
 _symmetry_equiv_pos_as_xyz
  1  'x, y, z'
loop_
 _atom_site_type_symbol
 _atom_site_label
 _atom_site_symmetry_multiplicity
 _atom_site_fract_x
 _atom_site_fract_y
 _atom_site_fract_z
 _atom_site_occupancy
  Li  Li0  1  0.05916358  0.67511237  0.40467668  1
  Li  Li1  1  0.07850831  0.81240667  0.75879964  1
  Li  Li2  1  0.08902904  0.68544101  0.08109032  1
  Li  Li3  1  0.41097096  0.18544101  0.41890968  1
  Li  Li4  1  0.42149169  0.31240667  0.74120036  1
  Li  Li5  1  0.44083642  0.17511237  0.09532332  1
  Li  Li6  1  0.55916358  0.82488763  0.90467668  1
  Li  Li7  1  0.57850831  0.68759333  0.25879964  1
  Li  Li8  1  0.58902904  0.81455899  0.58109032  1
  Li  Li9  1  0.91097096  0.31455899  0.91890968  1
  Li  Li10  1  0.92149169  0.18759333  0.24120036  1
  Li  Li11  1  0.94083642  0.32488763  0.59532332  1
  Cr  Cr12  1  0.23925690  0.95334073  0.92716077  1
  Cr  Cr13  1  0.23911129  0.03228044  0.58290472  1
  Cr  Cr14  1  0.25011075  0.48267705  0.25139242  1
  Cr  Cr15  1  0.24988925  0.98267705  0.24860758  1
  Cr  Cr16  1  0.26088871  0.53228044  0.91709528  1
  Cr  Cr17  1  0.26074310  0.45334073  0.57283923  1
  Cr  Cr18  1  0.73925690  0.54665927  0.42716077  1
  Cr  Cr19  1  0.73911129  0.46771956  0.08290472  1
  Cr  Cr20  1  0.75011075  0.01732295  0.75139242  1
  Cr  Cr21  1  0.74988925  0.51732295  0.74860758  1
  Cr  Cr22  1  0.76088871  0.96771956  0.41709528  1
  Cr  Cr23  1  0.76074310  0.04665927  0.07283923  1
  P  P24  1  0.06047276  0.26392195  0.41035341  1
  P  P25  1  0.08754549  0.22429772  0.77163397  1
  P  P26  1  0.11265720  0.26799741  0.07745362  1
  P  P27  1  0.38734280  0.76799741  0.42254638  1
  P  P28  1  0.41245451  0.72429772  0.72836603  1
  P  P29  1  0.43952724  0.76392195  0.08964659  1
  P  P30  1  0.56047276  0.23607805  0.91035341  1
  P  P31  1  0.58754549  0.27570228  0.27163397  1
  P  P32  1  0.61265720  0.23200259  0.57745362  1
  P  P33  1  0.88734280  0.73200259  0.92254638  1
  P  P34  1  0.91245451  0.77570228  0.22836603  1
  P  P35  1  0.93952724  0.73607805  0.58964659  1
  O  O36  1  0.95832705  0.43611437  0.40058221  1
  O  O37  1  0.03025543  0.89572432  0.63171595  1
  O  O38  1  0.05803058  0.77587121  0.95731955  1
  O  O39  1  0.10765854  0.37310106  0.84405270  1
  O  O40  1  0.10290306  0.23204884  0.51353424  1
  O  O41  1  0.07688536  0.74627805  0.27639132  1
  O  O42  1  0.11526836  0.28070058  0.18369560  1
  O  O43  1  0.08282539  0.04191214  0.82206699  1
  O  O44  1  0.16388852  0.45280934  0.04156055  1
  O  O45  1  0.21742786  0.22315039  0.70116716  1
  O  O46  1  0.22884228  0.12329396  0.04890155  1
  O  O47  1  0.21671923  0.28742379  0.36160139  1
  O  O48  1  0.28257214  0.72315039  0.79883284  1
  O  O49  1  0.28328077  0.78742379  0.13839861  1
  O  O50  1  0.27115772  0.62329396  0.45109845  1
  O  O51  1  0.33611148  0.95280934  0.45843945  1
  O  O52  1  0.41717461  0.54191214  0.67793301  1
  O  O53  1  0.38473164  0.78070058  0.31630440  1
  O  O54  1  0.39709694  0.73204884  0.98646576  1
  O  O55  1  0.39234146  0.87310106  0.65594730  1
  O  O56  1  0.42311464  0.24627805  0.22360868  1
  O  O57  1  0.44196942  0.27587121  0.54268045  1
  O  O58  1  0.46974457  0.39572432  0.86828405  1
  O  O59  1  0.54167295  0.93611437  0.09941779  1
  O  O60  1  0.45832705  0.06388563  0.90058221  1
  O  O61  1  0.53025543  0.60427568  0.13171595  1
  O  O62  1  0.55803058  0.72412879  0.45731955  1
  O  O63  1  0.57688536  0.75372195  0.77639132  1
  O  O64  1  0.60765854  0.12689894  0.34405270  1
  O  O65  1  0.60290306  0.26795116  0.01353424  1
  O  O66  1  0.61526836  0.21929942  0.68369560  1
  O  O67  1  0.58282539  0.45808786  0.32206699  1
  O  O68  1  0.66388852  0.04719066  0.54156055  1
  O  O69  1  0.72884228  0.37670604  0.54890155  1
  O  O70  1  0.71671923  0.21257621  0.86160139  1
  O  O71  1  0.71742786  0.27684961  0.20116716  1
  O  O72  1  0.78328077  0.71257621  0.63839861  1
  O  O73  1  0.77115772  0.87670604  0.95109845  1
  O  O74  1  0.78257214  0.77684961  0.29883284  1
  O  O75  1  0.83611148  0.54719066  0.95843945  1
  O  O76  1  0.91717461  0.95808786  0.17793301  1
  O  O77  1  0.88473164  0.71929942  0.81630440  1
  O  O78  1  0.92311464  0.25372195  0.72360868  1
  O  O79  1  0.89709694  0.76795116  0.48646576  1
  O  O80  1  0.89234146  0.62689894  0.15594730  1
  O  O81  1  0.94196942  0.22412879  0.04268045  1
  O  O82  1  0.96974457  0.10427568  0.36828405  1
  O  O83  1  0.04167295  0.56388563  0.59941779  1
