# generated using pymatgen
data_Li2V3(PO4)3
_symmetry_space_group_name_H-M   'P 1'
_cell_length_a   8.51725313
_cell_length_b   8.95750051
_cell_length_c   8.95750085
_cell_angle_alpha   60.18304084
_cell_angle_beta   58.72852700
_cell_angle_gamma   58.72852777
_symmetry_Int_Tables_number   1
_chemical_formula_structural   Li2V3(PO4)3
_chemical_formula_sum   'Li4 V6 P6 O24'
_cell_volume   474.36387020
_cell_formula_units_Z   2
loop_
 _symmetry_equiv_pos_site_id
 _symmetry_equiv_pos_as_xyz
  1  'x, y, z'
loop_
 _atom_site_type_symbol
 _atom_site_label
 _atom_site_symmetry_multiplicity
 _atom_site_fract_x
 _atom_site_fract_y
 _atom_site_fract_z
 _atom_site_occupancy
  Li  Li0  1  0.25000000  0.86024965  0.63975035  1
  Li  Li1  1  0.75000000  0.15461020  0.34538980  1
  Li  Li2  1  0.74658536  0.75142447  0.15139263  1
  Li  Li3  1  0.75341464  0.34860737  0.74857553  1
  V  V4  1  0.00365261  0.00098034  0.00209847  1
  V  V5  1  0.06524799  0.64436538  0.64800340  1
  V  V6  1  0.55169883  0.15168741  0.14930512  1
  V  V7  1  0.49634739  0.49790153  0.49901966  1
  V  V8  1  0.43475201  0.85199660  0.85563462  1
  V  V9  1  0.94830117  0.35069488  0.34831259  1
  P  P10  1  0.24871009  0.25283780  0.56066421  1
  P  P11  1  0.25128991  0.93933579  0.24716220  1
  P  P12  1  0.25000000  0.55894825  0.94105175  1
  P  P13  1  0.75000000  0.45576861  0.04423139  1
  P  P14  1  0.76194645  0.04168290  0.74849983  1
  P  P15  1  0.73805355  0.75150017  0.45831710  1
  O  O16  1  0.06081713  0.09476925  0.30669279  1
  O  O17  1  0.06014982  0.53428257  0.09395502  1
  O  O18  1  0.05877594  0.31172707  0.53378560  1
  O  O19  1  0.23366444  0.08992158  0.74768097  1
  O  O20  1  0.43918287  0.19330721  0.40523075  1
  O  O21  1  0.26176425  0.40903706  0.58232096  1
  O  O22  1  0.23823575  0.91767904  0.09096294  1
  O  O23  1  0.26633556  0.75231903  0.41007842  1
  O  O24  1  0.56847026  0.60639018  -0.00049308  1
  O  O25  1  0.27045144  0.58556793  0.74345602  1
  O  O26  1  0.77665811  0.25991878  0.06352527  1
  O  O27  1  0.59456620  0.98167433  0.81149426  1
  O  O28  1  0.44122406  0.96621440  0.18827293  1
  O  O29  1  0.22954856  0.75654398  0.91443207  1
  O  O30  1  0.72334189  0.43647473  0.24008122  1
  O  O31  1  0.43985018  0.40604498  0.96571743  1
  O  O32  1  0.72926831  0.23595375  0.59758611  1
  O  O33  1  0.77394727  0.06931056  0.90228309  1
  O  O34  1  0.72605273  0.59771691  0.43068944  1
  O  O35  1  0.53858421  0.81911363  0.60497000  1
  O  O36  1  0.77073169  0.90241389  0.26404625  1
  O  O37  1  0.90543380  0.68850574  0.51832567  1
  O  O38  1  0.93152974  0.50049308  0.89360982  1
  O  O39  1  0.96141579  0.89503000  0.68088637  1
