# generated using pymatgen
data_Li2CrP3O10
_symmetry_space_group_name_H-M   'P 1'
_cell_length_a   12.03625809
_cell_length_b   8.02673591
_cell_length_c   9.70995752
_cell_angle_alpha   90.00000000
_cell_angle_beta   95.86159384
_cell_angle_gamma   90.00000000
_symmetry_Int_Tables_number   1
_chemical_formula_structural   Li2CrP3O10
_chemical_formula_sum   'Li8 Cr4 P12 O40'
_cell_volume   933.19226133
_cell_formula_units_Z   4
loop_
 _symmetry_equiv_pos_site_id
 _symmetry_equiv_pos_as_xyz
  1  'x, y, z'
loop_
 _atom_site_type_symbol
 _atom_site_label
 _atom_site_symmetry_multiplicity
 _atom_site_fract_x
 _atom_site_fract_y
 _atom_site_fract_z
 _atom_site_occupancy
  Li  Li0  1  0.14805684  0.45759240  0.38517185  1
  Li  Li1  1  0.14805684  0.04240760  0.88517185  1
  Li  Li2  1  0.44878993  0.11086223  0.90703729  1
  Li  Li3  1  0.44878993  0.38913777  0.40703729  1
  Li  Li4  1  0.55121007  0.61086223  0.59296271  1
  Li  Li5  1  0.55121007  0.88913777  0.09296271  1
  Li  Li6  1  0.85194316  0.95759240  0.11482815  1
  Li  Li7  1  0.85194316  0.54240760  0.61482815  1
  Cr  Cr8  1  0.16919280  0.85673871  0.62911332  1
  Cr  Cr9  1  0.16919280  0.64326129  0.12911332  1
  Cr  Cr10  1  0.83080720  0.35673871  0.87088668  1
  Cr  Cr11  1  0.83080720  0.14326129  0.37088668  1
  P  P12  1  0.06369620  0.56724015  0.80800169  1
  P  P13  1  0.06369620  0.93275985  0.30800169  1
  P  P14  1  0.27463941  0.42410950  0.91491763  1
  P  P15  1  0.27463941  0.07589050  0.41491763  1
  P  P16  1  0.33281712  0.78449323  0.92496774  1
  P  P17  1  0.33281712  0.71550677  0.42496774  1
  P  P18  1  0.66718288  0.28449323  0.57503226  1
  P  P19  1  0.66718288  0.21550677  0.07503226  1
  P  P20  1  0.72536059  0.92410950  0.58508237  1
  P  P21  1  0.72536059  0.57589050  0.08508237  1
  P  P22  1  0.93630380  0.06724015  0.69199831  1
  P  P23  1  0.93630380  0.43275985  0.19199831  1
  O  O24  1  0.08247809  0.66476900  0.94251445  1
  O  O25  1  0.05355639  0.99322386  0.71733448  1
  O  O26  1  0.08293367  0.65865854  0.67541375  1
  O  O27  1  0.08247809  0.83523100  0.44251445  1
  O  O28  1  0.05355639  0.50677614  0.21733448  1
  O  O29  1  0.08293367  0.84134146  0.17541375  1
  O  O30  1  0.15526236  0.41532506  0.81832924  1
  O  O31  1  0.15526236  0.08467494  0.31832924  1
  O  O32  1  0.24857190  0.87916243  0.82262006  1
  O  O33  1  0.24885338  0.05793441  0.56407273  1
  O  O34  1  0.29266204  0.71984554  0.56960048  1
  O  O35  1  0.24857190  0.62083757  0.32262006  1
  O  O36  1  0.24885338  0.44206559  0.06407273  1
  O  O37  1  0.29266204  0.78015446  0.06960048  1
  O  O38  1  0.33628532  0.59129910  0.86803480  1
  O  O39  1  0.33697492  0.27385553  0.87730730  1
  O  O40  1  0.33628532  0.90870090  0.36803480  1
  O  O41  1  0.33697492  0.22614447  0.37730730  1
  O  O42  1  0.44783193  0.85997160  0.92792734  1
  O  O43  1  0.44783193  0.64002840  0.42792734  1
  O  O44  1  0.55216807  0.35997160  0.57207266  1
  O  O45  1  0.55216807  0.14002840  0.07207266  1
  O  O46  1  0.66302508  0.77385553  0.62269270  1
  O  O47  1  0.66371468  0.09129910  0.63196520  1
  O  O48  1  0.66302508  0.72614447  0.12269270  1
  O  O49  1  0.66371468  0.40870090  0.13196520  1
  O  O50  1  0.70733796  0.21984554  0.93039952  1
  O  O51  1  0.75114662  0.55793441  0.93592727  1
  O  O52  1  0.75142810  0.37916243  0.67737994  1
  O  O53  1  0.70733796  0.28015446  0.43039952  1
  O  O54  1  0.75114662  0.94206559  0.43592727  1
  O  O55  1  0.75142810  0.12083757  0.17737994  1
  O  O56  1  0.84473764  0.91532506  0.68167076  1
  O  O57  1  0.84473764  0.58467494  0.18167076  1
  O  O58  1  0.91706633  0.15865854  0.82458625  1
  O  O59  1  0.94644361  0.49322386  0.78266552  1
  O  O60  1  0.91752191  0.16476900  0.55748555  1
  O  O61  1  0.91706633  0.34134146  0.32458625  1
  O  O62  1  0.94644361  0.00677614  0.28266552  1
  O  O63  1  0.91752191  0.33523100  0.05748555  1
