# generated using pymatgen
data_Li4CrP6(H4O11)2
_symmetry_space_group_name_H-M   'P 1'
_cell_length_a   7.56875296
_cell_length_b   8.47206931
_cell_length_c   7.04705889
_cell_angle_alpha   102.64863654
_cell_angle_beta   95.88950164
_cell_angle_gamma   85.45316456
_symmetry_Int_Tables_number   1
_chemical_formula_structural   Li4CrP6(H4O11)2
_chemical_formula_sum   'Li4 Cr1 P6 H8 O22'
_cell_volume   437.83291449
_cell_formula_units_Z   1
loop_
 _symmetry_equiv_pos_site_id
 _symmetry_equiv_pos_as_xyz
  1  'x, y, z'
loop_
 _atom_site_type_symbol
 _atom_site_label
 _atom_site_symmetry_multiplicity
 _atom_site_fract_x
 _atom_site_fract_y
 _atom_site_fract_z
 _atom_site_occupancy
  Li  Li0  1  0.34965478  0.58173090  0.92894425  1
  Li  Li1  1  0.43783698  0.23318477  0.67521413  1
  Li  Li2  1  0.56216302  0.76681523  0.32478587  1
  Li  Li3  1  0.65034522  0.41826910  0.07105575  1
  Cr  Cr4  1  0.00000000  0.00000000  0.00000000  1
  P  P5  1  0.02157146  0.30500882  0.78004760  1
  P  P6  1  0.21873895  0.83155099  0.55418908  1
  P  P7  1  0.29187197  0.50508689  0.33943929  1
  P  P8  1  0.70812803  0.49491311  0.66056071  1
  P  P9  1  0.78126105  0.16844901  0.44581092  1
  P  P10  1  0.97842854  0.69499118  0.21995240  1
  H  H11  1  0.23736590  0.18815334  0.25641210  1
  H  H12  1  0.26811496  0.00483828  0.27206141  1
  H  H13  1  0.39042124  0.88092162  0.96876011  1
  H  H14  1  0.41259255  0.18601957  0.03105159  1
  H  H15  1  0.58740745  0.81398043  0.96894841  1
  H  H16  1  0.60957876  0.11907838  0.03123989  1
  H  H17  1  0.73188504  0.99516172  0.72793859  1
  H  H18  1  0.76263410  0.81184666  0.74358790  1
  O  O19  1  0.02291985  0.81074815  0.43458224  1
  O  O20  1  0.09000956  0.52685651  0.24205363  1
  O  O21  1  0.21447343  0.33949133  0.80411151  1
  O  O22  1  0.05784661  0.76340386  0.06952012  1
  O  O23  1  0.19402591  0.90469974  0.76270524  1
  O  O24  1  0.22599940  0.07471693  0.17662045  1
  O  O25  1  0.28740228  0.64165678  0.54087595  1
  O  O26  1  0.31603618  0.34464649  0.39516696  1
  O  O27  1  0.34147809  0.90639436  0.44766537  1
  O  O28  1  0.52493107  0.19654804  0.97883562  1
  O  O29  1  0.41931450  0.54849145  0.20829813  1
  O  O30  1  0.58068550  0.45150855  0.79170187  1
  O  O31  1  0.47506893  0.80345196  0.02116438  1
  O  O32  1  0.65852191  0.09360564  0.55233463  1
  O  O33  1  0.68396382  0.65535351  0.60483304  1
  O  O34  1  0.71259772  0.35834322  0.45912405  1
  O  O35  1  0.77400060  0.92528307  0.82337955  1
  O  O36  1  0.80597409  0.09530026  0.23729476  1
  O  O37  1  0.94215339  0.23659614  0.93047988  1
  O  O38  1  0.78552657  0.66050867  0.19588849  1
  O  O39  1  0.90999044  0.47314349  0.75794637  1
  O  O40  1  0.97708015  0.18925185  0.56541776  1
