# generated using pymatgen
data_Co3(SeO3)4
_symmetry_space_group_name_H-M   'P 1'
_cell_length_a   8.02605009
_cell_length_b   9.19228638
_cell_length_c   7.66919737
_cell_angle_alpha   90.00000000
_cell_angle_beta   116.61178349
_cell_angle_gamma   90.00000000
_symmetry_Int_Tables_number   1
_chemical_formula_structural   Co3(SeO3)4
_chemical_formula_sum   'Co6 Se8 O24'
_cell_volume   505.87477875
_cell_formula_units_Z   2
loop_
 _symmetry_equiv_pos_site_id
 _symmetry_equiv_pos_as_xyz
  1  'x, y, z'
loop_
 _atom_site_type_symbol
 _atom_site_label
 _atom_site_symmetry_multiplicity
 _atom_site_fract_x
 _atom_site_fract_y
 _atom_site_fract_z
 _atom_site_occupancy
  Co  Co0  1  0.00000000  0.50000000  0.50000000  1
  Co  Co1  1  0.28064913  0.01150055  0.81882184  1
  Co  Co2  1  0.00000000  0.00000000  0.00000000  1
  Co  Co3  1  0.28064913  0.48849945  0.31882184  1
  Co  Co4  1  0.71935087  0.51150055  0.68117816  1
  Co  Co5  1  0.71935087  0.98849945  0.18117816  1
  Se  Se6  1  0.16735741  0.68264390  0.88165036  1
  Se  Se7  1  0.16735741  0.81735610  0.38165036  1
  Se  Se8  1  0.40149309  0.33228643  0.76214182  1
  Se  Se9  1  0.59850691  0.83228643  0.73785818  1
  Se  Se10  1  0.40149309  0.16771357  0.26214182  1
  Se  Se11  1  0.59850691  0.66771357  0.23785818  1
  Se  Se12  1  0.83264259  0.18264390  0.61834964  1
  Se  Se13  1  0.83264259  0.31735610  0.11834964  1
  O  O14  1  0.04736353  0.12653395  0.81625387  1
  O  O15  1  0.15982304  0.87100670  0.93836153  1
  O  O16  1  0.04736353  0.37346605  0.31625387  1
  O  O17  1  0.20595284  0.42951401  0.72436860  1
  O  O18  1  0.15021120  0.88488545  0.57803088  1
  O  O19  1  0.15982304  0.62899330  0.43836153  1
  O  O20  1  0.33618285  0.16146922  0.66825191  1
  O  O21  1  0.20595284  0.07048599  0.22436860  1
  O  O22  1  0.15021120  0.61511455  0.07803088  1
  O  O23  1  0.53572822  0.89890352  0.91559726  1
  O  O24  1  0.46427178  0.39890452  0.58440274  1
  O  O25  1  0.33618285  0.33853078  0.16825191  1
  O  O26  1  0.66381715  0.66146922  0.83174809  1
  O  O27  1  0.53572822  0.60109648  0.41559726  1
  O  O28  1  0.46427178  0.10109548  0.08440274  1
  O  O29  1  0.84978880  0.38488545  0.92196912  1
  O  O30  1  0.79404716  0.92951401  0.77563140  1
  O  O31  1  0.66381715  0.83853078  0.33174809  1
  O  O32  1  0.84017696  0.37100670  0.56163847  1
  O  O33  1  0.84978880  0.11511455  0.42196912  1
  O  O34  1  0.79404716  0.57048599  0.27563140  1
  O  O35  1  0.95263647  0.62653395  0.68374613  1
  O  O36  1  0.84017696  0.12899330  0.06163847  1
  O  O37  1  0.95263647  0.87346605  0.18374613  1
