# generated using pymatgen
data_LiCrPO5
_symmetry_space_group_name_H-M   'P 1'
_cell_length_a   7.14511046
_cell_length_b   10.33096283
_cell_length_c   4.98055720
_cell_angle_alpha   90.00000000
_cell_angle_beta   109.46889324
_cell_angle_gamma   90.00000000
_symmetry_Int_Tables_number   1
_chemical_formula_structural   LiCrPO5
_chemical_formula_sum   'Li4 Cr4 P4 O20'
_cell_volume   346.62322090
_cell_formula_units_Z   4
loop_
 _symmetry_equiv_pos_site_id
 _symmetry_equiv_pos_as_xyz
  1  'x, y, z'
loop_
 _atom_site_type_symbol
 _atom_site_label
 _atom_site_symmetry_multiplicity
 _atom_site_fract_x
 _atom_site_fract_y
 _atom_site_fract_z
 _atom_site_occupancy
  Li  Li0  1  0.16695765  0.10215321  0.12564029  1
  Li  Li1  1  0.33304235  0.60215321  0.37435971  1
  Li  Li2  1  0.66695765  0.39784679  0.62564029  1
  Li  Li3  1  0.83304235  0.89784679  0.87435971  1
  Cr  Cr4  1  0.17840393  0.92700313  0.61747503  1
  Cr  Cr5  1  0.32159607  0.42700313  0.88252497  1
  Cr  Cr6  1  0.67840393  0.57299687  0.11747503  1
  Cr  Cr7  1  0.82159607  0.07299687  0.38252497  1
  P  P8  1  0.02839108  0.34866328  0.21825461  1
  P  P9  1  0.52839108  0.15133672  0.71825461  1
  P  P10  1  0.47160892  0.84866328  0.28174539  1
  P  P11  1  0.97160892  0.65133672  0.78174539  1
  O  O12  1  0.03076733  0.78188822  0.68594855  1
  O  O13  1  0.14828384  0.31044058  0.02045932  1
  O  O14  1  0.99946654  0.95603523  0.27060982  1
  O  O15  1  0.15986803  0.57369829  0.94843766  1
  O  O16  1  0.15903413  0.42995064  0.47238662  1
  O  O17  1  0.34013197  0.07369829  0.55156234  1
  O  O18  1  0.35171616  0.81044058  0.47954068  1
  O  O19  1  0.46923267  0.28188822  0.81405145  1
  O  O20  1  0.34096587  0.92995064  0.02761338  1
  O  O21  1  0.49946654  0.54396477  0.77060982  1
  O  O22  1  0.50053346  0.45603523  0.22939018  1
  O  O23  1  0.65903413  0.07004936  0.97238662  1
  O  O24  1  0.53076733  0.71811178  0.18594855  1
  O  O25  1  0.64828384  0.18955942  0.52045932  1
  O  O26  1  0.65986803  0.92630171  0.44843766  1
  O  O27  1  0.84096587  0.57004936  0.52761338  1
  O  O28  1  0.84013197  0.42630171  0.05156234  1
  O  O29  1  0.00053346  0.04396477  0.72939018  1
  O  O30  1  0.85171616  0.68955942  0.97954068  1
  O  O31  1  0.96923267  0.21811178  0.31405145  1
