# generated using pymatgen
data_Li3Cr3(CuO6)2
_symmetry_space_group_name_H-M   'P 1'
_cell_length_a   8.84222041
_cell_length_b   12.56990205
_cell_length_c   9.17873250
_cell_angle_alpha   90.00000000
_cell_angle_beta   90.00000000
_cell_angle_gamma   92.58055338
_symmetry_Int_Tables_number   1
_chemical_formula_structural   Li3Cr3(CuO6)2
_chemical_formula_sum   'Li12 Cr12 Cu8 O48'
_cell_volume   1019.14342157
_cell_formula_units_Z   4
loop_
 _symmetry_equiv_pos_site_id
 _symmetry_equiv_pos_as_xyz
  1  'x, y, z'
loop_
 _atom_site_type_symbol
 _atom_site_label
 _atom_site_symmetry_multiplicity
 _atom_site_fract_x
 _atom_site_fract_y
 _atom_site_fract_z
 _atom_site_occupancy
  Li  Li0  1  0.07336561  0.69750033  0.08773730  1
  Li  Li1  1  0.05954645  0.34362116  0.50716969  1
  Li  Li2  1  0.17979160  0.17826120  0.77369002  1
  Li  Li3  1  0.32020840  0.32173880  0.27369002  1
  Li  Li4  1  0.42663439  0.80249967  0.58773730  1
  Li  Li5  1  0.44045355  0.15637884  0.00716969  1
  Li  Li6  1  0.55954645  0.84362116  0.99283031  1
  Li  Li7  1  0.57336561  0.19750033  0.41226270  1
  Li  Li8  1  0.67979160  0.67826120  0.72630998  1
  Li  Li9  1  0.82020840  0.82173880  0.22630998  1
  Li  Li10  1  0.94045355  0.65637884  0.49283031  1
  Li  Li11  1  0.92663439  0.30249967  0.91226270  1
  Cr  Cr12  1  0.04543375  0.49212344  0.24976785  1
  Cr  Cr13  1  0.11601028  0.85288808  0.37638877  1
  Cr  Cr14  1  0.11548976  0.14783818  0.11253537  1
  Cr  Cr15  1  0.38398972  0.64711192  0.87638877  1
  Cr  Cr16  1  0.38451024  0.35216182  0.61253537  1
  Cr  Cr17  1  0.45456625  0.00787656  0.74976785  1
  Cr  Cr18  1  0.54543375  0.99212344  0.25023215  1
  Cr  Cr19  1  0.61548976  0.64783818  0.38746463  1
  Cr  Cr20  1  0.61601028  0.35288808  0.12361123  1
  Cr  Cr21  1  0.88451024  0.85216182  0.88746463  1
  Cr  Cr22  1  0.88398972  0.14711192  0.62361123  1
  Cr  Cr23  1  0.95456625  0.50787656  0.75023215  1
  Cu  Cu24  1  0.24671414  0.89520353  0.02698621  1
  Cu  Cu25  1  0.25328586  0.60479647  0.52698621  1
  Cu  Cu26  1  0.25397008  0.38614673  0.96428966  1
  Cu  Cu27  1  0.24602992  0.11385327  0.46428966  1
  Cu  Cu28  1  0.75397008  0.88614673  0.53571034  1
  Cu  Cu29  1  0.74602992  0.61385327  0.03571034  1
  Cu  Cu30  1  0.74671414  0.39520353  0.47301379  1
  Cu  Cu31  1  0.75328586  0.10479647  0.97301379  1
  O  O32  1  0.04899622  0.44458153  0.87876757  1
  O  O33  1  0.05717339  0.90658791  0.88593567  1
  O  O34  1  0.05909455  0.60355398  0.66507660  1
  O  O35  1  0.06326093  0.19453749  0.58008685  1
  O  O36  1  0.10176569  0.58822496  0.37021453  1
  O  O37  1  0.12619877  0.83570318  0.19228145  1
  O  O38  1  0.13353690  0.98028392  0.41692544  1
  O  O39  1  0.12088535  0.24823972  0.98578581  1
  O  O40  1  0.17060175  0.19589739  0.27695529  1
  O  O41  1  0.19752699  0.43590344  0.17893317  1
  O  O42  1  0.24252379  0.78505124  0.46781898  1
  O  O43  1  0.25747621  0.71494876  0.96781898  1
  O  O44  1  0.24543031  0.06330546  0.05556586  1
  O  O45  1  0.25456969  0.43669454  0.55556586  1
  O  O46  1  0.30247301  0.06409656  0.67893317  1
  O  O47  1  0.32939825  0.30410261  0.77695529  1
  O  O48  1  0.36646310  0.51971608  0.91692544  1
  O  O49  1  0.37911465  0.25176028  0.48578581  1
  O  O50  1  0.37380123  0.66429682  0.69228145  1
  O  O51  1  0.39823431  0.91177504  0.87021453  1
  O  O52  1  0.44090545  0.89644602  0.16507660  1
  O  O53  1  0.44282661  0.59341209  0.38593567  1
  O  O54  1  0.43673907  0.30546251  0.08008685  1
  O  O55  1  0.45100378  0.05541847  0.37876757  1
  O  O56  1  0.54899622  0.94458153  0.62123243  1
  O  O57  1  0.56326093  0.69453749  0.91991315  1
  O  O58  1  0.55717339  0.40658791  0.61406433  1
  O  O59  1  0.55909455  0.10355398  0.83492340  1
  O  O60  1  0.60176569  0.08822496  0.12978547  1
  O  O61  1  0.62619877  0.33570318  0.30771855  1
  O  O62  1  0.62088535  0.74823972  0.51421419  1
  O  O63  1  0.63353690  0.48028392  0.08307456  1
  O  O64  1  0.67060175  0.69589739  0.22304471  1
  O  O65  1  0.69752699  0.93590344  0.32106683  1
  O  O66  1  0.74543031  0.56330546  0.44443414  1
  O  O67  1  0.75456969  0.93669454  0.94443414  1
  O  O68  1  0.74252379  0.28505124  0.03218102  1
  O  O69  1  0.75747621  0.21494876  0.53218102  1
  O  O70  1  0.80247301  0.56409656  0.82106683  1
  O  O71  1  0.82939825  0.80410261  0.72304471  1
  O  O72  1  0.87911465  0.75176028  0.01421419  1
  O  O73  1  0.86646310  0.01971608  0.58307456  1
  O  O74  1  0.87380123  0.16429682  0.80771855  1
  O  O75  1  0.89823431  0.41177504  0.62978547  1
  O  O76  1  0.93673907  0.80546251  0.41991315  1
  O  O77  1  0.94090545  0.39644602  0.33492340  1
  O  O78  1  0.94282661  0.09341209  0.11406433  1
  O  O79  1  0.95100378  0.55541847  0.12123243  1
