# generated using pymatgen
data_Li2Mn3NiO8
_symmetry_space_group_name_H-M   'P 1'
_cell_length_a   8.27677995
_cell_length_b   8.28502574
_cell_length_c   8.31584635
_cell_angle_alpha   89.94279319
_cell_angle_beta   89.99172531
_cell_angle_gamma   89.99900402
_symmetry_Int_Tables_number   1
_chemical_formula_structural   Li2Mn3NiO8
_chemical_formula_sum   'Li8 Mn12 Ni4 O32'
_cell_volume   570.24502623
_cell_formula_units_Z   4
loop_
 _symmetry_equiv_pos_site_id
 _symmetry_equiv_pos_as_xyz
  1  'x, y, z'
loop_
 _atom_site_type_symbol
 _atom_site_label
 _atom_site_symmetry_multiplicity
 _atom_site_fract_x
 _atom_site_fract_y
 _atom_site_fract_z
 _atom_site_occupancy
  Li  Li0  1  0.12509445  0.87455129  0.37525830  1
  Li  Li1  1  0.25299204  0.75222700  0.74750643  1
  Li  Li2  1  0.24721401  0.24791627  0.24784189  1
  Li  Li3  1  0.37479974  0.12529898  0.87502619  1
  Li  Li4  1  0.62371770  0.62476727  0.62562054  1
  Li  Li5  1  0.75251649  0.74777448  0.25197039  1
  Li  Li6  1  0.74781102  0.25252201  0.75201378  1
  Li  Li7  1  0.87632068  0.37517475  0.12555753  1
  Mn  Mn8  1  0.12454853  0.62376245  0.12151507  1
  Mn  Mn9  1  0.12292493  0.37749661  0.87536263  1
  Mn  Mn10  1  0.12213674  0.12332254  0.62403075  1
  Mn  Mn11  1  0.37768893  0.87699982  0.12391968  1
  Mn  Mn12  1  0.37744680  0.62241522  0.37535302  1
  Mn  Mn13  1  0.37582168  0.37615232  0.62143782  1
  Mn  Mn14  1  0.62267233  0.87678611  0.87768625  1
  Mn  Mn15  1  0.62468238  0.12306340  0.12386975  1
  Mn  Mn16  1  0.62399266  0.37638531  0.37653550  1
  Mn  Mn17  1  0.87605366  0.62352128  0.87717583  1
  Mn  Mn18  1  0.87514575  0.87697856  0.62412276  1
  Mn  Mn19  1  0.87725500  0.12324372  0.37763741  1
  Ni  Ni20  1  0.99696805  0.50578510  0.49670027  1
  Ni  Ni21  1  0.50193984  0.49424811  0.99684578  1
  Ni  Ni22  1  0.49626911  0.99731090  0.50272083  1
  Ni  Ni23  1  0.00296977  0.00261986  0.00295939  1
  O  O24  1  0.10324039  0.12665459  0.39476936  1
  O  O25  1  0.10541782  0.89721020  0.62844714  1
  O  O26  1  0.11288345  0.61410523  0.88593023  1
  O  O27  1  0.12937172  0.39394324  0.10045735  1
  O  O28  1  0.12191658  0.14744500  0.86031168  1
  O  O29  1  0.13667932  0.36156481  0.63833938  1
  O  O30  1  0.13998884  0.62169999  0.35019527  1
  O  O31  1  0.14772461  0.86117236  0.12370440  1
  O  O32  1  0.35209816  0.13900712  0.62341046  1
  O  O33  1  0.36034758  0.37714264  0.85011725  1
  O  O34  1  0.36344556  0.63902448  0.13831496  1
  O  O35  1  0.37795235  0.85234700  0.36025098  1
  O  O36  1  0.37149114  0.60600608  0.60050690  1
  O  O37  1  0.38742059  0.38596645  0.38584728  1
  O  O38  1  0.39444093  0.10301537  0.12812778  1
  O  O39  1  0.39669626  0.87345735  0.89470583  1
  O  O40  1  0.60211102  0.37204871  0.60570853  1
  O  O41  1  0.60749591  0.60226942  0.37305384  1
  O  O42  1  0.61413708  0.88689576  0.11322971  1
  O  O43  1  0.62802282  0.10683890  0.89854265  1
  O  O44  1  0.62425423  0.35302594  0.13981356  1
  O  O45  1  0.63928469  0.13842794  0.36116614  1
  O  O46  1  0.63732380  0.87746328  0.64842789  1
  O  O47  1  0.64584121  0.63919853  0.87858935  1
  O  O48  1  0.85404875  0.36093507  0.37741034  1
  O  O49  1  0.86240276  0.12273190  0.14845429  1
  O  O50  1  0.86060539  0.86160218  0.86123693  1
  O  O51  1  0.87527739  0.64679686  0.64056950  1
  O  O52  1  0.87212174  0.89315627  0.39878181  1
  O  O53  1  0.88578035  0.11322952  0.61320391  1
  O  O54  1  0.89286885  0.39767203  0.87354015  1
  O  O55  1  0.89832540  0.62769747  0.10624340  1
