# generated using pymatgen
data_Mn3Nb(PO4)4
_symmetry_space_group_name_H-M   'P 1'
_cell_length_a   5.06582998
_cell_length_b   10.17138980
_cell_length_c   6.06714950
_cell_angle_alpha   90.00000000
_cell_angle_beta   90.00000000
_cell_angle_gamma   89.89476179
_symmetry_Int_Tables_number   1
_chemical_formula_structural   Mn3Nb(PO4)4
_chemical_formula_sum   'Mn3 Nb1 P4 O16'
_cell_volume   312.61864196
_cell_formula_units_Z   1
loop_
 _symmetry_equiv_pos_site_id
 _symmetry_equiv_pos_as_xyz
  1  'x, y, z'
loop_
 _atom_site_type_symbol
 _atom_site_label
 _atom_site_symmetry_multiplicity
 _atom_site_fract_x
 _atom_site_fract_y
 _atom_site_fract_z
 _atom_site_occupancy
  Mn  Mn0  1  0.02381666  0.73139723  0.75000000  1
  Mn  Mn1  1  0.46075622  0.21991430  0.75000000  1
  Mn  Mn2  1  0.54867070  0.77161843  0.25000000  1
  Nb  Nb3  1  0.96876624  0.27865246  0.25000000  1
  P  P4  1  0.08268373  0.60430309  0.25000000  1
  P  P5  1  0.39288065  0.09545485  0.25000000  1
  P  P6  1  0.59231975  0.90266428  0.75000000  1
  P  P7  1  0.93279015  0.40777098  0.75000000  1
  O  O8  1  0.14272030  0.44526798  0.25000000  1
  O  O9  1  0.22245391  0.66460550  0.04780934  1
  O  O10  1  0.22245391  0.66460550  0.45219066  1
  O  O11  1  0.22745178  0.38555593  0.75000000  1
  O  O12  1  0.29640727  0.88262778  0.75000000  1
  O  O13  1  0.24063272  0.17046104  0.05773337  1
  O  O14  1  0.24063272  0.17046104  0.44226663  1
  O  O15  1  0.35725822  0.95062488  0.25000000  1
  O  O16  1  0.66325000  0.04869752  0.75000000  1
  O  O17  1  0.73721030  0.82786998  0.55338940  1
  O  O18  1  0.73721030  0.82786998  0.94661060  1
  O  O19  1  0.68628543  0.13965242  0.25000000  1
  O  O20  1  0.78422536  0.60976029  0.25000000  1
  O  O21  1  0.80302024  0.32722259  0.54450814  1
  O  O22  1  0.80302024  0.32722259  0.95549186  1
  O  O23  1  0.83308221  0.54571934  0.75000000  1
