# generated using pymatgen
data_Li3Sb(PO4)2
_symmetry_space_group_name_H-M   'P 1'
_cell_length_a   10.59232500
_cell_length_b   6.46814193
_cell_length_c   4.76801830
_cell_angle_alpha   90.00000000
_cell_angle_beta   88.53779421
_cell_angle_gamma   90.00000000
_symmetry_Int_Tables_number   1
_chemical_formula_structural   Li3Sb(PO4)2
_chemical_formula_sum   'Li6 Sb2 P4 O16'
_cell_volume   326.56325213
_cell_formula_units_Z   2
loop_
 _symmetry_equiv_pos_site_id
 _symmetry_equiv_pos_as_xyz
  1  'x, y, z'
loop_
 _atom_site_type_symbol
 _atom_site_label
 _atom_site_symmetry_multiplicity
 _atom_site_fract_x
 _atom_site_fract_y
 _atom_site_fract_z
 _atom_site_occupancy
  Li  Li0  1  0.00000000  0.00000000  0.00000000  1
  Li  Li1  1  0.00000000  0.50000000  0.00000000  1
  Li  Li2  1  0.21427252  0.75000000  0.49152175  1
  Li  Li3  1  0.50000000  0.00000000  0.50000000  1
  Li  Li4  1  0.50000000  0.50000000  0.50000000  1
  Li  Li5  1  0.78572748  0.25000000  0.50847825  1
  Sb  Sb6  1  0.28174166  0.25000000  0.98584088  1
  Sb  Sb7  1  0.71825834  0.75000000  0.01415912  1
  P  P8  1  0.08285975  0.25000000  0.41381995  1
  P  P9  1  0.40969527  0.75000000  0.90309278  1
  P  P10  1  0.59030473  0.25000000  0.09690722  1
  P  P11  1  0.91714025  0.75000000  0.58618005  1
  O  O12  1  0.04850851  0.75000000  0.71611824  1
  O  O13  1  0.07889685  0.25000000  0.73629028  1
  O  O14  1  0.16136583  0.05947426  0.28748707  1
  O  O15  1  0.16136583  0.44052574  0.28748707  1
  O  O16  1  0.34497828  0.55776989  0.77274791  1
  O  O17  1  0.34497828  0.94223011  0.77274791  1
  O  O18  1  0.41272756  0.75000000  0.22203622  1
  O  O19  1  0.45144826  0.25000000  0.24155204  1
  O  O20  1  0.54855174  0.75000000  0.75844796  1
  O  O21  1  0.58727244  0.25000000  0.77796378  1
  O  O22  1  0.65502172  0.05776989  0.22725209  1
  O  O23  1  0.65502172  0.44223011  0.22725209  1
  O  O24  1  0.83863417  0.55947426  0.71251293  1
  O  O25  1  0.83863417  0.94052574  0.71251293  1
  O  O26  1  0.92110315  0.75000000  0.26370972  1
  O  O27  1  0.95149149  0.25000000  0.28388176  1
