# generated using pymatgen
data_V3Sb(PO4)4
_symmetry_space_group_name_H-M   'P 1'
_cell_length_a   4.99574990
_cell_length_b   10.33016225
_cell_length_c   6.03292480
_cell_angle_alpha   90.00000000
_cell_angle_beta   90.00000000
_cell_angle_gamma   89.85655968
_symmetry_Int_Tables_number   1
_chemical_formula_structural   V3Sb(PO4)4
_chemical_formula_sum   'V3 Sb1 P4 O16'
_cell_volume   311.33961385
_cell_formula_units_Z   1
loop_
 _symmetry_equiv_pos_site_id
 _symmetry_equiv_pos_as_xyz
  1  'x, y, z'
loop_
 _atom_site_type_symbol
 _atom_site_label
 _atom_site_symmetry_multiplicity
 _atom_site_fract_x
 _atom_site_fract_y
 _atom_site_fract_z
 _atom_site_occupancy
  V  V0  1  0.47697743  0.22860073  0.75000000  1
  V  V1  1  0.52770255  0.77984644  0.25000000  1
  V  V2  1  0.97957238  0.26583197  0.25000000  1
  Sb  Sb3  1  0.02535421  0.72359454  0.75000000  1
  P  P4  1  0.10738185  0.59556537  0.25000000  1
  P  P5  1  0.41615455  0.09991010  0.25000000  1
  P  P6  1  0.56680085  0.91450731  0.75000000  1
  P  P7  1  0.90849382  0.38842950  0.75000000  1
  O  O8  1  0.12925991  0.44900081  0.25000000  1
  O  O9  1  0.27328542  0.66189543  0.05449120  1
  O  O10  1  0.27328542  0.66189543  0.44550880  1
  O  O11  1  0.21110087  0.36839635  0.75000000  1
  O  O12  1  0.26278374  0.89845519  0.75000000  1
  O  O13  1  0.26958137  0.17202119  0.05135306  1
  O  O14  1  0.26958137  0.17202119  0.44864694  1
  O  O15  1  0.35461904  0.95460905  0.25000000  1
  O  O16  1  0.64373438  0.05667145  0.75000000  1
  O  O17  1  0.70164274  0.84172447  0.54726726  1
  O  O18  1  0.70164274  0.84172447  0.95273274  1
  O  O19  1  0.71714686  0.12323849  0.25000000  1
  O  O20  1  0.81704795  0.64184855  0.25000000  1
  O  O21  1  0.76923471  0.31520651  0.54941919  1
  O  O22  1  0.76923471  0.31520651  0.95058081  1
  O  O23  1  0.82838315  0.52979491  0.75000000  1
