# generated using pymatgen
data_Li4Mn3Sn2Sb3O16
_symmetry_space_group_name_H-M   'P 1'
_cell_length_a   6.36106396
_cell_length_b   6.27976894
_cell_length_c   10.00359047
_cell_angle_alpha   89.99380699
_cell_angle_beta   91.34256078
_cell_angle_gamma   119.57940357
_symmetry_Int_Tables_number   1
_chemical_formula_structural   Li4Mn3Sn2Sb3O16
_chemical_formula_sum   'Li4 Mn3 Sn2 Sb3 O16'
_cell_volume   347.39861465
_cell_formula_units_Z   1
loop_
 _symmetry_equiv_pos_site_id
 _symmetry_equiv_pos_as_xyz
  1  'x, y, z'
loop_
 _atom_site_type_symbol
 _atom_site_label
 _atom_site_symmetry_multiplicity
 _atom_site_fract_x
 _atom_site_fract_y
 _atom_site_fract_z
 _atom_site_occupancy
  Li  Li0  1  0.31222997  0.65615665  0.88899883  1
  Li  Li1  1  0.98826122  0.99410602  0.98309137  1
  Li  Li2  1  0.99261059  0.99633009  0.50021025  1
  Li  Li3  1  0.63776071  0.31891562  0.40788211  1
  Mn  Mn4  1  0.66330710  0.83159965  0.21366698  1
  Mn  Mn5  1  0.83805489  0.66379786  0.71091456  1
  Mn  Mn6  1  0.83817114  0.17444965  0.71094178  1
  Sn  Sn7  1  0.35563500  0.67785859  0.50074597  1
  Sn  Sn8  1  0.69001611  0.34500811  0.97883074  1
  Sb  Sb9  1  0.16974954  0.83137384  0.21527752  1
  Sb  Sb10  1  0.16969530  0.33833258  0.21527296  1
  Sb  Sb11  1  0.34624360  0.17314347  0.71528733  1
  O  O12  1  0.18449398  0.85267857  0.59459284  1
  O  O13  1  0.03600319  0.51799020  0.33686331  1
  O  O14  1  0.31219243  0.65605724  0.10526144  1
  O  O15  1  0.01650674  0.00832396  0.31405955  1
  O  O16  1  0.03215764  0.01609017  0.80306268  1
  O  O17  1  0.18446411  0.33186854  0.59456545  1
  O  O18  1  0.46080028  0.95664176  0.34084154  1
  O  O19  1  0.46072665  0.50415045  0.34082487  1
  O  O20  1  0.32032548  0.16022671  0.10610310  1
  O  O21  1  0.68406769  0.84211858  0.58743137  1
  O  O22  1  0.49921264  0.46651173  0.84647078  1
  O  O23  1  0.49927219  0.03275790  0.84652279  1
  O  O24  1  0.63689526  0.31849076  0.60346567  1
  O  O25  1  0.85405091  0.68031018  0.09914880  1
  O  O26  1  0.96296977  0.48152878  0.84838367  1
  O  O27  1  0.85412587  0.17348131  0.09912075  1
