# generated using pymatgen
data_Li2Cr3NiO8
_symmetry_space_group_name_H-M   'P 1'
_cell_length_a   8.33552737
_cell_length_b   8.38919614
_cell_length_c   8.30941278
_cell_angle_alpha   90.15752501
_cell_angle_beta   89.67839908
_cell_angle_gamma   90.11358386
_symmetry_Int_Tables_number   1
_chemical_formula_structural   Li2Cr3NiO8
_chemical_formula_sum   'Li8 Cr12 Ni4 O32'
_cell_volume   581.05125190
_cell_formula_units_Z   4
loop_
 _symmetry_equiv_pos_site_id
 _symmetry_equiv_pos_as_xyz
  1  'x, y, z'
loop_
 _atom_site_type_symbol
 _atom_site_label
 _atom_site_symmetry_multiplicity
 _atom_site_fract_x
 _atom_site_fract_y
 _atom_site_fract_z
 _atom_site_occupancy
  Li  Li0  1  0.99756791  0.99981978  0.00366692  1
  Li  Li1  1  0.25059535  0.25068739  0.25193625  1
  Li  Li2  1  0.24952019  0.75021877  0.74854910  1
  Li  Li3  1  0.49636954  0.00172421  0.49720080  1
  Li  Li4  1  0.49627363  0.49995016  0.99937687  1
  Li  Li5  1  0.75000958  0.24772198  0.74759119  1
  Li  Li6  1  0.75068219  0.75018068  0.24981480  1
  Li  Li7  1  0.99923358  0.49847638  0.50233049  1
  Cr  Cr8  1  0.12972807  0.12830689  0.62841524  1
  Cr  Cr9  1  0.12747520  0.37729366  0.87956934  1
  Cr  Cr10  1  0.12805981  0.62571327  0.13056022  1
  Cr  Cr11  1  0.37656185  0.38017600  0.62250922  1
  Cr  Cr12  1  0.37494551  0.62149894  0.37362890  1
  Cr  Cr13  1  0.37473044  0.87770083  0.12352681  1
  Cr  Cr14  1  0.62721540  0.37823447  0.37091160  1
  Cr  Cr15  1  0.62741534  0.12242734  0.12063851  1
  Cr  Cr16  1  0.62695207  0.86730032  0.87445840  1
  Cr  Cr17  1  0.87614726  0.12812994  0.37652335  1
  Cr  Cr18  1  0.87819704  0.87086662  0.62489804  1
  Cr  Cr19  1  0.87896989  0.62470038  0.88224802  1
  Ni  Ni20  1  0.12404895  0.87514048  0.37236163  1
  Ni  Ni21  1  0.37263516  0.12500768  0.87654198  1
  Ni  Ni22  1  0.62318880  0.62516706  0.62451824  1
  Ni  Ni23  1  0.87185740  0.37337289  0.12344532  1
  O  O24  1  0.10243714  0.12978247  0.39474151  1
  O  O25  1  0.11114894  0.88823422  0.60460822  1
  O  O26  1  0.11630796  0.61571539  0.89405361  1
  O  O27  1  0.12178354  0.13985924  0.85529470  1
  O  O28  1  0.12344438  0.38971441  0.10357283  1
  O  O29  1  0.13910335  0.36484838  0.64083943  1
  O  O30  1  0.13293892  0.62575130  0.35251981  1
  O  O31  1  0.13682612  0.86397966  0.14314091  1
  O  O32  1  0.35299472  0.14390945  0.62360293  1
  O  O33  1  0.35519602  0.36779778  0.85945787  1
  O  O34  1  0.35898682  0.64429208  0.13022611  1
  O  O35  1  0.37656209  0.60327718  0.61244449  1
  O  O36  1  0.35501280  0.86322342  0.35846289  1
  O  O37  1  0.39083569  0.38500935  0.38558668  1
  O  O38  1  0.39496167  0.10409608  0.13083500  1
  O  O39  1  0.38997259  0.87741435  0.89462064  1
  O  O40  1  0.60321332  0.37050580  0.60566999  1
  O  O41  1  0.61467097  0.60602768  0.37877702  1
  O  O42  1  0.61358190  0.88447077  0.10866158  1
  O  O43  1  0.62271628  0.35800411  0.14295219  1
  O  O44  1  0.62465028  0.10466325  0.89594644  1
  O  O45  1  0.64255661  0.13341334  0.35994573  1
  O  O46  1  0.64602656  0.88088090  0.64478815  1
  O  O47  1  0.64153405  0.64375324  0.87558660  1
  O  O48  1  0.85878594  0.35707281  0.37370176  1
  O  O49  1  0.85587492  0.13089631  0.14038626  1
  O  O50  1  0.86668192  0.85664283  0.86401322  1
  O  O51  1  0.89038284  0.89197226  0.38685142  1
  O  O52  1  0.87382010  0.64751941  0.64369988  1
  O  O53  1  0.89082882  0.10631022  0.61530603  1
  O  O54  1  0.89379246  0.39878633  0.86702633  1
  O  O55  1  0.89398711  0.62249987  0.10759553  1
