# generated using pymatgen
data_Ti2N2O
_symmetry_space_group_name_H-M   'P 1'
_cell_length_a   8.22238648
_cell_length_b   8.23612594
_cell_length_c   8.20324696
_cell_angle_alpha   109.39718619
_cell_angle_beta   109.40780583
_cell_angle_gamma   109.56540879
_symmetry_Int_Tables_number   1
_chemical_formula_structural   Ti2N2O
_chemical_formula_sum   'Ti16 N16 O8'
_cell_volume   427.87364096
_cell_formula_units_Z   8
loop_
 _symmetry_equiv_pos_site_id
 _symmetry_equiv_pos_as_xyz
  1  'x, y, z'
loop_
 _atom_site_type_symbol
 _atom_site_label
 _atom_site_symmetry_multiplicity
 _atom_site_fract_x
 _atom_site_fract_y
 _atom_site_fract_z
 _atom_site_occupancy
  Ti  Ti0  1  0.49774740  0.99707633  0.98606294  1
  Ti  Ti1  1  0.76392909  0.30325972  0.55559080  1
  Ti  Ti2  1  0.71357253  0.46440635  0.25045676  1
  Ti  Ti3  1  0.20283153  0.95394364  0.24273351  1
  Ti  Ti4  1  0.24584977  0.20765085  0.94251688  1
  Ti  Ti5  1  0.03503076  0.74224354  0.78069511  1
  Ti  Ti6  1  0.53523574  0.74592411  0.29741519  1
  Ti  Ti7  1  0.95569346  0.24920484  0.20841029  1
  Ti  Ti8  1  0.50180265  0.50686859  0.51316607  1
  Ti  Ti9  1  0.99728223  0.99459563  0.49731743  1
  Ti  Ti10  1  0.46468959  0.25984092  0.71799225  1
  Ti  Ti11  1  0.99961655  0.51074313  0.00142363  1
  Ti  Ti12  1  0.75998248  0.79814041  0.04977958  1
  Ti  Ti13  1  0.29165180  0.54066525  0.74476025  1
  Ti  Ti14  1  0.78918531  0.03980755  0.75347246  1
  Ti  Ti15  1  0.24540718  0.69796579  0.45557529  1
  N  N16  1  0.72370582  0.99483144  0.95197913  1
  N  N17  1  0.50821537  0.23251552  0.96225153  1
  N  N18  1  0.01231226  0.05125530  0.27628176  1
  N  N19  1  0.77279291  0.72634183  0.26808986  1
  N  N20  1  0.72569831  0.26301202  0.77158154  1
  N  N21  1  0.77182664  0.54398303  0.53524967  1
  N  N22  1  0.27737904  0.73745953  0.22587972  1
  N  N23  1  0.95025952  0.72469865  0.99052856  1
  N  N24  1  0.54494352  0.77218809  0.54836377  1
  N  N25  1  0.99209693  0.95348570  0.72690953  1
  N  N26  1  0.22561270  0.27487408  0.73669879  1
  N  N27  1  0.55127194  0.53910191  0.77478036  1
  N  N28  1  0.22571130  0.44989890  0.46092197  1
  N  N29  1  0.95833159  0.50544129  0.23396643  1
  N  N30  1  0.03976228  0.48699956  0.76251613  1
  N  N31  1  0.26842171  0.77927890  0.72675161  1
  O  O32  1  0.27724913  0.00763962  0.05486169  1
  O  O33  1  0.76474545  0.04065225  0.48739538  1
  O  O34  1  0.73531616  0.22140599  0.27763012  1
  O  O35  1  0.05282214  0.27305768  0.01359317  1
  O  O36  1  0.44394848  0.45983736  0.21953615  1
  O  O37  1  0.23117802  0.95876133  0.50586889  1
  O  O38  1  0.45332883  0.22279620  0.44925812  1
  O  O39  1  0.49356087  0.76814815  0.04173465  1
