# generated using pymatgen
data_LiNbCoO4
_symmetry_space_group_name_H-M   'P 1'
_cell_length_a   6.19410681
_cell_length_b   6.16600764
_cell_length_c   6.16600774
_cell_angle_alpha   58.76394223
_cell_angle_beta   59.84913767
_cell_angle_gamma   59.84913716
_symmetry_Int_Tables_number   1
_chemical_formula_structural   LiNbCoO4
_chemical_formula_sum   'Li2 Nb2 Co2 O8'
_cell_volume   164.54096472
_cell_formula_units_Z   2
loop_
 _symmetry_equiv_pos_site_id
 _symmetry_equiv_pos_as_xyz
  1  'x, y, z'
loop_
 _atom_site_type_symbol
 _atom_site_label
 _atom_site_symmetry_multiplicity
 _atom_site_fract_x
 _atom_site_fract_y
 _atom_site_fract_z
 _atom_site_occupancy
  Li  Li0  1  0.11038266  0.13961734  0.13961734  1
  Li  Li1  1  0.88961734  0.86038266  0.86038266  1
  Nb  Nb2  1  0.00000000  0.50000000  0.50000000  1
  Nb  Nb3  1  0.50000000  0.50000000  0.50000000  1
  Co  Co4  1  0.50000000  0.00000000  0.50000000  1
  Co  Co5  1  0.50000000  0.50000000  0.00000000  1
  O  O6  1  0.24703999  0.27320513  0.27320513  1
  O  O7  1  0.24578170  0.28197226  0.72646435  1
  O  O8  1  0.24578170  0.72646435  0.28197226  1
  O  O9  1  0.70654876  0.27320513  0.27320513  1
  O  O10  1  0.29345124  0.72679487  0.72679487  1
  O  O11  1  0.75421830  0.71802774  0.27353565  1
  O  O12  1  0.75421830  0.27353565  0.71802774  1
  O  O13  1  0.75296001  0.72679487  0.72679487  1
