# generated using pymatgen
data_Li3SbS3
_symmetry_space_group_name_H-M   'P 1'
_cell_length_a   4.15421160
_cell_length_b   11.92475584
_cell_length_c   12.73048364
_cell_angle_alpha   90.00000000
_cell_angle_beta   106.91176849
_cell_angle_gamma   90.00000000
_symmetry_Int_Tables_number   1
_chemical_formula_structural   Li3SbS3
_chemical_formula_sum   'Li12 Sb4 S12'
_cell_volume   603.36933421
_cell_formula_units_Z   4
loop_
 _symmetry_equiv_pos_site_id
 _symmetry_equiv_pos_as_xyz
  1  'x, y, z'
loop_
 _atom_site_type_symbol
 _atom_site_label
 _atom_site_symmetry_multiplicity
 _atom_site_fract_x
 _atom_site_fract_y
 _atom_site_fract_z
 _atom_site_occupancy
  Li  Li0  1  0.10972184  0.54949451  0.61332538  1
  Li  Li1  1  0.18556099  0.02666440  0.62538519  1
  Li  Li2  1  0.57448092  0.77669492  0.01725802  1
  Li  Li3  1  0.10972184  0.95050549  0.11332538  1
  Li  Li4  1  0.18556099  0.47333560  0.12538519  1
  Li  Li5  1  0.42551908  0.27669492  0.48274198  1
  Li  Li6  1  0.57448092  0.72330508  0.51725802  1
  Li  Li7  1  0.81443801  0.52666440  0.87461481  1
  Li  Li8  1  0.89027816  0.04949451  0.88667462  1
  Li  Li9  1  0.42551908  0.22330508  0.98274198  1
  Li  Li10  1  0.81443801  0.97333560  0.37461481  1
  Li  Li11  1  0.89027816  0.45050549  0.38667462  1
  Sb  Sb12  1  0.47788044  0.30656971  0.74881768  1
  Sb  Sb13  1  0.47788044  0.19343029  0.24881768  1
  Sb  Sb14  1  0.52211956  0.80656971  0.75118232  1
  Sb  Sb15  1  0.52211956  0.69343029  0.25118232  1
  S  S16  1  0.01757728  0.34520198  0.57550224  1
  S  S17  1  0.33776248  0.41291347  0.89753463  1
  S  S18  1  0.01757728  0.15479802  0.07550224  1
  S  S19  1  0.31798189  0.11841663  0.80320481  1
  S  S20  1  0.33776248  0.08708653  0.39753463  1
  S  S21  1  0.31798189  0.38158337  0.30320481  1
  S  S22  1  0.68201811  0.61841663  0.69679519  1
  S  S23  1  0.66223752  0.91291347  0.60246537  1
  S  S24  1  0.68201811  0.88158337  0.19679519  1
  S  S25  1  0.98242272  0.84520198  0.92449776  1
  S  S26  1  0.66223752  0.58708653  0.10246537  1
  S  S27  1  0.98242272  0.65479802  0.42449776  1
