# generated using pymatgen
data_Li2Mn(SiO3)2
_symmetry_space_group_name_H-M   'P 1'
_cell_length_a   12.60922417
_cell_length_b   11.17297095
_cell_length_c   6.32546818
_cell_angle_alpha   73.55647856
_cell_angle_beta   75.47354614
_cell_angle_gamma   85.92848169
_symmetry_Int_Tables_number   1
_chemical_formula_structural   Li2Mn(SiO3)2
_chemical_formula_sum   'Li12 Mn6 Si12 O36'
_cell_volume   827.37603844
_cell_formula_units_Z   6
loop_
 _symmetry_equiv_pos_site_id
 _symmetry_equiv_pos_as_xyz
  1  'x, y, z'
loop_
 _atom_site_type_symbol
 _atom_site_label
 _atom_site_symmetry_multiplicity
 _atom_site_fract_x
 _atom_site_fract_y
 _atom_site_fract_z
 _atom_site_occupancy
  Li  Li0  1  0.02521067  0.00000000  0.48739417  1
  Li  Li1  1  0.68902457  0.00000000  0.15548771  1
  Li  Li2  1  0.46646713  0.12929447  0.95058740  1
  Li  Li3  1  0.13272097  0.22099606  0.56757504  1
  Li  Li4  1  0.63272097  0.27900394  0.53857111  1
  Li  Li5  1  0.96646713  0.37070553  0.82988186  1
  Li  Li6  1  0.52521067  0.50000000  0.23739417  1
  Li  Li7  1  0.18902457  0.50000000  0.90548771  1
  Li  Li8  1  0.96646713  0.62929447  0.20365101  1
  Li  Li9  1  0.63272097  0.72099606  0.82870792  1
  Li  Li10  1  0.13272097  0.77900394  0.29970399  1
  Li  Li11  1  0.46646713  0.87070553  0.58294548  1
  Mn  Mn12  1  0.26439315  0.00000000  0.36780342  1
  Mn  Mn13  1  0.85178079  0.16663226  0.72808116  1
  Mn  Mn14  1  0.35178079  0.33336774  0.64471342  1
  Mn  Mn15  1  0.76439315  0.50000000  0.11780342  1
  Mn  Mn16  1  0.35178079  0.66663226  0.00350579  1
  Mn  Mn17  1  0.85178079  0.83336774  0.42013805  1
  Si  Si18  1  0.02864124  0.00000000  0.98567938  1
  Si  Si19  1  0.67230071  0.00000000  0.66384965  1
  Si  Si20  1  0.48417700  0.11307301  0.45698416  1
  Si  Si21  1  0.13213253  0.21819403  0.07940320  1
  Si  Si22  1  0.63213253  0.28180597  0.04759724  1
  Si  Si23  1  0.98417700  0.38692699  0.32005718  1
  Si  Si24  1  0.17230071  0.50000000  0.41384965  1
  Si  Si25  1  0.52864124  0.50000000  0.73567938  1
  Si  Si26  1  0.98417700  0.61307301  0.69576582  1
  Si  Si27  1  0.63213253  0.71819403  0.32027023  1
  Si  Si28  1  0.13213253  0.78180597  0.78846426  1
  Si  Si29  1  0.48417700  0.88692699  0.05883884  1
  O  O30  1  0.58940651  0.01123428  0.48466293  1
  O  O31  1  0.96091890  0.02289828  0.79209680  1
  O  O32  1  0.37948643  0.02519109  0.52347373  1
  O  O33  1  0.14301704  0.13317824  0.32802222  1
  O  O34  1  0.10921984  0.12822652  0.92087833  1
  O  O35  1  0.73631908  0.13097549  0.57832263  1
  O  O36  1  0.51631017  0.19413571  0.18051768  1
  O  O37  1  0.73236349  0.18672449  0.00452364  1
  O  O38  1  0.47946546  0.20218196  0.62280721  1
  O  O39  1  0.97946546  0.29781804  0.57498918  1
  O  O40  1  0.23236349  0.31327551  0.94124814  1
  O  O41  1  0.01631017  0.30586429  0.12465339  1
  O  O42  1  0.23631908  0.36902451  0.45929812  1
  O  O43  1  0.60921984  0.37177348  0.79910485  1
  O  O44  1  0.64301704  0.36682176  0.21119946  1
  O  O45  1  0.87948643  0.47480891  0.29866481  1
  O  O46  1  0.46091890  0.47710172  0.56499608  1
  O  O47  1  0.08940651  0.48876572  0.24589621  1
  O  O48  1  0.08940651  0.51123428  0.66469728  1
  O  O49  1  0.46091890  0.52289828  0.97408502  1
  O  O50  1  0.87948643  0.52519109  0.82184776  1
  O  O51  1  0.64301704  0.63317824  0.14578350  1
  O  O52  1  0.60921984  0.62822652  0.59167532  1
  O  O53  1  0.23631908  0.63097549  0.30438280  1
  O  O54  1  0.01631017  0.69413571  0.85903644  1
  O  O55  1  0.23236349  0.68672449  0.82638837  1
  O  O56  1  0.97946546  0.70218196  0.44554537  1
  O  O57  1  0.47946546  0.79781804  0.89772833  1
  O  O58  1  0.73236349  0.81327551  0.26311286  1
  O  O59  1  0.51631017  0.80586429  0.30317215  1
  O  O60  1  0.73631908  0.86902451  0.68535829  1
  O  O61  1  0.10921984  0.87177348  0.96990284  1
  O  O62  1  0.14301704  0.86682176  0.52896174  1
  O  O63  1  0.37948643  0.97480891  0.09703884  1
  O  O64  1  0.96091890  0.97710172  0.24698330  1
  O  O65  1  0.58940651  0.98876572  0.92593056  1
