# generated using pymatgen
data_Li2MnCr3O8
_symmetry_space_group_name_H-M   'P 1'
_cell_length_a   5.88310308
_cell_length_b   5.88292362
_cell_length_c   9.36752805
_cell_angle_alpha   90.00414617
_cell_angle_beta   89.99792691
_cell_angle_gamma   119.99899160
_symmetry_Int_Tables_number   1
_chemical_formula_structural   Li2MnCr3O8
_chemical_formula_sum   'Li4 Mn2 Cr6 O16'
_cell_volume   280.77582605
_cell_formula_units_Z   2
loop_
 _symmetry_equiv_pos_site_id
 _symmetry_equiv_pos_as_xyz
  1  'x, y, z'
loop_
 _atom_site_type_symbol
 _atom_site_label
 _atom_site_symmetry_multiplicity
 _atom_site_fract_x
 _atom_site_fract_y
 _atom_site_fract_z
 _atom_site_occupancy
  Li  Li0  1  0.33332877  0.66668236  0.89700231  1
  Li  Li1  1  0.99998619  0.00000874  0.99586018  1
  Li  Li2  1  0.00001381  0.00002255  0.49586018  1
  Li  Li3  1  0.66667123  0.33335359  0.39700231  1
  Mn  Mn4  1  0.33333992  0.66666918  0.48264839  1
  Mn  Mn5  1  0.66666008  0.33332926  0.98264839  1
  Cr  Cr6  1  0.16959169  0.83039578  0.21091456  1
  Cr  Cr7  1  0.16959001  0.33921327  0.21091373  1
  Cr  Cr8  1  0.66076308  0.83040286  0.21091404  1
  Cr  Cr9  1  0.33923692  0.16963877  0.71091404  1
  Cr  Cr10  1  0.83040831  0.66080409  0.71091456  1
  Cr  Cr11  1  0.83040999  0.16962325  0.71091373  1
  O  O12  1  0.16690996  0.83312230  0.60020861  1
  O  O13  1  0.04312107  0.52158501  0.34445131  1
  O  O14  1  0.33330615  0.66665189  0.10312949  1
  O  O15  1  0.99997506  0.00000927  0.30858050  1
  O  O16  1  0.00002494  0.00003321  0.80858050  1
  O  O17  1  0.16693104  0.33382067  0.60020604  1
  O  O18  1  0.47841182  0.95687963  0.34444846  1
  O  O19  1  0.47844143  0.52157118  0.34444042  1
  O  O20  1  0.33376730  0.16687010  0.10020197  1
  O  O21  1  0.66623270  0.83310380  0.60020197  1
  O  O22  1  0.52158818  0.47846781  0.84444846  1
  O  O23  1  0.52155857  0.04313075  0.84444042  1
  O  O24  1  0.66669385  0.33334575  0.60312949  1
  O  O25  1  0.83309004  0.66621234  0.10020861  1
  O  O26  1  0.95687893  0.47846294  0.84445131  1
  O  O27  1  0.83306896  0.16688963  0.10020604  1
