# generated using pymatgen
data_LiCr3P4O15
_symmetry_space_group_name_H-M   'P 1'
_cell_length_a   17.28306667
_cell_length_b   6.44298581
_cell_length_c   10.49910986
_cell_angle_alpha   90.00000000
_cell_angle_beta   90.00000000
_cell_angle_gamma   89.74628083
_symmetry_Int_Tables_number   1
_chemical_formula_structural   LiCr3P4O15
_chemical_formula_sum   'Li4 Cr12 P16 O60'
_cell_volume   1169.11222624
_cell_formula_units_Z   4
loop_
 _symmetry_equiv_pos_site_id
 _symmetry_equiv_pos_as_xyz
  1  'x, y, z'
loop_
 _atom_site_type_symbol
 _atom_site_label
 _atom_site_symmetry_multiplicity
 _atom_site_fract_x
 _atom_site_fract_y
 _atom_site_fract_z
 _atom_site_occupancy
  Li  Li0  1  0.02003172  0.21356682  0.04406775  1
  Li  Li1  1  0.50145465  0.82313432  0.96194262  1
  Li  Li2  1  0.52003172  0.21356682  0.45593225  1
  Li  Li3  1  0.00145465  0.82313432  0.53805738  1
  Cr  Cr4  1  0.13607748  0.57954190  0.48894495  1
  Cr  Cr5  1  0.16551457  0.60569461  0.00240895  1
  Cr  Cr6  1  0.24657551  0.31546930  0.73767895  1
  Cr  Cr7  1  0.25115559  0.81331797  0.23887590  1
  Cr  Cr8  1  0.33380074  0.10154602  0.50290103  1
  Cr  Cr9  1  0.36587348  0.08156266  0.99039175  1
  Cr  Cr10  1  0.63607748  0.57954190  0.01105505  1
  Cr  Cr11  1  0.66551457  0.60569461  0.49759105  1
  Cr  Cr12  1  0.74657551  0.31546930  0.76232105  1
  Cr  Cr13  1  0.75115559  0.81331797  0.26112410  1
  Cr  Cr14  1  0.83380074  0.10154602  0.99709897  1
  Cr  Cr15  1  0.86587348  0.08156266  0.50960825  1
  P  P16  1  0.05223508  0.63302757  0.22879510  1
  P  P17  1  0.07062842  0.47761269  0.75798644  1
  P  P18  1  0.17557783  0.08202162  0.47936724  1
  P  P19  1  0.20525002  0.09796137  0.00158066  1
  P  P20  1  0.29578111  0.59581003  0.50031234  1
  P  P21  1  0.32447629  0.57769355  0.98014486  1
  P  P22  1  0.42781196  0.95737937  0.26241876  1
  P  P23  1  0.44925119  0.15189209  0.72320944  1
  P  P24  1  0.55223508  0.63302757  0.27120490  1
  P  P25  1  0.57062842  0.47761269  0.74201356  1
  P  P26  1  0.67557783  0.08202162  0.02063276  1
  P  P27  1  0.70525002  0.09796137  0.49841934  1
  P  P28  1  0.79578111  0.59581003  0.99968766  1
  P  P29  1  0.82447629  0.57769355  0.51985514  1
  P  P30  1  0.92781196  0.95737937  0.23758124  1
  P  P31  1  0.94925119  0.15189209  0.77679056  1
  O  O32  1  0.02259340  0.46183311  0.14821598  1
  O  O33  1  0.00693698  0.84798170  0.19635608  1
  O  O34  1  0.04625758  0.61121841  0.37393172  1
  O  O35  1  0.06150362  0.59482182  0.63099904  1
  O  O36  1  0.08416790  0.61663910  0.87204346  1
  O  O37  1  0.13234603  0.30471635  0.74891085  1
  O  O38  1  0.12401846  0.89406621  0.49632982  1
  O  O39  1  0.12988963  0.27727614  0.45340939  1
  O  O40  1  0.13742119  0.69144728  0.18847005  1
  O  O41  1  0.15405043  0.91192389  0.98361241  1
  O  O42  1  0.15719073  0.29232806  0.02748862  1
  O  O43  1  0.24054098  0.04225993  0.37377143  1
  O  O44  1  0.23235496  0.10669511  0.59757818  1
  O  O45  1  0.23647781  0.61633477  0.38350284  1
  O  O46  1  0.23205840  0.54635010  0.60683256  1
  O  O47  1  0.26830757  0.05230653  0.10921119  1
  O  O48  1  0.26358356  0.12128577  0.88525784  1
  O  O49  1  0.26691853  0.60815046  0.09661047  1
  O  O50  1  0.26003778  0.54824695  0.87241599  1
  O  O51  1  0.33885788  0.79320678  0.53063958  1
  O  O52  1  0.34650888  0.40808505  0.48008920  1
  O  O53  1  0.36183200  0.19514261  0.68848195  1
  O  O54  1  0.37350134  0.77076464  0.96054431  1
  O  O55  1  0.37485567  0.38765632  0.99636861  1
  O  O56  1  0.36284340  0.79614566  0.26006609  1
  O  O57  1  0.41695096  0.11429435  0.37022536  1
  O  O58  1  0.44228450  0.05180364  0.13022368  1
  O  O59  1  0.45302253  0.07320582  0.86209047  1
  O  O60  1  0.48610819  0.38309916  0.72164148  1
  O  O61  1  0.48856449  0.03060641  0.62097179  1
  O  O62  1  0.52259340  0.46183311  0.35178402  1
  O  O63  1  0.50693698  0.84798170  0.30364392  1
  O  O64  1  0.54625758  0.61121841  0.12606828  1
  O  O65  1  0.56150362  0.59482182  0.86900096  1
  O  O66  1  0.58416790  0.61663910  0.62795654  1
  O  O67  1  0.63234603  0.30471635  0.75108915  1
  O  O68  1  0.62401846  0.89406621  0.00367018  1
  O  O69  1  0.62988963  0.27727614  0.04659061  1
  O  O70  1  0.63742119  0.69144728  0.31152995  1
  O  O71  1  0.65405043  0.91192389  0.51638759  1
  O  O72  1  0.65719073  0.29232806  0.47251138  1
  O  O73  1  0.74054098  0.04225993  0.12622857  1
  O  O74  1  0.73235496  0.10669511  0.90242182  1
  O  O75  1  0.73647781  0.61633477  0.11649716  1
  O  O76  1  0.73205840  0.54635010  0.89316744  1
  O  O77  1  0.76830757  0.05230653  0.39078881  1
  O  O78  1  0.76358356  0.12128577  0.61474216  1
  O  O79  1  0.76691853  0.60815046  0.40338953  1
  O  O80  1  0.76003778  0.54824695  0.62758401  1
  O  O81  1  0.83885788  0.79320678  0.96936042  1
  O  O82  1  0.84650888  0.40808505  0.01991080  1
  O  O83  1  0.86183200  0.19514261  0.81151805  1
  O  O84  1  0.87350134  0.77076464  0.53945569  1
  O  O85  1  0.87485567  0.38765632  0.50363139  1
  O  O86  1  0.86284340  0.79614566  0.23993391  1
  O  O87  1  0.91695096  0.11429435  0.12977464  1
  O  O88  1  0.94228450  0.05180364  0.36977632  1
  O  O89  1  0.95302253  0.07320582  0.63790953  1
  O  O90  1  0.98610819  0.38309916  0.77835852  1
  O  O91  1  0.98856449  0.03060641  0.87902821  1
