# generated using pymatgen
data_Li3MnV(PO4)3
_symmetry_space_group_name_H-M   'P 1'
_cell_length_a   8.63690945
_cell_length_b   8.67903601
_cell_length_c   12.65799143
_cell_angle_alpha   74.36571661
_cell_angle_beta   105.83448391
_cell_angle_gamma   84.61709360
_symmetry_Int_Tables_number   1
_chemical_formula_structural   Li3MnV(PO4)3
_chemical_formula_sum   'Li12 Mn4 V4 P12 O48'
_cell_volume   864.60555187
_cell_formula_units_Z   4
loop_
 _symmetry_equiv_pos_site_id
 _symmetry_equiv_pos_as_xyz
  1  'x, y, z'
loop_
 _atom_site_type_symbol
 _atom_site_label
 _atom_site_symmetry_multiplicity
 _atom_site_fract_x
 _atom_site_fract_y
 _atom_site_fract_z
 _atom_site_occupancy
  Li  Li0  1  0.00628414  0.00127087  0.87326184  1
  Li  Li1  1  0.00107580  0.00147575  0.37543922  1
  Li  Li2  1  0.28862890  0.28782879  0.62586761  1
  Li  Li3  1  0.49976309  0.50199980  0.74956345  1
  Li  Li4  1  0.28572765  0.29203083  0.12243091  1
  Li  Li5  1  0.50265189  0.49962485  0.50178557  1
  Li  Li6  1  0.71210349  0.70983471  0.87484153  1
  Li  Li7  1  0.50020731  0.50022173  0.24884082  1
  Li  Li8  1  0.50020015  0.50002576  0.99978910  1
  Li  Li9  1  0.71267500  0.71043923  0.37671110  1
  Li  Li10  1  0.99789634  0.99702266  0.62646289  1
  Li  Li11  1  0.99223351  0.99841505  0.12469656  1
  Mn  Mn12  1  0.05845459  0.62975016  0.81642311  1
  Mn  Mn13  1  0.37421159  0.94350695  0.56492198  1
  Mn  Mn14  1  0.94112866  0.37062223  0.68535334  1
  Mn  Mn15  1  0.94191567  0.37330016  0.18369029  1
  V  V16  1  0.05736705  0.62248548  0.32011839  1
  V  V17  1  0.62023561  0.05593840  0.92989737  1
  V  V18  1  0.37867630  0.94415268  0.06857228  1
  V  V19  1  0.62301983  0.05647804  0.43097968  1
  P  P20  1  0.28430021  0.28991430  0.87462956  1
  P  P21  1  0.13479004  0.66569374  0.56848283  1
  P  P22  1  0.33883779  0.86734121  0.81580521  1
  P  P23  1  0.28722571  0.28676250  0.37491950  1
  P  P24  1  0.14111883  0.66494991  0.06725414  1
  P  P25  1  0.33802018  0.86149433  0.31890523  1
  P  P26  1  0.66535839  0.13458558  0.68272875  1
  P  P27  1  0.85858458  0.33407438  0.93232638  1
  P  P28  1  0.71475150  0.71261681  0.62547401  1
  P  P29  1  0.66223604  0.13169853  0.18273584  1
  P  P30  1  0.86125000  0.33945367  0.43190912  1
  P  P31  1  0.71478077  0.71250596  0.12491621  1
  O  O32  1  0.01581801  0.66214759  0.95232967  1
  O  O33  1  0.05182282  0.60905718  0.66565734  1
  O  O34  1  0.25810314  0.17390810  0.98284759  1
  O  O35  1  0.01033861  0.65509539  0.45617176  1
  O  O36  1  0.17388378  0.26540555  0.76230659  1
  O  O37  1  0.15531199  0.85714049  0.80222683  1
  O  O38  1  0.25938701  0.46388785  0.88600049  1
  O  O39  1  0.14456086  0.85031413  0.54782692  1
  O  O40  1  0.05427663  0.61536365  0.16181446  1
  O  O41  1  0.26210010  0.17334221  0.48528863  1
  O  O42  1  0.17272886  0.26256456  0.26351028  1
  O  O43  1  0.15573454  0.84288917  0.30643077  1
  O  O44  1  0.29647335  0.55063434  0.60166252  1
  O  O45  1  0.40216136  0.95400446  0.91061175  1
  O  O46  1  0.34016041  0.98846592  0.69967287  1
  O  O47  1  0.46097142  0.26423280  0.86694029  1
  O  O48  1  0.26385317  0.46122882  0.38483013  1
  O  O49  1  0.45313666  0.70501689  0.85118757  1
  O  O50  1  0.16121224  0.84789597  0.04838573  1
  O  O51  1  0.29973306  0.54427990  0.10267478  1
  O  O52  1  0.40028874  0.95132664  0.41310904  1
  O  O53  1  0.54930210  0.29568085  0.64855258  1
  O  O54  1  0.33719507  0.98543818  0.20434209  1
  O  O55  1  0.46250593  0.26228727  0.36489401  1
  O  O56  1  0.53808871  0.74011237  0.63446066  1
  O  O57  1  0.65633437  0.01158728  0.79519208  1
  O  O58  1  0.45614890  0.70251803  0.35325097  1
  O  O59  1  0.61007426  0.05208689  0.58620147  1
  O  O60  1  0.70047859  0.45438469  0.89795482  1
  O  O61  1  0.83809657  0.15160260  0.95050464  1
  O  O62  1  0.54848555  0.29378452  0.14866900  1
  O  O63  1  0.73801047  0.53768877  0.61512427  1
  O  O64  1  0.53771303  0.73690010  0.13250389  1
  O  O65  1  0.65645712  0.00888585  0.29621456  1
  O  O66  1  0.59818239  0.04683471  0.08712589  1
  O  O67  1  0.70075436  0.45741234  0.39644084  1
  O  O68  1  0.85083593  0.14448811  0.70287469  1
  O  O69  1  0.82679369  0.73560188  0.73796926  1
  O  O70  1  0.74310366  0.82603039  0.51724971  1
  O  O71  1  0.94648836  0.38523880  0.83771046  1
  O  O72  1  0.84245235  0.15852653  0.44305137  1
  O  O73  1  0.73976913  0.53642369  0.11538785  1
  O  O74  1  0.84677293  0.14161175  0.19873112  1
  O  O75  1  0.82595624  0.73947857  0.23485185  1
  O  O76  1  0.98412352  0.33720746  0.54838369  1
  O  O77  1  0.74061009  0.82591587  0.01598887  1
  O  O78  1  0.95213384  0.40059190  0.33805441  1
  O  O79  1  0.98536545  0.33595493  0.04709714  1
