# generated using pymatgen
data_Li3MnV(PO4)3
_symmetry_space_group_name_H-M   'P 1'
_cell_length_a   8.63479844
_cell_length_b   8.67505812
_cell_length_c   12.64478449
_cell_angle_alpha   74.41634132
_cell_angle_beta   105.90136253
_cell_angle_gamma   84.61200500
_symmetry_Int_Tables_number   1
_chemical_formula_structural   Li3MnV(PO4)3
_chemical_formula_sum   'Li12 Mn4 V4 P12 O48'
_cell_volume   862.99331700
_cell_formula_units_Z   4
loop_
 _symmetry_equiv_pos_site_id
 _symmetry_equiv_pos_as_xyz
  1  'x, y, z'
loop_
 _atom_site_type_symbol
 _atom_site_label
 _atom_site_symmetry_multiplicity
 _atom_site_fract_x
 _atom_site_fract_y
 _atom_site_fract_z
 _atom_site_occupancy
  Li  Li0  1  0.00372967  0.00313872  0.87484928  1
  Li  Li1  1  0.00433650  0.00286484  0.37451894  1
  Li  Li2  1  0.28891470  0.28851374  0.62684994  1
  Li  Li3  1  0.50033239  0.49852068  0.75092588  1
  Li  Li4  1  0.28493837  0.29138191  0.12213359  1
  Li  Li5  1  0.50083995  0.49985314  0.50070227  1
  Li  Li6  1  0.71249809  0.71087035  0.87586345  1
  Li  Li7  1  0.49945814  0.50149823  0.24907149  1
  Li  Li8  1  0.49887857  0.50036618  0.99891360  1
  Li  Li9  1  0.71175351  0.71041106  0.37584114  1
  Li  Li10  1  0.99504533  0.99698257  0.62786607  1
  Li  Li11  1  0.99493556  0.99821384  0.12395803  1
  Mn  Mn12  1  0.05945064  0.62946967  0.81629482  1
  Mn  Mn13  1  0.62517731  0.05628861  0.93485455  1
  Mn  Mn14  1  0.94214029  0.37101603  0.68502855  1
  Mn  Mn15  1  0.94284023  0.37545083  0.18349222  1
  V  V16  1  0.05789459  0.62355702  0.31988181  1
  V  V17  1  0.37895301  0.94294759  0.57049346  1
  V  V18  1  0.37643248  0.94287359  0.06827261  1
  V  V19  1  0.61985445  0.05492781  0.43090167  1
  P  P20  1  0.28561981  0.28727704  0.87520492  1
  P  P21  1  0.14030109  0.66575815  0.56922317  1
  P  P22  1  0.33447317  0.86546680  0.81711766  1
  P  P23  1  0.28565633  0.28739874  0.37503030  1
  P  P24  1  0.14066740  0.66431091  0.06736939  1
  P  P25  1  0.33771510  0.86248388  0.31811911  1
  P  P26  1  0.66062216  0.13359171  0.68370582  1
  P  P27  1  0.86411166  0.33532236  0.93278742  1
  P  P28  1  0.71680367  0.71036325  0.62576274  1
  P  P29  1  0.66177356  0.13313385  0.18180319  1
  P  P30  1  0.86086868  0.33918471  0.43192983  1
  P  P31  1  0.71363179  0.71359134  0.12473642  1
  O  O32  1  0.01548626  0.66220149  0.95199599  1
  O  O33  1  0.05393170  0.61359348  0.66449502  1
  O  O34  1  0.25696448  0.17417252  0.98344146  1
  O  O35  1  0.01322680  0.66099952  0.45614463  1
  O  O36  1  0.17266582  0.26401632  0.76254305  1
  O  O37  1  0.14915189  0.85526013  0.79693400  1
  O  O38  1  0.26291463  0.46190944  0.88551333  1
  O  O39  1  0.15966423  0.84904551  0.55000645  1
  O  O40  1  0.05366322  0.61438225  0.16182920  1
  O  O41  1  0.25848529  0.17373738  0.48326264  1
  O  O42  1  0.17204763  0.26445128  0.26268195  1
  O  O43  1  0.15475543  0.84365889  0.30439972  1
  O  O44  1  0.29898640  0.54649512  0.60260073  1
  O  O45  1  0.39002576  0.94838832  0.91348044  1
  O  O46  1  0.34259617  0.98968033  0.70449129  1
  O  O47  1  0.46157855  0.25930272  0.86520039  1
  O  O48  1  0.26414065  0.46232275  0.38476824  1
  O  O49  1  0.45079785  0.70490340  0.85071925  1
  O  O50  1  0.15951020  0.84753801  0.04930536  1
  O  O51  1  0.29945725  0.54462879  0.10248012  1
  O  O52  1  0.39828481  0.95097394  0.41245929  1
  O  O53  1  0.54617726  0.29545195  0.64805927  1
  O  O54  1  0.33706407  0.98706775  0.20374224  1
  O  O55  1  0.46173333  0.26093369  0.36571945  1
  O  O56  1  0.53969462  0.73575381  0.63298542  1
  O  O57  1  0.65958452  0.01257131  0.79968991  1
  O  O58  1  0.45594929  0.70351113  0.35244035  1
  O  O59  1  0.59700088  0.04654577  0.58852047  1
  O  O60  1  0.70255397  0.45110565  0.89834584  1
  O  O61  1  0.85329240  0.15139166  0.95109701  1
  O  O62  1  0.54787558  0.29477793  0.14768029  1
  O  O63  1  0.74154378  0.53628476  0.61427020  1
  O  O64  1  0.53762779  0.73565274  0.13424028  1
  O  O65  1  0.65653430  0.01030989  0.29536701  1
  O  O66  1  0.59550599  0.04695805  0.08565133  1
  O  O67  1  0.70091510  0.45670877  0.39651515  1
  O  O68  1  0.84418958  0.14372289  0.69665206  1
  O  O69  1  0.82664312  0.73521712  0.73806993  1
  O  O70  1  0.74287780  0.82667746  0.51748948  1
  O  O71  1  0.94891110  0.39163379  0.83648494  1
  O  O72  1  0.84231972  0.15751975  0.44393345  1
  O  O73  1  0.74050929  0.53857677  0.11429128  1
  O  O74  1  0.84557535  0.14268793  0.19629137  1
  O  O75  1  0.82607244  0.74221063  0.23371657  1
  O  O76  1  0.98504388  0.33820712  0.54812390  1
  O  O77  1  0.73639833  0.82723970  0.01314786  1
  O  O78  1  0.95124610  0.40080646  0.33775415  1
  O  O79  1  0.98818016  0.34178374  0.04746489  1
