# generated using pymatgen
data_Ca(Fe9O13)2
_symmetry_space_group_name_H-M   'P 1'
_cell_length_a   5.99812771
_cell_length_b   5.26193845
_cell_length_c   17.49230361
_cell_angle_alpha   98.06981285
_cell_angle_beta   90.00012010
_cell_angle_gamma   106.61246655
_symmetry_Int_Tables_number   1
_chemical_formula_structural   Ca(Fe9O13)2
_chemical_formula_sum   'Ca1 Fe18 O26'
_cell_volume   523.33664247
_cell_formula_units_Z   1
loop_
 _symmetry_equiv_pos_site_id
 _symmetry_equiv_pos_as_xyz
  1  'x, y, z'
loop_
 _atom_site_type_symbol
 _atom_site_label
 _atom_site_symmetry_multiplicity
 _atom_site_fract_x
 _atom_site_fract_y
 _atom_site_fract_z
 _atom_site_occupancy
  Ca  Ca0  1  0.60707120  0.41541554  0.22930593  1
  Fe  Fe1  1  0.25030147  0.00544601  0.50000110  1
  Fe  Fe2  1  0.74809690  0.99244760  0.49985185  1
  Fe  Fe3  1  0.32009730  0.28448969  0.04053607  1
  Fe  Fe4  1  0.82406325  0.29210599  0.04174975  1
  Fe  Fe5  1  0.17825252  0.71148564  0.95749566  1
  Fe  Fe6  1  0.67715240  0.70818899  0.95569547  1
  Fe  Fe7  1  0.37185741  0.49427323  0.41743310  1
  Fe  Fe8  1  0.87655663  0.49664654  0.41704589  1
  Fe  Fe9  1  0.12420551  0.50173166  0.58400219  1
  Fe  Fe10  1  0.62636481  0.50011361  0.58226304  1
  Fe  Fe11  1  0.46105489  0.85067880  0.12340998  1
  Fe  Fe12  1  0.97513379  0.88836220  0.13019194  1
  Fe  Fe13  1  0.03221470  0.13013777  0.86648017  1
  Fe  Fe14  1  0.53029016  0.12498950  0.86522821  1
  Fe  Fe15  1  0.48748126  0.95675116  0.32866072  1
  Fe  Fe16  1  0.99807649  0.99231601  0.32430706  1
  Fe  Fe17  1  0.00438992  0.01869199  0.67739517  1
  Fe  Fe18  1  0.50476707  0.02013225  0.67580130  1
  O  O19  1  0.98592968  0.98656143  0.00350834  1
  O  O20  1  0.50272704  0.97640227  0.00227958  1
  O  O21  1  0.45438507  0.77158276  0.22624022  1
  O  O22  1  0.93776666  0.77238106  0.22802715  1
  O  O23  1  0.05860080  0.23388564  0.77133300  1
  O  O24  1  0.55747768  0.23169668  0.77059858  1
  O  O25  1  0.13752682  0.59474302  0.06791968  1
  O  O26  1  0.65784956  0.58725357  0.07174160  1
  O  O27  1  0.35539260  0.42118628  0.93181717  1
  O  O28  1  0.85330078  0.41702590  0.93338848  1
  O  O29  1  0.29451504  0.12938679  0.13960100  1
  O  O30  1  0.77568686  0.13736591  0.13721192  1
  O  O31  1  0.21772729  0.87965133  0.86703599  1
  O  O32  1  0.72069813  0.87971200  0.86514625  1
  O  O33  1  0.31851300  0.23032173  0.31979395  1
  O  O34  1  0.79573957  0.23021358  0.32121496  1
  O  O35  1  0.19255338  0.76996822  0.67379739  1
  O  O36  1  0.69159158  0.76946748  0.67079783  1
  O  O37  1  0.19727615  0.79567067  0.39151861  1
  O  O38  1  0.69596069  0.77896270  0.38473882  1
  O  O39  1  0.30772239  0.23657206  0.60908655  1
  O  O40  1  0.81015889  0.24399632  0.61033455  1
  O  O41  1  0.07242620  0.25543586  0.47375404  1
  O  O42  1  0.55565130  0.26144836  0.47581935  1
  O  O43  1  0.42073223  0.72851727  0.53272580  1
  O  O44  1  0.94139892  0.72306895  0.53193961  1
