# generated using pymatgen
data_Zr2N2O
_symmetry_space_group_name_H-M   'P 1'
_cell_length_a   5.50995683
_cell_length_b   7.07881631
_cell_length_c   11.31507106
_cell_angle_alpha   78.41692605
_cell_angle_beta   119.11404761
_cell_angle_gamma   89.83295046
_symmetry_Int_Tables_number   1
_chemical_formula_structural   Zr2N2O
_chemical_formula_sum   'Zr12 N12 O6'
_cell_volume   375.10043421
_cell_formula_units_Z   6
loop_
 _symmetry_equiv_pos_site_id
 _symmetry_equiv_pos_as_xyz
  1  'x, y, z'
loop_
 _atom_site_type_symbol
 _atom_site_label
 _atom_site_symmetry_multiplicity
 _atom_site_fract_x
 _atom_site_fract_y
 _atom_site_fract_z
 _atom_site_occupancy
  Zr  Zr0  1  0.37751231  0.84697181  0.08676992  1
  Zr  Zr1  1  0.71629642  0.84527858  0.41966620  1
  Zr  Zr2  1  0.05692807  0.84691966  0.75302106  1
  Zr  Zr3  1  0.90813430  0.65858849  0.11842074  1
  Zr  Zr4  1  0.59016148  0.65238107  0.78593149  1
  Zr  Zr5  1  0.25062839  0.65396571  0.45115012  1
  Zr  Zr6  1  0.55996281  0.39190782  0.32895686  1
  Zr  Zr7  1  0.86699257  0.38344673  0.66270281  1
  Zr  Zr8  1  0.23167341  0.39768299  0.99360124  1
  Zr  Zr9  1  0.89914004  0.12753122  0.20641436  1
  Zr  Zr10  1  0.25968424  0.10771276  0.54328068  1
  Zr  Zr11  1  0.59175928  0.11065243  0.87632447  1
  N  N12  1  0.50257388  0.80937173  0.92599940  1
  N  N13  1  0.82762770  0.81969210  0.25677679  1
  N  N14  1  0.17120169  0.80723259  0.59374733  1
  N  N15  1  0.35108173  0.68849534  0.27851258  1
  N  N16  1  0.02338256  0.69206908  0.94705186  1
  N  N17  1  0.68721322  0.68866362  0.61200311  1
  N  N18  1  0.62235905  0.48083924  0.14929059  1
  N  N19  1  0.45616377  0.36183890  0.49895558  1
  N  N20  1  0.79713512  0.36248816  0.83611636  1
  N  N21  1  0.48750494  0.13433755  0.03386318  1
  N  N22  1  0.83379237  0.13295306  0.37789810  1
  N  N23  1  0.16647075  0.13794648  0.70464962  1
  O  O24  1  0.91935479  0.50946951  0.47459434  1
  O  O25  1  0.25738467  0.50673725  0.80848713  1
  O  O26  1  0.14014258  0.35735473  0.16664130  1
  O  O27  1  0.00519935  0.99685325  0.06507660  1
  O  O28  1  0.68145726  0.99396868  0.72906051  1
  O  O29  1  0.33731224  0.99665146  0.39126466  1
