# generated using pymatgen
data_Ti3NbCu2(PO4)6
_symmetry_space_group_name_H-M   'P 1'
_cell_length_a   8.70457105
_cell_length_b   8.70457156
_cell_length_c   8.70457120
_cell_angle_alpha   60.13465555
_cell_angle_beta   60.13465094
_cell_angle_gamma   60.13465165
_symmetry_Int_Tables_number   1
_chemical_formula_structural   Ti3NbCu2(PO4)6
_chemical_formula_sum   'Ti3 Nb1 Cu2 P6 O24'
_cell_volume   467.78886012
_cell_formula_units_Z   1
loop_
 _symmetry_equiv_pos_site_id
 _symmetry_equiv_pos_as_xyz
  1  'x, y, z'
loop_
 _atom_site_type_symbol
 _atom_site_label
 _atom_site_symmetry_multiplicity
 _atom_site_fract_x
 _atom_site_fract_y
 _atom_site_fract_z
 _atom_site_occupancy
  Ti  Ti0  1  0.14241366  0.14241366  0.14241366  1
  Ti  Ti1  1  0.35832262  0.35832262  0.35832262  1
  Ti  Ti2  1  0.64245971  0.64245971  0.64245971  1
  Nb  Nb3  1  0.85878984  0.85878984  0.85878984  1
  Cu  Cu4  1  0.00235076  0.00235076  0.00235076  1
  Cu  Cu5  1  0.49995372  0.49995372  0.49995372  1
  P  P6  1  0.04201113  0.74855001  0.45528220  1
  P  P7  1  0.45528220  0.04201113  0.74855001  1
  P  P8  1  0.25549166  0.53504094  0.96057194  1
  P  P9  1  0.53504094  0.96057194  0.25549166  1
  P  P10  1  0.96057194  0.25549166  0.53504094  1
  P  P11  1  0.74855001  0.45528220  0.04201113  1
  O  O12  1  0.12540551  0.30422379  0.49936456  1
  O  O13  1  0.30422379  0.49936456  0.12540551  1
  O  O14  1  0.05888512  0.91598907  0.26999784  1
  O  O15  1  0.49936456  0.12540551  0.30422379  1
  O  O16  1  0.00382462  0.80195334  0.62033393  1
  O  O17  1  0.22892087  0.58379199  0.44036291  1
  O  O18  1  0.26999784  0.05888512  0.91598907  1
  O  O19  1  0.44036291  0.22892087  0.58379199  1
  O  O20  1  0.19757944  0.37497296  0.99928283  1
  O  O21  1  0.58379199  0.44036291  0.22892087  1
  O  O22  1  0.08854804  0.72533786  0.94258578  1
  O  O23  1  0.37497296  0.99928283  0.19757944  1
  O  O24  1  0.62033393  0.00382462  0.80195334  1
  O  O25  1  0.91598907  0.26999784  0.05888512  1
  O  O26  1  0.41713701  0.55727501  0.77176485  1
  O  O27  1  0.80195334  0.62033393  0.00382462  1
  O  O28  1  0.55727501  0.77176485  0.41713701  1
  O  O29  1  0.72533786  0.94258578  0.08854804  1
  O  O30  1  0.77176485  0.41713701  0.55727501  1
  O  O31  1  0.99928283  0.19757944  0.37497296  1
  O  O32  1  0.49835724  0.87562319  0.69724206  1
  O  O33  1  0.94258578  0.08854804  0.72533786  1
  O  O34  1  0.69724206  0.49835724  0.87562319  1
  O  O35  1  0.87562319  0.69724206  0.49835724  1
