# generated using pymatgen
data_Cr2Fe3Co(PO4)6
_symmetry_space_group_name_H-M   'P 1'
_cell_length_a   8.36256338
_cell_length_b   8.36256320
_cell_length_c   8.36256273
_cell_angle_alpha   61.68307094
_cell_angle_beta   61.68307096
_cell_angle_gamma   61.68306953
_symmetry_Int_Tables_number   1
_chemical_formula_structural   Cr2Fe3Co(PO4)6
_chemical_formula_sum   'Cr2 Fe3 Co1 P6 O24'
_cell_volume   429.12951117
_cell_formula_units_Z   1
loop_
 _symmetry_equiv_pos_site_id
 _symmetry_equiv_pos_as_xyz
  1  'x, y, z'
loop_
 _atom_site_type_symbol
 _atom_site_label
 _atom_site_symmetry_multiplicity
 _atom_site_fract_x
 _atom_site_fract_y
 _atom_site_fract_z
 _atom_site_occupancy
  Cr  Cr0  1  0.00010636  0.00010636  0.00010636  1
  Cr  Cr1  1  0.49941001  0.49941001  0.49941001  1
  Fe  Fe2  1  0.14505513  0.14505513  0.14505513  1
  Fe  Fe3  1  0.35340218  0.35340218  0.35340218  1
  Fe  Fe4  1  0.64636732  0.64636732  0.64636732  1
  Co  Co5  1  0.85966050  0.85966050  0.85966050  1
  P  P6  1  0.04515179  0.75007501  0.45995442  1
  P  P7  1  0.45995442  0.04515179  0.75007501  1
  P  P8  1  0.75007501  0.45995442  0.04515179  1
  P  P9  1  0.24626839  0.54895039  0.94963773  1
  P  P10  1  0.54895039  0.94963773  0.24626839  1
  P  P11  1  0.94963773  0.24626839  0.54895039  1
  O  O12  1  0.10653824  0.31545426  0.51146107  1
  O  O13  1  0.31545426  0.51146107  0.10653824  1
  O  O14  1  0.05732458  0.90663459  0.25401977  1
  O  O15  1  0.51146107  0.10653824  0.31545426  1
  O  O16  1  0.00848623  0.81662331  0.61775567  1
  O  O17  1  0.25120762  0.59480367  0.43873654  1
  O  O18  1  0.25401977  0.05732458  0.90663459  1
  O  O19  1  0.43873654  0.25120762  0.59480367  1
  O  O20  1  0.17396703  0.39342455  0.99266233  1
  O  O21  1  0.59480367  0.43873654  0.25120762  1
  O  O22  1  0.08697152  0.75338777  0.93730304  1
  O  O23  1  0.39342455  0.99266233  0.17396703  1
  O  O24  1  0.61775567  0.00848623  0.81662331  1
  O  O25  1  0.90663459  0.25401977  0.05732458  1
  O  O26  1  0.40230492  0.56522666  0.74672074  1
  O  O27  1  0.81662331  0.61775567  0.00848623  1
  O  O28  1  0.56522666  0.74672074  0.40230492  1
  O  O29  1  0.75338777  0.93730304  0.08697152  1
  O  O30  1  0.74672074  0.40230492  0.56522666  1
  O  O31  1  0.99266233  0.17396703  0.39342455  1
  O  O32  1  0.49750268  0.89428635  0.67315561  1
  O  O33  1  0.93730304  0.08697152  0.75338777  1
  O  O34  1  0.67315561  0.49750268  0.89428635  1
  O  O35  1  0.89428635  0.67315561  0.49750268  1
