# generated using pymatgen
data_CuCO3
_symmetry_space_group_name_H-M   'P 1'
_cell_length_a   2.86546107
_cell_length_b   5.38622652
_cell_length_c   9.31109198
_cell_angle_alpha   90.00000000
_cell_angle_beta   99.34800222
_cell_angle_gamma   90.00000000
_symmetry_Int_Tables_number   1
_chemical_formula_structural   CuCO3
_chemical_formula_sum   'Cu2 C2 O6'
_cell_volume   141.79916225
_cell_formula_units_Z   2
loop_
 _symmetry_equiv_pos_site_id
 _symmetry_equiv_pos_as_xyz
  1  'x, y, z'
loop_
 _atom_site_type_symbol
 _atom_site_label
 _atom_site_symmetry_multiplicity
 _atom_site_fract_x
 _atom_site_fract_y
 _atom_site_fract_z
 _atom_site_occupancy
  Cu  Cu0  1  0.00043315  0.50139825  0.00060784  1
  Cu  Cu1  1  0.99956685  0.00139825  0.99939216  1
  C  C2  1  0.10800165  0.75772188  0.34028388  1
  C  C3  1  0.89199835  0.25772188  0.65971612  1
  O  O4  1  0.17024362  0.54218965  0.33890386  1
  O  O5  1  0.82975638  0.04218965  0.66109614  1
  O  O6  1  0.04698152  0.97358070  0.34130060  1
  O  O7  1  0.95301848  0.47358070  0.65869940  1
  O  O8  1  0.50933590  0.75170953  0.01795178  1
  O  O9  1  0.49066410  0.25170953  0.98204822  1
