# generated using pymatgen
data_NbFe3(PO4)6
_symmetry_space_group_name_H-M   'P 1'
_cell_length_a   8.97433279
_cell_length_b   8.97433266
_cell_length_c   8.97433245
_cell_angle_alpha   58.55273789
_cell_angle_beta   58.55273600
_cell_angle_gamma   58.55273810
_symmetry_Int_Tables_number   1
_chemical_formula_structural   NbFe3(PO4)6
_chemical_formula_sum   'Nb1 Fe3 P6 O24'
_cell_volume   494.16746259
_cell_formula_units_Z   1
loop_
 _symmetry_equiv_pos_site_id
 _symmetry_equiv_pos_as_xyz
  1  'x, y, z'
loop_
 _atom_site_type_symbol
 _atom_site_label
 _atom_site_symmetry_multiplicity
 _atom_site_fract_x
 _atom_site_fract_y
 _atom_site_fract_z
 _atom_site_occupancy
  Nb  Nb0  1  0.85960248  0.85960248  0.85960248  1
  Fe  Fe1  1  0.14276242  0.14276242  0.14276242  1
  Fe  Fe2  1  0.35798572  0.35798572  0.35798572  1
  Fe  Fe3  1  0.64322224  0.64322224  0.64322224  1
  P  P4  1  0.03550554  0.74992284  0.46254450  1
  P  P5  1  0.46254450  0.03550554  0.74992284  1
  P  P6  1  0.74992284  0.46254450  0.03550554  1
  P  P7  1  0.25775053  0.52819828  0.96594855  1
  P  P8  1  0.52819828  0.96594855  0.25775053  1
  P  P9  1  0.96594855  0.25775053  0.52819828  1
  O  O10  1  0.13639033  0.27598476  0.50845253  1
  O  O11  1  0.27598476  0.50845253  0.13639033  1
  O  O12  1  0.06467894  0.91940812  0.28611232  1
  O  O13  1  0.50845253  0.13639033  0.27598476  1
  O  O14  1  0.20990908  0.57734747  0.44454166  1
  O  O15  1  0.99760759  0.78433485  0.63436036  1
  O  O16  1  0.28611232  0.06467894  0.91940812  1
  O  O17  1  0.44454166  0.20990908  0.57734747  1
  O  O18  1  0.57734747  0.44454166  0.20990908  1
  O  O19  1  0.22932507  0.35971419  0.99378600  1
  O  O20  1  0.08322355  0.70560242  0.93238146  1
  O  O21  1  0.35971419  0.99378600  0.22932507  1
  O  O22  1  0.63436036  0.99760759  0.78433485  1
  O  O23  1  0.91940812  0.28611232  0.06467894  1
  O  O24  1  0.78433485  0.63436036  0.99760759  1
  O  O25  1  0.42775103  0.55494627  0.79131214  1
  O  O26  1  0.55494627  0.79131214  0.42775103  1
  O  O27  1  0.70560242  0.93238146  0.08322355  1
  O  O28  1  0.99378600  0.22932507  0.35971419  1
  O  O29  1  0.79131214  0.42775103  0.55494627  1
  O  O30  1  0.48923277  0.86487052  0.72528249  1
  O  O31  1  0.93238146  0.08322355  0.70560242  1
  O  O32  1  0.72528249  0.48923277  0.86487052  1
  O  O33  1  0.86487052  0.72528249  0.48923277  1
