# generated using pymatgen
data_Cr2Fe3Ni(PO4)6
_symmetry_space_group_name_H-M   'P 1'
_cell_length_a   8.39784241
_cell_length_b   8.39784207
_cell_length_c   8.39784187
_cell_angle_alpha   61.82177785
_cell_angle_beta   61.82177495
_cell_angle_gamma   61.82177328
_symmetry_Int_Tables_number   1
_chemical_formula_structural   Cr2Fe3Ni(PO4)6
_chemical_formula_sum   'Cr2 Fe3 Ni1 P6 O24'
_cell_volume   435.86885994
_cell_formula_units_Z   1
loop_
 _symmetry_equiv_pos_site_id
 _symmetry_equiv_pos_as_xyz
  1  'x, y, z'
loop_
 _atom_site_type_symbol
 _atom_site_label
 _atom_site_symmetry_multiplicity
 _atom_site_fract_x
 _atom_site_fract_y
 _atom_site_fract_z
 _atom_site_occupancy
  Cr  Cr0  1  0.99902869  0.99902869  0.99902869  1
  Cr  Cr1  1  0.49944794  0.49944794  0.49944794  1
  Fe  Fe2  1  0.14577089  0.14577089  0.14577089  1
  Fe  Fe3  1  0.35306967  0.35306967  0.35306967  1
  Fe  Fe4  1  0.64677404  0.64677404  0.64677404  1
  Ni  Ni5  1  0.85656800  0.85656800  0.85656800  1
  P  P6  1  0.04906825  0.75080919  0.45210331  1
  P  P7  1  0.45210331  0.04906825  0.75080919  1
  P  P8  1  0.75080919  0.45210331  0.04906825  1
  P  P9  1  0.24902775  0.54972280  0.95017514  1
  P  P10  1  0.54972280  0.95017514  0.24902775  1
  P  P11  1  0.95017514  0.24902775  0.54972280  1
  O  O12  1  0.10422108  0.32660611  0.50255440  1
  O  O13  1  0.32660611  0.50255440  0.10422108  1
  O  O14  1  0.06340596  0.90317114  0.24686315  1
  O  O15  1  0.50255440  0.10422108  0.32660611  1
  O  O16  1  0.01186455  0.82336097  0.60373065  1
  O  O17  1  0.25360448  0.59534445  0.43365057  1
  O  O18  1  0.24686315  0.06340596  0.90317114  1
  O  O19  1  0.43365057  0.25360448  0.59534445  1
  O  O20  1  0.17387102  0.39476966  0.99499394  1
  O  O21  1  0.59534445  0.43365057  0.25360448  1
  O  O22  1  0.09807534  0.75200340  0.93736233  1
  O  O23  1  0.39476966  0.99499394  0.17387102  1
  O  O24  1  0.60373065  0.01186455  0.82336097  1
  O  O25  1  0.90317114  0.24686315  0.06340596  1
  O  O26  1  0.40454387  0.56182337  0.74690490  1
  O  O27  1  0.82336097  0.60373065  0.01186455  1
  O  O28  1  0.56182337  0.74690490  0.40454387  1
  O  O29  1  0.75200340  0.93736233  0.09807534  1
  O  O30  1  0.74690490  0.40454387  0.56182337  1
  O  O31  1  0.99499394  0.17387102  0.39476966  1
  O  O32  1  0.49572776  0.89460828  0.67537395  1
  O  O33  1  0.93736233  0.09807534  0.75200340  1
  O  O34  1  0.67537395  0.49572776  0.89460828  1
  O  O35  1  0.89460828  0.67537395  0.49572776  1
