# generated using pymatgen
data_Ti2N2O
_symmetry_space_group_name_H-M   'P 1'
_cell_length_a   8.21508565
_cell_length_b   8.23101637
_cell_length_c   8.22688115
_cell_angle_alpha   109.51821342
_cell_angle_beta   109.44636581
_cell_angle_gamma   109.49101211
_symmetry_Int_Tables_number   1
_chemical_formula_structural   Ti2N2O
_chemical_formula_sum   'Ti16 N16 O8'
_cell_volume   428.00991265
_cell_formula_units_Z   8
loop_
 _symmetry_equiv_pos_site_id
 _symmetry_equiv_pos_as_xyz
  1  'x, y, z'
loop_
 _atom_site_type_symbol
 _atom_site_label
 _atom_site_symmetry_multiplicity
 _atom_site_fract_x
 _atom_site_fract_y
 _atom_site_fract_z
 _atom_site_occupancy
  Ti  Ti0  1  0.49903455  0.99790074  0.98675734  1
  Ti  Ti1  1  0.75121342  0.29105324  0.55051891  1
  Ti  Ti2  1  0.71207355  0.45962140  0.24143824  1
  Ti  Ti3  1  0.21062547  0.96178250  0.25315827  1
  Ti  Ti4  1  0.24616967  0.20807208  0.94229314  1
  Ti  Ti5  1  0.00125747  0.51468789  0.99898674  1
  Ti  Ti6  1  0.53416915  0.74267101  0.29785585  1
  Ti  Ti7  1  0.95641544  0.24910831  0.20727453  1
  Ti  Ti8  1  0.49174885  0.49699652  0.51159633  1
  Ti  Ti9  1  0.99780081  0.99623200  0.49674163  1
  Ti  Ti10  1  0.04240842  0.75165466  0.78884902  1
  Ti  Ti11  1  0.46673802  0.26046609  0.71206625  1
  Ti  Ti12  1  0.76068382  0.79797738  0.05101391  1
  Ti  Ti13  1  0.78781901  0.03702177  0.75352548  1
  Ti  Ti14  1  0.28867701  0.54189758  0.74751566  1
  Ti  Ti15  1  0.24718758  0.69967310  0.45540117  1
  N  N16  1  0.72457170  0.99410123  0.95258490  1
  N  N17  1  0.51176897  0.23594685  0.96567906  1
  N  N18  1  0.45878915  0.22519619  0.44968139  1
  N  N19  1  0.72603334  0.26050882  0.77328211  1
  N  N20  1  0.77312254  0.72616857  0.26772460  1
  N  N21  1  0.01269312  0.05294270  0.27877321  1
  N  N22  1  0.95032085  0.72637463  0.98991251  1
  N  N23  1  0.95860702  0.50527641  0.23323902  1
  N  N24  1  0.27756069  0.73649687  0.22538638  1
  N  N25  1  0.22522857  0.45030698  0.46237242  1
  N  N26  1  0.55076637  0.54078430  0.77532788  1
  N  N27  1  0.54370561  0.77323700  0.54754441  1
  N  N28  1  0.99025624  0.94960260  0.72444628  1
  N  N29  1  0.22503773  0.27476538  0.73742194  1
  N  N30  1  0.03688623  0.48952357  0.76150269  1
  N  N31  1  0.26884585  0.78053273  0.72743970  1
  O  O32  1  0.27457139  0.00450962  0.04937949  1
  O  O33  1  0.76517724  0.04251383  0.48758176  1
  O  O34  1  0.73529801  0.22353013  0.27768145  1
  O  O35  1  0.49265953  0.76867601  0.04225729  1
  O  O36  1  0.44672471  0.45970181  0.22159505  1
  O  O37  1  0.22894358  0.95599251  0.50585195  1
  O  O38  1  0.77377812  0.54447710  0.53375339  1
  O  O39  1  0.05463220  0.27201490  0.01458963  1
