# generated using pymatgen
data_Cr2Fe3Cu(PO4)6
_symmetry_space_group_name_H-M   'P 1'
_cell_length_a   8.38852355
_cell_length_b   8.38852395
_cell_length_c   8.38852398
_cell_angle_alpha   61.84276992
_cell_angle_beta   61.84276808
_cell_angle_gamma   61.84276752
_symmetry_Int_Tables_number   1
_chemical_formula_structural   Cr2Fe3Cu(PO4)6
_chemical_formula_sum   'Cr2 Fe3 Cu1 P6 O24'
_cell_volume   434.61319362
_cell_formula_units_Z   1
loop_
 _symmetry_equiv_pos_site_id
 _symmetry_equiv_pos_as_xyz
  1  'x, y, z'
loop_
 _atom_site_type_symbol
 _atom_site_label
 _atom_site_symmetry_multiplicity
 _atom_site_fract_x
 _atom_site_fract_y
 _atom_site_fract_z
 _atom_site_occupancy
  Cr  Cr0  1  0.99917341  0.99917341  0.99917341  1
  Cr  Cr1  1  0.49946984  0.49946984  0.49946984  1
  Fe  Fe2  1  0.14515155  0.14515155  0.14515155  1
  Fe  Fe3  1  0.35345274  0.35345274  0.35345274  1
  Fe  Fe4  1  0.64575339  0.64575339  0.64575339  1
  Cu  Cu5  1  0.85411345  0.85411345  0.85411345  1
  P  P6  1  0.04844218  0.74994292  0.45332880  1
  P  P7  1  0.45332880  0.04844218  0.74994292  1
  P  P8  1  0.74994292  0.45332880  0.04844218  1
  P  P9  1  0.24868315  0.54827579  0.95054199  1
  P  P10  1  0.54827579  0.95054199  0.24868315  1
  P  P11  1  0.95054199  0.24868315  0.54827579  1
  O  O12  1  0.10516031  0.32395917  0.50476937  1
  O  O13  1  0.32395917  0.50476937  0.10516031  1
  O  O14  1  0.06030646  0.90501023  0.24938436  1
  O  O15  1  0.50476937  0.10516031  0.32395917  1
  O  O16  1  0.01702043  0.81935224  0.60723462  1
  O  O17  1  0.25333463  0.59545560  0.43305791  1
  O  O18  1  0.24938436  0.06030646  0.90501023  1
  O  O19  1  0.43305791  0.25333463  0.59545560  1
  O  O20  1  0.17439925  0.39379830  0.99376261  1
  O  O21  1  0.59545560  0.43305791  0.25333463  1
  O  O22  1  0.09455022  0.75099886  0.94062413  1
  O  O23  1  0.39379830  0.99376261  0.17439925  1
  O  O24  1  0.60723462  0.01702043  0.81935224  1
  O  O25  1  0.90501023  0.24938436  0.06030646  1
  O  O26  1  0.40385996  0.56346013  0.74726175  1
  O  O27  1  0.81935224  0.60723462  0.01702043  1
  O  O28  1  0.56346013  0.74726175  0.40385996  1
  O  O29  1  0.75099886  0.94062413  0.09455022  1
  O  O30  1  0.74726175  0.40385996  0.56346013  1
  O  O31  1  0.99376261  0.17439925  0.39379830  1
  O  O32  1  0.49827055  0.89389314  0.67474959  1
  O  O33  1  0.94062413  0.09455022  0.75099886  1
  O  O34  1  0.67474959  0.49827055  0.89389314  1
  O  O35  1  0.89389314  0.67474959  0.49827055  1
