# generated using pymatgen
data_Li4V5Co3O16
_symmetry_space_group_name_H-M   'P 1'
_cell_length_a   5.92239640
_cell_length_b   5.92930375
_cell_length_c   9.57752475
_cell_angle_alpha   89.80343214
_cell_angle_beta   89.25530098
_cell_angle_gamma   120.15551625
_symmetry_Int_Tables_number   1
_chemical_formula_structural   Li4V5Co3O16
_chemical_formula_sum   'Li4 V5 Co3 O16'
_cell_volume   290.76148075
_cell_formula_units_Z   1
loop_
 _symmetry_equiv_pos_site_id
 _symmetry_equiv_pos_as_xyz
  1  'x, y, z'
loop_
 _atom_site_type_symbol
 _atom_site_label
 _atom_site_symmetry_multiplicity
 _atom_site_fract_x
 _atom_site_fract_y
 _atom_site_fract_z
 _atom_site_occupancy
  Li  Li0  1  0.32418835  0.65850037  0.90131230  1
  Li  Li1  1  0.00183982  0.00255401  0.99368363  1
  Li  Li2  1  0.00177541  0.00175626  0.48723955  1
  Li  Li3  1  0.66687384  0.33461917  0.40021815  1
  V  V4  1  0.80591947  0.64743905  0.71969222  1
  V  V5  1  0.29439803  0.64768478  0.48808783  1
  V  V6  1  0.64297367  0.82317176  0.22939197  1
  V  V7  1  0.67667410  0.34111812  0.00151823  1
  V  V8  1  0.80122474  0.14960186  0.72110649  1
  Co  Co9  1  0.18101570  0.83629721  0.21032139  1
  Co  Co10  1  0.18008546  0.34555873  0.21033771  1
  Co  Co11  1  0.34015175  0.17077207  0.70750297  1
  O  O12  1  0.16733377  0.82054770  0.58981680  1
  O  O13  1  0.04665803  0.52384325  0.35600680  1
  O  O14  1  0.36853237  0.68473281  0.10488695  1
  O  O15  1  0.98377337  0.99198275  0.29521175  1
  O  O16  1  -0.01037778  -0.00853801  0.80247705  1
  O  O17  1  0.16284599  0.34696909  0.59206759  1
  O  O18  1  0.49475330  0.96154191  0.35489318  1
  O  O19  1  0.49326033  0.53503819  0.35591334  1
  O  O20  1  0.35426969  0.17711803  0.08013874  1
  O  O21  1  0.66465757  0.83160983  0.60251630  1
  O  O22  1  0.53171836  0.49258270  0.84469767  1
  O  O23  1  0.53122389  0.03294084  0.84184614  1
  O  O24  1  0.69399553  0.34967512  0.60324940  1
  O  O25  1  0.82286729  0.64595881  0.08781323  1
  O  O26  1  0.95437031  0.47698526  0.83929917  1
  O  O27  1  0.82299766  0.17823930  0.08659446  1
