# generated using pymatgen
data_ScAgO3
_symmetry_space_group_name_H-M   'P 1'
_cell_length_a   6.48891532
_cell_length_b   6.48902303
_cell_length_c   3.22046430
_cell_angle_alpha   89.97488099
_cell_angle_beta   89.97424513
_cell_angle_gamma   76.78389827
_symmetry_Int_Tables_number   1
_chemical_formula_structural   ScAgO3
_chemical_formula_sum   'Sc2 Ag2 O6'
_cell_volume   132.01167792
_cell_formula_units_Z   2
loop_
 _symmetry_equiv_pos_site_id
 _symmetry_equiv_pos_as_xyz
  1  'x, y, z'
loop_
 _atom_site_type_symbol
 _atom_site_label
 _atom_site_symmetry_multiplicity
 _atom_site_fract_x
 _atom_site_fract_y
 _atom_site_fract_z
 _atom_site_occupancy
  Sc  Sc0  1  0.00043255  0.50015580  0.99999244  1
  Sc  Sc1  1  0.50020694  0.00050847  0.99998499  1
  Ag  Ag2  1  0.50068860  0.50026634  0.50000574  1
  Ag  Ag3  1  0.00047799  0.00051998  0.50001104  1
  O  O4  1  0.18792279  0.53589722  0.49976810  1
  O  O5  1  0.46530941  0.81304941  0.50023192  1
  O  O6  1  0.86428873  0.86416106  0.99945103  1
  O  O7  1  0.13696843  0.13684324  0.00054880  1
  O  O8  1  0.81344509  0.46411260  0.50023979  1
  O  O9  1  0.53708447  0.18752789  0.49976616  1
