# generated using pymatgen
data_Li2Cr3CuO8
_symmetry_space_group_name_H-M   'P 1'
_cell_length_a   8.31477342
_cell_length_b   8.34729614
_cell_length_c   8.35802081
_cell_angle_alpha   89.77548299
_cell_angle_beta   89.74390960
_cell_angle_gamma   90.03396458
_symmetry_Int_Tables_number   1
_chemical_formula_structural   Li2Cr3CuO8
_chemical_formula_sum   'Li8 Cr12 Cu4 O32'
_cell_volume   580.08540002
_cell_formula_units_Z   4
loop_
 _symmetry_equiv_pos_site_id
 _symmetry_equiv_pos_as_xyz
  1  'x, y, z'
loop_
 _atom_site_type_symbol
 _atom_site_label
 _atom_site_symmetry_multiplicity
 _atom_site_fract_x
 _atom_site_fract_y
 _atom_site_fract_z
 _atom_site_occupancy
  Li  Li0  1  0.00272063  0.00227302  0.00107893  1
  Li  Li1  1  0.24764065  0.24786419  0.24893026  1
  Li  Li2  1  0.24951816  0.74942785  0.75055765  1
  Li  Li3  1  0.50078397  0.00000680  0.50168965  1
  Li  Li4  1  0.50181312  0.49772424  0.99899069  1
  Li  Li5  1  0.74770694  0.25030105  0.75116235  1
  Li  Li6  1  0.75146129  0.74780099  0.25173270  1
  Li  Li7  1  0.99863610  0.50170746  0.49974650  1
  Cr  Cr8  1  0.12274856  0.12603881  0.62701421  1
  Cr  Cr9  1  0.12118921  0.37586318  0.87434203  1
  Cr  Cr10  1  0.12583872  0.62259581  0.12381068  1
  Cr  Cr11  1  0.37398171  0.37370414  0.62517131  1
  Cr  Cr12  1  0.37493520  0.62409275  0.37354592  1
  Cr  Cr13  1  0.37437110  0.87506254  0.12720592  1
  Cr  Cr14  1  0.62445434  0.37281566  0.37700556  1
  Cr  Cr15  1  0.62842091  0.12440525  0.12580927  1
  Cr  Cr16  1  0.62912463  0.87559878  0.87595816  1
  Cr  Cr17  1  0.87361019  0.12519921  0.37516584  1
  Cr  Cr18  1  0.87520793  0.87678266  0.62471633  1
  Cr  Cr19  1  0.87544555  0.62635851  0.87635670  1
  Cu  Cu20  1  0.12528327  0.87594323  0.37442850  1
  Cu  Cu21  1  0.37434723  0.12645904  0.87468219  1
  Cu  Cu22  1  0.62338126  0.62607028  0.62493640  1
  Cu  Cu23  1  0.87616079  0.37502921  0.12334397  1
  O  O24  1  0.10206628  0.11901505  0.38782800  1
  O  O25  1  0.10541012  0.88613754  0.61543278  1
  O  O26  1  0.11435632  0.61305764  0.88589497  1
  O  O27  1  0.13394644  0.14035206  0.86271433  1
  O  O28  1  0.12309069  0.38638028  0.10348197  1
  O  O29  1  0.13327064  0.36555759  0.64151912  1
  O  O30  1  0.14563275  0.63530532  0.36441891  1
  O  O31  1  0.14872080  0.86212460  0.12839668  1
  O  O32  1  0.36033244  0.14534679  0.62843253  1
  O  O33  1  0.35758998  0.37252309  0.85523214  1
  O  O34  1  0.37008657  0.63662292  0.14270331  1
  O  O35  1  0.37940685  0.60737383  0.60639930  1
  O  O36  1  0.37303159  0.86067551  0.35683291  1
  O  O37  1  0.38287020  0.38390051  0.39276424  1
  O  O38  1  0.39453822  0.11205095  0.11653279  1
  O  O39  1  0.39288531  0.88166038  0.89478698  1
  O  O40  1  0.60885319  0.38405346  0.61385987  1
  O  O41  1  0.60457357  0.60926512  0.38086192  1
  O  O42  1  0.61130210  0.88893273  0.11562512  1
  O  O43  1  0.62965555  0.35224227  0.13739265  1
  O  O44  1  0.61847885  0.10452992  0.89068717  1
  O  O45  1  0.64136188  0.13063433  0.36318374  1
  O  O46  1  0.64348951  0.87228625  0.64239322  1
  O  O47  1  0.63441251  0.64662389  0.86641894  1
  O  O48  1  0.86475618  0.35452868  0.36470789  1
  O  O49  1  0.85570812  0.12646111  0.13930352  1
  O  O50  1  0.85974505  0.86905643  0.86431471  1
  O  O51  1  0.88022277  0.89249811  0.38966172  1
  O  O52  1  0.86750933  0.64822929  0.63734223  1
  O  O53  1  0.88026463  0.10873668  0.61323847  1
  O  O54  1  0.89338535  0.38909535  0.87772678  1
  O  O55  1  0.89026273  0.61575763  0.11267039  1
