# generated using pymatgen
data_Li2MnPHO5
_symmetry_space_group_name_H-M   'P 1'
_cell_length_a   5.42168973
_cell_length_b   5.57502312
_cell_length_c   7.96942678
_cell_angle_alpha   69.69203538
_cell_angle_beta   71.08898213
_cell_angle_gamma   94.14484702
_symmetry_Int_Tables_number   1
_chemical_formula_structural   Li2MnPHO5
_chemical_formula_sum   'Li4 Mn2 P2 H2 O10'
_cell_volume   209.03152631
_cell_formula_units_Z   2
loop_
 _symmetry_equiv_pos_site_id
 _symmetry_equiv_pos_as_xyz
  1  'x, y, z'
loop_
 _atom_site_type_symbol
 _atom_site_label
 _atom_site_symmetry_multiplicity
 _atom_site_fract_x
 _atom_site_fract_y
 _atom_site_fract_z
 _atom_site_occupancy
  Li  Li0  1  0.01219159  0.37654409  0.19640715  1
  Li  Li1  1  0.63114778  0.29924078  0.82924349  1
  Li  Li2  1  0.36885750  0.70075842  0.17075825  1
  Li  Li3  1  0.98781369  0.62345878  0.80358596  1
  Mn  Mn4  1  0.99999401  0.99999361  0.00001030  1
  Mn  Mn5  1  0.49999543  0.50000128  0.50000694  1
  P  P6  1  0.44407710  0.15037218  0.22616430  1
  P  P7  1  0.55592394  0.84962927  0.77383365  1
  H  H8  1  0.01647111  0.27882885  0.64699434  1
  H  H9  1  0.98353115  0.72116110  0.35300711  1
  O  O10  1  0.75274761  0.23908952  0.11839999  1
  O  O11  1  0.31732940  0.18534357  0.06940353  1
  O  O12  1  0.63400282  0.14259755  0.63895112  1
  O  O13  1  0.33565708  0.33349171  0.32871224  1
  O  O14  1  0.08917923  0.33834879  0.72717820  1
  O  O15  1  0.91081745  0.66164382  0.27282364  1
  O  O16  1  0.66435400  0.66651418  0.67128223  1
  O  O17  1  0.36599900  0.85740480  0.36104594  1
  O  O18  1  0.68266551  0.81466263  0.93059783  1
  O  O19  1  0.24725257  0.76091307  0.88159280  1
