# generated using pymatgen
data_Cr2O3
_symmetry_space_group_name_H-M   'P 1'
_cell_length_a   5.13920505
_cell_length_b   5.63716569
_cell_length_c   5.13920557
_cell_angle_alpha   117.11850010
_cell_angle_beta   60.00000326
_cell_angle_gamma   117.11850241
_symmetry_Int_Tables_number   1
_chemical_formula_structural   Cr2O3
_chemical_formula_sum   'Cr4 O6'
_cell_volume   109.63248622
_cell_formula_units_Z   2
loop_
 _symmetry_equiv_pos_site_id
 _symmetry_equiv_pos_as_xyz
  1  'x, y, z'
loop_
 _atom_site_type_symbol
 _atom_site_label
 _atom_site_symmetry_multiplicity
 _atom_site_fract_x
 _atom_site_fract_y
 _atom_site_fract_z
 _atom_site_occupancy
  Cr  Cr0  1  0.00000000  0.00000000  0.00000000  1
  Cr  Cr1  1  0.31295889  0.93887667  0.31295889  1
  Cr  Cr2  1  0.50000000  0.50000000  0.50000000  1
  Cr  Cr3  1  0.68704111  0.06112333  0.68704111  1
  O  O4  1  0.28613296  0.78228132  0.60996580  1
  O  O5  1  0.39003420  0.21771868  0.11381844  1
  O  O6  1  0.11381844  0.21771868  0.71386704  1
  O  O7  1  0.88618156  0.78228132  0.28613296  1
  O  O8  1  0.60996580  0.78228132  0.88618156  1
  O  O9  1  0.71386704  0.21771868  0.39003420  1
