# generated using pymatgen
data_LiFeF4
_symmetry_space_group_name_H-M   'P 1'
_cell_length_a   3.91858663
_cell_length_b   6.57101705
_cell_length_c   6.84163104
_cell_angle_alpha   74.84011507
_cell_angle_beta   89.99424386
_cell_angle_gamma   72.72121929
_symmetry_Int_Tables_number   1
_chemical_formula_structural   LiFeF4
_chemical_formula_sum   'Li2 Fe2 F8'
_cell_volume   161.78553836
_cell_formula_units_Z   2
loop_
 _symmetry_equiv_pos_site_id
 _symmetry_equiv_pos_as_xyz
  1  'x, y, z'
loop_
 _atom_site_type_symbol
 _atom_site_label
 _atom_site_symmetry_multiplicity
 _atom_site_fract_x
 _atom_site_fract_y
 _atom_site_fract_z
 _atom_site_occupancy
  Li  Li0  1  0.09534438  0.81655896  0.20222459  1
  Li  Li1  1  0.91193330  0.17829165  0.79556999  1
  Fe  Fe2  1  0.20001302  0.60582890  0.77608254  1
  Fe  Fe3  1  0.80707681  0.39004472  0.22146142  1
  F  F4  1  0.07430412  0.85754924  0.87773009  1
  F  F5  1  0.13762496  0.73457387  0.50246307  1
  F  F6  1  0.72479760  0.55566045  0.84887266  1
  F  F7  1  0.65448076  0.69650326  0.20991598  1
  F  F8  1  0.35273003  0.29956453  0.78700162  1
  F  F9  1  0.28221106  0.44024177  0.14894560  1
  F  F10  1  0.87024240  0.26253137  0.49545497  1
  F  F11  1  0.93148056  0.13780129  0.12087648  1
