# generated using pymatgen
data_LiVF6
_symmetry_space_group_name_H-M   'P 1'
_cell_length_a   5.04744678
_cell_length_b   5.37470427
_cell_length_c   15.21819591
_cell_angle_alpha   90.00000000
_cell_angle_beta   90.71516667
_cell_angle_gamma   90.00000000
_symmetry_Int_Tables_number   1
_chemical_formula_structural   LiVF6
_chemical_formula_sum   'Li4 V4 F24'
_cell_volume   412.81518112
_cell_formula_units_Z   4
loop_
 _symmetry_equiv_pos_site_id
 _symmetry_equiv_pos_as_xyz
  1  'x, y, z'
loop_
 _atom_site_type_symbol
 _atom_site_label
 _atom_site_symmetry_multiplicity
 _atom_site_fract_x
 _atom_site_fract_y
 _atom_site_fract_z
 _atom_site_occupancy
  Li  Li0  1  0.22477669  0.69834867  0.75244687  1
  Li  Li1  1  0.22477669  0.80165133  0.25244687  1
  Li  Li2  1  0.77522331  0.19834867  0.74755313  1
  Li  Li3  1  0.77522331  0.30165133  0.24755313  1
  V  V4  1  0.25761622  0.27829030  0.61514476  1
  V  V5  1  0.25761622  0.22170970  0.11514476  1
  V  V6  1  0.74238378  0.77829030  0.88485524  1
  V  V7  1  0.74238378  0.72170970  0.38485524  1
  F  F8  1  0.02937021  0.94581355  0.83531309  1
  F  F9  1  0.02937021  0.55418645  0.33531309  1
  F  F10  1  0.09201625  0.00112783  0.66205773  1
  F  F11  1  0.09201625  0.49887217  0.16205773  1
  F  F12  1  0.10993371  0.24413475  0.51125447  1
  F  F13  1  0.10993371  0.25586525  0.01125447  1
  F  F14  1  0.40970225  0.33278252  0.73016646  1
  F  F15  1  0.40970225  0.16721748  0.23016646  1
  F  F16  1  0.39607824  0.57157044  0.58900676  1
  F  F17  1  0.39607824  0.92842956  0.08900676  1
  F  F18  1  0.45580583  0.60214178  0.90686017  1
  F  F19  1  0.45580583  0.89785822  0.40686017  1
  F  F20  1  0.54419417  0.10214178  0.59313983  1
  F  F21  1  0.54419417  0.39785822  0.09313983  1
  F  F22  1  0.60392176  0.07157044  0.91099324  1
  F  F23  1  0.60392176  0.42842956  0.41099324  1
  F  F24  1  0.59029775  0.83278252  0.76983354  1
  F  F25  1  0.59029775  0.66721748  0.26983354  1
  F  F26  1  0.89006629  0.74413475  0.98874553  1
  F  F27  1  0.89006629  0.75586525  0.48874553  1
  F  F28  1  0.90798375  0.50112783  0.83794227  1
  F  F29  1  0.90798375  0.99887217  0.33794227  1
  F  F30  1  0.97062979  0.44581355  0.66468691  1
  F  F31  1  0.97062979  0.05418645  0.16468691  1
