# generated using pymatgen
data_Sn2N2O
_symmetry_space_group_name_H-M   'P 1'
_cell_length_a   8.85014896
_cell_length_b   8.87121381
_cell_length_c   8.80493215
_cell_angle_alpha   109.42637396
_cell_angle_beta   109.29260490
_cell_angle_gamma   109.46533413
_symmetry_Int_Tables_number   1
_chemical_formula_structural   Sn2N2O
_chemical_formula_sum   'Sn16 N16 O8'
_cell_volume   533.65444700
_cell_formula_units_Z   8
loop_
 _symmetry_equiv_pos_site_id
 _symmetry_equiv_pos_as_xyz
  1  'x, y, z'
loop_
 _atom_site_type_symbol
 _atom_site_label
 _atom_site_symmetry_multiplicity
 _atom_site_fract_x
 _atom_site_fract_y
 _atom_site_fract_z
 _atom_site_occupancy
  Sn  Sn0  1  0.49614962  0.00161682  0.99446275  1
  Sn  Sn1  1  0.75521549  0.28802180  0.53960908  1
  Sn  Sn2  1  0.21023446  0.95898355  0.24397578  1
  Sn  Sn3  1  0.71835740  0.47244689  0.24704896  1
  Sn  Sn4  1  0.24301154  0.21397880  0.95697719  1
  Sn  Sn5  1  0.53206044  0.75326132  0.28848662  1
  Sn  Sn6  1  0.99956202  0.49870286  0.99809514  1
  Sn  Sn7  1  0.98176890  0.25638370  0.22245114  1
  Sn  Sn8  1  0.50846355  0.51366124  0.51258962  1
  Sn  Sn9  1  0.47392370  0.26340342  0.73128729  1
  Sn  Sn10  1  0.00212227  0.00018533  0.49995553  1
  Sn  Sn11  1  0.02336557  0.73582711  0.76676817  1
  Sn  Sn12  1  0.75822152  0.78168942  0.03836128  1
  Sn  Sn13  1  0.27792243  0.52755682  0.73817743  1
  Sn  Sn14  1  0.78706633  0.03458156  0.75350984  1
  Sn  Sn15  1  0.25395848  0.71305651  0.46673505  1
  N  N16  1  0.50693131  0.23986733  0.97683244  1
  N  N17  1  0.76030706  0.72933639  0.26532728  1
  N  N18  1  0.75535813  0.52353007  0.51761276  1
  N  N19  1  0.71888850  0.25778584  0.76187754  1
  N  N20  1  0.00365271  0.04121540  0.26890773  1
  N  N21  1  0.03885585  0.26415660  0.00251053  1
  N  N22  1  0.96092101  0.73003643  0.98739775  1
  N  N23  1  0.27486739  0.73845449  0.23248654  1
  N  N24  1  0.23783176  0.45819678  0.46092603  1
  N  N25  1  0.55056761  0.78111387  0.54999069  1
  N  N26  1  0.54639878  0.54637670  0.78262178  1
  N  N27  1  0.99663065  0.95083450  0.72606881  1
  N  N28  1  0.22838851  0.26803673  0.72769122  1
  N  N29  1  0.95905350  0.50054584  0.23767877  1
  N  N30  1  0.03746762  0.48866930  0.75862187  1
  N  N31  1  0.27037265  0.77689141  0.73205443  1
  O  O32  1  0.72150391  0.99107012  0.95744658  1
  O  O33  1  0.76968654  0.04448764  0.49182513  1
  O  O34  1  0.28766261  0.02130472  0.06252402  1
  O  O35  1  0.73068146  0.20588129  0.27057109  1
  O  O36  1  0.44938817  0.22067271  0.45108887  1
  O  O37  1  0.43944024  0.46281980  0.22319634  1
  O  O38  1  0.23747703  0.96268564  0.50818089  1
  O  O39  1  0.49626328  0.78267625  0.04807007  1
