# generated using pymatgen
data_LiFe4OF7
_symmetry_space_group_name_H-M   'P 1'
_cell_length_a   5.08352797
_cell_length_b   8.09078932
_cell_length_c   8.09143494
_cell_angle_alpha   74.89202758
_cell_angle_beta   90.00000000
_cell_angle_gamma   90.00000000
_symmetry_Int_Tables_number   1
_chemical_formula_structural   LiFe4OF7
_chemical_formula_sum   'Li2 Fe8 O2 F14'
_cell_volume   321.29599607
_cell_formula_units_Z   2
loop_
 _symmetry_equiv_pos_site_id
 _symmetry_equiv_pos_as_xyz
  1  'x, y, z'
loop_
 _atom_site_type_symbol
 _atom_site_label
 _atom_site_symmetry_multiplicity
 _atom_site_fract_x
 _atom_site_fract_y
 _atom_site_fract_z
 _atom_site_occupancy
  Li  Li0  1  0.99831480  0.19268508  0.70759442  1
  Li  Li1  1  0.49831580  0.93231992  0.91741258  1
  Fe  Fe2  1  0.03707350  0.51430751  0.49788091  1
  Fe  Fe3  1  0.48593128  0.16353909  0.58548410  1
  Fe  Fe4  1  0.50393634  0.86869490  0.39148457  1
  Fe  Fe5  1  0.53707350  0.61069249  0.12711909  1
  Fe  Fe6  1  0.98593128  0.96146091  0.03951590  1
  Fe  Fe7  1  0.00393634  0.25630510  0.23351543  1
  Fe  Fe8  1  0.47669593  0.38048635  0.85126178  1
  Fe  Fe9  1  0.97669593  0.74451365  0.77373822  1
  O  O10  1  0.28613965  0.34633614  0.64587312  1
  O  O11  1  0.78613965  0.77866386  0.97912688  1
  F  F12  1  0.19517178  0.74645049  0.53939837  1
  F  F13  1  0.19381204  0.98098151  0.78141001  1
  F  F14  1  0.21994867  0.47768507  0.26254256  1
  F  F15  1  0.17546288  0.19624024  0.01581621  1
  F  F16  1  0.30369668  0.59825325  0.90295462  1
  F  F17  1  0.29567848  0.10616677  0.37855041  1
  F  F18  1  0.33598297  0.84671667  0.15430846  1
  F  F19  1  0.69517178  0.37854951  0.08560163  1
  F  F20  1  0.69381204  0.14401849  0.84358999  1
  F  F21  1  0.71994867  0.64731493  0.36245744  1
  F  F22  1  0.67546288  0.92875976  0.60918379  1
  F  F23  1  0.80369668  0.52674675  0.72204538  1
  F  F24  1  0.79567848  0.01883323  0.24644959  1
  F  F25  1  0.83598297  0.27828333  0.47069154  1
