# generated using pymatgen
data_Na4MnO4
_symmetry_space_group_name_H-M   'P 1'
_cell_length_a   6.29912428
_cell_length_b   7.57272201
_cell_length_c   5.73698591
_cell_angle_alpha   90.00000000
_cell_angle_beta   90.00000000
_cell_angle_gamma   89.20391399
_symmetry_Int_Tables_number   1
_chemical_formula_structural   Na4MnO4
_chemical_formula_sum   'Na8 Mn2 O8'
_cell_volume   273.63651649
_cell_formula_units_Z   2
loop_
 _symmetry_equiv_pos_site_id
 _symmetry_equiv_pos_as_xyz
  1  'x, y, z'
loop_
 _atom_site_type_symbol
 _atom_site_label
 _atom_site_symmetry_multiplicity
 _atom_site_fract_x
 _atom_site_fract_y
 _atom_site_fract_z
 _atom_site_occupancy
  Na  Na0  1  0.04873315  0.66081974  0.90155007  1
  Na  Na1  1  0.30914944  0.72643521  0.31536077  1
  Na  Na2  1  0.22978205  0.31476256  0.37785345  1
  Na  Na3  1  0.25925113  0.00195835  0.69864625  1
  Na  Na4  1  0.54873315  0.16081974  0.09844993  1
  Na  Na5  1  0.72978205  0.81476256  0.62214655  1
  Na  Na6  1  0.80914944  0.22643521  0.68463923  1
  Na  Na7  1  0.75925113  0.50195835  0.30135375  1
  Mn  Mn8  1  0.99057308  0.99717864  0.18147981  1
  Mn  Mn9  1  0.49057308  0.49717864  0.81852019  1
  O  O10  1  0.26558942  0.02522087  0.25739628  1
  O  O11  1  0.42870636  0.47658747  0.12451628  1
  O  O12  1  0.43038750  0.27106011  0.72608520  1
  O  O13  1  0.38131087  0.70542405  0.70019563  1
  O  O14  1  0.76558942  0.52522087  0.74260372  1
  O  O15  1  0.92870636  0.97658747  0.87548372  1
  O  O16  1  0.93038750  0.77106011  0.27391480  1
  O  O17  1  0.88131087  0.20542405  0.29980437  1
