# generated using pymatgen
data_Li3FeB8O15
_symmetry_space_group_name_H-M   'P 1'
_cell_length_a   9.24305875
_cell_length_b   11.46482292
_cell_length_c   11.99451378
_cell_angle_alpha   90.00003918
_cell_angle_beta   89.09882827
_cell_angle_gamma   89.99997731
_symmetry_Int_Tables_number   1
_chemical_formula_structural   Li3FeB8O15
_chemical_formula_sum   'Li12 Fe4 B32 O60'
_cell_volume   1270.90179142
_cell_formula_units_Z   4
loop_
 _symmetry_equiv_pos_site_id
 _symmetry_equiv_pos_as_xyz
  1  'x, y, z'
loop_
 _atom_site_type_symbol
 _atom_site_label
 _atom_site_symmetry_multiplicity
 _atom_site_fract_x
 _atom_site_fract_y
 _atom_site_fract_z
 _atom_site_occupancy
  Li  Li0  1  0.07309052  0.07965277  0.57742275  1
  Li  Li1  1  0.11091029  0.65977272  0.55227891  1
  Li  Li2  1  0.07309055  0.42034720  0.07742274  1
  Li  Li3  1  0.11091023  0.84022734  0.05227879  1
  Li  Li4  1  0.48250089  0.16720750  0.71746948  1
  Li  Li5  1  0.48250092  0.33279254  0.21746948  1
  Li  Li6  1  0.51749908  0.66720746  0.78253052  1
  Li  Li7  1  0.51749911  0.83279250  0.28253052  1
  Li  Li8  1  0.88908977  0.15977266  0.94772121  1
  Li  Li9  1  0.92690945  0.57965280  0.92257726  1
  Li  Li10  1  0.88908971  0.34022728  0.44772109  1
  Li  Li11  1  0.92690948  0.92034723  0.42257725  1
  Fe  Fe12  1  0.24580524  0.16147297  0.96922534  1
  Fe  Fe13  1  0.24580575  0.33852660  0.46922483  1
  Fe  Fe14  1  0.75419425  0.66147340  0.53077517  1
  Fe  Fe15  1  0.75419476  0.83852703  0.03077466  1
  B  B16  1  0.10108105  0.33940880  0.87684894  1
  B  B17  1  0.10108089  0.16059098  0.37684875  1
  B  B18  1  0.13574527  0.74724204  0.78720468  1
  B  B19  1  0.13574537  0.75275814  0.28720486  1
  B  B20  1  0.17546646  0.53857677  0.81623981  1
  B  B21  1  0.17546668  0.96142334  0.31623982  1
  B  B22  1  0.19462372  0.94085191  0.85694222  1
  B  B23  1  0.22046108  0.36808568  0.69841284  1
  B  B24  1  0.19462363  0.55914800  0.35694228  1
  B  B25  1  0.22046129  0.13191432  0.19841269  1
  B  B26  1  0.27779028  0.88508746  0.67061946  1
  B  B27  1  0.27778961  0.61491284  0.17061975  1
  B  B28  1  0.34659152  0.59943043  0.97148507  1
  B  B29  1  0.34659148  0.90056959  0.47148529  1
  B  B30  1  0.50298848  0.29083067  0.90171675  1
  B  B31  1  0.50298853  0.20916950  0.40171665  1
  B  B32  1  0.49701147  0.79083050  0.59828335  1
  B  B33  1  0.49701152  0.70916933  0.09828325  1
  B  B34  1  0.65340852  0.09943041  0.52851471  1
  B  B35  1  0.65340848  0.40056957  0.02851493  1
  B  B36  1  0.72221039  0.38508716  0.82938025  1
  B  B37  1  0.72220972  0.11491254  0.32938054  1
  B  B38  1  0.77953871  0.86808568  0.80158731  1
  B  B39  1  0.80537637  0.44085200  0.64305772  1
  B  B40  1  0.77953892  0.63191432  0.30158716  1
  B  B41  1  0.80537628  0.05914809  0.14305778  1
  B  B42  1  0.82453332  0.03857666  0.68376018  1
  B  B43  1  0.82453354  0.46142323  0.18376019  1
  B  B44  1  0.86425463  0.24724186  0.71279514  1
  B  B45  1  0.86425473  0.25275796  0.21279532  1
  B  B46  1  0.89891911  0.83940902  0.62315125  1
  B  B47  1  0.89891895  0.66059120  0.12315106  1
  O  O48  1  0.09496516  0.45778373  0.89442983  1
  O  O49  1  0.07635016  0.26448440  0.96451449  1
  O  O50  1  0.07857628  0.63951956  0.80918286  1
  O  O51  1  0.09496470  0.04221733  0.39443024  1
  O  O52  1  0.07635045  0.23551553  0.46451503  1
  O  O53  1  0.07857588  0.86048105  0.30918307  1
  O  O54  1  0.15533401  0.82337841  0.87678093  1
  O  O55  1  0.15240017  0.29441252  0.77672205  1
  O  O56  1  0.15533345  0.67662246  0.37678050  1
  O  O57  1  0.15239945  0.20558672  0.27672295  1
  O  O58  1  0.17554294  0.00979012  0.94795128  1
  O  O59  1  0.17554325  0.49020959  0.44795144  1
  O  O60  1  0.17543897  0.78114814  0.68105567  1
  O  O61  1  0.20553411  0.48639916  0.70757291  1
  O  O62  1  0.17543983  0.71885100  0.18105579  1
  O  O63  1  0.20553379  0.01360127  0.20757413  1
  O  O64  1  0.29832758  0.31420543  0.61611511  1
  O  O65  1  0.26071697  0.93655652  0.55940741  1
  O  O66  1  0.29832764  0.18579520  0.11611464  1
  O  O67  1  0.24426322  0.97495984  0.75415235  1
  O  O68  1  0.26071651  0.56344289  0.05940798  1
  O  O69  1  0.24426289  0.52504097  0.25415286  1
  O  O70  1  0.32005878  0.57560282  0.86199246  1
  O  O71  1  0.32005845  0.92439706  0.36199173  1
  O  O72  1  0.40839453  0.20243562  0.88015627  1
  O  O73  1  0.40839512  0.29756417  0.38015548  1
  O  O74  1  0.42291681  0.83596506  0.68816053  1
  O  O75  1  0.47053053  0.66797956  0.98997308  1
  O  O76  1  0.42291712  0.66403558  0.18816109  1
  O  O77  1  0.47052920  0.83202218  0.48997128  1
  O  O78  1  0.52947080  0.16797782  0.51002872  1
  O  O79  1  0.57708288  0.33596442  0.81183891  1
  O  O80  1  0.52946947  0.33202044  0.01002692  1
  O  O81  1  0.57708319  0.16403494  0.31183947  1
  O  O82  1  0.59160488  0.70243583  0.61984452  1
  O  O83  1  0.59160547  0.79756438  0.11984373  1
  O  O84  1  0.67994155  0.07560294  0.63800827  1
  O  O85  1  0.67994122  0.42439718  0.13800754  1
  O  O86  1  0.75573711  0.47495903  0.74584714  1
  O  O87  1  0.73928349  0.43655711  0.94059202  1
  O  O88  1  0.75573678  0.02504016  0.24584765  1
  O  O89  1  0.70167236  0.81420480  0.88388536  1
  O  O90  1  0.73928303  0.06344348  0.44059259  1
  O  O91  1  0.70167242  0.68579457  0.38388489  1
  O  O92  1  0.79446621  0.98639873  0.79242587  1
  O  O93  1  0.82456017  0.28114900  0.81894421  1
  O  O94  1  0.79446589  0.51360084  0.29242709  1
  O  O95  1  0.82456103  0.21885186  0.31894433  1
  O  O96  1  0.82445675  0.50979041  0.55204856  1
  O  O97  1  0.82445706  0.99020988  0.05204872  1
  O  O98  1  0.84760055  0.79441328  0.72327705  1
  O  O99  1  0.84466655  0.32337754  0.62321950  1
  O  O100  1  0.84759983  0.70558748  0.22327795  1
  O  O101  1  0.84466599  0.17662159  0.12321907  1
  O  O102  1  0.92142412  0.13951895  0.69081693  1
  O  O103  1  0.92364955  0.76448447  0.53548497  1
  O  O104  1  0.90503530  0.95778267  0.60556976  1
  O  O105  1  0.92142372  0.36048044  0.19081714  1
  O  O106  1  0.92364984  0.73551560  0.03548551  1
  O  O107  1  0.90503484  0.54221627  0.10557017  1
