# generated using pymatgen
data_MnOF
_symmetry_space_group_name_H-M   'P 1'
_cell_length_a   4.64413475
_cell_length_b   10.38406675
_cell_length_c   5.66944154
_cell_angle_alpha   83.78346274
_cell_angle_beta   90.00000000
_cell_angle_gamma   90.00000000
_symmetry_Int_Tables_number   1
_chemical_formula_structural   MnOF
_chemical_formula_sum   'Mn8 O8 F8'
_cell_volume   271.80113575
_cell_formula_units_Z   8
loop_
 _symmetry_equiv_pos_site_id
 _symmetry_equiv_pos_as_xyz
  1  'x, y, z'
loop_
 _atom_site_type_symbol
 _atom_site_label
 _atom_site_symmetry_multiplicity
 _atom_site_fract_x
 _atom_site_fract_y
 _atom_site_fract_z
 _atom_site_occupancy
  Mn  Mn0  1  0.53177292  0.98737405  0.50615095  1
  Mn  Mn1  1  0.47807121  0.51141351  0.99735953  1
  Mn  Mn2  1  0.52192879  0.73858649  0.25264047  1
  Mn  Mn3  1  0.46822708  0.26262595  0.74384905  1
  Mn  Mn4  1  0.03177292  0.76262595  0.74384905  1
  Mn  Mn5  1  0.96822708  0.48737405  0.50615095  1
  Mn  Mn6  1  0.97807121  0.23858649  0.25264047  1
  Mn  Mn7  1  0.02192879  0.01141351  0.99735953  1
  O  O8  1  0.79826121  0.31836061  0.52336767  1
  O  O9  1  0.80665438  0.07056581  0.26560967  1
  O  O10  1  0.70173879  0.81836061  0.52336767  1
  O  O11  1  0.69334562  0.57056581  0.26560967  1
  O  O12  1  0.29826121  0.43163939  0.72663233  1
  O  O13  1  0.30665438  0.67943419  0.98439033  1
  O  O14  1  0.19334562  0.17943419  0.98439033  1
  O  O15  1  0.20173879  0.93163939  0.72663233  1
  F  F16  1  0.81783823  0.59319965  0.77958908  1
  F  F17  1  0.80719382  0.84704274  0.01846750  1
  F  F18  1  0.68216177  0.09319965  0.77958908  1
  F  F19  1  0.69280618  0.34704274  0.01846750  1
  F  F20  1  0.31783823  0.15680035  0.47041092  1
  F  F21  1  0.30719382  0.90295726  0.23153250  1
  F  F22  1  0.18216177  0.65680035  0.47041092  1
  F  F23  1  0.19280618  0.40295726  0.23153250  1
