# generated using pymatgen
data_Na8V2O7
_symmetry_space_group_name_H-M   'P 1'
_cell_length_a   8.83079357
_cell_length_b   11.26064289
_cell_length_c   10.25497763
_cell_angle_alpha   90.00000000
_cell_angle_beta   107.32209394
_cell_angle_gamma   90.00000000
_symmetry_Int_Tables_number   1
_chemical_formula_structural   Na8V2O7
_chemical_formula_sum   'Na32 V8 O28'
_cell_volume   973.50910875
_cell_formula_units_Z   4
loop_
 _symmetry_equiv_pos_site_id
 _symmetry_equiv_pos_as_xyz
  1  'x, y, z'
loop_
 _atom_site_type_symbol
 _atom_site_label
 _atom_site_symmetry_multiplicity
 _atom_site_fract_x
 _atom_site_fract_y
 _atom_site_fract_z
 _atom_site_occupancy
  Na  Na0  1  0.12252595  0.47506454  0.92732589  1
  Na  Na1  1  0.08251964  0.46153319  0.64236450  1
  Na  Na2  1  0.10605437  0.74075591  0.53310107  1
  Na  Na3  1  0.12252595  0.02493546  0.42732589  1
  Na  Na4  1  0.25413920  0.94788037  0.71376359  1
  Na  Na5  1  0.08251964  0.03846681  0.14236450  1
  Na  Na6  1  0.28651260  0.25054589  0.57078187  1
  Na  Na7  1  0.10605437  0.75924409  0.03310107  1
  Na  Na8  1  0.42981870  0.46941516  0.85385196  1
  Na  Na9  1  0.34168041  0.50257663  0.52072684  1
  Na  Na10  1  0.25413920  0.55211963  0.21376359  1
  Na  Na11  1  0.50048882  0.22986148  0.87285894  1
  Na  Na12  1  0.28651260  0.24945411  0.07078187  1
  Na  Na13  1  0.49951118  0.72986148  0.62714106  1
  Na  Na14  1  0.42981870  0.03058484  0.35385196  1
  Na  Na15  1  0.65831959  0.00257663  0.97927316  1
  Na  Na16  1  0.34168041  0.99742337  0.02072684  1
  Na  Na17  1  0.57018130  0.96941516  0.64614804  1
  Na  Na18  1  0.50048882  0.27013852  0.37285894  1
  Na  Na19  1  0.71348740  0.75054589  0.92921813  1
  Na  Na20  1  0.49951118  0.77013852  0.12714106  1
  Na  Na21  1  0.74586080  0.44788037  0.78623641  1
  Na  Na22  1  0.65831959  0.49742337  0.47927316  1
  Na  Na23  1  0.57018130  0.53058484  0.14614804  1
  Na  Na24  1  0.89394563  0.24075591  0.96689893  1
  Na  Na25  1  0.71348740  0.74945411  0.42921813  1
  Na  Na26  1  0.91748036  0.96153319  0.85763550  1
  Na  Na27  1  0.74586080  0.05211963  0.28623641  1
  Na  Na28  1  0.87747405  0.97506454  0.57267411  1
  Na  Na29  1  0.89394563  0.25924409  0.46689893  1
  Na  Na30  1  0.91748036  0.53846681  0.35763550  1
  Na  Na31  1  0.87747405  0.52493546  0.07267411  1
  V  V32  1  0.09168850  0.20227655  0.77522736  1
  V  V33  1  0.09168850  0.29772345  0.27522736  1
  V  V34  1  0.30806244  0.71435228  0.84715283  1
  V  V35  1  0.30806244  0.78564772  0.34715283  1
  V  V36  1  0.69193756  0.21435228  0.65284717  1
  V  V37  1  0.69193756  0.28564772  0.15284717  1
  V  V38  1  0.90831150  0.70227655  0.72477264  1
  V  V39  1  0.90831150  0.79772345  0.22477264  1
  O  O40  1  0.10973296  0.11012481  0.93706423  1
  O  O41  1  0.10344763  0.80238418  0.78015139  1
  O  O42  1  0.09954466  0.11018011  0.61986382  1
  O  O43  1  0.10973296  0.38987519  0.43706423  1
  O  O44  1  0.25003133  0.32591356  0.81564848  1
  O  O45  1  0.10344763  0.69761582  0.28015139  1
  O  O46  1  0.09954466  0.38981989  0.11986382  1
  O  O47  1  0.31821313  0.61582597  0.69758868  1
  O  O48  1  0.25003133  0.17408644  0.31564848  1
  O  O49  1  0.45604088  0.84954123  0.89509054  1
  O  O50  1  0.33103312  0.88492031  0.50667266  1
  O  O51  1  0.31821313  0.88417403  0.19758868  1
  O  O52  1  0.45604088  0.65045877  0.39509054  1
  O  O53  1  0.66896688  0.38492031  0.99332734  1
  O  O54  1  0.33103312  0.61507969  0.00667266  1
  O  O55  1  0.54395912  0.34954123  0.60490946  1
  O  O56  1  0.68178687  0.11582597  0.80241132  1
  O  O57  1  0.66896688  0.11507969  0.49332734  1
  O  O58  1  0.54395912  0.15045877  0.10490946  1
  O  O59  1  0.74996867  0.82591356  0.68435152  1
  O  O60  1  0.68178687  0.38417403  0.30241132  1
  O  O61  1  0.90045534  0.61018011  0.88013618  1
  O  O62  1  0.89655237  0.30238418  0.71984861  1
  O  O63  1  0.74996867  0.67408644  0.18435152  1
  O  O64  1  0.89026704  0.61012481  0.56293577  1
  O  O65  1  0.90045534  0.88981989  0.38013618  1
  O  O66  1  0.89655237  0.19761582  0.21984861  1
  O  O67  1  0.89026704  0.88987519  0.06293577  1
