# generated using pymatgen
data_PrHfO4
_symmetry_space_group_name_H-M   'P 1'
_cell_length_a   10.73774450
_cell_length_b   7.68067313
_cell_length_c   10.85035607
_cell_angle_alpha   45.05881914
_cell_angle_beta   89.98309879
_cell_angle_gamma   89.97712418
_symmetry_Int_Tables_number   1
_chemical_formula_structural   PrHfO4
_chemical_formula_sum   'Pr8 Hf8 O32'
_cell_volume   633.41258905
_cell_formula_units_Z   8
loop_
 _symmetry_equiv_pos_site_id
 _symmetry_equiv_pos_as_xyz
  1  'x, y, z'
loop_
 _atom_site_type_symbol
 _atom_site_label
 _atom_site_symmetry_multiplicity
 _atom_site_fract_x
 _atom_site_fract_y
 _atom_site_fract_z
 _atom_site_occupancy
  Pr  Pr0  1  0.12556558  0.24514695  0.75366522  1
  Pr  Pr1  1  0.12342226  0.74636746  0.25362599  1
  Pr  Pr2  1  0.37498211  0.24813947  0.50272297  1
  Pr  Pr3  1  0.37245433  0.75192321  0.50034946  1
  Pr  Pr4  1  0.62524394  0.75018046  0.75111544  1
  Pr  Pr5  1  0.62231996  0.24987280  0.24923544  1
  Pr  Pr6  1  0.87582286  0.74677770  0.00175426  1
  Pr  Pr7  1  0.87329698  0.24511697  0.00292416  1
  Hf  Hf8  1  0.12389489  0.76441845  0.74693809  1
  Hf  Hf9  1  0.12395637  0.23878545  0.24970010  1
  Hf  Hf10  1  0.37324493  0.75488660  0.99113358  1
  Hf  Hf11  1  0.37259155  0.23418883  0.01234329  1
  Hf  Hf12  1  0.62629776  0.23324227  0.75497827  1
  Hf  Hf13  1  0.62428603  0.75723373  0.25261239  1
  Hf  Hf14  1  0.87406630  0.23973462  0.51345493  1
  Hf  Hf15  1  0.87288302  0.76098132  0.49007879  1
  O  O16  1  0.03150198  0.50750219  0.99716684  1
  O  O17  1  0.00101988  0.00503689  0.27108933  1
  O  O18  1  0.00121313  0.55849768  0.72082226  1
  O  O19  1  0.99949489  0.99456793  0.00413705  1
  O  O20  1  0.99202597  0.94807592  0.52817573  1
  O  O21  1  0.99977020  0.00764596  0.72599877  1
  O  O22  1  0.00000118  0.39796809  0.30195125  1
  O  O23  1  0.25009903  0.49901014  0.80042901  1
  O  O24  1  0.24968067  0.95586704  0.76728702  1
  O  O25  1  0.24530530  0.49962964  0.02402791  1
  O  O26  1  0.21378937  0.99544041  0.49764067  1
  O  O27  1  0.25060672  0.49567354  0.22272530  1
  O  O28  1  0.24948989  0.49835336  0.50345709  1
  O  O29  1  0.28048348  0.99780675  0.99660816  1
  O  O30  1  0.25067249  0.04189282  0.22543191  1
  O  O31  1  0.46358643  0.48610401  0.00864610  1
  O  O32  1  0.49920961  0.00147650  0.50011288  1
  O  O33  1  0.49862671  0.05687348  0.97204118  1
  O  O34  1  0.50042683  0.98819808  0.23325200  1
  O  O35  1  0.50024970  0.60035801  0.19954549  1
  O  O36  1  0.50037512  0.44246763  0.77926601  1
  O  O37  1  0.49949947  0.98718547  0.78048319  1
  O  O38  1  0.53206117  0.48612117  0.50643327  1
  O  O39  1  0.75080866  0.49580537  0.70489553  1
  O  O40  1  0.74993098  0.03994550  0.73546046  1
  O  O41  1  0.74423817  0.49728040  0.47935940  1
  O  O42  1  0.71729304  0.99726036  0.00659575  1
  O  O43  1  0.75023185  0.49569823  0.28364066  1
  O  O44  1  0.74920106  0.49772205  0.00080807  1
  O  O45  1  0.77965945  0.99623567  0.50773257  1
  O  O46  1  0.75050550  0.95512262  0.27723905  1
  O  O47  1  0.96340820  0.50766680  0.49545969  1
