# generated using pymatgen
data_Li5Mn8(BO3)8
_symmetry_space_group_name_H-M   'P 1'
_cell_length_a   5.28695280
_cell_length_b   5.31174004
_cell_length_c   20.26331370
_cell_angle_alpha   89.21798882
_cell_angle_beta   91.47463040
_cell_angle_gamma   61.50782114
_symmetry_Int_Tables_number   1
_chemical_formula_structural   Li5Mn8(BO3)8
_chemical_formula_sum   'Li5 Mn8 B8 O24'
_cell_volume   499.74723927
_cell_formula_units_Z   1
loop_
 _symmetry_equiv_pos_site_id
 _symmetry_equiv_pos_as_xyz
  1  'x, y, z'
loop_
 _atom_site_type_symbol
 _atom_site_label
 _atom_site_symmetry_multiplicity
 _atom_site_fract_x
 _atom_site_fract_y
 _atom_site_fract_z
 _atom_site_occupancy
  Li  Li0  1  0.11482098  0.84503962  0.33892683  1
  Li  Li1  1  0.18255085  0.86811795  0.57818851  1
  Li  Li2  1  0.16010689  0.86077569  0.08250108  1
  Li  Li3  1  0.81947564  0.16361549  0.94768492  1
  Li  Li4  1  0.87272228  0.13551877  0.71127080  1
  Mn  Mn5  1  0.19896399  0.49312162  0.69114988  1
  Mn  Mn6  1  0.16201765  0.47840452  0.18954451  1
  Mn  Mn7  1  0.51816627  0.18956372  0.56288705  1
  Mn  Mn8  1  0.49705895  0.18386682  0.06351595  1
  Mn  Mn9  1  0.46514376  0.83402457  0.93722072  1
  Mn  Mn10  1  0.52851929  0.82317589  0.43956901  1
  Mn  Mn11  1  0.82917674  0.52121474  0.81524764  1
  Mn  Mn12  1  0.79933295  0.49099972  0.31236901  1
  B  B13  1  0.14178624  0.50209277  0.93667915  1
  B  B14  1  0.15851014  0.48507213  0.43708720  1
  B  B15  1  0.50904772  0.15299558  0.81220036  1
  B  B16  1  0.48289114  0.15096499  0.31460804  1
  B  B17  1  0.52098116  0.84456120  0.68978267  1
  B  B18  1  0.49705926  0.85009437  0.18646011  1
  B  B19  1  0.86362046  0.50888631  0.56339789  1
  B  B20  1  0.82918417  0.50835120  0.06259856  1
  O  O21  1  0.09826285  0.54449235  0.58464786  1
  O  O22  1  0.06436923  0.53463354  0.09091273  1
  O  O23  1  0.24133992  0.38051824  0.79316224  1
  O  O24  1  0.11023224  0.76874646  0.94218097  1
  O  O25  1  0.23326779  0.39081106  0.28732959  1
  O  O26  1  0.39547515  0.25654475  0.95662683  1
  O  O27  1  0.37156792  0.22503438  0.46382924  1
  O  O28  1  0.55556620  0.07811955  0.66972817  1
  O  O29  1  0.20095717  0.71630165  0.43150129  1
  O  O30  1  0.49033122  0.10955257  0.16727556  1
  O  O31  1  0.26261954  0.84797296  0.68081732  1
  O  O32  1  0.26505554  0.80790766  0.17830367  1
  O  O33  1  0.75472914  0.17417967  0.80606627  1
  O  O34  1  0.74074717  0.13970068  0.31634805  1
  O  O35  1  0.51197463  0.90010844  0.83425551  1
  O  O36  1  0.44602914  0.92214012  0.34144582  1
  O  O37  1  0.61103231  0.75623808  0.53787209  1
  O  O38  1  0.86855365  0.25336914  0.56883435  1
  O  O39  1  0.57725421  0.75607807  0.04402618  1
  O  O40  1  0.76580472  0.59751829  0.71693533  1
  O  O41  1  0.85919344  0.24115098  0.05136705  1
  O  O42  1  0.75663991  0.63685373  0.21430887  1
  O  O43  1  0.90497134  0.46415218  0.91224624  1
  O  O44  1  0.89750704  0.49741976  0.41522890  1
