# generated using pymatgen
data_Li2VF5
_symmetry_space_group_name_H-M   'P 1'
_cell_length_a   5.83589072
_cell_length_b   9.73735834
_cell_length_c   7.83459294
_cell_angle_alpha   90.00000000
_cell_angle_beta   106.29172829
_cell_angle_gamma   90.00000000
_symmetry_Int_Tables_number   1
_chemical_formula_structural   Li2VF5
_chemical_formula_sum   'Li8 V4 F20'
_cell_volume   427.33278148
_cell_formula_units_Z   4
loop_
 _symmetry_equiv_pos_site_id
 _symmetry_equiv_pos_as_xyz
  1  'x, y, z'
loop_
 _atom_site_type_symbol
 _atom_site_label
 _atom_site_symmetry_multiplicity
 _atom_site_fract_x
 _atom_site_fract_y
 _atom_site_fract_z
 _atom_site_occupancy
  Li  Li0  1  0.14061415  0.19402403  0.48254083  1
  Li  Li1  1  0.33383884  0.82318732  0.62653119  1
  Li  Li2  1  0.14061415  0.30597597  0.98254083  1
  Li  Li3  1  0.33383884  0.67681268  0.12653119  1
  Li  Li4  1  0.66616116  0.32318732  0.87346881  1
  Li  Li5  1  0.85938585  0.69402403  0.01745917  1
  Li  Li6  1  0.66616116  0.17681268  0.37346881  1
  Li  Li7  1  0.85938585  0.80597597  0.51745917  1
  V  V8  1  0.12982510  0.50663005  0.71037435  1
  V  V9  1  0.12982510  0.99336995  0.21037435  1
  V  V10  1  0.87017490  0.00663005  0.78962565  1
  V  V11  1  0.87017490  0.49336995  0.28962565  1
  F  F12  1  0.10071552  0.87525751  0.74607449  1
  F  F13  1  0.08539464  0.61588783  0.90592474  1
  F  F14  1  0.10071552  0.62474249  0.24607449  1
  F  F15  1  0.08539464  0.88411217  0.40592474  1
  F  F16  1  0.12994987  0.39143570  0.49246266  1
  F  F17  1  0.36505215  0.38308717  0.87580867  1
  F  F18  1  0.36358505  0.63113023  0.67555940  1
  F  F19  1  0.12994987  0.10856430  0.99246266  1
  F  F20  1  0.36505215  0.11691283  0.37580867  1
  F  F21  1  0.63641495  0.13113023  0.82444060  1
  F  F22  1  0.36358505  0.86886977  0.17555940  1
  F  F23  1  0.63494785  0.88308717  0.62419133  1
  F  F24  1  0.87005013  0.89143570  0.00753734  1
  F  F25  1  0.63641495  0.36886977  0.32444060  1
  F  F26  1  0.63494785  0.61691283  0.12419133  1
  F  F27  1  0.87005013  0.60856430  0.50753734  1
  F  F28  1  0.91460536  0.11588783  0.59407526  1
  F  F29  1  0.89928448  0.37525751  0.75392551  1
  F  F30  1  0.91460536  0.38411217  0.09407526  1
  F  F31  1  0.89928448  0.12474249  0.25392551  1
