# generated using pymatgen
data_Co3OF5
_symmetry_space_group_name_H-M   'P 1'
_cell_length_a   4.72923675
_cell_length_b   4.72923675
_cell_length_c   9.42155649
_cell_angle_alpha   89.20949544
_cell_angle_beta   89.20949544
_cell_angle_gamma   91.46165112
_symmetry_Int_Tables_number   1
_chemical_formula_structural   Co3OF5
_chemical_formula_sum   'Co6 O2 F10'
_cell_volume   210.60980659
_cell_formula_units_Z   2
loop_
 _symmetry_equiv_pos_site_id
 _symmetry_equiv_pos_as_xyz
  1  'x, y, z'
loop_
 _atom_site_type_symbol
 _atom_site_label
 _atom_site_symmetry_multiplicity
 _atom_site_fract_x
 _atom_site_fract_y
 _atom_site_fract_z
 _atom_site_occupancy
  Co  Co0  1  0.97580283  0.97580283  0.00368212  1
  Co  Co1  1  0.02419717  0.02419717  0.32965088  1
  Co  Co2  1  0.00000000  0.00000000  0.66666700  1
  Co  Co3  1  0.50000000  0.50000000  0.16666700  1
  Co  Co4  1  0.50272949  0.50272949  0.84131385  1
  Co  Co5  1  0.49727051  0.49727051  0.49201915  1
  O  O6  1  0.32597766  0.32597766  0.31361181  1
  O  O7  1  0.67402234  0.67402234  0.01972119  1
  F  F8  1  0.20154423  0.79845577  0.16666700  1
  F  F9  1  0.18668945  0.79464213  0.83559550  1
  F  F10  1  0.20535787  0.81331055  0.49773850  1
  F  F11  1  0.28796340  0.28796340  0.00691787  1
  F  F12  1  0.30631668  0.30631668  0.66899716  1
  F  F13  1  0.69368332  0.69368332  0.66433584  1
  F  F14  1  0.71203660  0.71203660  0.32641513  1
  F  F15  1  0.79845577  0.20154423  0.16666700  1
  F  F16  1  0.79464213  0.18668945  0.83559550  1
  F  F17  1  0.81331055  0.20535787  0.49773850  1
