# generated using pymatgen
data_Mn12O7F17
_symmetry_space_group_name_H-M   'P 1'
_cell_length_a   4.81704322
_cell_length_b   5.87091122
_cell_length_c   15.71437032
_cell_angle_alpha   90.62909832
_cell_angle_beta   89.91654570
_cell_angle_gamma   93.65850830
_symmetry_Int_Tables_number   1
_chemical_formula_structural   Mn12O7F17
_chemical_formula_sum   'Mn12 O7 F17'
_cell_volume   443.47667110
_cell_formula_units_Z   1
loop_
 _symmetry_equiv_pos_site_id
 _symmetry_equiv_pos_as_xyz
  1  'x, y, z'
loop_
 _atom_site_type_symbol
 _atom_site_label
 _atom_site_symmetry_multiplicity
 _atom_site_fract_x
 _atom_site_fract_y
 _atom_site_fract_z
 _atom_site_occupancy
  Mn  Mn0  1  0.03811267  0.16240428  0.41072695  1
  Mn  Mn1  1  0.99972316  0.84139475  0.24448080  1
  Mn  Mn2  1  0.96633327  0.19026004  0.07313298  1
  Mn  Mn3  1  0.03211643  0.17524719  0.74936535  1
  Mn  Mn4  1  0.00842830  0.85586565  0.58716572  1
  Mn  Mn5  1  0.01991783  0.85768864  0.92005514  1
  Mn  Mn6  1  0.47486073  0.32912389  0.57951268  1
  Mn  Mn7  1  0.48089488  0.33622497  0.91987784  1
  Mn  Mn8  1  0.49510297  0.34330597  0.25091793  1
  Mn  Mn9  1  0.51702797  0.63581543  0.08820781  1
  Mn  Mn10  1  0.49375277  0.65003513  0.41904041  1
  Mn  Mn11  1  0.50007657  0.64241885  0.75410080  1
  O  O12  1  0.23389675  0.12165544  0.30462849  1
  O  O13  1  0.21911232  0.12641146  0.64149653  1
  O  O14  1  0.20097593  0.13152717  0.97140663  1
  O  O15  1  0.28562791  0.37249581  0.47247897  1
  O  O16  1  0.29390006  0.37573707  0.81119748  1
  O  O17  1  0.68884792  0.39343063  0.02590292  1
  O  O18  1  0.71104594  0.59680469  0.19343401  1
  F  F19  1  0.24962272  0.85919609  0.13491002  1
  F  F20  1  0.23758534  0.87958078  0.47551440  1
  F  F21  1  0.23680861  0.87646698  0.81008078  1
  F  F22  1  0.24699769  0.36568817  0.14813862  1
  F  F23  1  0.25839787  0.61460478  0.30725554  1
  F  F24  1  0.26663608  0.62089317  0.64199828  1
  F  F25  1  0.27083497  0.63049813  0.98262535  1
  F  F26  1  0.73470717  0.39095455  0.35580495  1
  F  F27  1  0.73026656  0.61062299  0.53379947  1
  F  F28  1  0.74459216  0.61491127  0.86781447  1
  F  F29  1  0.72261390  0.38034404  0.68443780  1
  F  F30  1  0.76155421  0.10654656  0.18639916  1
  F  F31  1  0.78680947  0.11675864  0.51584159  1
  F  F32  1  0.77939307  0.89279931  0.36317856  1
  F  F33  1  0.75987249  0.88915388  0.02240176  1
  F  F34  1  0.78141523  0.12129893  0.85209892  1
  F  F35  1  0.77213807  0.89183068  0.70057091  1
