# generated using pymatgen
data_Li4Ti3Co3(SnO8)2
_symmetry_space_group_name_H-M   'P 1'
_cell_length_a   5.85381168
_cell_length_b   5.93078722
_cell_length_c   9.75275494
_cell_angle_alpha   89.88470617
_cell_angle_beta   90.15129098
_cell_angle_gamma   120.54937208
_symmetry_Int_Tables_number   1
_chemical_formula_structural   Li4Ti3Co3(SnO8)2
_chemical_formula_sum   'Li4 Ti3 Co3 Sn2 O16'
_cell_volume   291.59259225
_cell_formula_units_Z   1
loop_
 _symmetry_equiv_pos_site_id
 _symmetry_equiv_pos_as_xyz
  1  'x, y, z'
loop_
 _atom_site_type_symbol
 _atom_site_label
 _atom_site_symmetry_multiplicity
 _atom_site_fract_x
 _atom_site_fract_y
 _atom_site_fract_z
 _atom_site_occupancy
  Li  Li0  1  0.33875960  0.66907966  0.89099644  1
  Li  Li1  1  0.98349143  0.99144396  0.99269723  1
  Li  Li2  1  0.99338953  0.99667290  0.49295591  1
  Li  Li3  1  0.66824654  0.33482688  0.40119018  1
  Ti  Ti4  1  0.33986901  0.16974002  0.71494137  1
  Ti  Ti5  1  0.17558467  0.83441262  0.21561176  1
  Ti  Ti6  1  0.17555502  0.34098941  0.21600949  1
  Co  Co7  1  0.65238355  0.82682027  0.21204181  1
  Co  Co8  1  0.82914430  0.65986646  0.71405202  1
  Co  Co9  1  0.82920376  0.16934566  0.71399912  1
  Sn  Sn10  1  0.33603656  0.66870236  0.49616464  1
  Sn  Sn11  1  0.68459194  0.34183035  0.98617484  1
  O  O12  1  0.15772369  0.84005796  0.60378452  1
  O  O13  1  0.03053141  0.51409674  0.33422650  1
  O  O14  1  0.32111562  0.66062593  0.10412295  1
  O  O15  1  0.99515202  0.99710384  0.30488872  1
  O  O16  1  0.99473421  0.99724269  0.80659078  1
  O  O17  1  0.15786101  0.31793934  0.60343679  1
  O  O18  1  0.46432085  0.96847184  0.34775263  1
  O  O19  1  0.46777652  0.50163908  0.34610444  1
  O  O20  1  0.33374538  0.16730281  0.10243138  1
  O  O21  1  0.68557304  0.84299080  0.60573782  1
  O  O22  1  0.51994439  0.48423230  0.83535660  1
  O  O23  1  0.51995764  0.03535830  0.83540530  1
  O  O24  1  0.66918509  0.33489173  0.60956516  1
  O  O25  1  0.85479765  0.67773015  0.09799049  1
  O  O26  1  0.96978973  0.48461028  0.82500373  1
  O  O27  1  0.85153582  0.17227666  0.09860539  1
