# generated using pymatgen
data_CeSe2
_symmetry_space_group_name_H-M   'P 1'
_cell_length_a   5.50038030
_cell_length_b   5.50038030
_cell_length_c   13.85790753
_cell_angle_alpha   90.00000000
_cell_angle_beta   90.00000000
_cell_angle_gamma   90.00000000
_symmetry_Int_Tables_number   1
_chemical_formula_structural   CeSe2
_chemical_formula_sum   'Ce4 Se8'
_cell_volume   419.25967657
_cell_formula_units_Z   4
loop_
 _symmetry_equiv_pos_site_id
 _symmetry_equiv_pos_as_xyz
  1  'x, y, z'
loop_
 _atom_site_type_symbol
 _atom_site_label
 _atom_site_symmetry_multiplicity
 _atom_site_fract_x
 _atom_site_fract_y
 _atom_site_fract_z
 _atom_site_occupancy
  Ce  Ce0  1  0.71462515  0.28537485  0.75000000  1
  Ce  Ce1  1  0.28537485  0.71462515  0.25000000  1
  Ce  Ce2  1  0.78537485  0.78537485  0.50000000  1
  Ce  Ce3  1  0.21462515  0.21462515  -0.00000000  1
  Se  Se4  1  0.83875138  0.28650501  0.54983544  1
  Se  Se5  1  0.16124862  0.71349499  0.04983544  1
  Se  Se6  1  0.78650501  0.66124862  0.29983544  1
  Se  Se7  1  0.21349499  0.33875138  0.79983544  1
  Se  Se8  1  0.71349499  0.16124862  0.95016456  1
  Se  Se9  1  0.28650501  0.83875138  0.45016456  1
  Se  Se10  1  0.66124862  0.78650501  0.70016456  1
  Se  Se11  1  0.33875138  0.21349499  0.20016456  1
