# generated using pymatgen
data_Li3Bi(PO4)2
_symmetry_space_group_name_H-M   'P 1'
_cell_length_a   19.39539477
_cell_length_b   5.38843373
_cell_length_c   12.98045286
_cell_angle_alpha   90.00000000
_cell_angle_beta   70.87655917
_cell_angle_gamma   90.00000000
_symmetry_Int_Tables_number   1
_chemical_formula_structural   Li3Bi(PO4)2
_chemical_formula_sum   'Li24 Bi8 P16 O64'
_cell_volume   1281.73361923
_cell_formula_units_Z   8
loop_
 _symmetry_equiv_pos_site_id
 _symmetry_equiv_pos_as_xyz
  1  'x, y, z'
loop_
 _atom_site_type_symbol
 _atom_site_label
 _atom_site_symmetry_multiplicity
 _atom_site_fract_x
 _atom_site_fract_y
 _atom_site_fract_z
 _atom_site_occupancy
  Li  Li0  1  0.05327752  0.84145811  0.31497156  1
  Li  Li1  1  0.12975739  0.32993766  0.19791206  1
  Li  Li2  1  0.19743795  0.71081560  0.06044174  1
  Li  Li3  1  0.05327752  0.65854189  0.81497156  1
  Li  Li4  1  0.12975739  0.17006234  0.69791206  1
  Li  Li5  1  0.19743795  0.78918440  0.56044174  1
  Li  Li6  1  0.30810986  0.18358909  0.25552045  1
  Li  Li7  1  0.37854058  0.81444818  0.31753679  1
  Li  Li8  1  0.30810986  0.31641091  0.75552045  1
  Li  Li9  1  0.43801668  0.33473202  0.37508420  1
  Li  Li10  1  0.37854058  0.68555182  0.81753679  1
  Li  Li11  1  0.56198332  0.83473202  0.12491580  1
  Li  Li12  1  0.43801668  0.16526798  0.87508420  1
  Li  Li13  1  0.62145942  0.31444818  0.18246321  1
  Li  Li14  1  0.56198332  0.66526798  0.62491580  1
  Li  Li15  1  0.69189014  0.68358909  0.24447955  1
  Li  Li16  1  0.62145942  0.18555182  0.68246321  1
  Li  Li17  1  0.69189014  0.81641091  0.74447955  1
  Li  Li18  1  0.80256205  0.21081560  0.43955826  1
  Li  Li19  1  0.87024261  0.82993766  0.30208794  1
  Li  Li20  1  0.94672248  0.34145811  0.18502844  1
  Li  Li21  1  0.80256205  0.28918440  0.93955826  1
  Li  Li22  1  0.87024261  0.67006234  0.80208794  1
  Li  Li23  1  0.94672248  0.15854189  0.68502844  1
  Bi  Bi24  1  0.11701546  0.32276202  0.46042785  1
  Bi  Bi25  1  0.11701546  0.17723798  0.96042785  1
  Bi  Bi26  1  0.38212677  0.68074121  0.07993981  1
  Bi  Bi27  1  0.38212677  0.81925879  0.57993981  1
  Bi  Bi28  1  0.61787323  0.18074121  0.42006019  1
  Bi  Bi29  1  0.61787323  0.31925879  0.92006019  1
  Bi  Bi30  1  0.88298454  0.82276202  0.03957215  1
  Bi  Bi31  1  0.88298454  0.67723798  0.53957215  1
  P  P32  1  0.03528849  0.72354690  0.09055780  1
  P  P33  1  0.03528849  0.77645310  0.59055780  1
  P  P34  1  0.21101372  0.79815034  0.29818003  1
  P  P35  1  0.21101372  0.70184966  0.79818003  1
  P  P36  1  0.28779831  0.29494433  0.51461567  1
  P  P37  1  0.46739491  0.22810033  0.12363646  1
  P  P38  1  0.28779831  0.20505567  0.01461567  1
  P  P39  1  0.46739491  0.27189967  0.62363646  1
  P  P40  1  0.53260509  0.72810033  0.37636354  1
  P  P41  1  0.71220169  0.79494433  0.98538433  1
  P  P42  1  0.53260509  0.77189967  0.87636354  1
  P  P43  1  0.71220169  0.70505567  0.48538433  1
  P  P44  1  0.78898628  0.29815034  0.20181997  1
  P  P45  1  0.78898628  0.20184966  0.70181997  1
  P  P46  1  0.96471151  0.22354690  0.40944220  1
  P  P47  1  0.96471151  0.27645310  0.90944220  1
  O  O48  1  0.07015290  0.47143465  0.10578058  1
  O  O49  1  0.07967882  0.93516168  0.12176928  1
  O  O50  1  0.04518054  0.21928702  0.33152423  1
  O  O51  1  0.03615248  0.73479461  0.47189086  1
  O  O52  1  0.20650000  0.28858985  0.03757855  1
  O  O53  1  0.16818813  0.66750363  0.23256298  1
  O  O54  1  0.07015290  0.02856535  0.60578058  1
  O  O55  1  0.07967882  0.56483832  0.62176928  1
  O  O56  1  0.04518054  0.28071298  0.83152423  1
  O  O57  1  0.19767936  0.08512429  0.30297028  1
  O  O58  1  0.03615248  0.76520539  0.97189086  1
  O  O59  1  0.18800199  0.68777964  0.41547137  1
  O  O60  1  0.29263751  0.91672038  0.01981447  1
  O  O61  1  0.31101192  0.32027530  0.10881568  1
  O  O62  1  0.20650000  0.21141015  0.53757855  1
  O  O63  1  0.16818813  0.83249637  0.73256298  1
  O  O64  1  0.29640538  0.76813791  0.24946044  1
  O  O65  1  0.19767936  0.41487571  0.80297028  1
  O  O66  1  0.18800199  0.81222036  0.91547137  1
  O  O67  1  0.29263751  0.58327962  0.51981447  1
  O  O68  1  0.33732905  0.19169784  0.40337917  1
  O  O69  1  0.31101192  0.17972470  0.60881568  1
  O  O70  1  0.42562972  0.99005761  0.17846581  1
  O  O71  1  0.42968485  0.45193791  0.19668546  1
  O  O72  1  0.29640538  0.73186209  0.74946044  1
  O  O73  1  0.46481768  0.26615631  0.00703231  1
  O  O74  1  0.45156564  0.70274229  0.38120309  1
  O  O75  1  0.33732905  0.30830216  0.90337917  1
  O  O76  1  0.54843436  0.20274229  0.11879691  1
  O  O77  1  0.42562972  0.50994239  0.67846581  1
  O  O78  1  0.42968485  0.04806209  0.69668546  1
  O  O79  1  0.46481768  0.23384369  0.50703231  1
  O  O80  1  0.53518232  0.76615631  0.49296769  1
  O  O81  1  0.57031515  0.95193791  0.30331454  1
  O  O82  1  0.57437028  0.49005761  0.32153419  1
  O  O83  1  0.45156564  0.79725771  0.88120309  1
  O  O84  1  0.66267095  0.69169784  0.09662083  1
  O  O85  1  0.54843436  0.29725771  0.61879691  1
  O  O86  1  0.53518232  0.73384369  0.99296769  1
  O  O87  1  0.70359462  0.26813791  0.25053956  1
  O  O88  1  0.57031515  0.54806209  0.80331454  1
  O  O89  1  0.57437028  0.00994239  0.82153419  1
  O  O90  1  0.68898808  0.82027530  0.39118432  1
  O  O91  1  0.66267095  0.80830216  0.59662083  1
  O  O92  1  0.70736249  0.41672038  0.48018553  1
  O  O93  1  0.81199801  0.18777964  0.08452863  1
  O  O94  1  0.80232064  0.58512429  0.19702972  1
  O  O95  1  0.70359462  0.23186209  0.75053956  1
  O  O96  1  0.83181187  0.16750363  0.26743702  1
  O  O97  1  0.79350000  0.78858985  0.46242145  1
  O  O98  1  0.68898808  0.67972470  0.89118432  1
  O  O99  1  0.70736249  0.08327962  0.98018553  1
  O  O100  1  0.81199801  0.31222036  0.58452863  1
  O  O101  1  0.96384752  0.23479461  0.02810914  1
  O  O102  1  0.80232064  0.91487571  0.69702972  1
  O  O103  1  0.95481946  0.71928702  0.16847577  1
  O  O104  1  0.92032118  0.43516168  0.37823072  1
  O  O105  1  0.92984710  0.97143465  0.39421942  1
  O  O106  1  0.83181187  0.33249637  0.76743702  1
  O  O107  1  0.79350000  0.71141015  0.96242145  1
  O  O108  1  0.96384752  0.26520539  0.52810914  1
  O  O109  1  0.95481946  0.78071298  0.66847577  1
  O  O110  1  0.92032118  0.06483832  0.87823072  1
  O  O111  1  0.92984710  0.52856535  0.89421942  1
