# generated using pymatgen
data_Co3OF5
_symmetry_space_group_name_H-M   'P 1'
_cell_length_a   4.76362965
_cell_length_b   14.18754880
_cell_length_c   3.09443455
_cell_angle_alpha   90.00000000
_cell_angle_beta   90.00000000
_cell_angle_gamma   92.27772720
_symmetry_Int_Tables_number   1
_chemical_formula_structural   Co3OF5
_chemical_formula_sum   'Co6 O2 F10'
_cell_volume   208.96973716
_cell_formula_units_Z   2
loop_
 _symmetry_equiv_pos_site_id
 _symmetry_equiv_pos_as_xyz
  1  'x, y, z'
loop_
 _atom_site_type_symbol
 _atom_site_label
 _atom_site_symmetry_multiplicity
 _atom_site_fract_x
 _atom_site_fract_y
 _atom_site_fract_z
 _atom_site_occupancy
  Co  Co0  1  0.00000000  0.00000000  0.00000000  1
  Co  Co1  1  0.98440222  0.32822240  0.00000000  1
  Co  Co2  1  0.01559778  0.67177760  0.00000000  1
  Co  Co3  1  0.52487632  0.17522554  0.50000000  1
  Co  Co4  1  0.50000000  0.50000000  0.50000000  1
  Co  Co5  1  0.47512368  0.82477446  0.50000000  1
  O  O6  1  0.31480217  0.76833131  0.00000000  1
  O  O7  1  0.68519783  0.23166869  0.00000000  1
  F  F8  1  0.19293743  0.26614526  0.50000000  1
  F  F9  1  0.20078976  0.93544541  0.50000000  1
  F  F10  1  0.20223346  0.60085286  0.50000000  1
  F  F11  1  0.31024320  0.10415126  0.00000000  1
  F  F12  1  0.29704266  0.43259256  0.00000000  1
  F  F13  1  0.70295734  0.56740744  0.00000000  1
  F  F14  1  0.68975680  0.89584874  0.00000000  1
  F  F15  1  0.79921024  0.06455459  0.50000000  1
  F  F16  1  0.79776654  0.39914714  0.50000000  1
  F  F17  1  0.80706257  0.73385474  0.50000000  1
