# generated using pymatgen
data_LiV2OF5
_symmetry_space_group_name_H-M   'P 1'
_cell_length_a   5.24771739
_cell_length_b   5.54383156
_cell_length_c   17.28994399
_cell_angle_alpha   88.25809563
_cell_angle_beta   97.62305704
_cell_angle_gamma   118.55103641
_symmetry_Int_Tables_number   1
_chemical_formula_structural   LiV2OF5
_chemical_formula_sum   'Li4 V8 O4 F20'
_cell_volume   437.61758332
_cell_formula_units_Z   4
loop_
 _symmetry_equiv_pos_site_id
 _symmetry_equiv_pos_as_xyz
  1  'x, y, z'
loop_
 _atom_site_type_symbol
 _atom_site_label
 _atom_site_symmetry_multiplicity
 _atom_site_fract_x
 _atom_site_fract_y
 _atom_site_fract_z
 _atom_site_occupancy
  Li  Li0  1  0.83252858  0.33786391  0.31553855  1
  Li  Li1  1  0.58754106  0.21442337  0.92365251  1
  Li  Li2  1  0.31790104  0.60214437  0.06090587  1
  Li  Li3  1  0.07866535  0.43234071  0.66967773  1
  V  V4  1  0.73977168  0.39849495  0.12876353  1
  V  V5  1  0.50236855  0.26358788  0.74573346  1
  V  V6  1  0.50822327  0.74484428  0.24536798  1
  V  V7  1  0.73500942  0.84003796  0.62759636  1
  V  V8  1  0.24576651  0.13242747  0.38001377  1
  V  V9  1  0.00832256  0.48087854  0.49426709  1
  V  V10  1  0.00107616  0.02591892  0.99750443  1
  V  V11  1  0.23402427  0.60805097  0.87637947  1
  O  O12  1  0.55908678  0.59348582  0.15593851  1
  O  O13  1  0.50861291  0.55207884  0.68880423  1
  O  O14  1  0.07293737  0.33360921  0.40888007  1
  O  O15  1  0.01053434  0.31605978  0.93779520  1
  F  F16  1  0.96300815  0.20759298  0.08975317  1
  F  F17  1  0.98689724  0.18725228  0.57271785  1
  F  F18  1  0.01057299  0.70729626  0.06263362  1
  F  F19  1  0.50711073  0.05729453  0.17904202  1
  F  F20  1  0.95984935  0.46822469  0.77634180  1
  F  F21  1  0.94673352  0.64000288  0.59440625  1
  F  F22  1  0.92508259  0.99353179  0.28231103  1
  F  F23  1  0.44985438  0.24457031  0.02371724  1
  F  F24  1  0.56881648  0.07614731  0.66380065  1
  F  F25  1  0.57470303  0.26970838  0.46718243  1
  F  F26  1  0.52197415  0.44402410  0.31296080  1
  F  F27  1  0.45835738  0.41702023  0.84869017  1
  F  F28  1  0.43672832  0.71076403  0.53485990  1
  F  F29  1  0.44311070  0.93984550  0.33103756  1
  F  F30  1  0.54742786  0.79948140  0.97439720  1
  F  F31  1  0.06209775  0.04709804  0.71586432  1
  F  F32  1  0.05696905  0.52919871  0.22576752  1
  F  F33  1  0.48639207  0.96053917  0.82526834  1
  F  F34  1  0.00889677  0.79514055  0.43219210  1
  F  F35  1  0.06084864  0.83768985  0.91045025  1
