# generated using pymatgen
data_LiV2OF5
_symmetry_space_group_name_H-M   'P 1'
_cell_length_a   5.31162992
_cell_length_b   5.52642574
_cell_length_c   17.15506670
_cell_angle_alpha   87.45600972
_cell_angle_beta   98.21777685
_cell_angle_gamma   118.74997836
_symmetry_Int_Tables_number   1
_chemical_formula_structural   LiV2OF5
_chemical_formula_sum   'Li4 V8 O4 F20'
_cell_volume   436.79255487
_cell_formula_units_Z   4
loop_
 _symmetry_equiv_pos_site_id
 _symmetry_equiv_pos_as_xyz
  1  'x, y, z'
loop_
 _atom_site_type_symbol
 _atom_site_label
 _atom_site_symmetry_multiplicity
 _atom_site_fract_x
 _atom_site_fract_y
 _atom_site_fract_z
 _atom_site_occupancy
  Li  Li0  1  0.68921805  0.88956445  0.43737740  1
  Li  Li1  1  0.59195273  0.22171826  0.92759270  1
  Li  Li2  1  0.32081420  0.60338010  0.06443949  1
  Li  Li3  1  0.08336175  0.44293048  0.67303480  1
  V  V4  1  0.74497871  0.39324664  0.13181534  1
  V  V5  1  0.50740821  0.73428806  0.24541217  1
  V  V6  1  0.23957772  0.10087735  0.37502539  1
  V  V7  1  0.50302043  0.26738733  0.74630415  1
  V  V8  1  0.73587963  0.84990125  0.62844130  1
  V  V9  1  0.00164007  0.02220441  0.99814144  1
  V  V10  1  0.00204810  0.51670889  0.49455841  1
  V  V11  1  0.23291461  0.60885708  0.87702937  1
  O  O12  1  0.56420987  0.59048535  0.15565490  1
  O  O13  1  0.50717704  0.55665066  0.68726565  1
  O  O14  1  0.01179570  0.80758862  0.43662603  1
  O  O15  1  0.01252949  0.31407354  0.93641717  1
  F  F16  1  0.96151267  0.20034848  0.08920146  1
  F  F17  1  0.00623802  0.69907370  0.06059124  1
  F  F18  1  0.97458055  0.19836091  0.56939909  1
  F  F19  1  0.50787349  0.04787621  0.17933381  1
  F  F20  1  0.95948016  0.65464002  0.59749829  1
  F  F21  1  0.95653387  0.47279324  0.77534077  1
  F  F22  1  0.44755803  0.23855210  0.02489883  1
  F  F23  1  0.93341618  0.96546805  0.28298207  1
  F  F24  1  0.56562178  0.27302735  0.46412144  1
  F  F25  1  0.56077149  0.07948765  0.66274696  1
  F  F26  1  0.48352421  0.43040930  0.31691792  1
  F  F27  1  0.45910375  0.41909468  0.84755678  1
  F  F28  1  0.46442753  0.72173638  0.52668651  1
  F  F29  1  0.45086311  0.89869073  0.34336581  1
  F  F30  1  0.03104365  0.29343221  0.41494904  1
  F  F31  1  0.54764692  0.79744904  0.97376244  1
  F  F32  1  0.06009578  0.06067783  0.71496226  1
  F  F33  1  0.07691887  0.53741690  0.21942616  1
  F  F34  1  0.48425991  0.96221770  0.82270901  1
  F  F35  1  0.06616969  0.84070105  0.90976440  1
