# generated using pymatgen
data_Li2Fe2B2O7
_symmetry_space_group_name_H-M   'P 1'
_cell_length_a   7.88982828
_cell_length_b   12.12774383
_cell_length_c   5.28990337
_cell_angle_alpha   90.00000000
_cell_angle_beta   89.48215343
_cell_angle_gamma   90.00000000
_symmetry_Int_Tables_number   1
_chemical_formula_structural   Li2Fe2B2O7
_chemical_formula_sum   'Li8 Fe8 B8 O28'
_cell_volume   506.14804820
_cell_formula_units_Z   4
loop_
 _symmetry_equiv_pos_site_id
 _symmetry_equiv_pos_as_xyz
  1  'x, y, z'
loop_
 _atom_site_type_symbol
 _atom_site_label
 _atom_site_symmetry_multiplicity
 _atom_site_fract_x
 _atom_site_fract_y
 _atom_site_fract_z
 _atom_site_occupancy
  Li  Li0  1  0.12640670  0.34125675  0.14448611  1
  Li  Li1  1  0.18172030  0.74546009  0.80425392  1
  Li  Li2  1  0.31827970  0.24546009  0.69574608  1
  Li  Li3  1  0.37359330  0.84125675  0.35551389  1
  Li  Li4  1  0.62640670  0.15874325  0.64448611  1
  Li  Li5  1  0.68172030  0.75453991  0.30425392  1
  Li  Li6  1  0.81827970  0.25453991  0.19574608  1
  Li  Li7  1  0.87359330  0.65874325  0.85551389  1
  Fe  Fe8  1  0.10578261  0.09480728  0.34257080  1
  Fe  Fe9  1  0.19704554  0.48833584  0.61699280  1
  Fe  Fe10  1  0.30295446  0.98833584  0.88300720  1
  Fe  Fe11  1  0.39421739  0.59480728  0.15742920  1
  Fe  Fe12  1  0.60578261  0.40519272  0.84257080  1
  Fe  Fe13  1  0.69704554  0.01166416  0.11699280  1
  Fe  Fe14  1  0.80295446  0.51166416  0.38300720  1
  Fe  Fe15  1  0.89421739  0.90519272  0.65742920  1
  B  B16  1  0.02948027  0.88139985  0.19081980  1
  B  B17  1  0.04189997  0.67822448  0.33187912  1
  B  B18  1  0.45810003  0.17822448  0.16812088  1
  B  B19  1  0.47051973  0.38139985  0.30918020  1
  B  B20  1  0.52948027  0.61860015  0.69081980  1
  B  B21  1  0.54189997  0.82177552  0.83187912  1
  B  B22  1  0.95810003  0.32177552  0.66812088  1
  B  B23  1  0.97051973  0.11860015  0.80918020  1
  O  O24  1  0.03091204  0.79932466  0.40206969  1
  O  O25  1  0.01044802  0.16469496  0.05006294  1
  O  O26  1  0.09747075  0.03284270  0.70598045  1
  O  O27  1  0.06300409  0.61834787  0.58093566  1
  O  O28  1  0.12356250  0.35821370  0.77799785  1
  O  O29  1  0.17967664  0.66308530  0.14852482  1
  O  O30  1  0.19527722  0.94478207  0.19717357  1
  O  O31  1  0.30472278  0.44478207  0.30282643  1
  O  O32  1  0.32032336  0.16308530  0.35147518  1
  O  O33  1  0.37643750  0.85821370  0.72200215  1
  O  O34  1  0.43699591  0.11834787  0.91906434  1
  O  O35  1  0.40252925  0.53284270  0.79401955  1
  O  O36  1  0.48955198  0.66469496  0.44993706  1
  O  O37  1  0.46908796  0.29932466  0.09793031  1
  O  O38  1  0.53091204  0.70067534  0.90206969  1
  O  O39  1  0.51044802  0.33530504  0.55006294  1
  O  O40  1  0.59747075  0.46715730  0.20598045  1
  O  O41  1  0.56300409  0.88165213  0.08093566  1
  O  O42  1  0.62356250  0.14178630  0.27799785  1
  O  O43  1  0.67967664  0.83691470  0.64852482  1
  O  O44  1  0.69527722  0.55521793  0.69717357  1
  O  O45  1  0.80472278  0.05521793  0.80282643  1
  O  O46  1  0.82032336  0.33691470  0.85147518  1
  O  O47  1  0.87643750  0.64178630  0.22200215  1
  O  O48  1  0.93699591  0.38165213  0.41906434  1
  O  O49  1  0.90252925  0.96715730  0.29401955  1
  O  O50  1  0.98955198  0.83530504  0.94993706  1
  O  O51  1  0.96908796  0.20067534  0.59793031  1
