# generated using pymatgen
data_Li2FePHO5
_symmetry_space_group_name_H-M   'P 1'
_cell_length_a   5.38881474
_cell_length_b   5.52641431
_cell_length_c   7.65700005
_cell_angle_alpha   107.54118627
_cell_angle_beta   109.22080904
_cell_angle_gamma   93.11128391
_symmetry_Int_Tables_number   1
_chemical_formula_structural   Li2FePHO5
_chemical_formula_sum   'Li4 Fe2 P2 H2 O10'
_cell_volume   202.30260014
_cell_formula_units_Z   2
loop_
 _symmetry_equiv_pos_site_id
 _symmetry_equiv_pos_as_xyz
  1  'x, y, z'
loop_
 _atom_site_type_symbol
 _atom_site_label
 _atom_site_symmetry_multiplicity
 _atom_site_fract_x
 _atom_site_fract_y
 _atom_site_fract_z
 _atom_site_occupancy
  Li  Li0  1  0.46333900  0.12567177  0.83078679  1
  Li  Li1  1  0.79266773  0.42832825  0.80542321  1
  Li  Li2  1  0.20732981  0.57166884  0.19457407  1
  Li  Li3  1  0.53666037  0.87432642  0.16921247  1
  Fe  Fe4  1  0.00000090  0.00000399  0.49999656  1
  Fe  Fe5  1  0.00001343  0.99998883  0.00001665  1
  P  P6  1  0.67394474  0.37679969  0.23053798  1
  P  P7  1  0.32605367  0.62320118  0.76945859  1
  H  H8  1  0.33262783  0.07583574  0.35515059  1
  H  H9  1  0.66737256  0.92416645  0.64484998  1
  O  O10  1  0.82045378  0.06133403  0.73131726  1
  O  O11  1  0.73617022  0.21720970  0.37132101  1
  O  O12  1  0.33414434  0.33735095  0.66595046  1
  O  O13  1  0.38772951  0.25425375  0.07291451  1
  O  O14  1  0.87351876  0.35555888  0.12094646  1
  O  O15  1  0.12648024  0.64444092  0.87905198  1
  O  O16  1  0.61226863  0.74574738  0.92708483  1
  O  O17  1  0.66585019  0.66265040  0.33404710  1
  O  O18  1  0.26382377  0.78279098  0.62867409  1
  O  O19  1  0.17955153  0.93866585  0.26868941  1
