# generated using pymatgen
data_Li4MnH6(S2O9)2
_symmetry_space_group_name_H-M   'P 1'
_cell_length_a   7.54007475
_cell_length_b   19.58856410
_cell_length_c   10.29308761
_cell_angle_alpha   90.00000000
_cell_angle_beta   90.00000000
_cell_angle_gamma   90.00000000
_symmetry_Int_Tables_number   1
_chemical_formula_structural   Li4MnH6(S2O9)2
_chemical_formula_sum   'Li16 Mn4 H24 S16 O72'
_cell_volume   1520.28119213
_cell_formula_units_Z   4
loop_
 _symmetry_equiv_pos_site_id
 _symmetry_equiv_pos_as_xyz
  1  'x, y, z'
loop_
 _atom_site_type_symbol
 _atom_site_label
 _atom_site_symmetry_multiplicity
 _atom_site_fract_x
 _atom_site_fract_y
 _atom_site_fract_z
 _atom_site_occupancy
  Li  Li0  1  0.03451158  0.83710041  0.21048238  1
  Li  Li1  1  0.03451158  0.66289959  0.71048238  1
  Li  Li2  1  0.14473418  0.02185881  0.22424159  1
  Li  Li3  1  0.14473418  0.47814119  0.72424159  1
  Li  Li4  1  0.35526582  0.02185881  0.72424159  1
  Li  Li5  1  0.35526582  0.47814119  0.22424159  1
  Li  Li6  1  0.46548842  0.83710041  0.71048238  1
  Li  Li7  1  0.46548842  0.66289959  0.21048238  1
  Li  Li8  1  0.53451158  0.33710041  0.78951762  1
  Li  Li9  1  0.53451158  0.16289959  0.28951762  1
  Li  Li10  1  0.64473418  0.97814119  0.27575841  1
  Li  Li11  1  0.64473418  0.52185881  0.77575841  1
  Li  Li12  1  0.85526582  0.52185881  0.27575841  1
  Li  Li13  1  0.85526582  0.97814119  0.77575841  1
  Li  Li14  1  0.96548842  0.33710041  0.28951762  1
  Li  Li15  1  0.96548842  0.16289959  0.78951762  1
  Mn  Mn16  1  0.25000000  0.25000000  0.15324724  1
  Mn  Mn17  1  0.25000000  0.25000000  0.65324724  1
  Mn  Mn18  1  0.75000000  0.75000000  0.34675276  1
  Mn  Mn19  1  0.75000000  0.75000000  0.84675276  1
  H  H20  1  0.06331293  0.77974190  0.43901374  1
  H  H21  1  0.06331293  0.72025810  0.93901374  1
  H  H22  1  0.09749947  0.71597756  0.34900797  1
  H  H23  1  0.09749947  0.78402244  0.84900797  1
  H  H24  1  0.09234026  0.55896957  0.05869057  1
  H  H25  1  0.09234026  0.94103043  0.55869057  1
  H  H26  1  0.40765974  0.55896957  0.55869057  1
  H  H27  1  0.40765974  0.94103043  0.05869057  1
  H  H28  1  0.40250053  0.71597756  0.84900797  1
  H  H29  1  0.40250053  0.78402244  0.34900797  1
  H  H30  1  0.43668707  0.72025810  0.43901374  1
  H  H31  1  0.43668707  0.77974190  0.93901374  1
  H  H32  1  0.56331293  0.22025810  0.06098626  1
  H  H33  1  0.56331293  0.27974190  0.56098626  1
  H  H34  1  0.59749947  0.21597756  0.65099203  1
  H  H35  1  0.59749947  0.28402244  0.15099203  1
  H  H36  1  0.59234026  0.05896957  0.94130943  1
  H  H37  1  0.59234026  0.44103043  0.44130943  1
  H  H38  1  0.90765974  0.05896957  0.44130943  1
  H  H39  1  0.90765974  0.44103043  0.94130943  1
  H  H40  1  0.90250053  0.28402244  0.65099203  1
  H  H41  1  0.90250053  0.21597756  0.15099203  1
  H  H42  1  0.93668707  0.22025810  0.56098626  1
  H  H43  1  0.93668707  0.27974190  0.06098626  1
  S  S44  1  0.14253934  0.15295950  0.40781398  1
  S  S45  1  0.14253934  0.34704050  0.90781398  1
  S  S46  1  0.22004483  0.57247178  0.39714573  1
  S  S47  1  0.22004483  0.92752822  0.89714573  1
  S  S48  1  0.27995517  0.92752822  0.39714573  1
  S  S49  1  0.27995517  0.57247178  0.89714573  1
  S  S50  1  0.35746066  0.15295950  0.90781398  1
  S  S51  1  0.35746066  0.34704050  0.40781398  1
  S  S52  1  0.64253934  0.65295950  0.59218602  1
  S  S53  1  0.64253934  0.84704050  0.09218602  1
  S  S54  1  0.72004483  0.07247178  0.60285427  1
  S  S55  1  0.72004483  0.42752822  0.10285427  1
  S  S56  1  0.77995517  0.07247178  0.10285427  1
  S  S57  1  0.77995517  0.42752822  0.60285427  1
  S  S58  1  0.85746066  0.65295950  0.09218602  1
  S  S59  1  0.85746066  0.84704050  0.59218602  1
  O  O60  1  0.01374912  0.69890856  0.09652147  1
  O  O61  1  0.01374912  0.80109144  0.59652147  1
  O  O62  1  0.04723707  0.76268974  0.34785835  1
  O  O63  1  0.04723707  0.73731026  0.84785835  1
  O  O64  1  0.12235856  0.58263750  0.81264326  1
  O  O65  1  0.12235856  0.91736250  0.31264326  1
  O  O66  1  0.08627982  0.08146639  0.37934710  1
  O  O67  1  0.08627982  0.41853361  0.87934710  1
  O  O68  1  0.10402351  0.52020649  0.34070829  1
  O  O69  1  0.10402351  0.97979351  0.84070829  1
  O  O70  1  0.13077249  0.63639611  0.43109554  1
  O  O71  1  0.13077249  0.86360389  0.93109554  1
  O  O72  1  0.21276157  0.53929629  0.02830813  1
  O  O73  1  0.21276157  0.96070371  0.52830813  1
  O  O74  1  0.27610396  0.32727628  0.80584503  1
  O  O75  1  0.27610396  0.17272372  0.30584503  1
  O  O76  1  0.23064596  0.34316918  0.03681780  1
  O  O77  1  0.23064596  0.15683082  0.53681780  1
  O  O78  1  0.26935404  0.15683082  0.03681780  1
  O  O79  1  0.26935404  0.34316918  0.53681780  1
  O  O80  1  0.22389604  0.17272372  0.80584503  1
  O  O81  1  0.22389604  0.32727628  0.30584503  1
  O  O82  1  0.28723843  0.53929629  0.52830813  1
  O  O83  1  0.28723843  0.96070371  0.02830813  1
  O  O84  1  0.36922751  0.86360389  0.43109554  1
  O  O85  1  0.36922751  0.63639611  0.93109554  1
  O  O86  1  0.39597649  0.52020649  0.84070829  1
  O  O87  1  0.39597649  0.97979351  0.34070829  1
  O  O88  1  0.41372018  0.08146639  0.87934710  1
  O  O89  1  0.41372018  0.41853361  0.37934710  1
  O  O90  1  0.37764144  0.58263750  0.31264326  1
  O  O91  1  0.37764144  0.91736250  0.81264326  1
  O  O92  1  0.45276293  0.73731026  0.34785835  1
  O  O93  1  0.45276293  0.76268974  0.84785835  1
  O  O94  1  0.48625088  0.80109144  0.09652147  1
  O  O95  1  0.48625088  0.69890856  0.59652147  1
  O  O96  1  0.51374912  0.19890856  0.90347853  1
  O  O97  1  0.51374912  0.30109144  0.40347853  1
  O  O98  1  0.54723707  0.26268974  0.65214165  1
  O  O99  1  0.54723707  0.23731026  0.15214165  1
  O  O100  1  0.62235856  0.08263750  0.18735674  1
  O  O101  1  0.62235856  0.41736250  0.68735674  1
  O  O102  1  0.58627982  0.58146639  0.62065290  1
  O  O103  1  0.58627982  0.91853361  0.12065290  1
  O  O104  1  0.60402351  0.02020649  0.65929171  1
  O  O105  1  0.60402351  0.47979351  0.15929171  1
  O  O106  1  0.63077249  0.13639611  0.56890446  1
  O  O107  1  0.63077249  0.36360389  0.06890446  1
  O  O108  1  0.71276157  0.03929629  0.97169187  1
  O  O109  1  0.71276157  0.46070371  0.47169187  1
  O  O110  1  0.77610396  0.82727628  0.19415497  1
  O  O111  1  0.77610396  0.67272372  0.69415497  1
  O  O112  1  0.73064596  0.65683082  0.46318220  1
  O  O113  1  0.73064596  0.84316918  0.96318220  1
  O  O114  1  0.76935404  0.84316918  0.46318220  1
  O  O115  1  0.76935404  0.65683082  0.96318220  1
  O  O116  1  0.72389604  0.67272372  0.19415497  1
  O  O117  1  0.72389604  0.82727628  0.69415497  1
  O  O118  1  0.78723843  0.03929629  0.47169187  1
  O  O119  1  0.78723843  0.46070371  0.97169187  1
  O  O120  1  0.86922751  0.13639611  0.06890446  1
  O  O121  1  0.86922751  0.36360389  0.56890446  1
  O  O122  1  0.89597649  0.47979351  0.65929171  1
  O  O123  1  0.89597649  0.02020649  0.15929171  1
  O  O124  1  0.91372018  0.58146639  0.12065290  1
  O  O125  1  0.91372018  0.91853361  0.62065290  1
  O  O126  1  0.87764144  0.08263750  0.68735674  1
  O  O127  1  0.87764144  0.41736250  0.18735674  1
  O  O128  1  0.95276293  0.23731026  0.65214165  1
  O  O129  1  0.95276293  0.26268974  0.15214165  1
  O  O130  1  0.98625088  0.19890856  0.40347853  1
  O  O131  1  0.98625088  0.30109144  0.90347853  1
