# generated using pymatgen
data_Ga3NO3
_symmetry_space_group_name_H-M   'P 1'
_cell_length_a   8.47447485
_cell_length_b   8.39764588
_cell_length_c   6.14190665
_cell_angle_alpha   89.69862781
_cell_angle_beta   90.58711637
_cell_angle_gamma   120.41026021
_symmetry_Int_Tables_number   1
_chemical_formula_structural   Ga3NO3
_chemical_formula_sum   'Ga12 N4 O12'
_cell_volume   376.93903120
_cell_formula_units_Z   4
loop_
 _symmetry_equiv_pos_site_id
 _symmetry_equiv_pos_as_xyz
  1  'x, y, z'
loop_
 _atom_site_type_symbol
 _atom_site_label
 _atom_site_symmetry_multiplicity
 _atom_site_fract_x
 _atom_site_fract_y
 _atom_site_fract_z
 _atom_site_occupancy
  Ga  Ga0  1  0.16524286  0.91011432  0.45084185  1
  Ga  Ga1  1  0.06918072  0.56641568  0.14483427  1
  Ga  Ga2  1  0.08254339  0.25621536  0.46505021  1
  Ga  Ga3  1  0.49538524  0.91385609  0.15624527  1
  Ga  Ga4  1  0.43174856  0.51020388  0.15874958  1
  Ga  Ga5  1  0.24945677  0.07664197  0.95078873  1
  Ga  Ga6  1  0.51247764  0.43062194  0.65317590  1
  Ga  Ga7  1  0.74125477  0.82935628  0.45108077  1
  Ga  Ga8  1  0.82791182  0.74031935  0.96943529  1
  Ga  Ga9  1  0.58247890  0.08933406  0.67129814  1
  Ga  Ga10  1  0.92780041  0.49311556  0.66949428  1
  Ga  Ga11  1  0.90913027  0.16704845  0.94624137  1
  N  N12  1  0.67476947  0.68400082  0.20522524  1
  N  N13  1  0.65361753  0.04299018  0.93722348  1
  N  N14  1  0.97298017  0.63711798  0.91804504  1
  N  N15  1  0.00151647  0.32005481  0.70241993  1
  O  O16  1  0.04436027  0.65496528  0.42435494  1
  O  O17  1  0.31532565  0.99337238  0.20057003  1
  O  O18  1  0.01536495  0.31934665  0.19845169  1
  O  O19  1  0.00017068  0.99666970  0.45815299  1
  O  O20  1  0.00417493  0.00311732  0.96083259  1
  O  O21  1  0.32391375  0.65857201  0.12748881  1
  O  O22  1  0.60530526  0.95547082  0.43940443  1
  O  O23  1  0.34158715  0.37217537  0.42483870  1
  O  O24  1  0.38804286  0.33978397  0.92549943  1
  O  O25  1  0.32382148  0.01670464  0.68917077  1
  O  O26  1  0.67379346  0.68307859  0.70520300  1
  O  O27  1  0.66664560  0.33933453  0.59253428  1
