# generated using pymatgen
data_LiCr(PO3)4
_symmetry_space_group_name_H-M   'P 1'
_cell_length_a   7.30970440
_cell_length_b   8.51243141
_cell_length_c   9.16949086
_cell_angle_alpha   114.89461474
_cell_angle_beta   113.48995881
_cell_angle_gamma   64.57338700
_symmetry_Int_Tables_number   1
_chemical_formula_structural   LiCr(PO3)4
_chemical_formula_sum   'Li2 Cr2 P8 O24'
_cell_volume   450.58141594
_cell_formula_units_Z   2
loop_
 _symmetry_equiv_pos_site_id
 _symmetry_equiv_pos_as_xyz
  1  'x, y, z'
loop_
 _atom_site_type_symbol
 _atom_site_label
 _atom_site_symmetry_multiplicity
 _atom_site_fract_x
 _atom_site_fract_y
 _atom_site_fract_z
 _atom_site_occupancy
  Li  Li0  1  0.30894671  0.75000000  0.75000000  1
  Li  Li1  1  0.69105329  0.25000000  0.25000000  1
  Cr  Cr2  1  0.86285802  0.75000000  0.75000000  1
  Cr  Cr3  1  0.13714198  0.25000000  0.25000000  1
  P  P4  1  0.97366886  0.89113341  0.16681650  1
  P  P5  1  0.55748374  0.87684536  0.13651600  1
  P  P6  1  0.29781410  0.62315464  0.36348400  1
  P  P7  1  0.69798578  0.60886659  0.33318350  1
  P  P8  1  0.30201422  0.39113341  0.66681650  1
  P  P9  1  0.70218590  0.37684536  0.63651600  1
  P  P10  1  0.44251626  0.12315464  0.86348400  1
  P  P11  1  0.02633114  0.10886659  0.83318350  1
  O  O12  1  0.39331302  0.02242910  0.22291362  1
  O  O13  1  0.76712211  0.93796680  0.21974567  1
  O  O14  1  0.97537297  0.76299886  0.99357215  1
  O  O15  1  0.14973816  0.80279577  0.30386601  1
  O  O16  1  0.01439351  0.92194761  0.79279749  1
  O  O17  1  0.64866692  0.69720423  0.19613399  1
  O  O18  1  0.74479968  0.73700114  0.50642785  1
  O  O19  1  0.36731476  0.69122309  0.54803074  1
  O  O20  1  0.51050711  0.80877691  0.95196926  1
  O  O21  1  0.48534324  0.56203320  0.28025433  1
  O  O22  1  0.19282751  0.47757090  0.27708638  1
  O  O23  1  0.14354463  0.57805239  0.70720251  1
  O  O24  1  0.85645537  0.42194761  0.29279749  1
  O  O25  1  0.80717249  0.52242910  0.72291362  1
  O  O26  1  0.51465676  0.43796680  0.71974567  1
  O  O27  1  0.48949289  0.19122309  0.04803074  1
  O  O28  1  0.63268524  0.30877691  0.45196926  1
  O  O29  1  0.25520032  0.26299886  0.49357215  1
  O  O30  1  0.35133308  0.30279577  0.80386601  1
  O  O31  1  0.98560649  0.07805239  0.20720251  1
  O  O32  1  0.85026184  0.19720423  0.69613399  1
  O  O33  1  0.02462703  0.23700114  0.00642785  1
  O  O34  1  0.23287789  0.06203320  0.78025433  1
  O  O35  1  0.60668698  0.97757090  0.77708638  1
