# generated using pymatgen
data_Mn12O7F17
_symmetry_space_group_name_H-M   'P 1'
_cell_length_a   4.78668219
_cell_length_b   5.78182968
_cell_length_c   15.88913817
_cell_angle_alpha   89.80440571
_cell_angle_beta   90.45232033
_cell_angle_gamma   87.26964529
_symmetry_Int_Tables_number   1
_chemical_formula_structural   Mn12O7F17
_chemical_formula_sum   'Mn12 O7 F17'
_cell_volume   439.22825456
_cell_formula_units_Z   1
loop_
 _symmetry_equiv_pos_site_id
 _symmetry_equiv_pos_as_xyz
  1  'x, y, z'
loop_
 _atom_site_type_symbol
 _atom_site_label
 _atom_site_symmetry_multiplicity
 _atom_site_fract_x
 _atom_site_fract_y
 _atom_site_fract_z
 _atom_site_occupancy
  Mn  Mn0  1  0.00332435  0.16379078  0.40727409  1
  Mn  Mn1  1  0.03047307  0.85545769  0.24329654  1
  Mn  Mn2  1  0.99851509  0.15663652  0.08216758  1
  Mn  Mn3  1  0.02842815  0.14248520  0.74668140  1
  Mn  Mn4  1  0.02588898  0.84474023  0.58809250  1
  Mn  Mn5  1  0.00966872  0.83097516  0.90882902  1
  Mn  Mn6  1  0.47369510  0.32768482  0.58973218  1
  Mn  Mn7  1  0.52710489  0.33641472  0.92610772  1
  Mn  Mn8  1  0.48920997  0.32355218  0.26060047  1
  Mn  Mn9  1  0.50747215  0.65831871  0.08759589  1
  Mn  Mn10  1  0.53052904  0.64906044  0.41701203  1
  Mn  Mn11  1  0.47005023  0.66274231  0.74599485  1
  O  O12  1  0.21504862  0.11677660  0.30385845  1
  O  O13  1  0.20605505  0.10069888  0.64018709  1
  O  O14  1  0.22033245  0.88950344  0.13275877  1
  O  O15  1  0.22278700  0.88325522  0.79866523  1
  O  O16  1  0.27214906  0.61555405  0.64336711  1
  O  O17  1  0.73477191  0.39181441  0.03666972  1
  O  O18  1  0.71537987  0.36679082  0.36129773  1
  F  F19  1  0.21524109  0.11875384  0.97360751  1
  F  F20  1  0.24293006  0.90125894  0.46716483  1
  F  F21  1  0.26696938  0.38706231  0.15005934  1
  F  F22  1  0.26122491  0.61429395  0.31181309  1
  F  F23  1  0.26616915  0.39682963  0.47495927  1
  F  F24  1  0.26740661  0.38324846  0.81591024  1
  F  F25  1  0.27439730  0.61457497  0.97915925  1
  F  F26  1  0.72186189  0.61739780  0.20021885  1
  F  F27  1  0.76197976  0.62172174  0.53274745  1
  F  F28  1  0.70254882  0.62742801  0.85349674  1
  F  F29  1  0.73497537  0.38662405  0.70179815  1
  F  F30  1  0.75834710  0.11807956  0.18519032  1
  F  F31  1  0.77915813  0.10770120  0.52209082  1
  F  F32  1  0.77825877  0.87476188  0.35150681  1
  F  F33  1  0.75313680  0.89209028  0.01769935  1
  F  F34  1  0.78865183  0.12789323  0.85187130  1
  F  F35  1  0.74585934  0.89402696  0.69051931  1
