# generated using pymatgen
data_Mn6O7F5
_symmetry_space_group_name_H-M   'P 1'
_cell_length_a   7.35333895
_cell_length_b   5.58062034
_cell_length_c   5.55069669
_cell_angle_alpha   71.24878424
_cell_angle_beta   72.68222112
_cell_angle_gamma   73.82823086
_symmetry_Int_Tables_number   1
_chemical_formula_structural   Mn6O7F5
_chemical_formula_sum   'Mn6 O7 F5'
_cell_volume   201.65697219
_cell_formula_units_Z   1
loop_
 _symmetry_equiv_pos_site_id
 _symmetry_equiv_pos_as_xyz
  1  'x, y, z'
loop_
 _atom_site_type_symbol
 _atom_site_label
 _atom_site_symmetry_multiplicity
 _atom_site_fract_x
 _atom_site_fract_y
 _atom_site_fract_z
 _atom_site_occupancy
  Mn  Mn0  1  0.83813335  0.67915786  0.69790241  1
  Mn  Mn1  1  0.67597722  0.32589177  0.34693763  1
  Mn  Mn2  1  0.31768797  0.66254601  0.62961182  1
  Mn  Mn3  1  0.16417258  0.30829224  0.35418701  1
  Mn  Mn4  1  0.50384233  0.97640470  0.99768157  1
  Mn  Mn5  1  0.99705696  0.02925681  0.99053498  1
  O  O6  1  0.67052263  0.01834353  0.65281247  1
  O  O7  1  0.96285334  0.23627173  0.23490274  1
  O  O8  1  0.02826416  0.79125605  0.77362121  1
  O  O9  1  0.37597677  0.42175192  0.42648628  1
  O  O10  1  0.33598814  0.95293768  0.33682081  1
  O  O11  1  0.67687974  0.62596384  0.03837377  1
  O  O12  1  0.99494117  0.33290636  0.69941925  1
  F  F13  1  0.33113777  0.36100965  0.95145485  1
  F  F14  1  0.30683315  0.88299375  0.87031585  1
  F  F15  1  0.63695206  0.57422668  0.58234686  1
  F  F16  1  0.69146686  0.10026748  0.10713114  1
  F  F17  1  0.99131381  0.72052395  0.30946234  1
