# generated using pymatgen
data_Mn12O7F17
_symmetry_space_group_name_H-M   'P 1'
_cell_length_a   5.27331038
_cell_length_b   5.72847165
_cell_length_c   14.49589160
_cell_angle_alpha   94.62601259
_cell_angle_beta   91.08196510
_cell_angle_gamma   89.14155075
_symmetry_Int_Tables_number   1
_chemical_formula_structural   Mn12O7F17
_chemical_formula_sum   'Mn12 O7 F17'
_cell_volume   436.34791127
_cell_formula_units_Z   1
loop_
 _symmetry_equiv_pos_site_id
 _symmetry_equiv_pos_as_xyz
  1  'x, y, z'
loop_
 _atom_site_type_symbol
 _atom_site_label
 _atom_site_symmetry_multiplicity
 _atom_site_fract_x
 _atom_site_fract_y
 _atom_site_fract_z
 _atom_site_occupancy
  Mn  Mn0  1  0.02991345  0.92642582  0.00178227  1
  Mn  Mn1  1  0.99356568  0.41498821  0.17333872  1
  Mn  Mn2  1  0.01689619  0.89782491  0.33495456  1
  Mn  Mn3  1  0.96092563  0.42224136  0.50335893  1
  Mn  Mn4  1  0.02466415  0.92910115  0.67069137  1
  Mn  Mn5  1  0.97367112  0.43572507  0.84246178  1
  Mn  Mn6  1  0.49462795  0.12333219  0.17399574  1
  Mn  Mn7  1  0.50655133  0.51850690  0.01432404  1
  Mn  Mn8  1  0.50039787  0.59070860  0.66681727  1
  Mn  Mn9  1  0.48549833  0.09981033  0.49883124  1
  Mn  Mn10  1  0.47591081  0.60405139  0.32821777  1
  Mn  Mn11  1  0.51195174  0.07728145  0.83353264  1
  O  O12  1  0.32513261  0.86198165  0.40920323  1
  O  O13  1  0.36084501  0.85779049  0.74152648  1
  O  O14  1  0.29991065  0.32331046  0.09791358  1
  O  O15  1  0.16516475  0.64412792  0.25901279  1
  O  O16  1  0.66270423  0.32490311  0.91270173  1
  O  O17  1  0.63928880  0.36268699  0.57363969  1
  O  O18  1  0.65466960  0.39150046  0.23868240  1
  F  F19  1  0.15455589  0.14058128  0.24949894  1
  F  F20  1  0.37288061  0.84601646  0.08875384  1
  F  F21  1  0.16029439  0.14591168  0.57332930  1
  F  F22  1  0.18556031  0.13387593  0.90262164  1
  F  F23  1  0.18579528  0.64400164  0.58768848  1
  F  F24  1  0.21514652  0.63978516  0.92794581  1
  F  F25  1  0.31311567  0.36265180  0.75373039  1
  F  F26  1  0.29994448  0.35777730  0.42298206  1
  F  F27  1  0.85779139  0.63479942  0.07112899  1
  F  F28  1  0.79469335  0.63140236  0.40333108  1
  F  F29  1  0.83748988  0.63243253  0.73231377  1
  F  F30  1  0.81867087  0.12083865  0.42044272  1
  F  F31  1  0.81998781  0.15012432  0.09024166  1
  F  F32  1  0.81232316  0.15096991  0.75545966  1
  F  F33  1  0.68214334  0.86754109  0.58340370  1
  F  F34  1  0.72235428  0.83575424  0.90773484  1
  F  F35  1  0.68496384  0.89923676  0.25440689  1
