# generated using pymatgen
data_Fe5(OF4)2
_symmetry_space_group_name_H-M   'P 1'
_cell_length_a   4.82949324
_cell_length_b   7.99048149
_cell_length_c   10.13046031
_cell_angle_alpha   108.44675019
_cell_angle_beta   91.07944610
_cell_angle_gamma   89.22670570
_symmetry_Int_Tables_number   1
_chemical_formula_structural   Fe5(OF4)2
_chemical_formula_sum   'Fe10 O4 F16'
_cell_volume   370.76978340
_cell_formula_units_Z   2
loop_
 _symmetry_equiv_pos_site_id
 _symmetry_equiv_pos_as_xyz
  1  'x, y, z'
loop_
 _atom_site_type_symbol
 _atom_site_label
 _atom_site_symmetry_multiplicity
 _atom_site_fract_x
 _atom_site_fract_y
 _atom_site_fract_z
 _atom_site_occupancy
  Fe  Fe0  1  0.49910290  0.30048846  0.89953818  1
  Fe  Fe1  1  0.51647480  0.10926051  0.29379829  1
  Fe  Fe2  1  0.49682793  0.90201351  0.70463709  1
  Fe  Fe3  1  0.50108359  0.68329093  0.09690727  1
  Fe  Fe4  1  0.51985422  0.50790280  0.51149949  1
  Fe  Fe5  1  0.97113255  0.60978696  0.79185226  1
  Fe  Fe6  1  0.03724368  0.19487779  0.61286444  1
  Fe  Fe7  1  -0.00035752  0.79924338  0.39472277  1
  Fe  Fe8  1  0.95245686  0.38633999  0.18505176  1
  Fe  Fe9  1  0.99528955  0.00333344  0.01454645  1
  O  O10  1  0.82349483  0.17361497  0.19021530  1
  O  O11  1  0.68401731  0.65888608  0.66632821  1
  O  O12  1  0.69399446  0.44537089  0.05971155  1
  O  O13  1  0.30968341  0.15019915  0.72962351  1
  F  F14  1  0.79981130  0.75968394  0.98107985  1
  F  F15  1  0.81555637  0.97597699  0.57992572  1
  F  F16  1  0.79238767  0.54975734  0.37189181  1
  F  F17  1  0.80287320  0.34851512  0.76821730  1
  F  F18  1  0.70675371  0.07314721  0.88370006  1
  F  F19  1  0.68863569  0.85762128  0.28465527  1
  F  F20  1  0.70892221  0.27263369  0.49292910  1
  F  F21  1  0.29457760  0.72880064  0.51076570  1
  F  F22  1  0.31306399  0.36092636  0.33556452  1
  F  F23  1  0.30773395  0.92811819  0.12611332  1
  F  F24  1  0.28883182  0.52620345  0.90406847  1
  F  F25  1  0.19961923  0.42791859  0.61004655  1
  F  F26  1  0.19706404  0.05358824  0.42894843  1
  F  F27  1  0.19593307  0.84432822  0.82978738  1
  F  F28  1  0.21330008  0.24768121  0.02658314  1
  F  F29  1  0.17463750  0.62049166  0.21442482  1
