# generated using pymatgen
data_LiV4O5F7
_symmetry_space_group_name_H-M   'P 1'
_cell_length_a   5.23879940
_cell_length_b   5.39053225
_cell_length_c   17.24308976
_cell_angle_alpha   95.58655333
_cell_angle_beta   81.28075764
_cell_angle_gamma   119.31706772
_symmetry_Int_Tables_number   1
_chemical_formula_structural   LiV4O5F7
_chemical_formula_sum   'Li2 V8 O10 F14'
_cell_volume   419.51949180
_cell_formula_units_Z   2
loop_
 _symmetry_equiv_pos_site_id
 _symmetry_equiv_pos_as_xyz
  1  'x, y, z'
loop_
 _atom_site_type_symbol
 _atom_site_label
 _atom_site_symmetry_multiplicity
 _atom_site_fract_x
 _atom_site_fract_y
 _atom_site_fract_z
 _atom_site_occupancy
  Li  Li0  1  0.63006137  0.21395234  0.92573128  1
  Li  Li1  1  0.62701737  0.54062689  0.32189114  1
  V  V2  1  0.78026857  0.29015678  0.74580484  1
  V  V3  1  0.84521753  0.12954172  0.37001967  1
  V  V4  1  0.52220014  0.52904832  0.49707743  1
  V  V5  1  0.62484007  0.34400627  0.12831252  1
  V  V6  1  0.32785572  0.64035107  0.87153400  1
  V  V7  1  0.25716077  0.74528199  0.25220079  1
  V  V8  1  0.97817444  0.95451863  0.00430954  1
  V  V9  1  0.13642974  0.91060907  0.61996540  1
  O  O10  1  0.96383815  0.45565326  0.31540446  1
  O  O11  1  0.51487077  0.05013513  0.18316554  1
  O  O12  1  0.76370772  0.80784456  0.43920054  1
  O  O13  1  0.73505979  0.68369035  0.06372538  1
  O  O14  1  0.23351798  0.18633597  0.56160684  1
  O  O15  1  0.48049107  0.92503736  0.81292396  1
  O  O16  1  0.22332424  0.79265882  0.95708145  1
  O  O17  1  0.98327894  0.41061272  0.84077358  1
  O  O18  1  0.50879961  0.91816987  0.33667882  1
  O  O19  1  0.01212095  0.56788228  0.68891434  1
  F  F20  1  0.97429795  0.05290550  0.71205010  1
  F  F21  1  0.51018739  0.07583239  0.66375839  1
  F  F22  1  0.72396307  0.30060607  0.46452957  1
  F  F23  1  0.76135353  0.84401728  0.91399064  1
  F  F24  1  0.78115572  0.20523427  0.02931298  1
  F  F25  1  0.52514377  0.44591105  0.79404415  1
  F  F26  1  0.73323581  0.67545569  0.58973846  1
  F  F27  1  0.30270829  0.31245260  0.93869554  1
  F  F28  1  0.28005419  0.33593513  0.40615420  1
  F  F29  1  0.48758877  0.52787412  0.22071826  1
  F  F30  1  0.23975440  0.17235780  0.08541595  1
  F  F31  1  0.26742218  0.69669259  0.53870171  1
  F  F32  1  0.01945479  0.56450635  0.16122007  1
  F  F33  1  0.02432319  0.95867776  0.28681745  1
