# generated using pymatgen
data_Na2FeO3
_symmetry_space_group_name_H-M   'P 1'
_cell_length_a   4.84370975
_cell_length_b   10.00080905
_cell_length_c   6.61261129
_cell_angle_alpha   90.00000000
_cell_angle_beta   88.17938254
_cell_angle_gamma   90.00000000
_symmetry_Int_Tables_number   1
_chemical_formula_structural   Na2FeO3
_chemical_formula_sum   'Na8 Fe4 O12'
_cell_volume   320.15991090
_cell_formula_units_Z   4
loop_
 _symmetry_equiv_pos_site_id
 _symmetry_equiv_pos_as_xyz
  1  'x, y, z'
loop_
 _atom_site_type_symbol
 _atom_site_label
 _atom_site_symmetry_multiplicity
 _atom_site_fract_x
 _atom_site_fract_y
 _atom_site_fract_z
 _atom_site_occupancy
  Na  Na0  1  0.26295008  0.72805284  0.85786855  1
  Na  Na1  1  0.26295008  0.77194716  0.35786855  1
  Na  Na2  1  0.26092895  0.39685391  0.88139383  1
  Na  Na3  1  0.26092895  0.10314609  0.38139383  1
  Na  Na4  1  0.73907105  0.89685391  0.61860617  1
  Na  Na5  1  0.73907105  0.60314609  0.11860617  1
  Na  Na6  1  0.73704992  0.22805284  0.64213145  1
  Na  Na7  1  0.73704992  0.27194716  0.14213145  1
  Fe  Fe8  1  0.18276829  0.04010413  0.84045237  1
  Fe  Fe9  1  0.18276829  0.45989587  0.34045237  1
  Fe  Fe10  1  0.81723171  0.54010413  0.65954763  1
  Fe  Fe11  1  0.81723171  0.95989587  0.15954763  1
  O  O12  1  0.20619800  0.56394630  0.57775448  1
  O  O13  1  0.20619800  0.93605370  0.07775448  1
  O  O14  1  0.25450708  0.92118536  0.64579720  1
  O  O15  1  0.25450708  0.57881464  0.14579720  1
  O  O16  1  0.24042594  0.19100580  0.71071266  1
  O  O17  1  0.24042594  0.30899420  0.21071266  1
  O  O18  1  0.75957406  0.69100580  0.78928734  1
  O  O19  1  0.75957406  0.80899420  0.28928734  1
  O  O20  1  0.74549292  0.42118536  0.85420280  1
  O  O21  1  0.74549292  0.07881464  0.35420280  1
  O  O22  1  0.79380200  0.06394630  0.92224552  1
  O  O23  1  0.79380200  0.43605370  0.42224552  1
