# generated using pymatgen
data_Li3MnV(PO4)3
_symmetry_space_group_name_H-M   'P 1'
_cell_length_a   8.65850164
_cell_length_b   8.65850185
_cell_length_c   6.32692492
_cell_angle_alpha   74.21412328
_cell_angle_beta   105.78587981
_cell_angle_gamma   84.63431056
_symmetry_Int_Tables_number   1
_chemical_formula_structural   Li3MnV(PO4)3
_chemical_formula_sum   'Li6 Mn2 V2 P6 O24'
_cell_volume   431.97642228
_cell_formula_units_Z   2
loop_
 _symmetry_equiv_pos_site_id
 _symmetry_equiv_pos_as_xyz
  1  'x, y, z'
loop_
 _atom_site_type_symbol
 _atom_site_label
 _atom_site_symmetry_multiplicity
 _atom_site_fract_x
 _atom_site_fract_y
 _atom_site_fract_z
 _atom_site_occupancy
  Li  Li0  1  0.00336059  0.00463903  0.75110216  1
  Li  Li1  1  0.28741529  0.28927730  0.25074781  1
  Li  Li2  1  0.49978412  0.49995830  0.49958847  1
  Li  Li3  1  0.50004170  0.50021588  0.99958847  1
  Li  Li4  1  0.71072270  0.71258471  0.75074781  1
  Li  Li5  1  0.99536097  0.99663941  0.25110216  1
  Mn  Mn6  1  0.62469116  0.05622080  0.86926158  1
  Mn  Mn7  1  0.94377920  0.37530884  0.36926158  1
  V  V8  1  0.05829376  0.62372288  0.63958653  1
  V  V9  1  0.37627712  0.94170624  0.13958653  1
  P  P10  1  0.28686967  0.28578800  0.75068287  1
  P  P11  1  0.13908566  0.66541310  0.13663894  1
  P  P12  1  0.33458690  0.86091434  0.63663894  1
  P  P13  1  0.66065869  0.13374661  0.36542326  1
  P  P14  1  0.86625339  0.33934131  0.86542326  1
  P  P15  1  0.71421200  0.71313033  0.25068287  1
  O  O16  1  0.01327887  0.66169352  0.91011042  1
  O  O17  1  0.05380768  0.61397485  0.32680290  1
  O  O18  1  0.25794772  0.17411414  0.96727031  1
  O  O19  1  0.17198960  0.26357272  0.52628140  1
  O  O20  1  0.15116762  0.84143851  0.59903827  1
  O  O21  1  0.26583113  0.46144193  0.76803013  1
  O  O22  1  0.15856149  0.84883238  0.09903827  1
  O  O23  1  0.29787837  0.54531975  0.20460714  1
  O  O24  1  0.38602515  0.94619232  0.82680290  1
  O  O25  1  0.33830648  0.98672113  0.41011042  1
  O  O26  1  0.46218590  0.25794522  0.72889531  1
  O  O27  1  0.45468025  0.70212163  0.70460714  1
  O  O28  1  0.54626055  0.29620461  0.29465670  1
  O  O29  1  0.53855807  0.73416887  0.26803013  1
  O  O30  1  0.65839543  0.01179167  0.59675297  1
  O  O31  1  0.59526305  0.04663431  0.17411794  1
  O  O32  1  0.70379539  0.45373945  0.79465670  1
  O  O33  1  0.85546388  0.15673448  0.89040389  1
  O  O34  1  0.74205478  0.53781410  0.22889531  1
  O  O35  1  0.84326552  0.14453612  0.39040389  1
  O  O36  1  0.82588586  0.74205228  0.46727031  1
  O  O37  1  0.73642728  0.82801040  0.02628140  1
  O  O38  1  0.95336569  0.40473695  0.67411794  1
  O  O39  1  0.98820833  0.34160457  0.09675297  1
