# generated using pymatgen
data_Na5Ni2As(CO4)4
_symmetry_space_group_name_H-M   'P 1'
_cell_length_a   9.95923271
_cell_length_b   9.95225827
_cell_length_c   9.95923271
_cell_angle_alpha   59.86473020
_cell_angle_beta   90.19384651
_cell_angle_gamma   120.13526980
_symmetry_Int_Tables_number   1
_chemical_formula_structural   Na5Ni2As(CO4)4
_chemical_formula_sum   'Na10 Ni4 As2 C8 O32'
_cell_volume   696.32705002
_cell_formula_units_Z   2
loop_
 _symmetry_equiv_pos_site_id
 _symmetry_equiv_pos_as_xyz
  1  'x, y, z'
loop_
 _atom_site_type_symbol
 _atom_site_label
 _atom_site_symmetry_multiplicity
 _atom_site_fract_x
 _atom_site_fract_y
 _atom_site_fract_z
 _atom_site_occupancy
  Na  Na0  1  0.66761092  0.31945595  0.09440587  1
  Na  Na1  1  0.34702668  0.26143517  0.33289886  1
  Na  Na2  1  0.90559413  0.81945595  0.33238908  1
  Na  Na3  1  0.90566697  0.23856483  0.91440849  1
  Na  Na4  1  0.08559151  0.73856483  0.09433303  1
  Na  Na5  1  0.08613817  0.18054405  0.65184504  1
  Na  Na6  1  0.66710114  0.76143517  0.65297332  1
  Na  Na7  1  0.33969376  0.25000000  0.91030624  1
  Na  Na8  1  0.34815496  0.68054405  0.91386183  1
  Na  Na9  1  0.08969376  0.75000000  0.66030624  1
  Ni  Ni10  1  0.49984390  0.99732919  0.00218766  1
  Ni  Ni11  1  0.50251371  0.00267081  0.49951686  1
  Ni  Ni12  1  0.50048314  0.50267081  0.49748629  1
  Ni  Ni13  1  0.99781234  0.49732919  0.50015610  1
  As  As14  1  0.12349735  0.25000000  0.12650265  1
  As  As15  1  0.87349735  0.75000000  0.87650265  1
  C  C16  1  0.71335708  0.07191596  0.71508646  1
  C  C17  1  0.71299858  0.42808404  0.35855788  1
  C  C18  1  0.35488899  0.06998700  0.71493585  1
  C  C19  1  0.71507716  0.43001300  0.71509801  1
  C  C20  1  0.28491354  0.57191596  0.28664292  1
  C  C21  1  0.64144212  0.92808404  0.28700142  1
  C  C22  1  0.28490199  0.93001300  0.28492284  1
  C  C23  1  0.28506415  0.56998700  0.64511101  1
  O  O24  1  0.64780756  0.04769044  0.14382231  1
  O  O25  1  0.68967486  0.29189497  0.35183987  1
  O  O26  1  0.85626516  0.20810503  0.60222011  1
  O  O27  1  0.39951162  0.04863800  0.30885171  1
  O  O28  1  0.85617769  0.54769044  0.35219244  1
  O  O29  1  0.33547462  0.38990708  0.05473432  1
  O  O30  1  0.05535760  0.11009292  0.05443246  1
  O  O31  1  0.59549658  0.44757056  0.36392498  1
  O  O32  1  0.68850446  0.05242944  0.85207498  1
  O  O33  1  0.35355386  0.04330793  0.59972161  1
  O  O34  1  0.85696946  0.45669207  0.68975407  1
  O  O35  1  0.06005958  0.39805048  0.04362496  1
  O  O36  1  0.05832456  0.10194952  0.33799091  1
  O  O37  1  0.39777989  0.70810503  0.14373484  1
  O  O38  1  0.64816013  0.79189497  0.31032514  1
  O  O39  1  0.69114829  0.54863800  0.60048838  1
  O  O40  1  0.30848725  0.45230956  0.39988388  1
  O  O41  1  0.35129114  0.20897823  0.68981906  1
  O  O42  1  0.60120270  0.29102177  0.85768710  1
  O  O43  1  0.94556754  0.61009292  0.94464240  1
  O  O44  1  0.94526568  0.88990708  0.66452538  1
  O  O45  1  0.14792502  0.55242944  0.31149554  1
  O  O46  1  0.63607502  0.94757056  0.40450342  1
  O  O47  1  0.31024593  0.95669207  0.14303054  1
  O  O48  1  0.40027839  0.54330793  0.64644614  1
  O  O49  1  0.95637504  0.89805048  0.93994042  1
  O  O50  1  0.66200909  0.60194952  0.94167544  1
  O  O51  1  0.14251029  0.45136200  0.64912638  1
  O  O52  1  0.60011612  0.95230956  0.69151275  1
  O  O53  1  0.31018094  0.70897823  0.64870886  1
  O  O54  1  0.14231290  0.79102177  0.39879730  1
  O  O55  1  0.35087362  0.95136200  0.85748971  1
