# generated using pymatgen
data_Li3MnV(PO4)3
_symmetry_space_group_name_H-M   'P 1'
_cell_length_a   8.50604923
_cell_length_b   8.50646408
_cell_length_c   8.71118741
_cell_angle_alpha   61.85115345
_cell_angle_beta   62.41859437
_cell_angle_gamma   62.97813102
_symmetry_Int_Tables_number   1
_chemical_formula_structural   Li3MnV(PO4)3
_chemical_formula_sum   'Li6 Mn2 V2 P6 O24'
_cell_volume   469.62351278
_cell_formula_units_Z   2
loop_
 _symmetry_equiv_pos_site_id
 _symmetry_equiv_pos_as_xyz
  1  'x, y, z'
loop_
 _atom_site_type_symbol
 _atom_site_label
 _atom_site_symmetry_multiplicity
 _atom_site_fract_x
 _atom_site_fract_y
 _atom_site_fract_z
 _atom_site_occupancy
  Li  Li0  1  0.86342853  0.75874739  0.15243827  1
  Li  Li1  1  0.50000000  0.00000000  0.00000000  1
  Li  Li2  1  0.72791885  0.87169489  0.65616728  1
  Li  Li3  1  0.27208115  0.12830511  0.34383272  1
  Li  Li4  1  0.00000000  0.50000000  0.50000000  1
  Li  Li5  1  0.13657147  0.24125261  0.84756173  1
  Mn  Mn6  1  0.64046987  0.14701043  0.14445730  1
  Mn  Mn7  1  0.35953013  0.85298957  0.85554270  1
  V  V8  1  0.85345359  0.36024178  0.34938777  1
  V  V9  1  0.14654641  0.63975822  0.65061223  1
  P  P10  1  0.24703258  0.44289000  0.04015759  1
  P  P11  1  0.94933088  0.05172387  0.74705170  1
  P  P12  1  0.55429466  0.74413853  0.46391965  1
  P  P13  1  0.44570534  0.25586147  0.53608035  1
  P  P14  1  0.05066912  0.94827613  0.25294830  1
  P  P15  1  0.75296742  0.55711000  0.95984241  1
  O  O16  1  0.82402238  0.52764299  0.11116819  1
  O  O17  1  0.89409946  0.95440194  0.20706555  1
  O  O18  1  0.68622115  0.39711515  0.01292459  1
  O  O19  1  0.92592015  0.23440900  0.57674829  1
  O  O20  1  0.38425536  0.24504145  0.07607219  1
  O  O21  1  0.74509963  0.58830799  0.42175552  1
  O  O22  1  0.53978434  0.89862570  0.27894924  1
  O  O23  1  0.00407523  0.87869015  0.68972096  1
  O  O24  1  0.23210340  0.95459283  0.09149117  1
  O  O25  1  0.61721735  0.32699545  0.45529493  1
  O  O26  1  0.91762765  0.55944785  0.76910476  1
  O  O27  1  0.44146973  0.19536199  0.39947224  1
  O  O28  1  0.55853027  0.80463801  0.60052776  1
  O  O29  1  0.08237235  0.44055215  0.23089524  1
  O  O30  1  0.38278265  0.67300455  0.54470507  1
  O  O31  1  0.76789660  0.04540717  0.90850883  1
  O  O32  1  0.99592477  0.12130985  0.31027904  1
  O  O33  1  0.46021566  0.10137430  0.72105076  1
  O  O34  1  0.25490037  0.41169201  0.57824448  1
  O  O35  1  0.61574464  0.75495855  0.92392781  1
  O  O36  1  0.07407985  0.76559100  0.42325171  1
  O  O37  1  0.31377885  0.60288485  0.98707541  1
  O  O38  1  0.10590054  0.04559806  0.79293445  1
  O  O39  1  0.17597762  0.47235701  0.88883181  1
