# generated using pymatgen
data_LiFeBO3
_symmetry_space_group_name_H-M   'P 1'
_cell_length_a   5.65090920
_cell_length_b   7.43355871
_cell_length_c   6.81595443
_cell_angle_alpha   90.01245758
_cell_angle_beta   72.56891289
_cell_angle_gamma   89.99446664
_symmetry_Int_Tables_number   1
_chemical_formula_structural   LiFeBO3
_chemical_formula_sum   'Li4 Fe4 B4 O12'
_cell_volume   273.16535573
_cell_formula_units_Z   4
loop_
 _symmetry_equiv_pos_site_id
 _symmetry_equiv_pos_as_xyz
  1  'x, y, z'
loop_
 _atom_site_type_symbol
 _atom_site_label
 _atom_site_symmetry_multiplicity
 _atom_site_fract_x
 _atom_site_fract_y
 _atom_site_fract_z
 _atom_site_occupancy
  Li  Li0  1  0.26235936  0.05949877  0.09496304  1
  Li  Li1  1  0.23761562  0.55954404  0.40505090  1
  Li  Li2  1  0.76238438  0.44045596  0.59494910  1
  Li  Li3  1  0.73764064  0.94050123  0.90503696  1
  Fe  Fe4  1  0.13841009  0.23643713  0.74120742  1
  Fe  Fe5  1  0.36158126  0.73645183  0.75883358  1
  Fe  Fe6  1  0.63841874  0.26354817  0.24116642  1
  Fe  Fe7  1  0.86158991  0.76356287  0.25879258  1
  B  B8  1  0.09587979  0.36524130  0.18519090  1
  B  B9  1  0.40410577  0.86522418  0.31482338  1
  B  B10  1  0.59589423  0.13477582  0.68517662  1
  B  B11  1  0.90412021  0.63475870  0.81480910  1
  O  O12  1  0.00910071  0.23777662  0.07145448  1
  O  O13  1  0.07783403  0.51448503  0.69704120  1
  O  O14  1  0.33265138  0.35938867  0.19704688  1
  O  O15  1  0.16734589  0.85938259  0.30292886  1
  O  O16  1  0.49088527  0.73780827  0.42856074  1
  O  O17  1  0.57780045  0.98544252  0.19707330  1
  O  O18  1  0.42219955  0.01455748  0.80292670  1
  O  O19  1  0.50911473  0.26219173  0.57143926  1
  O  O20  1  0.83265411  0.14061741  0.69707114  1
  O  O21  1  0.66734862  0.64061133  0.80295312  1
  O  O22  1  0.92216597  0.48551497  0.30295880  1
  O  O23  1  0.99089929  0.76222338  0.92854552  1
