# generated using pymatgen
data_Li3MnV(PO4)3
_symmetry_space_group_name_H-M   'P 1'
_cell_length_a   8.65273406
_cell_length_b   8.65692150
_cell_length_c   12.65470505
_cell_angle_alpha   74.18634794
_cell_angle_beta   105.69820142
_cell_angle_gamma   84.65846335
_symmetry_Int_Tables_number   1
_chemical_formula_structural   Li3MnV(PO4)3
_chemical_formula_sum   'Li12 Mn4 V4 P12 O48'
_cell_volume   863.66143922
_cell_formula_units_Z   4
loop_
 _symmetry_equiv_pos_site_id
 _symmetry_equiv_pos_as_xyz
  1  'x, y, z'
loop_
 _atom_site_type_symbol
 _atom_site_label
 _atom_site_symmetry_multiplicity
 _atom_site_fract_x
 _atom_site_fract_y
 _atom_site_fract_z
 _atom_site_occupancy
  Li  Li0  1  0.00059977  0.00382937  0.87620077  1
  Li  Li1  1  0.00438034  0.00331244  0.37403636  1
  Li  Li2  1  0.28821244  0.28972560  0.62595571  1
  Li  Li3  1  0.50028270  0.49884734  0.74977211  1
  Li  Li4  1  0.28709561  0.28904067  0.12409694  1
  Li  Li5  1  0.50053529  0.49980402  0.50044143  1
  Li  Li6  1  0.71164752  0.71171496  0.87632476  1
  Li  Li7  1  0.49947457  0.50263929  0.24883635  1
  Li  Li8  1  0.50135239  0.49997876  0.00070470  1
  Li  Li9  1  0.71091552  0.71146069  0.37443014  1
  Li  Li10  1  0.99328384  0.99633148  0.62651114  1
  Li  Li11  1  0.99720762  0.99675868  0.12431082  1
  Mn  Mn12  1  0.62867634  0.05764809  0.93462674  1
  Mn  Mn13  1  0.36971956  0.94128341  0.06491406  1
  Mn  Mn14  1  0.94301006  0.37323155  0.68491020  1
  Mn  Mn15  1  0.94279316  0.37556154  0.18470507  1
  V  V16  1  0.05778054  0.62191666  0.82008669  1
  V  V17  1  0.05704787  0.62318795  0.32024055  1
  V  V18  1  0.37854415  0.94263514  0.57003385  1
  V  V19  1  0.61965312  0.05562580  0.42944830  1
  P  P20  1  0.28874413  0.28469120  0.87518435  1
  P  P21  1  0.13980450  0.66583497  0.56834011  1
  P  P22  1  0.33434554  0.85911779  0.81907605  1
  P  P23  1  0.28569469  0.28791680  0.37494365  1
  P  P24  1  0.13458035  0.66489952  0.06787800  1
  P  P25  1  0.33917314  0.86123616  0.31704769  1
  P  P26  1  0.66023546  0.13368660  0.68345093  1
  P  P27  1  0.86652962  0.33984645  0.93286097  1
  P  P28  1  0.71553344  0.71183227  0.62545150  1
  P  P29  1  0.66551499  0.13575171  0.18138415  1
  P  P30  1  0.86089990  0.33876065  0.43224011  1
  P  P31  1  0.71221086  0.71544491  0.12494837  1
  O  O32  1  0.01085930  0.65621302  0.95500686  1
  O  O33  1  0.05433770  0.61500879  0.66357965  1
  O  O34  1  0.26278457  0.17355689  0.98623971  1
  O  O35  1  0.01307496  0.66156058  0.45556964  1
  O  O36  1  0.17244132  0.26180730  0.76394240  1
  O  O37  1  0.15075328  0.84008334  0.80071927  1
  O  O38  1  0.26548543  0.46012890  0.88420563  1
  O  O39  1  0.15983894  0.84960508  0.54852670  1
  O  O40  1  0.05203893  0.60970648  0.16452363  1
  O  O41  1  0.25913299  0.17300783  0.48351513  1
  O  O42  1  0.17297883  0.26460882  0.26309276  1
  O  O43  1  0.15672925  0.84262667  0.30400735  1
  O  O44  1  0.29770072  0.54556179  0.60225928  1
  O  O45  1  0.38609417  0.94645468  0.91374763  1
  O  O46  1  0.33818245  0.98511172  0.70563096  1
  O  O47  1  0.46263226  0.25822288  0.86340589  1
  O  O48  1  0.26326519  0.46261835  0.38528564  1
  O  O49  1  0.45397492  0.70115581  0.85261804  1
  O  O50  1  0.14411514  0.85006486  0.04739233  1
  O  O51  1  0.29570393  0.54899600  0.10142194  1
  O  O52  1  0.39853418  0.95156491  0.41030980  1
  O  O53  1  0.54621751  0.29598273  0.64790520  1
  O  O54  1  0.33710874  0.98498354  0.20052081  1
  O  O55  1  0.46154155  0.26206276  0.36595099  1
  O  O56  1  0.53840897  0.73555918  0.63236372  1
  O  O57  1  0.65770141  0.01231105  0.79959097  1
  O  O58  1  0.45702835  0.70186194  0.35257391  1
  O  O59  1  0.59721806  0.04649329  0.58876384  1
  O  O60  1  0.70423654  0.45332907  0.89762838  1
  O  O61  1  0.85675339  0.15710057  0.94494591  1
  O  O62  1  0.54968926  0.29680179  0.14774111  1
  O  O63  1  0.74150029  0.53604442  0.61543775  1
  O  O64  1  0.53699479  0.73896548  0.13500672  1
  O  O65  1  0.65561709  0.01172420  0.29390535  1
  O  O66  1  0.60878777  0.05242461  0.08461313  1
  O  O67  1  0.70169339  0.45646466  0.39709361  1
  O  O68  1  0.84388270  0.14368148  0.69747314  1
  O  O69  1  0.82565292  0.73948676  0.73496189  1
  O  O70  1  0.74051949  0.82712057  0.51596682  1
  O  O71  1  0.95450051  0.40484981  0.83736292  1
  O  O72  1  0.84151216  0.15675098  0.44433289  1
  O  O73  1  0.73908728  0.53939924  0.11530234  1
  O  O74  1  0.85039686  0.14576328  0.20115485  1
  O  O75  1  0.82600993  0.74327308  0.23347204  1
  O  O76  1  0.98578482  0.33658149  0.54800274  1
  O  O77  1  0.73616698  0.82755124  0.01279872  1
  O  O78  1  0.95146271  0.40114097  0.33818275  1
  O  O79  1  0.98838903  0.34107363  0.04855467  1
