# generated using pymatgen
data_LiHoSn2
_symmetry_space_group_name_H-M   'P 1'
_cell_length_a   4.34395257
_cell_length_b   4.49073817
_cell_length_c   9.87060298
_cell_angle_alpha   90.00000000
_cell_angle_beta   102.71167060
_cell_angle_gamma   90.00000000
_symmetry_Int_Tables_number   1
_chemical_formula_structural   LiHoSn2
_chemical_formula_sum   'Li2 Ho2 Sn4'
_cell_volume   187.83183469
_cell_formula_units_Z   2
loop_
 _symmetry_equiv_pos_site_id
 _symmetry_equiv_pos_as_xyz
  1  'x, y, z'
loop_
 _atom_site_type_symbol
 _atom_site_label
 _atom_site_symmetry_multiplicity
 _atom_site_fract_x
 _atom_site_fract_y
 _atom_site_fract_z
 _atom_site_occupancy
  Li  Li0  1  0.67261728  0.75000000  0.34523456  1
  Li  Li1  1  0.32738272  0.25000000  0.65476544  1
  Ho  Ho2  1  0.89397774  0.75000000  0.78795548  1
  Ho  Ho3  1  0.10602226  0.25000000  0.21204452  1
  Sn  Sn4  1  0.54478624  0.75000000  0.08957248  1
  Sn  Sn5  1  0.45521376  0.25000000  0.91042752  1
  Sn  Sn6  1  0.25196430  0.75000000  0.50392860  1
  Sn  Sn7  1  0.74803570  0.25000000  0.49607140  1
