# generated using pymatgen
data_Li2Cr3P9O28
_symmetry_space_group_name_H-M   'P 1'
_cell_length_a   7.07105725
_cell_length_b   9.23014408
_cell_length_c   9.04343681
_cell_angle_alpha   68.35423455
_cell_angle_beta   99.27593570
_cell_angle_gamma   70.16389817
_symmetry_Int_Tables_number   1
_chemical_formula_structural   Li2Cr3P9O28
_chemical_formula_sum   'Li2 Cr3 P9 O28'
_cell_volume   487.60078153
_cell_formula_units_Z   1
loop_
 _symmetry_equiv_pos_site_id
 _symmetry_equiv_pos_as_xyz
  1  'x, y, z'
loop_
 _atom_site_type_symbol
 _atom_site_label
 _atom_site_symmetry_multiplicity
 _atom_site_fract_x
 _atom_site_fract_y
 _atom_site_fract_z
 _atom_site_occupancy
  Li  Li0  1  0.95480079  0.52835983  0.95665822  1
  Li  Li1  1  0.54519921  0.97164017  0.04334178  1
  Cr  Cr2  1  0.75000000  0.75000000  0.50000000  1
  Cr  Cr3  1  0.49262051  0.50659047  0.98742953  1
  Cr  Cr4  1  0.00737949  0.99340953  0.01257047  1
  P  P5  1  0.55666399  0.30250847  0.75351443  1
  P  P6  1  0.03951671  0.81873034  0.76126275  1
  P  P7  1  0.93675617  0.33226861  0.70025954  1
  P  P8  1  0.40551263  0.85491188  0.67900044  1
  P  P9  1  0.25000000  0.25000000  0.50000000  1
  P  P10  1  0.56324383  0.16773139  0.29974046  1
  P  P11  1  0.09448737  0.64508812  0.32099956  1
  P  P12  1  0.94333601  0.19749153  0.24648557  1
  P  P13  1  0.46048329  0.68126966  0.23873725  1
  O  O14  1  0.67349468  0.12555856  0.91047690  1
  O  O15  1  0.17240292  0.63453248  0.90803285  1
  O  O16  1  0.53679208  0.72345928  0.86298265  1
  O  O17  1  0.06179449  0.19542399  0.88143613  1
  O  O18  1  0.98509091  0.96149252  0.81266362  1
  O  O19  1  0.47945991  0.45406818  0.79105529  1
  O  O20  1  0.89302364  0.50787471  0.69365577  1
  O  O21  1  0.36894202  0.04054185  0.66399361  1
  O  O22  1  0.83901042  0.83019852  0.65933886  1
  O  O23  1  0.36205469  0.31369016  0.63185062  1
  O  O24  1  0.71105944  0.32613074  0.64320875  1
  O  O25  1  0.17568249  0.85702613  0.63833119  1
  O  O26  1  0.48071134  0.81631896  0.54647342  1
  O  O27  1  0.02864566  0.29628963  0.56398910  1
  O  O28  1  0.01928866  0.68368104  0.45352658  1
  O  O29  1  0.47135434  0.20371037  0.43601090  1
  O  O30  1  0.78894056  0.17386926  0.35679125  1
  O  O31  1  0.32431751  0.64297387  0.36166881  1
  O  O32  1  0.66098958  0.66980148  0.34066114  1
  O  O33  1  0.13794531  0.18630984  0.36814938  1
  O  O34  1  0.60697636  0.99212529  0.30634423  1
  O  O35  1  0.13105798  0.45945815  0.33600639  1
  O  O36  1  0.51490909  0.53850748  0.18733638  1
  O  O37  1  0.02054009  0.04593182  0.20894471  1
  O  O38  1  0.96320792  0.77654072  0.13701735  1
  O  O39  1  0.43820551  0.30457601  0.11856387  1
  O  O40  1  0.82650532  0.37444144  0.08952310  1
  O  O41  1  0.32759708  0.86546752  0.09196715  1
