# generated using pymatgen
data_Li7Cr3Fe(PO4)6
_symmetry_space_group_name_H-M   'P 1'
_cell_length_a   8.85529586
_cell_length_b   8.85529622
_cell_length_c   8.71904159
_cell_angle_alpha   59.48169424
_cell_angle_beta   120.51830779
_cell_angle_gamma   120.00000509
_symmetry_Int_Tables_number   1
_chemical_formula_structural   Li7Cr3Fe(PO4)6
_chemical_formula_sum   'Li7 Cr3 Fe1 P6 O24'
_cell_volume   479.63708144
_cell_formula_units_Z   1
loop_
 _symmetry_equiv_pos_site_id
 _symmetry_equiv_pos_as_xyz
  1  'x, y, z'
loop_
 _atom_site_type_symbol
 _atom_site_label
 _atom_site_symmetry_multiplicity
 _atom_site_fract_x
 _atom_site_fract_y
 _atom_site_fract_z
 _atom_site_occupancy
  Li  Li0  1  0.60772834  0.72839459  0.66694909  1
  Li  Li1  1  0.27160541  0.21238466  0.66694909  1
  Li  Li2  1  0.18643828  0.64243111  0.30597060  1
  Li  Li3  1  0.01836324  0.98163676  0.05509071  1
  Li  Li4  1  0.78761534  0.39227166  0.66694909  1
  Li  Li5  1  0.76196344  0.81356172  0.30597060  1
  Li  Li6  1  0.35756889  0.23803656  0.30597060  1
  Cr  Cr7  1  0.85795533  0.14204467  0.57386598  1
  Cr  Cr8  1  0.35545408  0.64454592  0.06636123  1
  Cr  Cr9  1  0.64537543  0.35462457  0.93612528  1
  Fe  Fe10  1  0.15155863  0.84844137  0.45467488  1
  P  P11  1  0.25161766  0.45319349  0.75240245  1
  P  P12  1  0.95397828  0.74838234  0.75240245  1
  P  P13  1  0.54680651  0.04602172  0.75240245  1
  P  P14  1  0.45831127  0.95932324  0.24751089  1
  P  P15  1  0.04067676  0.25147615  0.24751089  1
  P  P16  1  0.74852385  0.54168873  0.24751089  1
  O  O17  1  0.12411694  0.71020664  0.92396048  1
  O  O18  1  0.51005017  0.87588306  0.92396048  1
  O  O19  1  0.28979336  0.48994983  0.92396048  1
  O  O20  1  0.09457278  0.26255918  0.75343545  1
  O  O21  1  0.42124176  0.43617134  0.75540921  1
  O  O22  1  0.20959716  0.61138906  0.56353491  1
  O  O23  1  0.92142185  0.90542722  0.75343545  1
  O  O24  1  0.77033879  0.57875824  0.75540921  1
  O  O25  1  0.56382866  0.22966121  0.75540921  1
  O  O26  1  0.62140721  0.97413619  0.43783965  1
  O  O27  1  0.27435387  0.94003366  0.24709527  1
  O  O28  1  0.02586381  0.20943237  0.43783965  1
  O  O29  1  0.96532780  0.79040284  0.56353491  1
  O  O30  1  0.73744082  0.07857815  0.75343545  1
  O  O31  1  0.38861094  0.03467220  0.56353491  1
  O  O32  1  0.43110701  0.77006717  0.24801535  1
  O  O33  1  0.22993283  0.41302449  0.24801535  1
  O  O34  1  0.05996634  0.08722494  0.24709527  1
  O  O35  1  0.79056763  0.37859279  0.43783965  1
  O  O36  1  0.58697551  0.56889299  0.24801535  1
  O  O37  1  0.91277506  0.72564613  0.24709527  1
  O  O38  1  0.69966509  0.50169113  0.07524197  1
  O  O39  1  0.49830887  0.12273199  0.07524197  1
  O  O40  1  0.87726801  0.30033491  0.07524197  1
