# generated using pymatgen
data_LiCo2OF5
_symmetry_space_group_name_H-M   'P 1'
_cell_length_a   4.57867241
_cell_length_b   4.57867241
_cell_length_c   18.36822530
_cell_angle_alpha   89.24174709
_cell_angle_beta   90.75825291
_cell_angle_gamma   90.05464901
_symmetry_Int_Tables_number   1
_chemical_formula_structural   LiCo2OF5
_chemical_formula_sum   'Li4 Co8 O4 F20'
_cell_volume   385.00834816
_cell_formula_units_Z   4
loop_
 _symmetry_equiv_pos_site_id
 _symmetry_equiv_pos_as_xyz
  1  'x, y, z'
loop_
 _atom_site_type_symbol
 _atom_site_label
 _atom_site_symmetry_multiplicity
 _atom_site_fract_x
 _atom_site_fract_y
 _atom_site_fract_z
 _atom_site_occupancy
  Li  Li0  1  0.99432431  0.01394614  0.00010289  1
  Li  Li1  1  0.98605386  0.00567569  0.50010289  1
  Li  Li2  1  0.49595840  0.48636258  0.24990851  1
  Li  Li3  1  0.51363742  0.50404160  0.74990851  1
  Co  Co4  1  0.00766273  0.99029698  0.33560187  1
  Co  Co5  1  0.97703877  0.97095659  0.16716621  1
  Co  Co6  1  0.02904341  0.02296123  0.66716621  1
  Co  Co7  1  0.00970302  0.99233727  0.83560187  1
  Co  Co8  1  0.49074517  0.49260983  0.58585946  1
  Co  Co9  1  0.50739017  0.50925483  0.08585946  1
  Co  Co10  1  0.47361269  0.52217845  0.41733752  1
  Co  Co11  1  0.47782155  0.52638731  0.91733752  1
  O  O12  1  0.20338273  0.79376418  0.40885835  1
  O  O13  1  0.20623582  0.79661727  0.90885835  1
  O  O14  1  0.29952600  0.29404884  0.65863676  1
  O  O15  1  0.70595116  0.70047400  0.15863676  1
  F  F16  1  0.20944094  0.80038765  0.08396471  1
  F  F17  1  0.19811458  0.79906112  0.25092969  1
  F  F18  1  0.19961235  0.79055906  0.58396471  1
  F  F19  1  0.20093888  0.80188542  0.75092969  1
  F  F20  1  0.31346275  0.31637829  0.00490015  1
  F  F21  1  0.29166830  0.28596039  0.16454565  1
  F  F22  1  0.29968905  0.29075284  0.83444919  1
  F  F23  1  0.29978318  0.30179920  0.50045752  1
  F  F24  1  0.29711822  0.28865191  0.33427996  1
  F  F25  1  0.69820080  0.70021682  0.00045752  1
  F  F26  1  0.70924716  0.70031095  0.33444919  1
  F  F27  1  0.68362171  0.68653725  0.50490015  1
  F  F28  1  0.71134809  0.70288178  0.83427996  1
  F  F29  1  0.71403961  0.70833170  0.66454565  1
  F  F30  1  0.81372014  0.18323167  0.25374059  1
  F  F31  1  0.79884493  0.21163162  0.08487194  1
  F  F32  1  0.78699030  0.20906490  0.41438903  1
  F  F33  1  0.78836838  0.20115507  0.58487194  1
  F  F34  1  0.81676833  0.18627986  0.75374059  1
  F  F35  1  0.79093510  0.21300970  0.91438903  1
