# generated using pymatgen
data_Li4Cr2Fe3O10
_symmetry_space_group_name_H-M   'P 1'
_cell_length_a   5.13503006
_cell_length_b   5.11496921
_cell_length_c   7.82996979
_cell_angle_alpha   72.04431246
_cell_angle_beta   107.66360695
_cell_angle_gamma   99.90403839
_symmetry_Int_Tables_number   1
_chemical_formula_structural   Li4Cr2Fe3O10
_chemical_formula_sum   'Li4 Cr2 Fe3 O10'
_cell_volume   185.71843876
_cell_formula_units_Z   1
loop_
 _symmetry_equiv_pos_site_id
 _symmetry_equiv_pos_as_xyz
  1  'x, y, z'
loop_
 _atom_site_type_symbol
 _atom_site_label
 _atom_site_symmetry_multiplicity
 _atom_site_fract_x
 _atom_site_fract_y
 _atom_site_fract_z
 _atom_site_occupancy
  Li  Li0  1  0.22229292  0.49966246  0.42490384  1
  Li  Li1  1  0.50898145  0.98463095  0.50866113  1
  Li  Li2  1  0.78232811  0.49768992  0.59351818  1
  Li  Li3  1  0.61112249  0.48560912  0.22323038  1
  Cr  Cr4  1  0.11049686  0.00628378  0.68616130  1
  Cr  Cr5  1  0.89722324  0.99908980  0.30513793  1
  Fe  Fe6  1  0.00160374  0.49914758  0.99202619  1
  Fe  Fe7  1  0.31023485  0.99980096  0.11008176  1
  Fe  Fe8  1  0.68619864  0.99403742  0.89165380  1
  O  O9  1  0.03502907  0.23087481  0.85505610  1
  O  O10  1  0.12195372  0.78603947  0.54144692  1
  O  O11  1  0.33272941  0.77479488  0.94156415  1
  O  O12  1  0.22734781  0.25409249  0.22932036  1
  O  O13  1  0.43807928  0.21790327  0.66331393  1
  O  O14  1  0.54545408  0.77008942  0.33674380  1
  O  O15  1  0.79243842  0.76638575  0.76208542  1
  O  O16  1  0.66950990  0.22977501  0.06230492  1
  O  O17  1  0.87323258  0.23139786  0.46120085  1
  O  O18  1  0.94648941  0.75991505  0.14000204  1
