# generated using pymatgen
data_HoBO3
_symmetry_space_group_name_H-M   'P 1'
_cell_length_a   7.22801840
_cell_length_b   9.02110065
_cell_length_c   9.87402701
_cell_angle_alpha   81.34804663
_cell_angle_beta   85.64533500
_cell_angle_gamma   77.17694457
_symmetry_Int_Tables_number   1
_chemical_formula_structural   HoBO3
_chemical_formula_sum   'Ho12 B12 O36'
_cell_volume   620.02711297
_cell_formula_units_Z   12
loop_
 _symmetry_equiv_pos_site_id
 _symmetry_equiv_pos_as_xyz
  1  'x, y, z'
loop_
 _atom_site_type_symbol
 _atom_site_label
 _atom_site_symmetry_multiplicity
 _atom_site_fract_x
 _atom_site_fract_y
 _atom_site_fract_z
 _atom_site_occupancy
  Ho  Ho0  1  0.09878212  0.43553107  0.67051994  1
  Ho  Ho1  1  0.24965427  0.04508893  0.47886035  1
  Ho  Ho2  1  0.09819832  0.93220755  0.16271867  1
  Ho  Ho3  1  0.26246989  0.56069185  0.97110161  1
  Ho  Ho4  1  0.43388284  0.44154922  0.34236706  1
  Ho  Ho5  1  0.57392934  0.05616992  0.15538800  1
  Ho  Ho6  1  0.42607066  0.94383008  0.84461200  1
  Ho  Ho7  1  0.56611716  0.55845078  0.65763294  1
  Ho  Ho8  1  0.73753011  0.43930815  0.02889839  1
  Ho  Ho9  1  0.90180168  0.06779245  0.83728133  1
  Ho  Ho10  1  0.75034573  0.95491107  0.52113965  1
  Ho  Ho11  1  0.90121788  0.56446893  0.32948006  1
  B  B12  1  0.16800953  0.27132302  0.20559805  1
  B  B13  1  0.11577286  0.25705338  0.94809309  1
  B  B14  1  0.10766066  0.75271356  0.44769082  1
  B  B15  1  0.22009028  0.78277711  0.69173646  1
  B  B16  1  0.47767332  0.28469718  0.92303390  1
  B  B17  1  0.53346197  0.22092788  0.61372053  1
  B  B18  1  0.46653803  0.77907212  0.38627947  1
  B  B19  1  0.52232668  0.71530282  0.07696610  1
  B  B20  1  0.77990972  0.21722289  0.30826354  1
  B  B21  1  0.89233934  0.24728644  0.55230918  1
  B  B22  1  0.88422714  0.74294662  0.05190691  1
  B  B23  1  0.83199047  0.72867698  0.79440195  1
  O  O24  1  0.06335394  0.18456012  0.63001150  1
  O  O25  1  0.08177049  0.33527350  0.08067210  1
  O  O26  1  0.05688724  0.68040607  0.12756054  1
  O  O27  1  0.15300453  0.09106412  0.96398506  1
  O  O28  1  0.16688759  0.36657476  0.30291431  1
  O  O29  1  0.24577363  0.11607783  0.23794199  1
  O  O30  1  0.14984159  0.58788875  0.46461905  1
  O  O31  1  0.08105513  0.83876482  0.57243042  1
  O  O32  1  0.27233786  0.32337925  0.87262885  1
  O  O33  1  0.15645119  0.87167060  0.80481596  1
  O  O34  1  0.24711188  0.61625139  0.73489339  1
  O  O35  1  0.26896979  0.81729664  0.36384565  1
  O  O36  1  0.45280062  0.09487700  0.62633808  1
  O  O37  1  0.47186074  0.31106784  0.07210915  1
  O  O38  1  0.43416383  0.36868319  0.58350065  1
  O  O39  1  0.43447793  0.59420476  0.14843525  1
  O  O40  1  0.42841137  0.87261083  0.08713727  1
  O  O41  1  0.59219321  0.18487990  0.36737424  1
  O  O42  1  0.40780679  0.81512010  0.63262576  1
  O  O43  1  0.57158863  0.12738917  0.91286273  1
  O  O44  1  0.56552207  0.40579524  0.85156475  1
  O  O45  1  0.56583617  0.63131681  0.41649935  1
  O  O46  1  0.52813926  0.68893216  0.92789085  1
  O  O47  1  0.54719938  0.90512300  0.37366192  1
  O  O48  1  0.73103021  0.18270336  0.63615435  1
  O  O49  1  0.75288812  0.38374861  0.26510661  1
  O  O50  1  0.84354881  0.12832940  0.19518404  1
  O  O51  1  0.72766214  0.67662075  0.12737115  1
  O  O52  1  0.91894487  0.16123518  0.42756958  1
  O  O53  1  0.85015841  0.41211125  0.53538095  1
  O  O54  1  0.75422637  0.88392217  0.76205801  1
  O  O55  1  0.83311241  0.63342524  0.69708569  1
  O  O56  1  0.84699547  0.90893588  0.03601494  1
  O  O57  1  0.94311276  0.31959393  0.87243946  1
  O  O58  1  0.91822951  0.66472650  0.91932790  1
  O  O59  1  0.93664606  0.81543988  0.36998850  1
