# generated using pymatgen
data_Li2CuPO4
_symmetry_space_group_name_H-M   'P 1'
_cell_length_a   6.21914405
_cell_length_b   5.38536992
_cell_length_c   10.09405801
_cell_angle_alpha   90.13038317
_cell_angle_beta   90.36221198
_cell_angle_gamma   89.29135579
_symmetry_Int_Tables_number   1
_chemical_formula_structural   Li2CuPO4
_chemical_formula_sum   'Li8 Cu4 P4 O16'
_cell_volume   338.04071190
_cell_formula_units_Z   4
loop_
 _symmetry_equiv_pos_site_id
 _symmetry_equiv_pos_as_xyz
  1  'x, y, z'
loop_
 _atom_site_type_symbol
 _atom_site_label
 _atom_site_symmetry_multiplicity
 _atom_site_fract_x
 _atom_site_fract_y
 _atom_site_fract_z
 _atom_site_occupancy
  Li  Li0  1  0.99901801  0.15212457  0.74778087  1
  Li  Li1  1  0.00018343  0.15844555  0.24482355  1
  Li  Li2  1  0.25078798  0.32763092  0.49806491  1
  Li  Li3  1  0.24436555  0.32977334  0.99833647  1
  Li  Li4  1  0.25805261  0.67387651  0.24496257  1
  Li  Li5  1  0.24754622  0.66968922  0.74882939  1
  Li  Li6  1  0.49929631  0.84723283  0.99657551  1
  Li  Li7  1  0.74712670  0.67759655  0.24209866  1
  Cu  Cu8  1  0.50894475  0.80495666  0.50080883  1
  Cu  Cu9  1  0.74380661  0.65666612  0.74007821  1
  Cu  Cu10  1  0.74195901  0.34371730  0.50310913  1
  Cu  Cu11  1  0.76075654  0.33515911  0.99938787  1
  P  P12  1  0.00545612  0.82643613  0.00212628  1
  P  P13  1  0.00943569  0.83139639  0.49443623  1
  P  P14  1  0.49567580  0.17687708  0.24649944  1
  P  P15  1  0.48872786  0.17290409  0.75364654  1
  O  O16  1  0.00657452  0.82756212  0.64880543  1
  O  O17  1  0.01505041  0.10255924  0.44317881  1
  O  O18  1  0.00581741  0.82557306  0.15600582  1
  O  O19  1  0.01255447  0.09690113  0.94674768  1
  O  O20  1  0.20819862  0.68009791  0.44285631  1
  O  O21  1  0.20519607  0.68207311  0.94832170  1
  O  O22  1  0.29217577  0.31641831  0.19237010  1
  O  O23  1  0.29014994  0.31708330  0.69752954  1
  O  O24  1  0.48735130  0.17749503  0.90707373  1
  O  O25  1  0.48040637  0.89754219  0.70614923  1
  O  O26  1  0.48850289  0.17980852  0.40083228  1
  O  O27  1  0.49955006  0.90406721  0.19471827  1
  O  O28  1  0.70543801  0.28724692  0.70491787  1
  O  O29  1  0.70486172  0.31444910  0.20363565  1
  O  O30  1  0.80611570  0.70155270  0.43485999  1
  O  O31  1  0.79091654  0.70508778  0.95302314  1
