# generated using pymatgen
data_Li5MnO4
_symmetry_space_group_name_H-M   'P 1'
_cell_length_a   5.05732925
_cell_length_b   7.37379679
_cell_length_c   5.14302895
_cell_angle_alpha   90.00007872
_cell_angle_beta   89.99930300
_cell_angle_gamma   90.00011386
_symmetry_Int_Tables_number   1
_chemical_formula_structural   Li5MnO4
_chemical_formula_sum   'Li10 Mn2 O8'
_cell_volume   191.79238624
_cell_formula_units_Z   2
loop_
 _symmetry_equiv_pos_site_id
 _symmetry_equiv_pos_as_xyz
  1  'x, y, z'
loop_
 _atom_site_type_symbol
 _atom_site_label
 _atom_site_symmetry_multiplicity
 _atom_site_fract_x
 _atom_site_fract_y
 _atom_site_fract_z
 _atom_site_occupancy
  Li  Li0  1  0.06111242  0.32828818  0.92503041  1
  Li  Li1  1  0.06111185  0.67171118  0.92503164  1
  Li  Li2  1  0.23042552  0.69085576  0.41380229  1
  Li  Li3  1  0.23042668  0.30914308  0.41380261  1
  Li  Li4  1  0.27852558  0.99999940  0.66619137  1
  Li  Li5  1  0.56111025  0.17171341  0.07496992  1
  Li  Li6  1  0.56111059  0.82828597  0.07497073  1
  Li  Li7  1  0.73042769  0.19085645  0.58619769  1
  Li  Li8  1  0.73042819  0.80914276  0.58619712  1
  Li  Li9  1  0.77852556  0.49999948  0.33380603  1
  Mn  Mn10  1  0.01569133  -0.00000014  0.15207685  1
  Mn  Mn11  1  0.51570413  0.50000199  0.84792921  1
  O  O12  1  0.36303148  0.00000069  0.29529506  1
  O  O13  1  0.37239450  0.49999969  0.18955600  1
  O  O14  1  0.39761603  0.25887070  0.75590247  1
  O  O15  1  0.39761555  0.74112972  0.75590313  1
  O  O16  1  0.86304252  0.50000041  0.70470055  1
  O  O17  1  0.87239464  0.00000082  0.81044347  1
  O  O18  1  0.89761438  0.75886984  0.24409509  1
  O  O19  1  0.89761511  0.24113064  0.24409836  1
