# generated using pymatgen
data_Na4Ni2O5
_symmetry_space_group_name_H-M   'P 1'
_cell_length_a   11.71094961
_cell_length_b   5.61991553
_cell_length_c   9.07390784
_cell_angle_alpha   90.00000000
_cell_angle_beta   105.93387205
_cell_angle_gamma   90.00000000
_symmetry_Int_Tables_number   1
_chemical_formula_structural   Na4Ni2O5
_chemical_formula_sum   'Na16 Ni8 O20'
_cell_volume   574.25041355
_cell_formula_units_Z   4
loop_
 _symmetry_equiv_pos_site_id
 _symmetry_equiv_pos_as_xyz
  1  'x, y, z'
loop_
 _atom_site_type_symbol
 _atom_site_label
 _atom_site_symmetry_multiplicity
 _atom_site_fract_x
 _atom_site_fract_y
 _atom_site_fract_z
 _atom_site_occupancy
  Na  Na0  1  0.03734913  0.07202112  0.83814415  1
  Na  Na1  1  0.03992618  0.41210884  0.33763858  1
  Na  Na2  1  0.13015868  0.88139911  0.52112129  1
  Na  Na3  1  0.13872528  0.62663544  0.01385161  1
  Na  Na4  1  0.36984132  0.38139911  0.97887871  1
  Na  Na5  1  0.36127472  0.12663544  0.48614839  1
  Na  Na6  1  0.46265087  0.57202112  0.66185585  1
  Na  Na7  1  0.53992618  0.08789116  0.83763858  1
  Na  Na8  1  0.46007382  0.91210884  0.16236142  1
  Na  Na9  1  0.53734913  0.42797888  0.33814415  1
  Na  Na10  1  0.63872528  0.87336456  0.51385161  1
  Na  Na11  1  0.63015868  0.61860089  0.02112129  1
  Na  Na12  1  0.86127472  0.37336456  0.98614839  1
  Na  Na13  1  0.86984132  0.11860089  0.47887871  1
  Na  Na14  1  0.96007382  0.58789116  0.66236142  1
  Na  Na15  1  0.96265087  0.92797888  0.16185585  1
  Ni  Ni16  1  0.20004908  0.38344549  0.65809103  1
  Ni  Ni17  1  0.29995092  0.88344549  0.84190897  1
  Ni  Ni18  1  0.20277735  0.15604257  0.15851711  1
  Ni  Ni19  1  0.29722265  0.65604257  0.34148289  1
  Ni  Ni20  1  0.70277735  0.34395743  0.65851711  1
  Ni  Ni21  1  0.79722265  0.84395743  0.84148289  1
  Ni  Ni22  1  0.70004908  0.11655451  0.15809103  1
  Ni  Ni23  1  0.79995092  0.61655451  0.34190897  1
  O  O24  1  0.05636836  0.23629196  0.60543739  1
  O  O25  1  0.17682323  0.65883190  0.76555008  1
  O  O26  1  0.05319273  0.26529221  0.08266484  1
  O  O27  1  0.19285327  0.91776220  0.30169866  1
  O  O28  1  0.24143518  0.47962878  0.48338868  1
  O  O29  1  0.32317677  0.15883190  0.73444992  1
  O  O30  1  0.25856482  0.97962878  0.01661132  1
  O  O31  1  0.30714673  0.41776220  0.19830134  1
  O  O32  1  0.44363164  0.73629196  0.89456261  1
  O  O33  1  0.44680727  0.76529221  0.41733516  1
  O  O34  1  0.55319273  0.23470779  0.58266484  1
  O  O35  1  0.55636836  0.26370804  0.10543739  1
  O  O36  1  0.69285327  0.58223780  0.80169866  1
  O  O37  1  0.74143518  0.02037122  0.98338868  1
  O  O38  1  0.67682323  0.84116810  0.26555008  1
  O  O39  1  0.75856482  0.52037122  0.51661132  1
  O  O40  1  0.80714673  0.08223780  0.69830134  1
  O  O41  1  0.94680727  0.73470779  0.91733516  1
  O  O42  1  0.82317677  0.34116810  0.23444992  1
  O  O43  1  0.94363164  0.76370804  0.39456261  1
