# generated using pymatgen
data_Na6Bi2B4AsO16
_symmetry_space_group_name_H-M   'P 1'
_cell_length_a   10.28802330
_cell_length_b   10.28802250
_cell_length_c   10.28802249
_cell_angle_alpha   60.00000229
_cell_angle_beta   60.00000062
_cell_angle_gamma   60.00000065
_symmetry_Int_Tables_number   1
_chemical_formula_structural   Na6Bi2B4AsO16
_chemical_formula_sum   'Na12 Bi4 B8 As2 O32'
_cell_volume   769.98233831
_cell_formula_units_Z   2
loop_
 _symmetry_equiv_pos_site_id
 _symmetry_equiv_pos_as_xyz
  1  'x, y, z'
loop_
 _atom_site_type_symbol
 _atom_site_label
 _atom_site_symmetry_multiplicity
 _atom_site_fract_x
 _atom_site_fract_y
 _atom_site_fract_z
 _atom_site_occupancy
  Na  Na0  1  0.07964277  0.67035723  0.07964277  1
  Na  Na1  1  0.07964277  0.07964277  0.67035723  1
  Na  Na2  1  0.07964277  0.67035723  0.67035723  1
  Na  Na3  1  0.67035723  0.07964277  0.07964277  1
  Na  Na4  1  0.32964277  0.92035723  0.32964277  1
  Na  Na5  1  0.32964277  0.32964277  0.92035723  1
  Na  Na6  1  0.67035723  0.67035723  0.07964277  1
  Na  Na7  1  0.67035723  0.07964277  0.67035723  1
  Na  Na8  1  0.92035723  0.32964277  0.32964277  1
  Na  Na9  1  0.32964277  0.92035723  0.92035723  1
  Na  Na10  1  0.92035723  0.32964277  0.92035723  1
  Na  Na11  1  0.92035723  0.92035723  0.32964277  1
  Bi  Bi12  1  0.00000000  0.50000000  0.50000000  1
  Bi  Bi13  1  0.50000000  0.50000000  0.00000000  1
  Bi  Bi14  1  0.50000000  0.00000000  0.50000000  1
  Bi  Bi15  1  0.50000000  0.50000000  0.50000000  1
  B  B16  1  0.28103900  0.28103900  0.28103900  1
  B  B17  1  0.28103900  0.65688201  0.28103900  1
  B  B18  1  0.28103900  0.28103900  0.65688201  1
  B  B19  1  0.65688201  0.28103900  0.28103900  1
  B  B20  1  0.34311799  0.71896100  0.71896100  1
  B  B21  1  0.71896100  0.71896100  0.34311799  1
  B  B22  1  0.71896100  0.34311799  0.71896100  1
  B  B23  1  0.71896100  0.71896100  0.71896100  1
  As  As24  1  0.12500000  0.12500000  0.12500000  1
  As  As25  1  0.87500000  0.87500000  0.87500000  1
  O  O26  1  0.05651075  0.05651075  0.05651075  1
  O  O27  1  0.05651075  0.05651075  0.33046676  1
  O  O28  1  0.05651075  0.33046676  0.05651075  1
  O  O29  1  0.33046676  0.05651075  0.05651075  1
  O  O30  1  0.13844529  0.40751972  0.29421326  1
  O  O31  1  0.29421326  0.13844529  0.40751972  1
  O  O32  1  0.13844529  0.29421326  0.65982173  1
  O  O33  1  0.40751972  0.29421326  0.13844529  1
  O  O34  1  0.13844529  0.65982173  0.40751972  1
  O  O35  1  0.29421326  0.65982173  0.13844529  1
  O  O36  1  0.40751972  0.13844529  0.65982173  1
  O  O37  1  0.29421326  0.40751972  0.65982173  1
  O  O38  1  0.65982173  0.13844529  0.29421326  1
  O  O39  1  0.40751972  0.65982173  0.29421326  1
  O  O40  1  0.65982173  0.40751972  0.13844529  1
  O  O41  1  0.34017827  0.70578674  0.59248028  1
  O  O42  1  0.65982173  0.29421326  0.40751972  1
  O  O43  1  0.34017827  0.59248028  0.86155471  1
  O  O44  1  0.59248028  0.34017827  0.70578674  1
  O  O45  1  0.34017827  0.86155471  0.70578674  1
  O  O46  1  0.70578674  0.59248028  0.34017827  1
  O  O47  1  0.59248028  0.86155471  0.34017827  1
  O  O48  1  0.70578674  0.34017827  0.86155471  1
  O  O49  1  0.86155471  0.34017827  0.59248028  1
  O  O50  1  0.59248028  0.70578674  0.86155471  1
  O  O51  1  0.86155471  0.70578674  0.34017827  1
  O  O52  1  0.70578674  0.86155471  0.59248028  1
  O  O53  1  0.86155471  0.59248028  0.70578674  1
  O  O54  1  0.66953324  0.94348925  0.94348925  1
  O  O55  1  0.94348925  0.66953324  0.94348925  1
  O  O56  1  0.94348925  0.94348925  0.66953324  1
  O  O57  1  0.94348925  0.94348925  0.94348925  1
