# generated using pymatgen
data_Mn4O7F
_symmetry_space_group_name_H-M   'P 1'
_cell_length_a   7.06521182
_cell_length_b   7.06521182
_cell_length_c   4.95698703
_cell_angle_alpha   89.75306988
_cell_angle_beta   89.75306988
_cell_angle_gamma   101.77802378
_symmetry_Int_Tables_number   1
_chemical_formula_structural   Mn4O7F
_chemical_formula_sum   'Mn8 O14 F2'
_cell_volume   242.22370765
_cell_formula_units_Z   2
loop_
 _symmetry_equiv_pos_site_id
 _symmetry_equiv_pos_as_xyz
  1  'x, y, z'
loop_
 _atom_site_type_symbol
 _atom_site_label
 _atom_site_symmetry_multiplicity
 _atom_site_fract_x
 _atom_site_fract_y
 _atom_site_fract_z
 _atom_site_occupancy
  Mn  Mn0  1  0.42960728  0.06639653  0.27045238  1
  Mn  Mn1  1  0.07192402  0.42693250  0.74373755  1
  Mn  Mn2  1  0.93429732  0.07938064  0.23415856  1
  Mn  Mn3  1  0.57938064  0.43429732  0.73415856  1
  Mn  Mn4  1  0.41888120  0.58463202  0.25285717  1
  Mn  Mn5  1  0.08463202  0.91888120  0.75285717  1
  Mn  Mn6  1  0.56639653  0.92960728  0.77045238  1
  Mn  Mn7  1  0.92693250  0.57192402  0.24373755  1
  O  O8  1  0.06052097  0.17188239  0.91332518  1
  O  O9  1  0.17169513  0.06046726  0.42220762  1
  O  O10  1  0.67298776  0.06227655  0.08970069  1
  O  O11  1  0.06038155  0.66754358  0.56918477  1
  O  O12  1  0.16754358  0.56038155  0.06918477  1
  O  O13  1  0.56227655  0.17298776  0.58970069  1
  O  O14  1  0.32814345  0.43700212  0.57413130  1
  O  O15  1  0.56046726  0.67169513  0.92220762  1
  O  O16  1  0.67188239  0.56052097  0.41332518  1
  O  O17  1  0.33485933  0.93808437  0.94456031  1
  O  O18  1  0.43808437  0.83485933  0.44456031  1
  O  O19  1  0.93704045  0.32748163  0.41415674  1
  O  O20  1  0.82748163  0.43704045  0.91415674  1
  O  O21  1  0.93700212  0.82814345  0.07413130  1
  F  F22  1  0.44037380  0.31720815  0.07152672  1
  F  F23  1  0.81720815  0.94037380  0.57152672  1
