# generated using pymatgen
data_Li2Mn3(BO3)3
_symmetry_space_group_name_H-M   'P 1'
_cell_length_a   9.29052862
_cell_length_b   5.26676140
_cell_length_c   8.25261404
_cell_angle_alpha   88.60636110
_cell_angle_beta   75.73219220
_cell_angle_gamma   106.18888474
_symmetry_Int_Tables_number   1
_chemical_formula_structural   Li2Mn3(BO3)3
_chemical_formula_sum   'Li4 Mn6 B6 O18'
_cell_volume   373.95256419
_cell_formula_units_Z   2
loop_
 _symmetry_equiv_pos_site_id
 _symmetry_equiv_pos_as_xyz
  1  'x, y, z'
loop_
 _atom_site_type_symbol
 _atom_site_label
 _atom_site_symmetry_multiplicity
 _atom_site_fract_x
 _atom_site_fract_y
 _atom_site_fract_z
 _atom_site_occupancy
  Li  Li0  1  0.95916948  0.31817414  0.29437426  1
  Li  Li1  1  0.63882271  0.66234091  0.95742352  1
  Li  Li2  1  0.36117729  0.33765909  0.04257648  1
  Li  Li3  1  0.04083052  0.68182586  0.70562574  1
  Mn  Mn4  1  0.78468374  0.21001109  0.03403401  1
  Mn  Mn5  1  0.87950604  0.11920246  0.63349167  1
  Mn  Mn6  1  0.55635677  0.44945576  0.31115608  1
  Mn  Mn7  1  0.44364323  0.55054424  0.68884392  1
  Mn  Mn8  1  0.12049396  0.88079754  0.36650833  1
  Mn  Mn9  1  0.21531626  0.78998891  0.96596599  1
  B  B10  1  0.89597990  0.77752536  0.14433082  1
  B  B11  1  0.77779130  0.56257519  0.52339866  1
  B  B12  1  0.44590341  0.89360040  0.17425095  1
  B  B13  1  0.55409659  0.10639960  0.82574905  1
  B  B14  1  0.22220870  0.43742481  0.47660134  1
  B  B15  1  0.10402010  0.22247464  0.85566918  1
  O  O16  1  0.89980965  0.03513025  0.16171826  1
  O  O17  1  0.98326037  0.31554205  0.82547675  1
  O  O18  1  0.89751713  0.74961598  0.57021984  1
  O  O19  1  0.77167567  0.59280286  0.10432103  1
  O  O20  1  0.79088784  0.31775083  0.49007288  1
  O  O21  1  0.65001473  0.63240911  0.49980171  1
  O  O22  1  0.56709435  0.09575119  0.20314585  1
  O  O23  1  0.68307534  0.03040535  0.84644492  1
  O  O24  1  0.45367656  0.64052422  0.15318548  1
  O  O25  1  0.54632344  0.35947578  0.84681452  1
  O  O26  1  0.31692466  0.96959465  0.15355508  1
  O  O27  1  0.43290565  0.90424881  0.79685415  1
  O  O28  1  0.34998527  0.36759089  0.50019829  1
  O  O29  1  0.20911216  0.68224917  0.50992712  1
  O  O30  1  0.22832433  0.40719714  0.89567897  1
  O  O31  1  0.10248287  0.25038402  0.42978016  1
  O  O32  1  0.01673963  0.68445795  0.17452325  1
  O  O33  1  0.10019035  0.96486975  0.83828174  1
