# generated using pymatgen
data_Li3Mn3(PO4)4
_symmetry_space_group_name_H-M   'P 1'
_cell_length_a   5.01021804
_cell_length_b   6.70587588
_cell_length_c   9.90291531
_cell_angle_alpha   78.19220085
_cell_angle_beta   87.36789752
_cell_angle_gamma   74.15289633
_symmetry_Int_Tables_number   1
_chemical_formula_structural   Li3Mn3(PO4)4
_chemical_formula_sum   'Li3 Mn3 P4 O16'
_cell_volume   313.28147601
_cell_formula_units_Z   1
loop_
 _symmetry_equiv_pos_site_id
 _symmetry_equiv_pos_as_xyz
  1  'x, y, z'
loop_
 _atom_site_type_symbol
 _atom_site_label
 _atom_site_symmetry_multiplicity
 _atom_site_fract_x
 _atom_site_fract_y
 _atom_site_fract_z
 _atom_site_occupancy
  Li  Li0  1  0.00000000  0.00000000  0.00000000  1
  Li  Li1  1  0.99625125  0.20811018  0.47213077  1
  Li  Li2  1  0.00374875  0.79188982  0.52786823  1
  Mn  Mn3  1  0.01080277  0.43455035  0.15741733  1
  Mn  Mn4  1  0.50000000  0.50000000  0.00000000  1
  Mn  Mn5  1  0.98919723  0.56544965  0.84258267  1
  P  P6  1  0.54302909  0.31601420  0.72583481  1
  P  P7  1  0.58174255  0.09800834  0.26716761  1
  P  P8  1  0.41825745  0.90199166  0.73283239  1
  P  P9  1  0.45697091  0.68398580  0.27416519  1
  O  O10  1  0.28588912  0.23740532  0.29093499  1
  O  O11  1  0.25310795  0.47756275  0.70236389  1
  O  O12  1  0.21731898  0.36420011  0.99389809  1
  O  O13  1  0.26690039  0.79664346  0.85858442  1
  O  O14  1  0.29882077  0.65093420  0.14839783  1
  O  O15  1  0.47772523  0.09233384  0.79489834  1
  O  O16  1  0.28380307  0.69389977  0.39843932  1
  O  O17  1  0.24345317  0.97784275  0.60425990  1
  O  O18  1  0.75654683  0.02215725  0.39574010  1
  O  O19  1  0.71619693  0.30610023  0.60156068  1
  O  O20  1  0.52227477  0.90766616  0.20510166  1
  O  O21  1  0.70117923  0.34906580  0.85160217  1
  O  O22  1  0.73309961  0.20335654  0.14141558  1
  O  O23  1  0.78268102  0.63579989  0.00610191  1
  O  O24  1  0.74689205  0.52243725  0.29763611  1
  O  O25  1  0.71411088  0.76259468  0.70906501  1
