# generated using pymatgen
data_Li4Mn(PO3)6
_symmetry_space_group_name_H-M   'P 1'
_cell_length_a   7.38441180
_cell_length_b   7.32107185
_cell_length_c   7.52746851
_cell_angle_alpha   65.55837591
_cell_angle_beta   106.17656564
_cell_angle_gamma   82.78030815
_symmetry_Int_Tables_number   1
_chemical_formula_structural   Li4Mn(PO3)6
_chemical_formula_sum   'Li4 Mn1 P6 O18'
_cell_volume   342.03359768
_cell_formula_units_Z   1
loop_
 _symmetry_equiv_pos_site_id
 _symmetry_equiv_pos_as_xyz
  1  'x, y, z'
loop_
 _atom_site_type_symbol
 _atom_site_label
 _atom_site_symmetry_multiplicity
 _atom_site_fract_x
 _atom_site_fract_y
 _atom_site_fract_z
 _atom_site_occupancy
  Li  Li0  1  0.15435661  0.62622301  0.55532734  1
  Li  Li1  1  0.52400764  0.51524031  0.99915143  1
  Li  Li2  1  0.83905780  0.37661247  0.43670499  1
  Li  Li3  1  0.88408422  0.75416916  0.08229771  1
  Mn  Mn4  1  0.09988055  0.19303629  0.95779208  1
  P  P5  1  0.23545405  0.97232143  0.70003588  1
  P  P6  1  0.21344609  0.33090520  0.32687839  1
  P  P7  1  0.49887630  0.22971139  0.72710492  1
  P  P8  1  0.49942462  0.78339840  0.26602858  1
  P  P9  1  0.78103941  0.66722886  0.67587075  1
  P  P10  1  0.77892692  0.02344460  0.30200472  1
  O  O11  1  0.07609963  0.08922953  0.73543449  1
  O  O12  1  0.06237809  0.48974598  0.32741355  1
  O  O13  1  0.19352126  0.09846122  0.45143663  1
  O  O14  1  0.26499271  0.74682018  0.76081228  1
  O  O15  1  0.36630901  0.36640553  0.77017340  1
  O  O16  1  0.44539829  0.00578387  0.79740208  1
  O  O17  1  0.21978791  0.34878586  0.12284450  1
  O  O18  1  0.27954472  0.85639518  0.17213675  1
  O  O19  1  0.42834208  0.31602108  0.47132247  1
  O  O20  1  0.56595024  0.69184900  0.51923762  1
  O  O21  1  0.71582703  0.18705715  0.81163870  1
  O  O22  1  0.76437199  0.64441911  0.87632520  1
  O  O23  1  0.56808894  0.99564832  0.19864494  1
  O  O24  1  0.61358188  0.63296170  0.22211047  1
  O  O25  1  0.74706143  0.24851482  0.24770503  1
  O  O26  1  0.81442197  0.89261050  0.55085668  1
  O  O27  1  0.93250597  0.50303764  0.67858100  1
  O  O28  1  0.93326163  0.91396424  0.25672344  1
