# generated using pymatgen
data_LiVP4(H2O3)6
_symmetry_space_group_name_H-M   'P 1'
_cell_length_a   7.34928155
_cell_length_b   7.34928155
_cell_length_c   14.24585923
_cell_angle_alpha   93.99599398
_cell_angle_beta   86.00400602
_cell_angle_gamma   70.13749404
_symmetry_Int_Tables_number   1
_chemical_formula_structural   LiVP4(H2O3)6
_chemical_formula_sum   'Li2 V2 P8 H24 O36'
_cell_volume   718.33006981
_cell_formula_units_Z   2
loop_
 _symmetry_equiv_pos_site_id
 _symmetry_equiv_pos_as_xyz
  1  'x, y, z'
loop_
 _atom_site_type_symbol
 _atom_site_label
 _atom_site_symmetry_multiplicity
 _atom_site_fract_x
 _atom_site_fract_y
 _atom_site_fract_z
 _atom_site_occupancy
  Li  Li0  1  0.46558891  0.46558891  0.75000000  1
  Li  Li1  1  0.53441109  0.53441109  0.25000000  1
  V  V2  1  0.86406037  0.86406037  0.75000000  1
  V  V3  1  0.13593963  0.13593963  0.25000000  1
  P  P4  1  0.18792735  0.98290999  0.59586320  1
  P  P5  1  0.01709001  0.81207265  0.09586320  1
  P  P6  1  0.28098462  0.79813643  0.92254284  1
  P  P7  1  0.20186357  0.71901538  0.42254284  1
  P  P8  1  0.79813643  0.28098462  0.57745716  1
  P  P9  1  0.71901538  0.20186357  0.07745716  1
  P  P10  1  0.98290999  0.18792735  0.90413680  1
  P  P11  1  0.81207265  0.01709001  0.40413680  1
  H  H12  1  0.00461022  0.48239059  0.76958452  1
  H  H13  1  0.51760941  0.99538978  0.26958452  1
  H  H14  1  0.12678817  0.51721593  0.67833541  1
  H  H15  1  0.48278407  0.87321183  0.17833541  1
  H  H16  1  0.61818908  0.89058092  0.61291075  1
  H  H17  1  0.10941908  0.38181092  0.11291075  1
  H  H18  1  0.31190539  0.46615462  0.56463621  1
  H  H19  1  0.53384538  0.68809461  0.06463621  1
  H  H20  1  0.27818023  0.34781822  0.87964677  1
  H  H21  1  0.67233639  0.77016209  0.90064962  1
  H  H22  1  0.65218178  0.72181977  0.37964677  1
  H  H23  1  0.22983791  0.32766361  0.40064962  1
  H  H24  1  0.77016209  0.67233639  0.59935038  1
  H  H25  1  0.34781822  0.27818023  0.62035323  1
  H  H26  1  0.32766361  0.22983791  0.09935038  1
  H  H27  1  0.72181977  0.65218178  0.12035323  1
  H  H28  1  0.46615462  0.31190539  0.93536379  1
  H  H29  1  0.68809461  0.53384538  0.43536379  1
  H  H30  1  0.89058092  0.61818908  0.88708925  1
  H  H31  1  0.38181092  0.10941908  0.38708925  1
  H  H32  1  0.51721593  0.12678817  0.82166459  1
  H  H33  1  0.87321183  0.48278407  0.32166459  1
  H  H34  1  0.48239059  0.00461022  0.73041548  1
  H  H35  1  0.99538978  0.51760941  0.23041548  1
  O  O36  1  0.08711422  0.88573009  0.66027626  1
  O  O37  1  0.11426991  0.91288578  0.16027626  1
  O  O38  1  0.26454203  0.72026902  0.82487965  1
  O  O39  1  0.27973098  0.73545797  0.32487965  1
  O  O40  1  0.15096580  0.72301836  0.99806719  1
  O  O41  1  0.27698164  0.84903420  0.49806719  1
  O  O42  1  0.99418691  0.56832127  0.71811778  1
  O  O43  1  0.43167873  0.00581309  0.21811778  1
  O  O44  1  0.03920860  0.35368635  0.87036124  1
  O  O45  1  0.47763125  0.75500244  0.95799756  1
  O  O46  1  0.64631365  0.96079140  0.37036124  1
  O  O47  1  0.24499756  0.52236875  0.45799756  1
  O  O48  1  0.32899367  0.41932746  0.62927704  1
  O  O49  1  0.03331173  0.17396936  0.56168567  1
  O  O50  1  0.58067254  0.67100633  0.12927704  1
  O  O51  1  0.82603064  0.96668827  0.06168567  1
  O  O52  1  0.75064216  0.80972301  0.62462832  1
  O  O53  1  0.19027699  0.24935784  0.12462832  1
  O  O54  1  0.80972301  0.75064216  0.87537168  1
  O  O55  1  0.24935784  0.19027699  0.37537168  1
  O  O56  1  0.17396936  0.03331173  0.93831433  1
  O  O57  1  0.41932746  0.32899367  0.87072296  1
  O  O58  1  0.96668827  0.82603064  0.43831433  1
  O  O59  1  0.67100633  0.58067254  0.37072296  1
  O  O60  1  0.75500244  0.47763125  0.54200244  1
  O  O61  1  0.35368635  0.03920860  0.62963876  1
  O  O62  1  0.52236875  0.24499756  0.04200144  1
  O  O63  1  0.96079140  0.64631365  0.12963876  1
  O  O64  1  0.56832127  0.99418691  0.78188222  1
  O  O65  1  0.00581309  0.43167873  0.28188222  1
  O  O66  1  0.72301836  0.15096580  0.50193281  1
  O  O67  1  0.84903420  0.27698164  0.00193281  1
  O  O68  1  0.72026902  0.26454203  0.67512035  1
  O  O69  1  0.73545797  0.27973098  0.17512035  1
  O  O70  1  0.88573009  0.08711422  0.83972374  1
  O  O71  1  0.91288578  0.11426991  0.33972374  1
