# generated using pymatgen
data_Li5(NiO2)4
_symmetry_space_group_name_H-M   'P 1'
_cell_length_a   5.98656162
_cell_length_b   5.76395985
_cell_length_c   9.65321530
_cell_angle_alpha   89.95838934
_cell_angle_beta   89.70946027
_cell_angle_gamma   61.37269858
_symmetry_Int_Tables_number   1
_chemical_formula_structural   Li5(NiO2)4
_chemical_formula_sum   'Li10 Ni8 O16'
_cell_volume   292.37295551
_cell_formula_units_Z   2
loop_
 _symmetry_equiv_pos_site_id
 _symmetry_equiv_pos_as_xyz
  1  'x, y, z'
loop_
 _atom_site_type_symbol
 _atom_site_label
 _atom_site_symmetry_multiplicity
 _atom_site_fract_x
 _atom_site_fract_y
 _atom_site_fract_z
 _atom_site_occupancy
  Li  Li0  1  0.97178269  0.01038339  0.48582493  1
  Li  Li1  1  0.02778242  0.98325554  0.98562585  1
  Li  Li2  1  0.19676032  0.18688887  0.55786581  1
  Li  Li3  1  0.35607144  0.32143381  0.78230509  1
  Li  Li4  1  0.59029390  0.20475111  0.54320338  1
  Li  Li5  1  0.20599409  0.61842986  0.55917492  1
  Li  Li6  1  0.80656822  0.38387237  0.05792458  1
  Li  Li7  1  0.64303495  0.67782208  0.28253892  1
  Li  Li8  1  0.40924135  0.79572217  0.04317827  1
  Li  Li9  1  0.79789591  0.82146736  0.05955084  1
  Ni  Ni10  1  0.33273585  0.33423142  0.03402083  1
  Ni  Ni11  1  0.66563456  0.66665306  0.53324058  1
  Ni  Ni12  1  0.15017991  0.17731231  0.28613089  1
  Ni  Ni13  1  0.64180908  0.17937976  0.28635869  1
  Ni  Ni14  1  0.15098985  0.67138922  0.28616704  1
  Ni  Ni15  1  0.84913008  0.32803825  0.78596453  1
  Ni  Ni16  1  0.35790111  0.82093639  0.78691569  1
  Ni  Ni17  1  0.84847724  0.82265605  0.78573245  1
  O  O18  1  0.01680409  0.98560792  0.68126885  1
  O  O19  1  0.98194444  0.00049201  0.18111009  1
  O  O20  1  0.19159132  0.15744659  0.91307666  1
  O  O21  1  0.47621904  0.02771999  0.15934602  1
  O  O22  1  0.70537395  0.14057028  0.90291317  1
  O  O23  1  0.01359369  0.50073844  0.16718175  1
  O  O24  1  0.30872505  0.35256643  0.39914647  1
  O  O25  1  0.48394662  0.49332614  0.15704058  1
  O  O26  1  0.80834617  0.34824452  0.41221417  1
  O  O27  1  0.19937226  0.64755217  0.91142832  1
  O  O28  1  0.52412137  0.50262381  0.65874910  1
  O  O29  1  0.98520652  0.51268590  0.66711337  1
  O  O30  1  0.69228411  0.65939187  0.89920812  1
  O  O31  1  0.29505020  0.84264798  0.40406024  1
  O  O32  1  0.51708551  0.97591628  0.65719755  1
  O  O33  1  0.79842571  0.84746165  0.41185924  1
