# generated using pymatgen
data_Li3MnV(PO4)3
_symmetry_space_group_name_H-M   'P 1'
_cell_length_a   8.65192466
_cell_length_b   8.65192507
_cell_length_c   6.33491541
_cell_angle_alpha   74.10233529
_cell_angle_beta   105.89766743
_cell_angle_gamma   84.80665319
_symmetry_Int_Tables_number   1
_chemical_formula_structural   Li3MnV(PO4)3
_chemical_formula_sum   'Li6 Mn2 V2 P6 O24'
_cell_volume   431.54207485
_cell_formula_units_Z   2
loop_
 _symmetry_equiv_pos_site_id
 _symmetry_equiv_pos_as_xyz
  1  'x, y, z'
loop_
 _atom_site_type_symbol
 _atom_site_label
 _atom_site_symmetry_multiplicity
 _atom_site_fract_x
 _atom_site_fract_y
 _atom_site_fract_z
 _atom_site_occupancy
  Li  Li0  1  0.00169009  0.00169009  0.75000000  1
  Li  Li1  1  0.28933232  0.28933232  0.25000000  1
  Li  Li2  1  0.49947542  0.50201793  0.49701953  1
  Li  Li3  1  0.50201793  0.49947542  0.00298047  1
  Li  Li4  1  0.71103904  0.71103904  0.75000000  1
  Li  Li5  1  0.99608459  0.99608459  0.25000000  1
  Mn  Mn6  1  0.37469467  0.94229255  0.13006106  1
  Mn  Mn7  1  0.94229255  0.37469467  0.36993894  1
  V  V8  1  0.05699373  0.62229197  0.64158643  1
  V  V9  1  0.62229197  0.05699373  0.85841357  1
  P  P10  1  0.28700290  0.28700290  0.75000000  1
  P  P11  1  0.13435504  0.66531638  0.13609653  1
  P  P12  1  0.33917311  0.86140892  0.63554575  1
  P  P13  1  0.66531638  0.13435504  0.36390347  1
  P  P14  1  0.86140892  0.33917311  0.86445425  1
  P  P15  1  0.71388655  0.71388655  0.25000000  1
  O  O16  1  0.01036186  0.65565581  0.91099927  1
  O  O17  1  0.05236402  0.60990868  0.32976351  1
  O  O18  1  0.26311382  0.17194802  0.97189052  1
  O  O19  1  0.17194802  0.26311382  0.52810948  1
  O  O20  1  0.15742625  0.84195745  0.61210555  1
  O  O21  1  0.26343196  0.46101779  0.77277386  1
  O  O22  1  0.14546797  0.85032973  0.09396399  1
  O  O23  1  0.29566546  0.54869645  0.20476488  1
  O  O24  1  0.40072939  0.95229310  0.82291279  1
  O  O25  1  0.33646326  0.98502392  0.40311963  1
  O  O26  1  0.46101779  0.26343196  0.72722614  1
  O  O27  1  0.45739081  0.70154506  0.70741441  1
  O  O28  1  0.54869645  0.29566546  0.29523512  1
  O  O29  1  0.53697838  0.73851911  0.26742379  1
  O  O30  1  0.65565581  0.01036186  0.58900073  1
  O  O31  1  0.60990868  0.05236402  0.17023649  1
  O  O32  1  0.70154506  0.45739081  0.79258559  1
  O  O33  1  0.84195745  0.15742625  0.88789445  1
  O  O34  1  0.73851911  0.53697838  0.23257621  1
  O  O35  1  0.85032973  0.14546797  0.40603601  1
  O  O36  1  0.82598236  0.74067413  0.46911933  1
  O  O37  1  0.74067413  0.82598236  0.03088067  1
  O  O38  1  0.95229310  0.40072939  0.67708721  1
  O  O39  1  0.98502392  0.33646326  0.09688037  1
