# generated using pymatgen
data_Fe10O11F9
_symmetry_space_group_name_H-M   'P 1'
_cell_length_a   4.74427116
_cell_length_b   4.74339852
_cell_length_c   15.38824660
_cell_angle_alpha   90.05863442
_cell_angle_beta   89.98501852
_cell_angle_gamma   90.71818011
_symmetry_Int_Tables_number   1
_chemical_formula_structural   Fe10O11F9
_chemical_formula_sum   'Fe10 O11 F9'
_cell_volume   346.26922565
_cell_formula_units_Z   1
loop_
 _symmetry_equiv_pos_site_id
 _symmetry_equiv_pos_as_xyz
  1  'x, y, z'
loop_
 _atom_site_type_symbol
 _atom_site_label
 _atom_site_symmetry_multiplicity
 _atom_site_fract_x
 _atom_site_fract_y
 _atom_site_fract_z
 _atom_site_occupancy
  Fe  Fe0  1  0.98922244  0.98602227  0.00048050  1
  Fe  Fe1  1  0.03220864  0.02743250  0.19902844  1
  Fe  Fe2  1  0.98887524  0.94578461  0.39864613  1
  Fe  Fe3  1  0.04829971  0.00165143  0.60005911  1
  Fe  Fe4  1  0.04147378  0.00011038  0.80137490  1
  Fe  Fe5  1  0.52391425  0.45524962  0.09429691  1
  Fe  Fe6  1  0.48205870  0.51812814  0.50005473  1
  Fe  Fe7  1  0.47548715  0.52716365  0.29670710  1
  Fe  Fe8  1  0.45972846  0.49707827  0.70295497  1
  Fe  Fe9  1  0.46537670  0.51364841  0.90741550  1
  O  O10  1  0.18500029  0.81175593  0.29661032  1
  O  O11  1  0.18839551  0.80322719  0.49895047  1
  O  O12  1  0.20286392  0.81799664  0.70102693  1
  O  O13  1  0.18435733  0.81264523  0.90229895  1
  O  O14  1  0.29748844  0.28965449  0.00129105  1
  O  O15  1  0.32463752  0.31199616  0.19795684  1
  O  O16  1  0.31373898  0.31750961  0.59916338  1
  O  O17  1  0.30269088  0.31728892  0.80334007  1
  O  O18  1  0.69144733  0.68472960  0.00158949  1
  O  O19  1  0.67332059  0.68097983  0.39816323  1
  O  O20  1  0.82310999  0.17732827  0.10161010  1
  F  F21  1  0.20917461  0.79273068  0.10231797  1
  F  F22  1  0.28690506  0.29772570  0.39832209  1
  F  F23  1  0.70897967  0.69847147  0.19917739  1
  F  F24  1  0.70147516  0.70754748  0.60086696  1
  F  F25  1  0.69603189  0.70809940  0.79992479  1
  F  F26  1  0.80021059  0.19443695  0.49863739  1
  F  F27  1  0.79985894  0.19778927  0.30056956  1
  F  F28  1  0.79605335  0.19784024  0.89745192  1
  F  F29  1  0.80761190  0.20797765  0.69971180  1
