# generated using pymatgen
data_TaNbO5
_symmetry_space_group_name_H-M   'P 1'
_cell_length_a   14.44523384
_cell_length_b   5.70446818
_cell_length_c   14.38985306
_cell_angle_alpha   90.00000000
_cell_angle_beta   120.18676788
_cell_angle_gamma   90.00000000
_symmetry_Int_Tables_number   1
_chemical_formula_structural   TaNbO5
_chemical_formula_sum   'Ta8 Nb8 O40'
_cell_volume   1024.95856291
_cell_formula_units_Z   8
loop_
 _symmetry_equiv_pos_site_id
 _symmetry_equiv_pos_as_xyz
  1  'x, y, z'
loop_
 _atom_site_type_symbol
 _atom_site_label
 _atom_site_symmetry_multiplicity
 _atom_site_fract_x
 _atom_site_fract_y
 _atom_site_fract_z
 _atom_site_occupancy
  Ta  Ta0  1  0.15426536  0.73367989  0.56172636  1
  Ta  Ta1  1  0.34559657  0.23924985  0.90655553  1
  Ta  Ta2  1  0.15426536  0.76632011  0.06172636  1
  Ta  Ta3  1  0.34559657  0.26075015  0.40655553  1
  Ta  Ta4  1  0.65440343  0.73924985  0.59344447  1
  Ta  Ta5  1  0.84573464  0.23367989  0.93827364  1
  Ta  Ta6  1  0.65440343  0.76075015  0.09344447  1
  Ta  Ta7  1  0.84573464  0.26632011  0.43827364  1
  Nb  Nb8  1  0.05699729  0.25801098  0.85337995  1
  Nb  Nb9  1  0.05699729  0.24198902  0.35337995  1
  Nb  Nb10  1  0.44287218  0.74710965  0.79657407  1
  Nb  Nb11  1  0.55712782  0.24710965  0.70342593  1
  Nb  Nb12  1  0.44287218  0.75289035  0.29657407  1
  Nb  Nb13  1  0.55712782  0.25289035  0.20342593  1
  Nb  Nb14  1  0.94300271  0.75801098  0.64662005  1
  Nb  Nb15  1  0.94300271  0.74198902  0.14662005  1
  O  O16  1  0.00750057  0.97150752  0.76590547  1
  O  O17  1  0.11269958  0.53525760  0.95853557  1
  O  O18  1  0.07315539  0.75666455  0.62953836  1
  O  O19  1  0.19870702  0.25102006  0.86126178  1
  O  O20  1  0.00750057  0.52849248  0.26590547  1
  O  O21  1  0.11269958  0.96474240  0.45853557  1
  O  O22  1  0.12860704  0.44732322  0.49340244  1
  O  O23  1  0.37979132  0.95303448  0.87124729  1
  O  O24  1  0.37701818  0.47070910  0.83722262  1
  O  O25  1  0.30096383  0.77191226  0.66261188  1
  O  O26  1  0.07315539  0.74333545  0.12953836  1
  O  O27  1  0.19870702  0.24897994  0.36126178  1
  O  O28  1  0.57243749  0.71671697  0.94453658  1
  O  O29  1  0.49905076  0.02419398  0.76246777  1
  O  O30  1  0.50094924  0.52419398  0.73753223  1
  O  O31  1  0.12860704  0.05267678  0.99340244  1
  O  O32  1  0.42756251  0.21671697  0.55546342  1
  O  O33  1  0.37979132  0.54696552  0.37124729  1
  O  O34  1  0.37701818  0.02929090  0.33722262  1
  O  O35  1  0.30096383  0.72808774  0.16261188  1
  O  O36  1  0.69903617  0.27191226  0.83738812  1
  O  O37  1  0.62298182  0.97070910  0.66277738  1
  O  O38  1  0.62020868  0.45303448  0.62875271  1
  O  O39  1  0.57243749  0.78328303  0.44453658  1
  O  O40  1  0.87139296  0.94732322  0.00659756  1
  O  O41  1  0.49905076  0.47580602  0.26246777  1
  O  O42  1  0.50094924  0.97580602  0.23753223  1
  O  O43  1  0.42756251  0.28328303  0.05546342  1
  O  O44  1  0.80129298  0.75102006  0.63873822  1
  O  O45  1  0.92684461  0.25666455  0.87046164  1
  O  O46  1  0.69903617  0.22808774  0.33738812  1
  O  O47  1  0.62298182  0.52929090  0.16277738  1
  O  O48  1  0.62020868  0.04696552  0.12875271  1
  O  O49  1  0.87139296  0.55267678  0.50659756  1
  O  O50  1  0.88730042  0.03525760  0.54146443  1
  O  O51  1  0.99249943  0.47150752  0.73409453  1
  O  O52  1  0.80129298  0.74897994  0.13873822  1
  O  O53  1  0.92684461  0.24333545  0.37046164  1
  O  O54  1  0.88730042  0.46474240  0.04146443  1
  O  O55  1  0.99249943  0.02849248  0.23409453  1
