# generated using pymatgen
data_LiMn3(P3O10)2
_symmetry_space_group_name_H-M   'P 1'
_cell_length_a   8.61391115
_cell_length_b   8.61391115
_cell_length_c   12.31518172
_cell_angle_alpha   90.00000000
_cell_angle_beta   90.00000000
_cell_angle_gamma   73.54275930
_symmetry_Int_Tables_number   1
_chemical_formula_structural   LiMn3(P3O10)2
_chemical_formula_sum   'Li2 Mn6 P12 O40'
_cell_volume   876.34363865
_cell_formula_units_Z   2
loop_
 _symmetry_equiv_pos_site_id
 _symmetry_equiv_pos_as_xyz
  1  'x, y, z'
loop_
 _atom_site_type_symbol
 _atom_site_label
 _atom_site_symmetry_multiplicity
 _atom_site_fract_x
 _atom_site_fract_y
 _atom_site_fract_z
 _atom_site_occupancy
  Li  Li0  1  0.10466165  0.89533835  0.00000000  1
  Li  Li1  1  0.60466165  0.39533835  0.50000000  1
  Mn  Mn2  1  0.38010886  0.61989114  0.00000000  1
  Mn  Mn3  1  0.32364672  0.22952275  0.21311605  1
  Mn  Mn4  1  0.77047725  0.67635328  0.78688395  1
  Mn  Mn5  1  0.27047725  0.17635328  0.71311605  1
  Mn  Mn6  1  0.82364672  0.72952275  0.28688395  1
  Mn  Mn7  1  0.88010886  0.11989114  0.50000000  1
  P  P8  1  0.40783588  0.86219900  0.30362514  1
  P  P9  1  0.13780100  0.59216412  0.69637486  1
  P  P10  1  0.35636427  0.77931580  0.78175636  1
  P  P11  1  0.22068420  0.64363573  0.21824364  1
  P  P12  1  0.37379436  0.24202098  0.94645961  1
  P  P13  1  0.75797902  0.62620564  0.05354039  1
  P  P14  1  0.25797902  0.12620564  0.44645961  1
  P  P15  1  0.87379436  0.74202098  0.55354039  1
  P  P16  1  0.63780100  0.09216412  0.80362514  1
  P  P17  1  0.90783588  0.36219900  0.19637486  1
  P  P18  1  0.72068420  0.14363573  0.28175636  1
  P  P19  1  0.85636427  0.27931580  0.71824364  1
  O  O20  1  0.32731548  0.98583998  0.22013278  1
  O  O21  1  0.01416002  0.67268452  0.77986722  1
  O  O22  1  0.06403374  0.65203900  0.27521555  1
  O  O23  1  0.34796100  0.93596626  0.72478445  1
  O  O24  1  0.37073919  0.94128086  0.42308943  1
  O  O25  1  0.05871914  0.62926081  0.57691057  1
  O  O26  1  0.20492586  0.74188022  0.11061700  1
  O  O27  1  0.25811978  0.79507414  0.88938300  1
  O  O28  1  0.27846137  0.68106873  0.69420838  1
  O  O29  1  0.31893127  0.72153863  0.30579162  1
  O  O30  1  0.72009477  0.91443246  0.79874954  1
  O  O31  1  0.58556754  0.77990523  0.29874954  1
  O  O32  1  0.08556754  0.27990523  0.20125046  1
  O  O33  1  0.22009477  0.41443246  0.70125046  1
  O  O34  1  0.52720950  0.67316192  0.80793150  1
  O  O35  1  0.32683808  0.47279050  0.19206850  1
  O  O36  1  0.82683808  0.97279050  0.30793150  1
  O  O37  1  0.02720950  0.17316192  0.69206850  1
  O  O38  1  0.58326378  0.62777232  0.07051601  1
  O  O39  1  0.87222768  0.91673622  0.57051601  1
  O  O40  1  0.08326378  0.12777232  0.42948399  1
  O  O41  1  0.37222768  0.41673622  0.92948399  1
  O  O42  1  0.75754283  0.68844162  0.63168083  1
  O  O43  1  0.31155838  0.24245717  0.36831917  1
  O  O44  1  0.81155838  0.74245717  0.13168083  1
  O  O45  1  0.25754283  0.18844162  0.86831917  1
  O  O46  1  0.83532320  0.69368983  0.44104198  1
  O  O47  1  0.33532320  0.19368983  0.05895802  1
  O  O48  1  0.30631017  0.16467680  0.55895802  1
  O  O49  1  0.80631017  0.66467680  0.94104198  1
  O  O50  1  0.51416002  0.17268452  0.72013278  1
  O  O51  1  0.82731548  0.48583998  0.27986722  1
  O  O52  1  0.56403374  0.15203900  0.22478445  1
  O  O53  1  0.84796100  0.43596626  0.77521555  1
  O  O54  1  0.87073919  0.44128086  0.07691057  1
  O  O55  1  0.55871914  0.12926081  0.92308943  1
  O  O56  1  0.75811978  0.29507414  0.61061700  1
  O  O57  1  0.70492586  0.24188022  0.38938300  1
  O  O58  1  0.81893127  0.22153863  0.19420838  1
  O  O59  1  0.77846137  0.18106873  0.80579162  1
