# generated using pymatgen
data_Mn4O7F
_symmetry_space_group_name_H-M   'P 1'
_cell_length_a   7.00010229
_cell_length_b   7.17883663
_cell_length_c   4.96270917
_cell_angle_alpha   90.00000000
_cell_angle_beta   90.00000000
_cell_angle_gamma   101.75950030
_symmetry_Int_Tables_number   1
_chemical_formula_structural   Mn4O7F
_chemical_formula_sum   'Mn8 O14 F2'
_cell_volume   244.15474017
_cell_formula_units_Z   2
loop_
 _symmetry_equiv_pos_site_id
 _symmetry_equiv_pos_as_xyz
  1  'x, y, z'
loop_
 _atom_site_type_symbol
 _atom_site_label
 _atom_site_symmetry_multiplicity
 _atom_site_fract_x
 _atom_site_fract_y
 _atom_site_fract_z
 _atom_site_occupancy
  Mn  Mn0  1  0.42596208  0.06401610  0.26434159  1
  Mn  Mn1  1  0.07814281  0.41287206  0.74571636  1
  Mn  Mn2  1  0.92593120  0.06987095  0.26194111  1
  Mn  Mn3  1  0.57765852  0.43291869  0.72852595  1
  Mn  Mn4  1  0.42185719  0.58712794  0.24571636  1
  Mn  Mn5  1  0.07403792  0.93598390  0.76434159  1
  Mn  Mn6  1  0.57406880  0.93012905  0.76194111  1
  Mn  Mn7  1  0.92234148  0.56708131  0.22852595  1
  O  O8  1  0.05974874  0.16593879  0.93559190  1
  O  O9  1  0.17327850  0.06498940  0.43494488  1
  O  O10  1  0.67223961  0.06137147  0.08967224  1
  O  O11  1  0.17115484  0.55803427  0.06647075  1
  O  O12  1  0.55929611  0.17112958  0.58368702  1
  O  O13  1  0.32884516  0.44196573  0.56647075  1
  O  O14  1  0.55988181  0.67175425  0.91406737  1
  O  O15  1  0.67287857  0.55963376  0.40589011  1
  O  O16  1  0.32672150  0.93501060  0.93494488  1
  O  O17  1  0.44025126  0.83406121  0.43559190  1
  O  O18  1  0.94011819  0.32824575  0.41406737  1
  O  O19  1  0.82712143  0.44036624  0.90589011  1
  O  O20  1  0.94070389  0.82887042  0.08368702  1
  O  O21  1  0.82776039  0.93862853  0.58967224  1
  F  F22  1  0.05998982  0.68351875  0.56915071  1
  F  F23  1  0.44001018  0.31648125  0.06915071  1
