# generated using pymatgen
data_Mn12O7F17
_symmetry_space_group_name_H-M   'P 1'
_cell_length_a   4.80268067
_cell_length_b   5.80475100
_cell_length_c   15.89755770
_cell_angle_alpha   90.46249886
_cell_angle_beta   90.51933952
_cell_angle_gamma   86.08411695
_symmetry_Int_Tables_number   1
_chemical_formula_structural   Mn12O7F17
_chemical_formula_sum   'Mn12 O7 F17'
_cell_volume   442.13272479
_cell_formula_units_Z   1
loop_
 _symmetry_equiv_pos_site_id
 _symmetry_equiv_pos_as_xyz
  1  'x, y, z'
loop_
 _atom_site_type_symbol
 _atom_site_label
 _atom_site_symmetry_multiplicity
 _atom_site_fract_x
 _atom_site_fract_y
 _atom_site_fract_z
 _atom_site_occupancy
  Mn  Mn0  1  0.00359017  0.15339077  0.41404270  1
  Mn  Mn1  1  0.01881523  0.82692560  0.25167976  1
  Mn  Mn2  1  0.00409897  0.17040098  0.07639472  1
  Mn  Mn3  1  0.99944959  0.15480388  0.74841283  1
  Mn  Mn4  1  0.01343463  0.82817742  0.57216245  1
  Mn  Mn5  1  0.02808501  0.85675737  0.91015129  1
  Mn  Mn6  1  0.51599920  0.33432196  0.59350570  1
  Mn  Mn7  1  0.48382295  0.31485599  0.92696634  1
  Mn  Mn8  1  0.51787894  0.35564815  0.26063018  1
  Mn  Mn9  1  0.52161954  0.65155484  0.07944704  1
  Mn  Mn10  1  0.48426480  0.65068276  0.41305013  1
  Mn  Mn11  1  0.51113471  0.65953367  0.75435806  1
  O  O12  1  0.21286709  0.11212384  0.97226429  1
  O  O13  1  0.22123451  0.88674982  0.46207751  1
  O  O14  1  0.22458019  0.89180771  0.80017520  1
  O  O15  1  0.29281703  0.60464615  0.30831024  1
  O  O16  1  0.71157608  0.36967093  0.02745223  1
  O  O17  1  0.73157259  0.39055820  0.36466328  1
  O  O18  1  0.73218967  0.38965457  0.70284033  1
  F  F19  1  0.22778382  0.11245463  0.30423616  1
  F  F20  1  0.21477728  0.11562476  0.64032005  1
  F  F21  1  0.23688532  0.89622860  0.13526926  1
  F  F22  1  0.28008731  0.38770906  0.15132509  1
  F  F23  1  0.24941007  0.38048884  0.48350408  1
  F  F24  1  0.27180078  0.61603060  0.64699352  1
  F  F25  1  0.26557081  0.38752687  0.81613502  1
  F  F26  1  0.25174759  0.60895440  0.97941417  1
  F  F27  1  0.74795710  0.61609558  0.18991941  1
  F  F28  1  0.70016318  0.62009950  0.52264659  1
  F  F29  1  0.72476330  0.62456447  0.86574035  1
  F  F30  1  0.77434287  0.12473848  0.19274049  1
  F  F31  1  0.77006987  0.11658887  0.52184816  1
  F  F32  1  0.76176697  0.90165554  0.35662136  1
  F  F33  1  0.77512614  0.88006202  0.01932145  1
  F  F34  1  0.75962886  0.12070009  0.85092058  1
  F  F35  1  0.75908984  0.88821208  0.68445898  1
