# generated using pymatgen
data_LiV4OF11
_symmetry_space_group_name_H-M   'P 1'
_cell_length_a   5.27439974
_cell_length_b   5.56832654
_cell_length_c   7.49783336
_cell_angle_alpha   86.23244070
_cell_angle_beta   90.01136506
_cell_angle_gamma   89.98855739
_symmetry_Int_Tables_number   1
_chemical_formula_structural   LiV4OF11
_chemical_formula_sum   'Li1 V4 O1 F11'
_cell_volume   219.73230078
_cell_formula_units_Z   1
loop_
 _symmetry_equiv_pos_site_id
 _symmetry_equiv_pos_as_xyz
  1  'x, y, z'
loop_
 _atom_site_type_symbol
 _atom_site_label
 _atom_site_symmetry_multiplicity
 _atom_site_fract_x
 _atom_site_fract_y
 _atom_site_fract_z
 _atom_site_occupancy
  Li  Li0  1  0.98282259  0.50006949  0.75000022  1
  V  V1  1  0.99919049  0.00003811  0.49643755  1
  V  V2  1  0.99923227  0.00000917  0.00356069  1
  V  V3  1  0.50800646  0.50119960  0.98995551  1
  V  V4  1  0.50795537  0.49880209  0.51009042  1
  O  O5  1  0.58915030  0.50002765  0.74994067  1
  F  F6  1  0.11636426  0.00002164  0.25002944  1
  F  F7  1  0.17544701  0.31627447  0.93547836  1
  F  F8  1  0.17531802  0.68372820  0.56449502  1
  F  F9  1  0.29317449  0.80569739  0.94403486  1
  F  F10  1  0.29326147  0.19422277  0.55600071  1
  F  F11  1  0.40788166  0.49996472  0.24990348  1
  F  F12  1  0.70089180  0.19125288  0.05491931  1
  F  F13  1  0.70079483  0.80874633  0.44506125  1
  F  F14  1  0.81750219  0.69094884  0.04751411  1
  F  F15  1  0.81753042  0.30902170  0.45258643  1
  F  F16  1  0.89003037  0.99994095  0.74998499  1
