# generated using pymatgen
data_LiV2OF5
_symmetry_space_group_name_H-M   'P 1'
_cell_length_a   9.28493367
_cell_length_b   9.25753979
_cell_length_c   17.29045396
_cell_angle_alpha   98.35989705
_cell_angle_beta   96.15421910
_cell_angle_gamma   63.48932628
_symmetry_Int_Tables_number   1
_chemical_formula_structural   LiV2OF5
_chemical_formula_sum   'Li12 V24 O12 F60'
_cell_volume   1314.30398655
_cell_formula_units_Z   12
loop_
 _symmetry_equiv_pos_site_id
 _symmetry_equiv_pos_as_xyz
  1  'x, y, z'
loop_
 _atom_site_type_symbol
 _atom_site_label
 _atom_site_symmetry_multiplicity
 _atom_site_fract_x
 _atom_site_fract_y
 _atom_site_fract_z
 _atom_site_occupancy
  Li  Li0  1  0.97146606  0.71432943  0.06419706  1
  Li  Li1  1  0.72481930  0.67746131  0.17977054  1
  Li  Li2  1  0.70150522  0.81546983  0.56249789  1
  Li  Li3  1  0.62973361  0.53310558  0.44537987  1
  Li  Li4  1  0.39198795  0.34715424  0.17903991  1
  Li  Li5  1  0.39507518  0.57915219  0.92206605  1
  Li  Li6  1  0.36658207  0.48132956  0.56276304  1
  Li  Li7  1  0.29582669  0.19873636  0.44494272  1
  Li  Li8  1  0.62942185  0.01272199  0.94171639  1
  Li  Li9  1  0.06328894  0.01100782  0.17793986  1
  Li  Li10  1  0.06033231  0.24700103  0.92194153  1
  Li  Li11  1  0.03184993  0.14631539  0.56220078  1
  V  V12  1  0.99249693  0.75078787  0.25018788  1
  V  V13  1  0.98274960  0.88346625  0.62969046  1
  V  V14  1  0.67667630  0.92037370  0.74468143  1
  V  V15  1  0.67242446  0.78641597  0.37701434  1
  V  V16  1  0.98164881  0.51333116  0.49671461  1
  V  V17  1  0.34034917  0.96132212  0.87646873  1
  V  V18  1  0.66037765  0.41987288  0.24784245  1
  V  V19  1  0.67086679  0.64659990  0.99567893  1
  V  V20  1  0.64975109  0.54997765  0.63173129  1
  V  V21  1  0.31348402  0.84570070  0.49575419  1
  V  V22  1  0.34996418  0.68863879  0.12807946  1
  V  V23  1  0.33674875  0.58991077  0.74363638  1
  V  V24  1  0.67604332  0.29712915  0.87699867  1
  V  V25  1  0.33550647  0.45157655  0.37608410  1
  V  V26  1  0.00572253  0.98093098  0.99673449  1
  V  V27  1  0.65102636  0.17538317  0.49556929  1
  V  V28  1  0.67935295  0.02549668  0.13132163  1
  V  V29  1  0.00174353  0.63538217  0.87767725  1
  V  V30  1  0.32535248  0.08491318  0.24791750  1
  V  V31  1  0.33724617  0.31550654  0.99769114  1
  V  V32  1  0.31968401  0.21459937  0.63187746  1
  V  V33  1  0.01477591  0.35353844  0.12882165  1
  V  V34  1  0.00669574  0.25632016  0.74294346  1
  V  V35  1  0.99973426  0.11597721  0.37632920  1
  O  O36  1  0.80644439  0.84479136  0.18400498  1
  O  O37  1  0.79035708  0.89225520  0.65634033  1
  O  O38  1  0.78921416  0.61378956  0.43798617  1
  O  O39  1  0.13140852  0.95506415  0.43682933  1
  O  O40  1  0.46738229  0.51758732  0.18762746  1
  O  O41  1  0.66691093  0.45388637  0.96002387  1
  O  O42  1  0.45616038  0.55862894  0.65665776  1
  O  O43  1  0.45651023  0.28101077  0.43753934  1
  O  O44  1  0.00750875  0.77878303  0.96838234  1
  O  O45  1  0.13352564  0.18384595  0.18786448  1
  O  O46  1  0.34674039  0.11601101  0.95912013  1
  O  O47  1  0.12534310  0.22351867  0.65568691  1
  F  F48  1  0.86540062  0.79356746  0.34253317  1
  F  F49  1  0.68232656  0.87978722  0.03095609  1
  F  F50  1  0.65696138  0.94864067  0.47463165  1
  F  F51  1  0.98264582  0.53386148  0.21459865  1
  F  F52  1  0.87623179  0.81109699  0.81360356  1
  F  F53  1  0.52837187  0.97139288  0.31462079  1
  F  F54  1  0.88187924  0.55834392  0.06737372  1
  F  F55  1  0.67326210  0.63608579  0.27660464  1
  F  F56  1  0.55692055  0.69735772  0.09685600  1
  F  F57  1  0.55390240  0.94380210  0.84405578  1
  F  F58  1  0.00328819  0.47151059  0.78941406  1
  F  F59  1  0.85023037  0.55021189  0.58890923  1
  F  F60  1  0.00622436  0.21532097  0.02884557  1
  F  F61  1  0.66893738  0.70385067  0.71699871  1
  F  F62  1  0.79112441  0.64979890  0.91079916  1
  F  F63  1  0.99773791  0.28190478  0.47379554  1
  F  F64  1  0.79521648  0.38573889  0.15902003  1
  F  F65  1  0.31454401  0.86769820  0.21517914  1
  F  F66  1  0.47068582  0.78411991  0.40887124  1
  F  F67  1  0.86389659  0.30515113  0.31306862  1
  F  F68  1  0.53414126  0.73261014  0.55658207  1
  F  F69  1  0.20321123  0.88781073  0.07055661  1
  F  F70  1  0.45026856  0.76754176  0.93896582  1
  F  F71  1  0.79499139  0.35666549  0.68657041  1
  F  F72  1  0.00688558  0.96835260  0.27510286  1
  F  F73  1  0.54026708  0.45927252  0.34715747  1
  F  F74  1  0.65678201  0.39925159  0.52827358  1
  F  F75  1  0.88919909  0.02311473  0.09763296  1
  F  F76  1  0.33329105  0.80703599  0.78709437  1
  F  F77  1  0.88781728  0.27702698  0.84360333  1
  F  F78  1  0.18525046  0.88654721  0.58791284  1
  F  F79  1  0.33935590  0.54754327  0.02878094  1
  F  F80  1  0.12364579  0.99008965  0.91045905  1
  F  F81  1  0.00212583  0.03798516  0.71428186  1
  F  F82  1  0.33280196  0.61118812  0.47288190  1
  F  F83  1  0.12593504  0.70816088  0.15472966  1
  F  F84  1  0.64908049  0.20285831  0.21610427  1
  F  F85  1  0.79079957  0.13471409  0.40744107  1
  F  F86  1  0.52859023  0.48386482  0.81636381  1
  F  F87  1  0.19944046  0.63532083  0.31131618  1
  F  F88  1  0.86226470  0.07591888  0.56010280  1
  F  F89  1  0.54308346  0.21154598  0.06641089  1
  F  F90  1  0.12881335  0.68920436  0.68637738  1
  F  F91  1  0.78569134  0.10213351  0.94032629  1
  F  F92  1  0.34087878  0.30222921  0.27623788  1
  F  F93  1  0.99516268  0.72212388  0.53456239  1
  F  F94  1  0.22099750  0.36479397  0.09725375  1
  F  F95  1  0.21879068  0.61262198  0.84525797  1
  F  F96  1  0.66995792  0.13817016  0.78842613  1
  F  F97  1  0.52043982  0.21739343  0.58809543  1
  F  F98  1  0.33489299  0.36939051  0.71615101  1
  F  F99  1  0.46262457  0.31547926  0.91199737  1
  F  F100  1  0.46431426  0.04729578  0.16065720  1
  F  F101  1  0.13485581  0.45066734  0.40771534  1
  F  F102  1  0.20311984  0.39676928  0.55582668  1
  F  F103  1  0.11605439  0.43698445  0.94062654  1
  F  F104  1  0.46508052  0.02083467  0.68692032  1
  F  F105  1  0.20647934  0.12651473  0.34630617  1
  F  F106  1  0.32910484  0.06413448  0.52917315  1
  F  F107  1  0.19911271  0.14905262  0.81673818  1
