# generated using pymatgen
data_V3(O2F)2
_symmetry_space_group_name_H-M   'P 1'
_cell_length_a   10.46591002
_cell_length_b   6.56477161
_cell_length_c   3.06537643
_cell_angle_alpha   90.00000000
_cell_angle_beta   90.00000000
_cell_angle_gamma   108.26826917
_symmetry_Int_Tables_number   1
_chemical_formula_structural   V3(O2F)2
_chemical_formula_sum   'V6 O8 F4'
_cell_volume   199.99575715
_cell_formula_units_Z   2
loop_
 _symmetry_equiv_pos_site_id
 _symmetry_equiv_pos_as_xyz
  1  'x, y, z'
loop_
 _atom_site_type_symbol
 _atom_site_label
 _atom_site_symmetry_multiplicity
 _atom_site_fract_x
 _atom_site_fract_y
 _atom_site_fract_z
 _atom_site_occupancy
  V  V0  1  0.01336908  0.00666355  0.00000000  1
  V  V1  1  0.33186528  0.16591236  0.50000000  1
  V  V2  1  0.01411002  0.50703980  0.50000000  1
  V  V3  1  0.33416172  0.66703676  0.00000000  1
  V  V4  1  0.65272258  0.32637955  0.00000000  1
  V  V5  1  0.65548058  0.82777691  0.50000000  1
  O  O6  1  0.13950586  0.06971394  0.50000000  1
  O  O7  1  0.00086224  0.30610801  0.00000000  1
  O  O8  1  0.00081596  0.69474049  0.00000000  1
  O  O9  1  0.66525050  0.04527458  0.00000000  1
  O  O10  1  0.20288374  0.60144841  0.50000000  1
  O  O11  1  0.53065694  0.26534601  0.50000000  1
  O  O12  1  0.45981907  0.72993597  0.50000000  1
  O  O13  1  0.66525900  0.61999143  0.00000000  1
  F  F14  1  0.33398886  0.36197597  0.00000000  1
  F  F15  1  0.79715583  0.39852871  0.50000000  1
  F  F16  1  0.33408047  0.97204293  0.00000000  1
  F  F17  1  0.86801128  0.93408562  0.50000000  1
