# generated using pymatgen
data_YNb2NO5
_symmetry_space_group_name_H-M   'P 1'
_cell_length_a   15.03833979
_cell_length_b   5.85005944
_cell_length_c   5.29224399
_cell_angle_alpha   89.21136422
_cell_angle_beta   90.01671762
_cell_angle_gamma   90.06978148
_symmetry_Int_Tables_number   1
_chemical_formula_structural   YNb2NO5
_chemical_formula_sum   'Y4 Nb8 N4 O20'
_cell_volume   465.54166055
_cell_formula_units_Z   4
loop_
 _symmetry_equiv_pos_site_id
 _symmetry_equiv_pos_as_xyz
  1  'x, y, z'
loop_
 _atom_site_type_symbol
 _atom_site_label
 _atom_site_symmetry_multiplicity
 _atom_site_fract_x
 _atom_site_fract_y
 _atom_site_fract_z
 _atom_site_occupancy
  Y  Y0  1  0.00405008  0.28650115  0.26439181  1
  Y  Y1  1  0.99933592  0.71948976  0.73753235  1
  Y  Y2  1  0.49836682  0.21643290  0.74014381  1
  Y  Y3  1  0.49732658  0.77893345  0.26414523  1
  Nb  Nb4  1  0.17456939  0.19271707  0.72837189  1
  Nb  Nb5  1  0.16774179  0.81703675  0.20770431  1
  Nb  Nb6  1  0.33447501  0.31644147  0.20679368  1
  Nb  Nb7  1  0.32664718  0.69270105  0.72794572  1
  Nb  Nb8  1  0.66937591  0.31074658  0.28222849  1
  Nb  Nb9  1  0.66456436  0.68124248  0.79289938  1
  Nb  Nb10  1  0.84012173  0.17907710  0.76865260  1
  Nb  Nb11  1  0.83768385  0.80736346  0.29653212  1
  N  N12  1  0.24514031  0.88702637  0.89600341  1
  N  N13  1  0.25942016  0.38548708  0.89249238  1
  N  N14  1  0.90175488  0.06914650  0.48276553  1
  N  N15  1  0.91592212  0.59140535  0.40542178  1
  O  O16  1  0.08519492  0.60605228  0.09003666  1
  O  O17  1  0.08696648  0.40093879  0.59884100  1
  O  O18  1  0.09584331  0.08101932  0.01161928  1
  O  O19  1  0.09817118  0.92884352  0.50216091  1
  O  O20  1  0.24579560  0.13973520  0.39594177  1
  O  O21  1  0.25741456  0.63834028  0.39471150  1
  O  O22  1  0.40690804  0.43177459  0.49607422  1
  O  O23  1  0.40617769  0.58229701  0.01125880  1
  O  O24  1  0.41820878  0.10385703  0.09381207  1
  O  O25  1  0.41716459  0.89939655  0.59753761  1
  O  O26  1  0.58281614  0.10052585  0.40414835  1
  O  O27  1  0.58105977  0.89295260  0.90728573  1
  O  O28  1  0.59253672  0.41721311  0.99289484  1
  O  O29  1  0.59430930  0.57100553  0.49800803  1
  O  O30  1  0.74029685  0.36339483  0.60671043  1
  O  O31  1  0.73577913  0.62290374  0.11231700  1
  O  O32  1  0.74964867  0.13367138  0.09712493  1
  O  O33  1  0.75145746  0.85839202  0.61326323  1
  O  O34  1  0.89712025  0.90879210  0.97487901  1
  O  O35  1  0.92063846  0.38714074  0.90735111  1
