# generated using pymatgen
data_La2Nb2N2O5
_symmetry_space_group_name_H-M   'P 1'
_cell_length_a   8.02207217
_cell_length_b   13.77037505
_cell_length_c   5.73433697
_cell_angle_alpha   90.47133248
_cell_angle_beta   90.04116495
_cell_angle_gamma   98.40043343
_symmetry_Int_Tables_number   1
_chemical_formula_structural   La2Nb2N2O5
_chemical_formula_sum   'La8 Nb8 N8 O20'
_cell_volume   626.63609624
_cell_formula_units_Z   4
loop_
 _symmetry_equiv_pos_site_id
 _symmetry_equiv_pos_as_xyz
  1  'x, y, z'
loop_
 _atom_site_type_symbol
 _atom_site_label
 _atom_site_symmetry_multiplicity
 _atom_site_fract_x
 _atom_site_fract_y
 _atom_site_fract_z
 _atom_site_occupancy
  La  La0  1  0.13302363  0.56877301  0.34467979  1
  La  La1  1  0.21564232  0.91178165  0.76309087  1
  La  La2  1  0.27380160  0.12299051  0.25095303  1
  La  La3  1  0.34085353  0.38330142  0.77276892  1
  La  La4  1  0.66523378  0.60796843  0.28318191  1
  La  La5  1  0.73222328  0.88308061  0.75037177  1
  La  La6  1  0.78043129  0.09500568  0.26421095  1
  La  La7  1  0.86220985  0.43019791  0.83366349  1
  Nb  Nb8  1  0.07040775  0.32186333  0.29439408  1
  Nb  Nb9  1  0.02305139  0.11729836  0.74207566  1
  Nb  Nb10  1  0.41396848  0.67552522  0.79169869  1
  Nb  Nb11  1  0.47254723  0.88249101  0.26361523  1
  Nb  Nb12  1  0.53609811  0.11837979  0.76745971  1
  Nb  Nb13  1  0.59768640  0.32457489  0.28199521  1
  Nb  Nb14  1  0.96922058  0.88311527  0.25887403  1
  Nb  Nb15  1  0.92505542  0.67567968  0.79474427  1
  N  N16  1  0.08734434  0.40986148  0.54993980  1
  N  N17  1  0.02603885  0.18488789  0.45039257  1
  N  N18  1  0.96198976  0.98159785  0.53405414  1
  N  N19  1  0.87043862  0.57340922  0.56117026  1
  N  N20  1  0.77089351  0.10589349  0.81724701  1
  N  N21  1  0.82196885  0.30343670  0.19405093  1
  N  N22  1  0.97469596  0.82119428  0.94395334  1
  N  N23  1  0.91691928  0.59044480  0.05047094  1
  O  O24  1  0.18201480  0.69717231  0.68659537  1
  O  O25  1  0.22771540  0.88729942  0.31991884  1
  O  O26  1  0.13461462  0.42796440  0.05892288  1
  O  O27  1  0.04842608  0.01896399  0.04394316  1
  O  O28  1  0.12524352  0.22261929  0.95578392  1
  O  O29  1  0.37375353  0.61381333  0.07404245  1
  O  O30  1  0.43121084  0.82042264  0.94455863  1
  O  O31  1  0.27543736  0.08489526  0.67206713  1
  O  O32  1  0.32824967  0.30211836  0.34864415  1
  O  O33  1  0.41266252  0.56348866  0.58605970  1
  O  O34  1  0.53356499  0.97897657  0.52257415  1
  O  O35  1  0.50052523  0.77476414  0.45335309  1
  O  O36  1  0.49882074  0.22725095  0.96081239  1
  O  O37  1  0.45962179  0.01907015  0.02964125  1
  O  O38  1  0.58559394  0.43789479  0.08274466  1
  O  O39  1  0.66557084  0.69681042  0.84461356  1
  O  O40  1  0.72180286  0.91271663  0.17065627  1
  O  O41  1  0.56243773  0.17809597  0.44501583  1
  O  O42  1  0.61901520  0.38652017  0.57770521  1
  O  O43  1  0.87197653  0.77638807  0.44827073  1
