# generated using pymatgen
data_Sm2Sc2O5
_symmetry_space_group_name_H-M   'P 1'
_cell_length_a   5.67763364
_cell_length_b   5.66697163
_cell_length_c   8.90202783
_cell_angle_alpha   108.55838687
_cell_angle_beta   108.67302122
_cell_angle_gamma   90.00764667
_symmetry_Int_Tables_number   1
_chemical_formula_structural   Sm2Sc2O5
_chemical_formula_sum   'Sm4 Sc4 O10'
_cell_volume   255.57015505
_cell_formula_units_Z   2
loop_
 _symmetry_equiv_pos_site_id
 _symmetry_equiv_pos_as_xyz
  1  'x, y, z'
loop_
 _atom_site_type_symbol
 _atom_site_label
 _atom_site_symmetry_multiplicity
 _atom_site_fract_x
 _atom_site_fract_y
 _atom_site_fract_z
 _atom_site_occupancy
  Sm  Sm0  1  0.41227894  0.84362239  0.73307920  1
  Sm  Sm1  1  0.67465307  0.15648569  0.26670994  1
  Sm  Sm2  1  0.91182283  0.38948735  0.73311993  1
  Sm  Sm3  1  0.17482870  0.61027150  0.26685291  1
  Sc  Sc4  1  0.02077745  0.99982839  0.99998955  1
  Sc  Sc5  1  0.52067490  0.50007393  0.99995251  1
  Sc  Sc6  1  0.76658701  0.78745422  0.49987399  1
  Sc  Sc7  1  0.26637782  0.21253390  0.49990491  1
  O  O8  1  0.81666173  0.30231951  0.08612993  1
  O  O9  1  0.73484656  0.69302227  0.91403517  1
  O  O10  1  0.31673543  0.28377505  0.08628576  1
  O  O11  1  0.23478494  0.72083146  0.91381622  1
  O  O12  1  0.84706727  0.99611249  0.75059328  1
  O  O13  1  0.10140185  0.00437341  0.24950447  1
  O  O14  1  0.34700613  0.25448189  0.75059994  1
  O  O15  1  0.60116045  0.74503238  0.24948436  1
  O  O16  1  0.03265309  0.51700373  0.49971252  1
  O  O17  1  0.53288383  0.48328846  0.50035742  1
