# generated using pymatgen
data_Li2FeOF3
_symmetry_space_group_name_H-M   'P 1'
_cell_length_a   5.99751682
_cell_length_b   5.99751682
_cell_length_c   8.49275255
_cell_angle_alpha   90.00000000
_cell_angle_beta   90.00000000
_cell_angle_gamma   90.00000000
_symmetry_Int_Tables_number   1
_chemical_formula_structural   Li2FeOF3
_chemical_formula_sum   'Li8 Fe4 O4 F12'
_cell_volume   305.48607577
_cell_formula_units_Z   4
loop_
 _symmetry_equiv_pos_site_id
 _symmetry_equiv_pos_as_xyz
  1  'x, y, z'
loop_
 _atom_site_type_symbol
 _atom_site_label
 _atom_site_symmetry_multiplicity
 _atom_site_fract_x
 _atom_site_fract_y
 _atom_site_fract_z
 _atom_site_occupancy
  Li  Li0  1  0.23563358  0.25175110  0.37418305  1
  Li  Li1  1  0.25175110  0.76436642  0.12418305  1
  Li  Li2  1  0.26399148  0.49965044  0.74519884  1
  Li  Li3  1  0.50034956  0.26399148  0.99519884  1
  Li  Li4  1  0.49965044  0.73600852  0.49519884  1
  Li  Li5  1  0.73600852  0.50034956  0.24519884  1
  Li  Li6  1  0.74824890  0.23563358  0.62418305  1
  Li  Li7  1  0.76436642  0.74824890  0.87418305  1
  Fe  Fe8  1  0.01654323  0.25286641  0.01736995  1
  Fe  Fe9  1  0.98345677  0.74713359  0.51736995  1
  Fe  Fe10  1  0.25286641  0.98345677  0.76736995  1
  Fe  Fe11  1  0.74713359  0.01654323  0.26736995  1
  O  O12  1  0.02905978  0.75728895  0.73810557  1
  O  O13  1  0.24271105  0.02905978  0.98810557  1
  O  O14  1  0.75728895  0.97094022  0.48810557  1
  O  O15  1  0.97094022  0.24271105  0.23810557  1
  F  F16  1  0.02098541  0.24762774  0.75854943  1
  F  F17  1  0.24762774  0.97901459  0.50854943  1
  F  F18  1  0.24618685  0.49300859  0.99440147  1
  F  F19  1  0.23971415  0.52408632  0.49719169  1
  F  F20  1  0.47591368  0.23971415  0.74719169  1
  F  F21  1  0.49300859  0.75381315  0.74440147  1
  F  F22  1  0.50699141  0.24618685  0.24440147  1
  F  F23  1  0.52408632  0.76028585  0.24719169  1
  F  F24  1  0.75381315  0.50699141  0.49440147  1
  F  F25  1  0.76028585  0.47591368  0.99719169  1
  F  F26  1  0.75237226  0.02098541  0.00854943  1
  F  F27  1  0.97901459  0.75237226  0.25854943  1
