# generated using pymatgen
data_LiMn4(PO4)3
_symmetry_space_group_name_H-M   'P 1'
_cell_length_a   9.65842766
_cell_length_b   9.65831802
_cell_length_c   6.20939908
_cell_angle_alpha   90.00103696
_cell_angle_beta   89.99876502
_cell_angle_gamma   120.00067042
_symmetry_Int_Tables_number   1
_chemical_formula_structural   LiMn4(PO4)3
_chemical_formula_sum   'Li2 Mn8 P6 O24'
_cell_volume   501.63196554
_cell_formula_units_Z   2
loop_
 _symmetry_equiv_pos_site_id
 _symmetry_equiv_pos_as_xyz
  1  'x, y, z'
loop_
 _atom_site_type_symbol
 _atom_site_label
 _atom_site_symmetry_multiplicity
 _atom_site_fract_x
 _atom_site_fract_y
 _atom_site_fract_z
 _atom_site_occupancy
  Li  Li0  1  0.33335561  0.66667207  0.02804095  1
  Li  Li1  1  0.66667933  0.33331762  0.52803919  1
  Mn  Mn2  1  0.96395246  0.69648644  0.24922187  1
  Mn  Mn3  1  0.33332172  0.66665535  0.49246307  1
  Mn  Mn4  1  0.30351562  0.26743794  0.24921470  1
  Mn  Mn5  1  0.73256515  0.03606400  0.24921643  1
  Mn  Mn6  1  0.26744738  0.96391856  0.74920111  1
  Mn  Mn7  1  0.69648354  0.73257545  0.74919773  1
  Mn  Mn8  1  0.66666220  0.33334037  0.99247400  1
  Mn  Mn9  1  0.03607283  0.30350889  0.74921497  1
  P  P10  1  0.01899880  0.63039069  0.74985103  1
  P  P11  1  0.61139353  0.98102162  0.74984447  1
  P  P12  1  0.36961112  0.38861950  0.74985207  1
  P  P13  1  0.63036041  0.61141771  0.24982870  1
  P  P14  1  0.38859522  0.01893671  0.24984448  1
  P  P15  1  0.98104434  0.36962662  0.24984487  1
  O  O16  1  0.06677499  0.74881602  0.55490251  1
  O  O17  1  0.07094526  0.74737526  0.94573230  1
  O  O18  1  0.13109146  0.55560215  0.74044750  1
  O  O19  1  0.34386556  0.84303802  0.25303383  1
  O  O20  1  0.15696777  0.50082132  0.25303409  1
  O  O21  1  0.42451321  0.86890455  0.74044212  1
  O  O22  1  0.25261977  0.32355931  0.94573095  1
  O  O23  1  0.25119544  0.31796924  0.55489960  1
  O  O24  1  0.49917430  0.65614228  0.25304377  1
  O  O25  1  0.44438582  0.57549757  0.74047851  1
  O  O26  1  0.67642624  0.92904770  0.94572808  1
  O  O27  1  0.68205421  0.93323158  0.55489235  1
  O  O28  1  0.32353588  0.07092961  0.44571740  1
  O  O29  1  0.31797696  0.06677379  0.05487011  1
  O  O30  1  0.55560657  0.42451465  0.24044063  1
  O  O31  1  0.50085906  0.34388232  0.75303981  1
  O  O32  1  0.74881542  0.68205705  0.05486111  1
  O  O33  1  0.74739446  0.67645628  0.44570742  1
  O  O34  1  0.57549985  0.13109781  0.24048573  1
  O  O35  1  0.84300836  0.49915080  0.75303547  1
  O  O36  1  0.65614264  0.15697842  0.75305310  1
  O  O37  1  0.86890463  0.44438783  0.24044841  1
  O  O38  1  0.93323223  0.25116612  0.05489228  1
  O  O39  1  0.92905465  0.25261176  0.44573328  1
