# generated using pymatgen
data_LiFe2O2F3
_symmetry_space_group_name_H-M   'P 1'
_cell_length_a   3.84857542
_cell_length_b   5.37942369
_cell_length_c   10.21524658
_cell_angle_alpha   89.23003393
_cell_angle_beta   90.00000006
_cell_angle_gamma   69.04020771
_symmetry_Int_Tables_number   1
_chemical_formula_structural   LiFe2O2F3
_chemical_formula_sum   'Li2 Fe4 O4 F6'
_cell_volume   197.47323519
_cell_formula_units_Z   2
loop_
 _symmetry_equiv_pos_site_id
 _symmetry_equiv_pos_as_xyz
  1  'x, y, z'
loop_
 _atom_site_type_symbol
 _atom_site_label
 _atom_site_symmetry_multiplicity
 _atom_site_fract_x
 _atom_site_fract_y
 _atom_site_fract_z
 _atom_site_occupancy
  Li  Li0  1  0.13116067  0.73767866  0.05739905  1
  Li  Li1  1  0.86883933  0.26232134  0.94260095  1
  Fe  Fe2  1  0.13746081  0.72507838  0.45240589  1
  Fe  Fe3  1  0.18490315  0.63019470  0.74930883  1
  Fe  Fe4  1  0.81509685  0.36980530  0.25069117  1
  Fe  Fe5  1  0.86253919  0.27492162  0.54759411  1
  O  O6  1  0.04350013  0.91299974  0.61983657  1
  O  O7  1  0.69590703  0.60818494  0.41849539  1
  O  O8  1  0.30409297  0.39181506  0.58150461  1
  O  O9  1  0.95649987  0.08700026  0.38016343  1
  F  F10  1  0.05144453  0.89711094  0.88267434  1
  F  F11  1  0.69058226  0.61883548  0.09598238  1
  F  F12  1  0.25882100  0.48235699  0.25431682  1
  F  F13  1  0.74117900  0.51764301  0.74568318  1
  F  F14  1  0.30941774  0.38116452  0.90401762  1
  F  F15  1  0.94855547  0.10288906  0.11732566  1
