# generated using pymatgen
data_Mn4O7F
_symmetry_space_group_name_H-M   'P 1'
_cell_length_a   8.92342699
_cell_length_b   5.48504766
_cell_length_c   4.96120055
_cell_angle_alpha   90.00000000
_cell_angle_beta   90.16939213
_cell_angle_gamma   90.00000000
_symmetry_Int_Tables_number   1
_chemical_formula_structural   Mn4O7F
_chemical_formula_sum   'Mn8 O14 F2'
_cell_volume   242.82699507
_cell_formula_units_Z   2
loop_
 _symmetry_equiv_pos_site_id
 _symmetry_equiv_pos_as_xyz
  1  'x, y, z'
loop_
 _atom_site_type_symbol
 _atom_site_label
 _atom_site_symmetry_multiplicity
 _atom_site_fract_x
 _atom_site_fract_y
 _atom_site_fract_z
 _atom_site_occupancy
  Mn  Mn0  1  0.00520287  0.16579274  0.25428664  1
  Mn  Mn1  1  0.00461803  0.85618424  0.73240818  1
  Mn  Mn2  1  0.24188594  0.36790659  0.76001244  1
  Mn  Mn3  1  0.25454133  0.65093498  0.25294379  1
  Mn  Mn4  1  0.50520287  0.83420726  0.75428664  1
  Mn  Mn5  1  0.50461803  0.14381576  0.23240818  1
  Mn  Mn6  1  0.75454133  0.34906502  0.75294379  1
  Mn  Mn7  1  0.74188594  0.63209341  0.26001244  1
  O  O8  1  0.11421891  0.11956363  0.92196731  1
  O  O9  1  0.11861618  0.89248682  0.41348062  1
  O  O10  1  0.13534936  0.39875442  0.42600178  1
  O  O11  1  0.13199424  0.61882452  0.92473504  1
  O  O12  1  0.36578140  0.38695969  0.07894965  1
  O  O13  1  0.36464073  0.61219417  0.58391504  1
  O  O14  1  0.38559151  0.88776657  0.07323850  1
  O  O15  1  0.61861618  0.10751318  0.91348062  1
  O  O16  1  0.61421891  0.88043637  0.42196731  1
  O  O17  1  0.63199424  0.38117548  0.42473504  1
  O  O18  1  0.63534936  0.60124558  0.92600178  1
  O  O19  1  0.86464073  0.38780583  0.08391504  1
  O  O20  1  0.86578140  0.61304031  0.57894965  1
  O  O21  1  0.88559151  0.11223343  0.57323850  1
  F  F22  1  0.37755948  0.12130889  0.57806001  1
  F  F23  1  0.87755948  0.87869111  0.07806001  1
