# generated using pymatgen
data_Li7VGeO8
_symmetry_space_group_name_H-M   'P 1'
_cell_length_a   10.85519874
_cell_length_b   6.40301860
_cell_length_c   5.41043149
_cell_angle_alpha   90.00000000
_cell_angle_beta   90.91893724
_cell_angle_gamma   90.00000000
_symmetry_Int_Tables_number   1
_chemical_formula_structural   Li7VGeO8
_chemical_formula_sum   'Li14 V2 Ge2 O16'
_cell_volume   376.00929804
_cell_formula_units_Z   2
loop_
 _symmetry_equiv_pos_site_id
 _symmetry_equiv_pos_as_xyz
  1  'x, y, z'
loop_
 _atom_site_type_symbol
 _atom_site_label
 _atom_site_symmetry_multiplicity
 _atom_site_fract_x
 _atom_site_fract_y
 _atom_site_fract_z
 _atom_site_occupancy
  Li  Li0  1  0.07698606  0.25000000  0.67518300  1
  Li  Li1  1  0.17557038  0.50174138  0.31276230  1
  Li  Li2  1  0.17557038  0.99825862  0.31276230  1
  Li  Li3  1  0.33801910  0.01953258  0.83294885  1
  Li  Li4  1  0.33801910  0.48046742  0.83294885  1
  Li  Li5  1  0.41588599  0.75000000  0.20110265  1
  Li  Li6  1  0.56806238  0.25000000  0.82822261  1
  Li  Li7  1  0.65114174  0.49759513  0.19156392  1
  Li  Li8  1  0.65114174  0.00240487  0.19156392  1
  Li  Li9  1  0.81974073  0.04582571  0.58489775  1
  Li  Li10  1  0.81974073  0.45417429  0.58489775  1
  Li  Li11  1  0.83388911  0.55964445  0.93196831  1
  Li  Li12  1  0.83388911  0.94035555  0.93196831  1
  Li  Li13  1  0.93458214  0.75000000  0.34356157  1
  V  V14  1  0.08431068  0.75000000  0.82765758  1
  V  V15  1  0.59158333  0.75000000  0.67525747  1
  Ge  Ge16  1  0.41332541  0.25000000  0.32087496  1
  Ge  Ge17  1  0.92535516  0.25000000  0.16276523  1
  O  O18  1  0.06964347  0.25000000  0.30361620  1
  O  O19  1  0.08556511  0.75000000  0.14997689  1
  O  O20  1  0.15656753  0.53153759  0.71476036  1
  O  O21  1  0.15656753  0.96846241  0.71476036  1
  O  O22  1  0.33930148  0.02177317  0.20197826  1
  O  O23  1  0.33930148  0.47822683  0.20197826  1
  O  O24  1  0.41350832  0.25000000  0.65099859  1
  O  O25  1  0.44727255  0.75000000  0.79391573  1
  O  O26  1  0.56576443  0.25000000  0.19951637  1
  O  O27  1  0.59067063  0.75000000  0.35266970  1
  O  O28  1  0.67441109  0.52820545  0.78357151  1
  O  O29  1  0.67441109  0.97179455  0.78357151  1
  O  O30  1  0.84171668  0.01887424  0.25402034  1
  O  O31  1  0.84171668  0.48112576  0.25402034  1
  O  O32  1  0.90659869  0.25000000  0.82840298  1
  O  O33  1  0.92377000  0.75000000  0.72213627  1
