# generated using pymatgen
data_Fe4S5
_symmetry_space_group_name_H-M   'P 1'
_cell_length_a   7.89126931
_cell_length_b   10.06905460
_cell_length_c   7.89945393
_cell_angle_alpha   91.19086252
_cell_angle_beta   89.99924561
_cell_angle_gamma   89.31967106
_symmetry_Int_Tables_number   1
_chemical_formula_structural   Fe4S5
_chemical_formula_sum   'Fe8 S10'
_cell_volume   627.49199068
_cell_formula_units_Z   2
loop_
 _symmetry_equiv_pos_site_id
 _symmetry_equiv_pos_as_xyz
  1  'x, y, z'
loop_
 _atom_site_type_symbol
 _atom_site_label
 _atom_site_symmetry_multiplicity
 _atom_site_fract_x
 _atom_site_fract_y
 _atom_site_fract_z
 _atom_site_occupancy
  Fe  Fe0  1  0.09664689  0.99619145  0.29274204  1
  Fe  Fe1  1  0.20466557  0.99488539  0.59543391  1
  Fe  Fe2  1  0.29401316  0.00440700  0.90047762  1
  Fe  Fe3  1  0.40179523  0.00580256  0.20311557  1
  Fe  Fe4  1  0.90301616  0.99631722  0.70699650  1
  Fe  Fe5  1  0.79473847  0.99489336  0.40401402  1
  Fe  Fe6  1  0.70605224  0.00437420  0.09995001  1
  Fe  Fe7  1  0.59798674  0.00558432  0.79734172  1
  S  S8  1  0.99767691  0.11850604  0.50293197  1
  S  S9  1  0.20111118  0.12536080  0.10811025  1
  S  S10  1  0.29794098  0.87617799  0.38621295  1
  S  S11  1  0.39116815  0.12295415  0.70421673  1
  S  S12  1  0.50197501  0.88177137  0.99693996  1
  S  S13  1  0.89346736  0.87356914  0.20301604  1
  S  S14  1  0.79504222  0.12511452  0.89885943  1
  S  S15  1  0.70541776  0.87618044  0.60712473  1
  S  S16  1  0.60544763  0.12388131  0.30143825  1
  S  S17  1  0.10983736  0.87403074  0.79107729  1
