# generated using pymatgen
data_Li5Mn8(BO3)8
_symmetry_space_group_name_H-M   'P 1'
_cell_length_a   5.29476383
_cell_length_b   9.15421175
_cell_length_c   10.36862326
_cell_angle_alpha   91.91562192
_cell_angle_beta   90.85269303
_cell_angle_gamma   90.06344559
_symmetry_Int_Tables_number   1
_chemical_formula_structural   Li5Mn8(BO3)8
_chemical_formula_sum   'Li5 Mn8 B8 O24'
_cell_volume   502.22370574
_cell_formula_units_Z   1
loop_
 _symmetry_equiv_pos_site_id
 _symmetry_equiv_pos_as_xyz
  1  'x, y, z'
loop_
 _atom_site_type_symbol
 _atom_site_label
 _atom_site_symmetry_multiplicity
 _atom_site_fract_x
 _atom_site_fract_y
 _atom_site_fract_z
 _atom_site_occupancy
  Li  Li0  1  0.93847075  0.92361868  0.32045117  1
  Li  Li1  1  0.90087713  0.92837066  0.85487247  1
  Li  Li2  1  0.58573451  0.57981078  0.59916348  1
  Li  Li3  1  0.44107654  0.41225086  0.33877687  1
  Li  Li4  1  0.41303819  0.42937771  0.82776724  1
  Mn  Mn5  1  0.92885390  0.26521759  0.37290474  1
  Mn  Mn6  1  0.93124496  0.58836111  0.86628896  1
  Mn  Mn7  1  0.54987169  0.91235389  0.11916814  1
  Mn  Mn8  1  0.56947099  0.23187578  0.61750764  1
  Mn  Mn9  1  0.42411720  0.74255065  0.36425515  1
  Mn  Mn10  1  0.40555072  0.09362789  0.87239048  1
  Mn  Mn11  1  0.09839222  0.40589710  0.11100789  1
  Mn  Mn12  1  0.08053926  0.77220811  0.61669713  1
  B  B13  1  0.91969767  0.58527114  0.38082616  1
  B  B14  1  0.91077276  0.25315747  0.86506551  1
  B  B15  1  0.61008797  0.24319162  0.13797019  1
  B  B16  1  0.56668099  0.91162030  0.63749646  1
  B  B17  1  0.41694464  0.08401110  0.36237541  1
  B  B18  1  0.41873861  0.75053150  0.87638944  1
  B  B19  1  0.07669032  0.74133662  0.11540551  1
  B  B20  1  0.07592107  0.42651758  0.62225300  1
  O  O21  1  0.92398984  0.85572097  0.14116274  1
  O  O22  1  0.92941891  0.31754475  0.55976246  1
  O  O23  1  0.98628143  0.61189629  0.05159773  1
  O  O24  1  0.93949451  0.54895989  0.67389764  1
  O  O25  1  0.86144910  0.24311664  0.18702826  1
  O  O26  1  0.81467125  0.91217294  0.66986768  1
  O  O27  1  0.66524507  0.56544120  0.39717248  1
  O  O28  1  0.65975814  0.26924598  0.82394894  1
  O  O29  1  0.55224452  0.96122170  0.31215103  1
  O  O30  1  0.53916085  0.87782222  0.92826705  1
  O  O31  1  0.55950103  0.20524564  0.40846738  1
  O  O32  1  0.54986199  0.62449009  0.85485875  1
  O  O33  1  0.46237442  0.36095953  0.15509326  1
  O  O34  1  0.45677992  0.78784628  0.57461611  1
  O  O35  1  0.52595744  0.11784633  0.07055458  1
  O  O36  1  0.41592614  0.03178044  0.67029773  1
  O  O37  1  0.33185319  0.74074652  0.15622271  1
  O  O38  1  0.33142026  0.42031474  0.63356230  1
  O  O39  1  0.16204565  0.08488075  0.36823357  1
  O  O40  1  0.16298838  0.76332707  0.84168703  1
  O  O41  1  0.07435059  0.46812805  0.33907244  1
  O  O42  1  0.05465623  0.38180465  0.89584702  1
  O  O43  1  0.03350915  0.72037444  0.40929030  1
  O  O44  1  0.02341488  0.12324073  0.88102375  1
