# generated using pymatgen
data_NbH8N2O2F5
_symmetry_space_group_name_H-M   'P 1'
_cell_length_a   9.45309285
_cell_length_b   9.08325219
_cell_length_c   7.74257983
_cell_angle_alpha   90.00000000
_cell_angle_beta   90.00000000
_cell_angle_gamma   90.00000000
_symmetry_Int_Tables_number   1
_chemical_formula_structural   NbH8N2O2F5
_chemical_formula_sum   'Nb4 H32 N8 O8 F20'
_cell_volume   664.81527246
_cell_formula_units_Z   4
loop_
 _symmetry_equiv_pos_site_id
 _symmetry_equiv_pos_as_xyz
  1  'x, y, z'
loop_
 _atom_site_type_symbol
 _atom_site_label
 _atom_site_symmetry_multiplicity
 _atom_site_fract_x
 _atom_site_fract_y
 _atom_site_fract_z
 _atom_site_occupancy
  Nb  Nb0  1  0.13646664  0.25000000  0.02509269  1
  Nb  Nb1  1  0.36353336  0.75000000  0.52509269  1
  Nb  Nb2  1  0.63646664  0.25000000  0.47490731  1
  Nb  Nb3  1  0.86353336  0.75000000  0.97490731  1
  H  H4  1  0.02478088  0.56022295  0.67031259  1
  H  H5  1  0.02478088  0.93977705  0.67031259  1
  H  H6  1  0.08953544  0.58036248  0.37921973  1
  H  H7  1  0.08953544  0.91963752  0.37921973  1
  H  H8  1  0.11992035  0.09648385  0.45795387  1
  H  H9  1  0.11992035  0.40351615  0.45795387  1
  H  H10  1  0.19020784  0.75000000  0.93735855  1
  H  H11  1  0.23923654  0.75000000  0.13208318  1
  H  H12  1  0.26076346  0.25000000  0.63208318  1
  H  H13  1  0.30979216  0.25000000  0.43735855  1
  H  H14  1  0.38007965  0.59648385  0.95795387  1
  H  H15  1  0.38007965  0.90351615  0.95795387  1
  H  H16  1  0.41046456  0.08036248  0.87921973  1
  H  H17  1  0.41046456  0.41963752  0.87921973  1
  H  H18  1  0.47521912  0.06022295  0.17031259  1
  H  H19  1  0.47521912  0.43977705  0.17031259  1
  H  H20  1  0.52478088  0.56022295  0.82968741  1
  H  H21  1  0.52478088  0.93977705  0.82968741  1
  H  H22  1  0.58953544  0.58036248  0.12078027  1
  H  H23  1  0.58953544  0.91963752  0.12078027  1
  H  H24  1  0.61992035  0.09648385  0.04204613  1
  H  H25  1  0.61992035  0.40351615  0.04204613  1
  H  H26  1  0.69020784  0.75000000  0.56264145  1
  H  H27  1  0.73923654  0.75000000  0.36791682  1
  H  H28  1  0.76076346  0.25000000  0.86791682  1
  H  H29  1  0.80979216  0.25000000  0.06264145  1
  H  H30  1  0.88007965  0.59648385  0.54204613  1
  H  H31  1  0.88007965  0.90351615  0.54204613  1
  H  H32  1  0.91046456  0.08036248  0.62078027  1
  H  H33  1  0.91046456  0.41963752  0.62078027  1
  H  H34  1  0.97521912  0.06022295  0.32968741  1
  H  H35  1  0.97521912  0.43977705  0.32968741  1
  N  N36  1  0.04156084  0.01754029  0.42445236  1
  N  N37  1  0.04156084  0.48245971  0.42445236  1
  N  N38  1  0.45843916  0.51754029  0.92445236  1
  N  N39  1  0.45843916  0.98245971  0.92445236  1
  N  N40  1  0.54156084  0.01754029  0.07554764  1
  N  N41  1  0.54156084  0.48245971  0.07554764  1
  N  N42  1  0.95843916  0.51754029  0.57554764  1
  N  N43  1  0.95843916  0.98245971  0.57554764  1
  O  O44  1  0.01431283  0.75000000  0.83576805  1
  O  O45  1  0.22413115  0.25000000  0.51265491  1
  O  O46  1  0.27586885  0.75000000  0.01265491  1
  O  O47  1  0.48568717  0.25000000  0.33576805  1
  O  O48  1  0.51431283  0.75000000  0.66423195  1
  O  O49  1  0.72413115  0.25000000  0.98734509  1
  O  O50  1  0.77586885  0.75000000  0.48734509  1
  O  O51  1  0.98568717  0.25000000  0.16423195  1
  F  F52  1  0.07760812  0.10122246  0.85713316  1
  F  F53  1  0.07760812  0.39877754  0.85713316  1
  F  F54  1  0.16460880  0.75000000  0.36243807  1
  F  F55  1  0.24559953  0.09685194  0.14941507  1
  F  F56  1  0.24559953  0.40314806  0.14941507  1
  F  F57  1  0.25440047  0.59685194  0.64941507  1
  F  F58  1  0.25440047  0.90314806  0.64941507  1
  F  F59  1  0.33539120  0.25000000  0.86243807  1
  F  F60  1  0.42239188  0.60122246  0.35713316  1
  F  F61  1  0.42239188  0.89877754  0.35713316  1
  F  F62  1  0.57760812  0.10122246  0.64286684  1
  F  F63  1  0.57760812  0.39877754  0.64286684  1
  F  F64  1  0.66460880  0.75000000  0.13756193  1
  F  F65  1  0.74559953  0.09685194  0.35058493  1
  F  F66  1  0.74559953  0.40314806  0.35058493  1
  F  F67  1  0.75440047  0.59685194  0.85058493  1
  F  F68  1  0.75440047  0.90314806  0.85058493  1
  F  F69  1  0.83539120  0.25000000  0.63756193  1
  F  F70  1  0.92239188  0.60122246  0.14286684  1
  F  F71  1  0.92239188  0.89877754  0.14286684  1
