# generated using pymatgen
data_Li3Fe8(BO3)8
_symmetry_space_group_name_H-M   'P 1'
_cell_length_a   5.27390817
_cell_length_b   5.25827979
_cell_length_c   20.16484405
_cell_angle_alpha   90.10438211
_cell_angle_beta   90.51824931
_cell_angle_gamma   60.49099740
_symmetry_Int_Tables_number   1
_chemical_formula_structural   Li3Fe8(BO3)8
_chemical_formula_sum   'Li3 Fe8 B8 O24'
_cell_volume   486.64193304
_cell_formula_units_Z   1
loop_
 _symmetry_equiv_pos_site_id
 _symmetry_equiv_pos_as_xyz
  1  'x, y, z'
loop_
 _atom_site_type_symbol
 _atom_site_label
 _atom_site_symmetry_multiplicity
 _atom_site_fract_x
 _atom_site_fract_y
 _atom_site_fract_z
 _atom_site_occupancy
  Li  Li0  1  0.33235372  0.64033624  0.66788530  1
  Li  Li1  1  0.35699760  0.66779079  0.92047090  1
  Li  Li2  1  0.35912693  0.66625124  0.41808998  1
  Fe  Fe3  1  0.98343860  0.67679859  0.81054199  1
  Fe  Fe4  1  0.98206658  0.67777141  0.31022347  1
  Fe  Fe5  1  0.68480644  0.00898225  0.93747073  1
  Fe  Fe6  1  0.68476253  0.00651538  0.43668396  1
  Fe  Fe7  1  0.32473480  0.01554191  0.56021040  1
  Fe  Fe8  1  0.32786579  0.00054508  0.05953735  1
  Fe  Fe9  1  0.99230901  0.31455960  0.68655012  1
  Fe  Fe10  1  0.00071102  0.32710610  0.18396192  1
  B  B11  1  0.00409372  0.33969285  0.93593954  1
  B  B12  1  0.00476419  0.33538436  0.43558473  1
  B  B13  1  0.32704157  0.01044215  0.81326409  1
  B  B14  1  0.32830448  0.00952504  0.31175913  1
  B  B15  1  0.66301917  0.99533516  0.68575719  1
  B  B16  1  0.65924305  0.00027987  0.18544237  1
  B  B17  1  0.98958153  0.67256640  0.56267269  1
  B  B18  1  0.99745901  0.66475951  0.06170217  1
  O  O19  1  0.11106827  0.27474491  0.78826768  1
  O  O20  1  0.11744749  0.27261875  0.28382983  1
  O  O21  1  0.25791529  0.08737604  0.95881689  1
  O  O22  1  0.03257737  0.57837087  0.91359352  1
  O  O23  1  0.25636779  0.08194533  0.45862453  1
  O  O24  1  0.03598790  0.57257649  0.41281620  1
  O  O25  1  0.59537568  0.97929872  0.83163411  1
  O  O26  1  0.22146541  0.71952097  0.57016066  1
  O  O27  1  0.59291424  0.98145235  0.33237664  1
  O  O28  1  0.23564693  0.69926606  0.05928684  1
  O  O29  1  0.27923277  0.77908637  0.82163205  1
  O  O30  1  0.27344355  0.78511394  0.32227315  1
  O  O31  1  0.64900019  0.25930248  0.68417238  1
  O  O32  1  0.70236236  0.23283095  0.18350459  1
  O  O33  1  0.74246540  0.35104120  0.93508569  1
  O  O34  1  0.42510687  0.96383221  0.66357746  1
  O  O35  1  0.74146013  0.35007565  0.43404502  1
  O  O36  1  0.40211484  0.01041952  0.16308959  1
  O  O37  1  0.02141485  0.40398261  0.58136541  1
  O  O38  1  0.01910201  0.40151993  0.08451290  1
  O  O39  1  0.72504597  0.88871450  0.53809752  1
  O  O40  1  0.72749142  0.88362420  0.03983459  1
  O  O41  1  0.91792972  0.74363261  0.70840843  1
  O  O42  1  0.87858481  0.73157743  0.21135029  1
