# generated using pymatgen
data_Li5Si2BiO8
_symmetry_space_group_name_H-M   'P 1'
_cell_length_a   5.43368047
_cell_length_b   5.43368047
_cell_length_c   6.47183510
_cell_angle_alpha   89.34832309
_cell_angle_beta   90.65167691
_cell_angle_gamma   87.31930613
_symmetry_Int_Tables_number   1
_chemical_formula_structural   Li5Si2BiO8
_chemical_formula_sum   'Li5 Si2 Bi1 O8'
_cell_volume   190.84517208
_cell_formula_units_Z   1
loop_
 _symmetry_equiv_pos_site_id
 _symmetry_equiv_pos_as_xyz
  1  'x, y, z'
loop_
 _atom_site_type_symbol
 _atom_site_label
 _atom_site_symmetry_multiplicity
 _atom_site_fract_x
 _atom_site_fract_y
 _atom_site_fract_z
 _atom_site_occupancy
  Li  Li0  1  0.18225336  0.83354910  0.52971371  1
  Li  Li1  1  0.67435429  0.67435429  0.75000000  1
  Li  Li2  1  0.32371825  0.32371825  0.75000000  1
  Li  Li3  1  0.28927510  0.28927510  0.25000000  1
  Li  Li4  1  0.83354910  0.18225336  0.97028629  1
  Si  Si5  1  0.17906471  0.83679057  0.98512820  1
  Si  Si6  1  0.83679057  0.17906471  0.51487180  1
  Bi  Bi7  1  0.68192355  0.68192355  0.25000000  1
  O  O8  1  0.31811165  0.70024712  0.79353977  1
  O  O9  1  0.26149858  0.69668206  0.21440566  1
  O  O10  1  0.13331867  0.20947456  0.50347551  1
  O  O11  1  0.80755646  0.87218195  0.53159791  1
  O  O12  1  0.20947456  0.13331867  0.99652449  1
  O  O13  1  0.87218195  0.80755646  0.96840209  1
  O  O14  1  0.70024712  0.31811165  0.70646023  1
  O  O15  1  0.69668206  0.26149858  0.28559434  1
