# generated using pymatgen
data_Mn3(OF2)2
_symmetry_space_group_name_H-M   'P 1'
_cell_length_a   4.76196648
_cell_length_b   8.00042366
_cell_length_c   5.80148304
_cell_angle_alpha   93.56915290
_cell_angle_beta   90.00000000
_cell_angle_gamma   90.00000000
_symmetry_Int_Tables_number   1
_chemical_formula_structural   Mn3(OF2)2
_chemical_formula_sum   'Mn6 O4 F8'
_cell_volume   220.59474696
_cell_formula_units_Z   2
loop_
 _symmetry_equiv_pos_site_id
 _symmetry_equiv_pos_as_xyz
  1  'x, y, z'
loop_
 _atom_site_type_symbol
 _atom_site_label
 _atom_site_symmetry_multiplicity
 _atom_site_fract_x
 _atom_site_fract_y
 _atom_site_fract_z
 _atom_site_occupancy
  Mn  Mn0  1  0.50181948  0.01831561  0.48807815  1
  Mn  Mn1  1  0.50991962  0.66558205  0.14524477  1
  Mn  Mn2  1  0.47365934  0.34059936  0.82158024  1
  Mn  Mn3  1  0.00991962  0.66775195  0.68808823  1
  Mn  Mn4  1  0.00181948  0.31501839  0.34525485  1
  Mn  Mn5  1  0.97365934  0.99273364  0.01175376  1
  O  O6  1  0.81151834  0.77217197  0.96017762  1
  O  O7  1  0.80665964  0.09772293  0.30298136  1
  O  O8  1  0.31151834  0.56116103  0.87315538  1
  O  O9  1  0.30665964  0.23561007  0.53035164  1
  F  F10  1  0.80573087  0.43812978  0.63070384  1
  F  F11  1  0.69043450  0.12077386  0.80235256  1
  F  F12  1  0.69489982  0.77100774  0.46245047  1
  F  F13  1  0.70535840  0.41792872  0.12999754  1
  F  F14  1  0.30573087  0.89520322  0.20262916  1
  F  F15  1  0.19489982  0.56232526  0.37088253  1
  F  F16  1  0.19043450  0.21255914  0.03098144  1
  F  F17  1  0.20535840  0.91540428  0.70333646  1
