# generated using pymatgen
data_Mn12O5F19
_symmetry_space_group_name_H-M   'P 1'
_cell_length_a   4.89529907
_cell_length_b   5.85148820
_cell_length_c   15.96797700
_cell_angle_alpha   90.53419671
_cell_angle_beta   89.82393046
_cell_angle_gamma   87.71335450
_symmetry_Int_Tables_number   1
_chemical_formula_structural   Mn12O5F19
_chemical_formula_sum   'Mn12 O5 F19'
_cell_volume   457.01246561
_cell_formula_units_Z   1
loop_
 _symmetry_equiv_pos_site_id
 _symmetry_equiv_pos_as_xyz
  1  'x, y, z'
loop_
 _atom_site_type_symbol
 _atom_site_label
 _atom_site_symmetry_multiplicity
 _atom_site_fract_x
 _atom_site_fract_y
 _atom_site_fract_z
 _atom_site_occupancy
  Mn  Mn0  1  0.02464974  0.19378582  0.42658750  1
  Mn  Mn1  1  0.98915776  0.85532244  0.24989294  1
  Mn  Mn2  1  0.97090542  0.16215686  0.08468328  1
  Mn  Mn3  1  0.01704048  0.14564038  0.74996512  1
  Mn  Mn4  1  0.01288127  0.82396766  0.58640043  1
  Mn  Mn5  1  0.01060541  0.83057821  0.90685983  1
  Mn  Mn6  1  0.48417334  0.36162746  0.58354439  1
  Mn  Mn7  1  0.50801556  0.33177103  0.92446575  1
  Mn  Mn8  1  0.50975075  0.31932511  0.24549813  1
  Mn  Mn9  1  0.51912334  0.64787172  0.08273094  1
  Mn  Mn10  1  0.49406164  0.65287133  0.41739280  1
  Mn  Mn11  1  0.47255356  0.65815043  0.74762803  1
  O  O12  1  0.22304695  0.87329395  0.80015173  1
  O  O13  1  0.29730481  0.40759003  0.47814001  1
  O  O14  1  0.28235727  0.60535100  0.64272208  1
  O  O15  1  0.71770673  0.37968997  0.03262528  1
  O  O16  1  0.78684323  0.10942773  0.18735046  1
  F  F17  1  0.23576102  0.10650187  0.30895892  1
  F  F18  1  0.23187451  0.11075554  0.63699220  1
  F  F19  1  0.20096236  0.12307161  0.97798854  1
  F  F20  1  0.23906257  0.89104983  0.13082419  1
  F  F21  1  0.23319231  0.89901679  0.47319476  1
  F  F22  1  0.26275640  0.39759334  0.13933821  1
  F  F23  1  0.26591889  0.61016662  0.30239515  1
  F  F24  1  0.26635997  0.37425982  0.81494619  1
  F  F25  1  0.27490648  0.61933500  0.97432298  1
  F  F26  1  0.72744159  0.61789444  0.19574962  1
  F  F27  1  0.74065450  0.38966713  0.35722885  1
  F  F28  1  0.75281563  0.61332420  0.52363605  1
  F  F29  1  0.70624075  0.61702225  0.85322834  1
  F  F30  1  0.71794117  0.38303058  0.69448730  1
  F  F31  1  0.76001998  0.12567377  0.53460010  1
  F  F32  1  0.76212668  0.88692826  0.36566345  1
  F  F33  1  0.76745285  0.87140177  0.01712202  1
  F  F34  1  0.77156142  0.11673891  0.85903903  1
  F  F35  1  0.76277568  0.88814915  0.69364641  1
