# generated using pymatgen
data_LiFeSiO4
_symmetry_space_group_name_H-M   'P 1'
_cell_length_a   9.96261453
_cell_length_b   9.96261491
_cell_length_c   24.54993487
_cell_angle_alpha   90.00000000
_cell_angle_beta   90.00000000
_cell_angle_gamma   120.00000451
_symmetry_Int_Tables_number   1
_chemical_formula_structural   LiFeSiO4
_chemical_formula_sum   'Li24 Fe24 Si24 O96'
_cell_volume   2110.21947637
_cell_formula_units_Z   24
loop_
 _symmetry_equiv_pos_site_id
 _symmetry_equiv_pos_as_xyz
  1  'x, y, z'
loop_
 _atom_site_type_symbol
 _atom_site_label
 _atom_site_symmetry_multiplicity
 _atom_site_fract_x
 _atom_site_fract_y
 _atom_site_fract_z
 _atom_site_occupancy
  Li  Li0  1  0.02851665  0.96713255  0.69223613  1
  Li  Li1  1  0.03681454  0.59710635  0.03373307  1
  Li  Li2  1  0.05904031  0.45038889  0.19409085  1
  Li  Li3  1  0.04704759  0.46946577  0.84794520  1
  Li  Li4  1  0.39134758  0.94095969  0.86075685  1
  Li  Li5  1  0.42241818  0.95295241  0.51461120  1
  Li  Li6  1  0.03286745  0.06138409  0.02556913  1
  Li  Li7  1  0.06138409  0.02851665  0.85890313  1
  Li  Li8  1  0.56029180  0.96318546  0.70040007  1
  Li  Li9  1  0.40289365  0.43970820  0.36706607  1
  Li  Li10  1  0.53053423  0.57758182  0.18127820  1
  Li  Li11  1  0.54961111  0.60865242  0.52742385  1
  Li  Li12  1  0.45038889  0.39134758  0.02742385  1
  Li  Li13  1  0.46946577  0.42241818  0.68127820  1
  Li  Li14  1  0.59710635  0.56029180  0.86706607  1
  Li  Li15  1  0.43970820  0.03681454  0.20040007  1
  Li  Li16  1  0.93861591  0.97148335  0.35890313  1
  Li  Li17  1  0.96713255  0.93861591  0.52556913  1
  Li  Li18  1  0.57758182  0.04704759  0.01461120  1
  Li  Li19  1  0.60865242  0.05904031  0.36075685  1
  Li  Li20  1  0.95295241  0.53053423  0.34794520  1
  Li  Li21  1  0.94095969  0.54961111  0.69409085  1
  Li  Li22  1  0.96318546  0.40289365  0.53373307  1
  Li  Li23  1  0.97148335  0.03286745  0.19223613  1
  Fe  Fe24  1  0.09627886  0.82242596  0.27019746  1
  Fe  Fe25  1  0.07756031  0.75302429  0.91651772  1
  Fe  Fe26  1  0.11833478  0.74149573  0.59158130  1
  Fe  Fe27  1  0.30735450  0.67324270  0.75599916  1
  Fe  Fe28  1  0.32675730  0.63411280  0.08933216  1
  Fe  Fe29  1  0.36588720  0.69264550  0.42266516  1
  Fe  Fe30  1  0.17757404  0.27385390  0.60353046  1
  Fe  Fe31  1  0.25850427  0.37683905  0.92491430  1
  Fe  Fe32  1  0.24697571  0.32453603  0.24985072  1
  Fe  Fe33  1  0.62316095  0.88166522  0.25824830  1
  Fe  Fe34  1  0.67546397  0.92243969  0.58318372  1
  Fe  Fe35  1  0.27385390  0.09627886  0.43686346  1
  Fe  Fe36  1  0.72614610  0.90372114  0.93686346  1
  Fe  Fe37  1  0.32453603  0.07756031  0.08318372  1
  Fe  Fe38  1  0.37683905  0.11833478  0.75824830  1
  Fe  Fe39  1  0.75302429  0.67546397  0.74985072  1
  Fe  Fe40  1  0.74149573  0.62316095  0.42491430  1
  Fe  Fe41  1  0.82242596  0.72614610  0.10353046  1
  Fe  Fe42  1  0.63411280  0.30735450  0.92266516  1
  Fe  Fe43  1  0.67324270  0.36588720  0.58933216  1
  Fe  Fe44  1  0.69264550  0.32675730  0.25599916  1
  Fe  Fe45  1  0.88166522  0.25850427  0.09158130  1
  Fe  Fe46  1  0.92243969  0.24697571  0.41651772  1
  Fe  Fe47  1  0.90372114  0.17757404  0.77019746  1
  Si  Si48  1  0.08623028  0.79029320  0.78855248  1
  Si  Si49  1  0.07564508  0.74670145  0.46537838  1
  Si  Si50  1  0.13556678  0.76686585  0.14214139  1
  Si  Si51  1  0.27622639  0.64295071  0.29790055  1
  Si  Si52  1  0.36672432  0.72377361  0.96456755  1
  Si  Si53  1  0.35704929  0.63327568  0.63123355  1
  Si  Si54  1  0.23313415  0.36870093  0.47547439  1
  Si  Si55  1  0.20970680  0.29593608  0.12188548  1
  Si  Si56  1  0.25329855  0.32894363  0.79871138  1
  Si  Si57  1  0.63129907  0.86443322  0.80880839  1
  Si  Si58  1  0.67105637  0.92435492  0.13204438  1
  Si  Si59  1  0.70406392  0.91376972  0.45521848  1
  Si  Si60  1  0.29593608  0.08623028  0.95521848  1
  Si  Si61  1  0.32894363  0.07564508  0.63204438  1
  Si  Si62  1  0.36870093  0.13556678  0.30880839  1
  Si  Si63  1  0.74670145  0.67105637  0.29871138  1
  Si  Si64  1  0.79029320  0.70406392  0.62188548  1
  Si  Si65  1  0.76686585  0.63129907  0.97547439  1
  Si  Si66  1  0.64295071  0.36672432  0.13123355  1
  Si  Si67  1  0.63327568  0.27622639  0.46456755  1
  Si  Si68  1  0.72377361  0.35704929  0.79790055  1
  Si  Si69  1  0.86443322  0.23313415  0.64214139  1
  Si  Si70  1  0.92435492  0.25329855  0.96537838  1
  Si  Si71  1  0.91376972  0.20970680  0.28855248  1
  O  O72  1  0.02268836  0.75038298  0.09038695  1
  O  O73  1  0.09711961  0.92316685  0.47074050  1
  O  O74  1  0.01551928  0.68540105  0.84421600  1
  O  O75  1  0.12978770  0.96499089  0.92525526  1
  O  O76  1  0.04139956  0.75941747  0.19767034  1
  O  O77  1  0.01474894  0.65917832  0.52462312  1
  O  O78  1  0.23694522  0.95784387  0.80735629  1
  O  O79  1  0.12780653  0.67076511  0.30582873  1
  O  O80  1  0.12610441  0.68791466  0.74613960  1
  O  O81  1  0.29787274  0.94528145  0.58458673  1
  O  O82  1  0.30200407  0.93273608  0.13726164  1
  O  O83  1  0.17307246  0.62358115  0.13894370  1
  O  O84  1  0.24865013  0.77266618  0.45359452  1
  O  O85  1  0.18899407  0.60900103  0.61184535  1
  O  O86  1  0.06726392  0.36926799  0.47059564  1
  O  O87  1  0.27249661  0.76341582  0.91793707  1
  O  O88  1  0.05471855  0.35259130  0.91792073  1
  O  O89  1  0.04215613  0.27910036  0.14068929  1
  O  O90  1  0.03500911  0.16479681  0.25858826  1
  O  O91  1  0.07683315  0.17395276  0.80407350  1
  O  O92  1  0.26970738  0.68405617  0.02228852  1
  O  O93  1  0.23658418  0.50908079  0.25127007  1
  O  O94  1  0.31594383  0.58565121  0.35562152  1
  O  O95  1  0.22733382  0.47598296  0.78692852  1
  O  O96  1  0.41434879  0.73029262  0.68895552  1
  O  O97  1  0.42000695  0.81100593  0.27851135  1
  O  O98  1  0.45050869  0.82692754  0.80561070  1
  O  O99  1  0.31208534  0.43818974  0.07947360  1
  O  O100  1  0.32923489  0.45704141  0.63916273  1
  O  O101  1  0.37641885  0.54949131  0.47227670  1
  O  O102  1  0.24058253  0.28198208  0.53100334  1
  O  O103  1  0.39099897  0.57999305  0.94517835  1
  O  O104  1  0.49091921  0.72750339  0.58460407  1
  O  O105  1  0.54295859  0.87219347  0.97249573  1
  O  O106  1  0.56181026  0.87389559  0.41280660  1
  O  O107  1  0.16479681  0.12978770  0.09192126  1
  O  O108  1  0.24961702  0.27230538  0.42372095  1
  O  O109  1  0.31459895  0.33011723  0.17754900  1
  O  O110  1  0.17395276  0.09711961  0.63740650  1
  O  O111  1  0.34082168  0.35557063  0.85795712  1
  O  O112  1  0.52401704  0.75134987  0.12026152  1
  O  O113  1  0.27910036  0.23694522  0.97402329  1
  O  O114  1  0.64442937  0.98525106  0.19129012  1
  O  O115  1  0.35259130  0.29787274  0.75125373  1
  O  O116  1  0.36926799  0.30200407  0.30392864  1
  O  O117  1  0.66988277  0.98448072  0.51088200  1
  O  O118  1  0.71801792  0.95860044  0.86433734  1
  O  O119  1  0.27230538  0.02268836  0.25705395  1
  O  O120  1  0.72769462  0.97731164  0.75705395  1
  O  O121  1  0.28198208  0.04139956  0.36433734  1
  O  O122  1  0.33011723  0.01551928  0.01088200  1
  O  O123  1  0.63073201  0.69799593  0.80392864  1
  O  O124  1  0.64740970  0.70212726  0.25125373  1
  O  O125  1  0.35557063  0.01474894  0.69129012  1
  O  O126  1  0.72089964  0.76305478  0.47402329  1
  O  O127  1  0.47598296  0.24865013  0.62026152  1
  O  O128  1  0.65917832  0.64442937  0.35795712  1
  O  O129  1  0.82604724  0.90288039  0.13740650  1
  O  O130  1  0.68540105  0.66988277  0.67754900  1
  O  O131  1  0.75038298  0.72769462  0.92372095  1
  O  O132  1  0.83520319  0.87021230  0.59192126  1
  O  O133  1  0.43818974  0.12610441  0.91280660  1
  O  O134  1  0.45704141  0.12780653  0.47249573  1
  O  O135  1  0.50908079  0.27249661  0.08460407  1
  O  O136  1  0.60900103  0.42000695  0.44517835  1
  O  O137  1  0.75941747  0.71801792  0.03100334  1
  O  O138  1  0.62358115  0.45050869  0.97227670  1
  O  O139  1  0.67076511  0.54295859  0.13916273  1
  O  O140  1  0.68791466  0.56181026  0.57947360  1
  O  O141  1  0.54949131  0.17307246  0.30561070  1
  O  O142  1  0.57999305  0.18899407  0.77851135  1
  O  O143  1  0.58565121  0.26970738  0.18895552  1
  O  O144  1  0.77266618  0.52401704  0.28692852  1
  O  O145  1  0.68405617  0.41434879  0.85562152  1
  O  O146  1  0.76341582  0.49091921  0.75127007  1
  O  O147  1  0.73029262  0.31594383  0.52228852  1
  O  O148  1  0.92316685  0.82604724  0.30407350  1
  O  O149  1  0.96499089  0.83520319  0.75858826  1
  O  O150  1  0.95784387  0.72089964  0.64068929  1
  O  O151  1  0.94528145  0.64740970  0.41792073  1
  O  O152  1  0.72750339  0.23658418  0.41793707  1
  O  O153  1  0.93273608  0.63073201  0.97059564  1
  O  O154  1  0.81100593  0.39099897  0.11184535  1
  O  O155  1  0.75134987  0.22733382  0.95359452  1
  O  O156  1  0.82692754  0.37641885  0.63894370  1
  O  O157  1  0.69799593  0.06726392  0.63726164  1
  O  O158  1  0.70212726  0.05471855  0.08458673  1
  O  O159  1  0.87389559  0.31208534  0.24613960  1
  O  O160  1  0.87219347  0.32923489  0.80582873  1
  O  O161  1  0.76305478  0.04215613  0.30735629  1
  O  O162  1  0.98525106  0.34082168  0.02462312  1
  O  O163  1  0.95860044  0.24058253  0.69767034  1
  O  O164  1  0.87021230  0.03500911  0.42525526  1
  O  O165  1  0.98448072  0.31459895  0.34421600  1
  O  O166  1  0.90288039  0.07683315  0.97074050  1
  O  O167  1  0.97731164  0.24961702  0.59038695  1
