# generated using pymatgen
data_Li4Ni(PO3)6
_symmetry_space_group_name_H-M   'P 1'
_cell_length_a   7.60253057
_cell_length_b   7.30581844
_cell_length_c   7.46753065
_cell_angle_alpha   65.58497505
_cell_angle_beta   105.77707063
_cell_angle_gamma   80.49888973
_symmetry_Int_Tables_number   1
_chemical_formula_structural   Li4Ni(PO3)6
_chemical_formula_sum   'Li4 Ni1 P6 O18'
_cell_volume   344.74862673
_cell_formula_units_Z   1
loop_
 _symmetry_equiv_pos_site_id
 _symmetry_equiv_pos_as_xyz
  1  'x, y, z'
loop_
 _atom_site_type_symbol
 _atom_site_label
 _atom_site_symmetry_multiplicity
 _atom_site_fract_x
 _atom_site_fract_y
 _atom_site_fract_z
 _atom_site_occupancy
  Li  Li0  1  0.14255246  0.64030973  0.53927818  1
  Li  Li1  1  0.54531022  0.52290698  0.01238017  1
  Li  Li2  1  0.84148763  0.37196715  0.44247235  1
  Li  Li3  1  0.88572092  0.77137266  0.07278972  1
  Ni  Ni4  1  0.15905281  0.22504473  0.92262866  1
  P  P5  1  0.23388354  0.97079611  0.69720431  1
  P  P6  1  0.20653918  0.32874259  0.31768302  1
  P  P7  1  0.48540029  0.21976455  0.72488324  1
  P  P8  1  0.50114437  0.79173086  0.26759590  1
  P  P9  1  0.78187852  0.66148769  0.68548776  1
  P  P10  1  0.78090042  0.01479285  0.31246652  1
  O  O11  1  0.08064030  0.09918218  0.73231095  1
  O  O12  1  0.05523111  0.49142541  0.31653076  1
  O  O13  1  0.19142005  0.09513045  0.44571135  1
  O  O14  1  0.26247255  0.74254690  0.76307781  1
  O  O15  1  0.34306247  0.35328225  0.76894902  1
  O  O16  1  0.44146995  0.99377340  0.79668817  1
  O  O17  1  0.22121495  0.34915479  0.11523618  1
  O  O18  1  0.28577824  0.88742134  0.16540313  1
  O  O19  1  0.41485652  0.31273195  0.46763265  1
  O  O20  1  0.57121804  0.69259044  0.52486869  1
  O  O21  1  0.69459489  0.18127295  0.81302892  1
  O  O22  1  0.76437593  0.63780959  0.88715310  1
  O  O23  1  0.57573430  0.99617542  0.20105982  1
  O  O24  1  0.60643950  0.62967762  0.22655699  1
  O  O25  1  0.75043637  0.24271162  0.25349449  1
  O  O26  1  0.80892441  0.88992741  0.56269056  1
  O  O27  1  0.93405433  0.49700262  0.68504593  1
  O  O28  1  0.93420573  0.88926977  0.27969066  1
