# generated using pymatgen
data_Li2Si6Ni2O15
_symmetry_space_group_name_H-M   'P 1'
_cell_length_a   11.36358678
_cell_length_b   11.36358678
_cell_length_c   10.20796643
_cell_angle_alpha   90.00000000
_cell_angle_beta   90.00000000
_cell_angle_gamma   79.32945752
_symmetry_Int_Tables_number   1
_chemical_formula_structural   Li2Si6Ni2O15
_chemical_formula_sum   'Li8 Si24 Ni8 O60'
_cell_volume   1295.37241606
_cell_formula_units_Z   4
loop_
 _symmetry_equiv_pos_site_id
 _symmetry_equiv_pos_as_xyz
  1  'x, y, z'
loop_
 _atom_site_type_symbol
 _atom_site_label
 _atom_site_symmetry_multiplicity
 _atom_site_fract_x
 _atom_site_fract_y
 _atom_site_fract_z
 _atom_site_occupancy
  Li  Li0  1  0.99414004  0.49414004  0.75000000  1
  Li  Li1  1  0.50585996  0.00585996  0.25000000  1
  Li  Li2  1  0.60918317  0.60918317  0.74443465  1
  Li  Li3  1  0.10918317  0.10918317  0.75556535  1
  Li  Li4  1  0.89081683  0.89081683  0.24443465  1
  Li  Li5  1  0.39081683  0.39081683  0.25556535  1
  Li  Li6  1  0.49414004  0.99414004  0.75000000  1
  Li  Li7  1  0.00585996  0.50585996  0.25000000  1
  Si  Si8  1  0.17930875  0.96362360  0.19110326  1
  Si  Si9  1  0.03637640  0.82069125  0.80889674  1
  Si  Si10  1  0.20003015  0.41886592  0.45634163  1
  Si  Si11  1  0.08113408  0.29996985  0.95634163  1
  Si  Si12  1  0.58113408  0.79996985  0.54365837  1
  Si  Si13  1  0.70003015  0.91886592  0.04365837  1
  Si  Si14  1  0.32069125  0.53637640  0.69110326  1
  Si  Si15  1  0.46362360  0.67930875  0.30889674  1
  Si  Si16  1  0.52312629  0.73703052  0.00961953  1
  Si  Si17  1  0.02312629  0.23703052  0.49038047  1
  Si  Si18  1  0.76296948  0.97687371  0.50961953  1
  Si  Si19  1  0.26296948  0.47687371  0.99038047  1
  Si  Si20  1  0.97687371  0.76296948  0.50961953  1
  Si  Si21  1  0.23703052  0.02312629  0.49038047  1
  Si  Si22  1  0.47687371  0.26296948  0.99038047  1
  Si  Si23  1  0.73703052  0.52312629  0.00961953  1
  Si  Si24  1  0.67930875  0.46362360  0.30889674  1
  Si  Si25  1  0.53637640  0.32069125  0.69110326  1
  Si  Si26  1  0.41886592  0.20003015  0.45634163  1
  Si  Si27  1  0.29996985  0.08113408  0.95634163  1
  Si  Si28  1  0.79996985  0.58113408  0.54365837  1
  Si  Si29  1  0.91886592  0.70003015  0.04365837  1
  Si  Si30  1  0.96362360  0.17930875  0.19110326  1
  Si  Si31  1  0.82069125  0.03637640  0.80889674  1
  Ni  Ni32  1  0.24390069  0.75609931  0.00000000  1
  Ni  Ni33  1  0.16128335  0.66128335  0.25000000  1
  Ni  Ni34  1  0.33871665  0.83871665  0.75000000  1
  Ni  Ni35  1  0.25609931  0.74390069  0.50000000  1
  Ni  Ni36  1  0.74390069  0.25609931  0.50000000  1
  Ni  Ni37  1  0.83871665  0.33871665  0.75000000  1
  Ni  Ni38  1  0.66128335  0.16128335  0.25000000  1
  Ni  Ni39  1  0.75609931  0.24390069  0.00000000  1
  O  O40  1  0.23176166  0.99194837  0.33438548  1
  O  O41  1  0.00805163  0.76823834  0.66561452  1
  O  O42  1  0.17172664  0.82603811  0.16412170  1
  O  O43  1  0.17396189  0.82827336  0.83587830  1
  O  O44  1  0.09657133  0.74440307  0.42351273  1
  O  O45  1  0.25559693  0.90342867  0.57648727  1
  O  O46  1  0.24440307  0.59657133  0.07648727  1
  O  O47  1  0.40342867  0.75559693  0.92351273  1
  O  O48  1  0.32827336  0.67396189  0.66412170  1
  O  O49  1  0.32603811  0.67172664  0.33587830  1
  O  O50  1  0.15853081  0.49243037  0.32572939  1
  O  O51  1  0.00756963  0.34146919  0.82572939  1
  O  O52  1  0.65853081  0.99243037  0.17427061  1
  O  O53  1  0.50756963  0.84146919  0.67427061  1
  O  O54  1  0.00395118  0.27253594  0.08465987  1
  O  O55  1  0.22746406  0.49604882  0.58465987  1
  O  O56  1  0.72746406  0.99604882  0.91534013  1
  O  O57  1  0.50395118  0.77253594  0.41534013  1
  O  O58  1  0.15587530  0.40041145  0.00981858  1
  O  O59  1  0.09958855  0.34412470  0.50981858  1
  O  O60  1  0.65587530  0.90041145  0.49018142  1
  O  O61  1  0.59958855  0.84412470  0.99018142  1
  O  O62  1  0.26823834  0.50805163  0.83438548  1
  O  O63  1  0.49194837  0.73176166  0.16561452  1
  O  O64  1  0.95681080  0.95681080  0.82356097  1
  O  O65  1  0.61144098  0.61144098  0.95743710  1
  O  O66  1  0.32721368  0.32721368  0.41666474  1
  O  O67  1  0.04318920  0.04318920  0.17643903  1
  O  O68  1  0.17278632  0.17278632  0.91666474  1
  O  O69  1  0.11144098  0.11144098  0.54256290  1
  O  O70  1  0.45681080  0.45681080  0.67643903  1
  O  O71  1  0.38855902  0.38855902  0.04256290  1
  O  O72  1  0.54318920  0.54318920  0.32356097  1
  O  O73  1  0.67278632  0.67278632  0.58333526  1
  O  O74  1  0.82721368  0.82721368  0.08333526  1
  O  O75  1  0.88855902  0.88855902  0.45743710  1
  O  O76  1  0.73176166  0.49194837  0.16561452  1
  O  O77  1  0.50805163  0.26823834  0.83438548  1
  O  O78  1  0.84412470  0.59958855  0.99018142  1
  O  O79  1  0.40041145  0.15587530  0.00981858  1
  O  O80  1  0.34412470  0.09958855  0.50981858  1
  O  O81  1  0.90041145  0.65587530  0.49018142  1
  O  O82  1  0.27253594  0.00395118  0.08465987  1
  O  O83  1  0.49604882  0.22746406  0.58465987  1
  O  O84  1  0.99604882  0.72746406  0.91534013  1
  O  O85  1  0.77253594  0.50395118  0.41534013  1
  O  O86  1  0.49243037  0.15853081  0.32572939  1
  O  O87  1  0.34146919  0.00756963  0.82572939  1
  O  O88  1  0.84146919  0.50756963  0.67427061  1
  O  O89  1  0.99243037  0.65853081  0.17427061  1
  O  O90  1  0.67172664  0.32603811  0.33587830  1
  O  O91  1  0.67396189  0.32827336  0.66412170  1
  O  O92  1  0.75559693  0.40342867  0.92351273  1
  O  O93  1  0.59657133  0.24440307  0.07648727  1
  O  O94  1  0.74440307  0.09657133  0.42351273  1
  O  O95  1  0.90342867  0.25559693  0.57648727  1
  O  O96  1  0.82603811  0.17172664  0.16412170  1
  O  O97  1  0.82827336  0.17396189  0.83587830  1
  O  O98  1  0.99194837  0.23176166  0.33438548  1
  O  O99  1  0.76823834  0.00805163  0.66561452  1
