# generated using pymatgen
data_Li3P7W5O29
_symmetry_space_group_name_H-M   'P 1'
_cell_length_a   6.54309959
_cell_length_b   10.84966225
_cell_length_c   19.05679958
_cell_angle_alpha   91.86185584
_cell_angle_beta   85.02452229
_cell_angle_gamma   72.57868355
_symmetry_Int_Tables_number   1
_chemical_formula_structural   Li3P7W5O29
_chemical_formula_sum   'Li6 P14 W10 O58'
_cell_volume   1283.49578270
_cell_formula_units_Z   2
loop_
 _symmetry_equiv_pos_site_id
 _symmetry_equiv_pos_as_xyz
  1  'x, y, z'
loop_
 _atom_site_type_symbol
 _atom_site_label
 _atom_site_symmetry_multiplicity
 _atom_site_fract_x
 _atom_site_fract_y
 _atom_site_fract_z
 _atom_site_occupancy
  Li  Li0  1  0.45963330  0.91658605  0.53583565  1
  Li  Li1  1  0.31200599  0.39208710  0.76156875  1
  Li  Li2  1  0.14149180  0.68520373  0.85579897  1
  Li  Li3  1  0.87757108  0.91215138  0.07053322  1
  Li  Li4  1  0.87736887  0.32097500  0.13783423  1
  Li  Li5  1  0.69325032  0.60749475  0.24050924  1
  P  P6  1  0.16658293  0.43408380  0.21279101  1
  P  P7  1  0.03325078  0.67652832  0.45232675  1
  P  P8  1  0.17091417  0.65201727  0.01140652  1
  P  P9  1  0.39701687  0.04449614  0.34026316  1
  P  P10  1  0.24928162  0.71456563  0.57510424  1
  P  P11  1  0.40051565  0.21783953  0.85398381  1
  P  P12  1  0.07332005  0.92231876  0.80160343  1
  P  P13  1  0.92844911  0.08225194  0.19561325  1
  P  P14  1  0.60424901  0.78305045  0.14465560  1
  P  P15  1  0.75862085  0.29060501  0.42029420  1
  P  P16  1  0.60481253  0.95782355  0.65722355  1
  P  P17  1  0.81871518  0.35304923  0.98808094  1
  P  P18  1  0.96828305  0.32841502  0.54449642  1
  P  P19  1  0.84106824  0.56778964  0.78562804  1
  W  W20  1  0.06139162  0.05074561  0.64535016  1
  W  W21  1  0.31841894  0.32623937  0.03108672  1
  W  W22  1  0.42282882  0.12601988  0.15765673  1
  W  W23  1  0.11152043  0.74998139  0.18908341  1
  W  W24  1  0.21509456  0.36660542  0.38827687  1
  W  W25  1  0.79143285  0.63521383  0.60957107  1
  W  W26  1  0.88967765  0.25171862  0.81301657  1
  W  W27  1  0.58077136  0.87619773  0.84080326  1
  W  W28  1  0.67344245  0.67651122  0.96710324  1
  W  W29  1  0.93398956  0.96039294  0.35525862  1
  O  O30  1  0.00440416  0.30374353  0.03604872  1
  O  O31  1  0.09283496  0.14960968  0.16568934  1
  O  O32  1  0.00353705  0.05932484  0.83499639  1
  O  O33  1  0.03534532  0.19163340  0.56808125  1
  O  O34  1  0.16917441  0.52148763  0.03980914  1
  O  O35  1  0.14527671  0.35943235  0.49745747  1
  O  O36  1  0.40874483  0.06813705  0.26136854  1
  O  O37  1  0.29179185  0.33523034  0.14844879  1
  O  O38  1  0.44643435  0.14707109  0.05710224  1
  O  O39  1  0.13629211  0.74998029  0.07593893  1
  O  O40  1  0.03133405  0.81350636  0.28630678  1
  O  O41  1  0.32508015  0.17241004  0.38661290  1
  O  O42  1  0.11707947  0.56900012  0.39240692  1
  O  O43  1  0.23570342  0.55856503  0.20111043  1
  O  O44  1  0.26526761  0.37242104  0.27784283  1
  O  O45  1  0.20094769  0.26593175  0.81291478  1
  O  O46  1  0.08000104  0.67071634  0.62051200  1
  O  O47  1  0.08152116  0.55029450  0.78788003  1
  O  O48  1  0.38593921  0.03785087  0.63178575  1
  O  O49  1  0.24472078  0.66278204  0.49510269  1
  O  O50  1  0.47012106  0.07450350  0.86437380  1
  O  O51  1  0.35426901  0.29410189  0.92663348  1
  O  O52  1  0.10001634  0.91351229  0.72101296  1
  O  O53  1  0.20410833  0.86268846  0.57381223  1
  O  O54  1  0.61388463  0.36526862  0.03759400  1
  O  O55  1  0.71391162  0.16195459  0.16784482  1
  O  O56  1  0.24175657  0.96649388  0.36254052  1
  O  O57  1  0.53199117  0.35769045  0.40079689  1
  O  O58  1  0.42727448  0.75914306  0.19618800  1
  O  O59  1  0.56445732  0.26378790  0.80612386  1
  O  O60  1  0.47483773  0.64417959  0.59438429  1
  O  O61  1  0.76259998  0.03381429  0.63618926  1
  O  O62  1  0.28960374  0.84011136  0.82832808  1
  O  O63  1  0.37359347  0.64246955  0.96173957  1
  O  O64  1  0.82344822  0.14308522  0.41866310  1
  O  O65  1  0.90512303  0.09029336  0.27545418  1
  O  O66  1  0.62422232  0.70548799  0.07335941  1
  O  O67  1  0.57976596  0.92427859  0.12802035  1
  O  O68  1  0.75924395  0.34241508  0.50121696  1
  O  O69  1  0.61835703  0.96379226  0.36176848  1
  O  O70  1  0.92554689  0.45430793  0.21099310  1
  O  O71  1  0.91812731  0.34567757  0.37608864  1
  O  O72  1  0.80618800  0.72562826  0.18350917  1
  O  O73  1  0.74568670  0.62903290  0.71950939  1
  O  O74  1  0.77671395  0.44311606  0.79649651  1
  O  O75  1  0.88610398  0.43590036  0.60559916  1
  O  O76  1  0.66867370  0.83337257  0.60570673  1
  O  O77  1  0.96696839  0.19503654  0.71280646  1
  O  O78  1  0.83899250  0.26351648  0.92259303  1
  O  O79  1  0.55775707  0.85601852  0.94162439  1
  O  O80  1  0.70816850  0.66590911  0.84968708  1
  O  O81  1  0.59053174  0.92650282  0.73376956  1
  O  O82  1  0.85647927  0.64703886  0.50083335  1
  O  O83  1  0.82701378  0.48543058  0.96202806  1
  O  O84  1  0.96178786  0.81438234  0.43060950  1
  O  O85  1  0.99274013  0.94364181  0.16085916  1
  O  O86  1  0.91158508  0.84997475  0.82928978  1
  O  O87  1  0.98211324  0.70588200  0.96529512  1
