# generated using pymatgen
data_Li2MnSn(PO4)2
_symmetry_space_group_name_H-M   'P 1'
_cell_length_a   10.99308958
_cell_length_b   6.48888113
_cell_length_c   4.87036796
_cell_angle_alpha   90.00000000
_cell_angle_beta   89.37732412
_cell_angle_gamma   90.00000000
_symmetry_Int_Tables_number   1
_chemical_formula_structural   Li2MnSn(PO4)2
_chemical_formula_sum   'Li4 Mn2 Sn2 P4 O16'
_cell_volume   347.39671881
_cell_formula_units_Z   2
loop_
 _symmetry_equiv_pos_site_id
 _symmetry_equiv_pos_as_xyz
  1  'x, y, z'
loop_
 _atom_site_type_symbol
 _atom_site_label
 _atom_site_symmetry_multiplicity
 _atom_site_fract_x
 _atom_site_fract_y
 _atom_site_fract_z
 _atom_site_occupancy
  Li  Li0  1  0.00000000  0.00000000  0.00000000  1
  Li  Li1  1  0.00000000  0.50000000  0.00000000  1
  Li  Li2  1  0.50000000  0.00000000  0.50000000  1
  Li  Li3  1  0.50000000  0.50000000  0.50000000  1
  Mn  Mn4  1  0.21315187  0.75000000  0.47018280  1
  Mn  Mn5  1  0.78684813  0.25000000  0.52981720  1
  Sn  Sn6  1  0.27891034  0.25000000  0.97326810  1
  Sn  Sn7  1  0.72108966  0.75000000  0.02673190  1
  P  P8  1  0.07732809  0.25000000  0.42173967  1
  P  P9  1  0.40586095  0.75000000  0.88055722  1
  P  P10  1  0.59413905  0.25000000  0.11944278  1
  P  P11  1  0.92267191  0.75000000  0.57826033  1
  O  O12  1  0.04882551  0.75000000  0.72349374  1
  O  O13  1  0.06496840  0.25000000  0.73675372  1
  O  O14  1  0.14940197  0.05578726  0.31069398  1
  O  O15  1  0.14940197  0.44421274  0.31069398  1
  O  O16  1  0.34193488  0.56098161  0.74216648  1
  O  O17  1  0.34193488  0.93901839  0.74216648  1
  O  O18  1  0.39575573  0.75000000  0.19587739  1
  O  O19  1  0.46085440  0.25000000  0.23553136  1
  O  O20  1  0.53914560  0.75000000  0.76446864  1
  O  O21  1  0.60424427  0.25000000  0.80412261  1
  O  O22  1  0.65806512  0.06098161  0.25783352  1
  O  O23  1  0.65806512  0.43901839  0.25783352  1
  O  O24  1  0.85059803  0.55578726  0.68930602  1
  O  O25  1  0.85059803  0.94421274  0.68930602  1
  O  O26  1  0.93503160  0.75000000  0.26324628  1
  O  O27  1  0.95117449  0.25000000  0.27650626  1
