# generated using pymatgen
data_Li2VF4
_symmetry_space_group_name_H-M   'P 1'
_cell_length_a   5.23473601
_cell_length_b   6.29673300
_cell_length_c   9.82807222
_cell_angle_alpha   90.00000000
_cell_angle_beta   90.35329945
_cell_angle_gamma   90.00000000
_symmetry_Int_Tables_number   1
_chemical_formula_structural   Li2VF4
_chemical_formula_sum   'Li8 V4 F16'
_cell_volume   323.94415341
_cell_formula_units_Z   4
loop_
 _symmetry_equiv_pos_site_id
 _symmetry_equiv_pos_as_xyz
  1  'x, y, z'
loop_
 _atom_site_type_symbol
 _atom_site_label
 _atom_site_symmetry_multiplicity
 _atom_site_fract_x
 _atom_site_fract_y
 _atom_site_fract_z
 _atom_site_occupancy
  Li  Li0  1  0.24789375  0.09254107  0.13892700  1
  Li  Li1  1  0.25210625  0.59254107  0.36107300  1
  Li  Li2  1  0.26507748  0.08773753  0.45859258  1
  Li  Li3  1  0.23492252  0.58773753  0.04140742  1
  Li  Li4  1  0.76507748  0.41226247  0.95859258  1
  Li  Li5  1  0.73492252  0.91226247  0.54140742  1
  Li  Li6  1  0.74789375  0.40745893  0.63892700  1
  Li  Li7  1  0.75210625  0.90745893  0.86107300  1
  V  V8  1  0.25363592  0.67381747  0.74477671  1
  V  V9  1  0.24636408  0.17381747  0.75522329  1
  V  V10  1  0.75363592  0.82618253  0.24477671  1
  V  V11  1  0.74636408  0.32618253  0.25522329  1
  F  F12  1  0.05485615  0.34472255  0.11627480  1
  F  F13  1  0.10725097  0.81953991  0.14736598  1
  F  F14  1  0.09242074  0.92971699  0.62693109  1
  F  F15  1  0.10669685  0.41841728  0.62906705  1
  F  F16  1  0.39274903  0.31953991  0.35263402  1
  F  F17  1  0.44514385  0.84472255  0.38372520  1
  F  F18  1  0.59242074  0.57028301  0.12693109  1
  F  F19  1  0.39330315  0.91841728  0.87093295  1
  F  F20  1  0.60669685  0.08158272  0.12906705  1
  F  F21  1  0.40757926  0.42971699  0.87306891  1
  F  F22  1  0.55485615  0.15527745  0.61627480  1
  F  F23  1  0.60725097  0.68046009  0.64736598  1
  F  F24  1  0.89330315  0.58158272  0.37093295  1
  F  F25  1  0.90757926  0.07028301  0.37306891  1
  F  F26  1  0.89274903  0.18046009  0.85263402  1
  F  F27  1  0.94514385  0.65527745  0.88372520  1
