# generated using pymatgen
data_FeF4
_symmetry_space_group_name_H-M   'P 1'
_cell_length_a   5.45206901
_cell_length_b   5.45034761
_cell_length_c   6.36842733
_cell_angle_alpha   115.62056730
_cell_angle_beta   115.38616829
_cell_angle_gamma   89.96216635
_symmetry_Int_Tables_number   1
_chemical_formula_structural   FeF4
_chemical_formula_sum   'Fe2 F8'
_cell_volume   150.14283861
_cell_formula_units_Z   2
loop_
 _symmetry_equiv_pos_site_id
 _symmetry_equiv_pos_as_xyz
  1  'x, y, z'
loop_
 _atom_site_type_symbol
 _atom_site_label
 _atom_site_symmetry_multiplicity
 _atom_site_fract_x
 _atom_site_fract_y
 _atom_site_fract_z
 _atom_site_occupancy
  Fe  Fe0  1  0.99723415  0.49934588  0.99863864  1
  Fe  Fe1  1  0.50022263  0.00035926  0.99886569  1
  F  F2  1  0.95287819  0.45119104  0.23852089  1
  F  F3  1  0.70880322  0.21511033  0.75549689  1
  F  F4  1  0.04220102  0.54653261  0.75898281  1
  F  F5  1  0.21359949  0.04615778  0.75924035  1
  F  F6  1  0.28525355  0.78317547  0.24169246  1
  F  F7  1  0.45661276  0.28520152  0.24216643  1
  F  F8  1  0.78289083  0.94971652  0.23834626  1
  F  F9  1  0.54495115  0.71584758  0.75551759  1
