# generated using pymatgen
data_SrMg5
_symmetry_space_group_name_H-M   'P 1'
_cell_length_a   12.63523603
_cell_length_b   3.28253244
_cell_length_c   8.36550835
_cell_angle_alpha   90.00000000
_cell_angle_beta   107.15064067
_cell_angle_gamma   90.00000000
_symmetry_Int_Tables_number   1
_chemical_formula_structural   SrMg5
_chemical_formula_sum   'Sr2 Mg10'
_cell_volume   331.53570106
_cell_formula_units_Z   2
loop_
 _symmetry_equiv_pos_site_id
 _symmetry_equiv_pos_as_xyz
  1  'x, y, z'
loop_
 _atom_site_type_symbol
 _atom_site_label
 _atom_site_symmetry_multiplicity
 _atom_site_fract_x
 _atom_site_fract_y
 _atom_site_fract_z
 _atom_site_occupancy
  Sr  Sr0  1  0.38392178  -0.00000000  0.27258837  1
  Sr  Sr1  1  0.88392178  0.50000000  0.27258837  1
  Mg  Mg2  1  0.00983009  -0.00000000  0.98661487  1
  Mg  Mg3  1  0.15888843  0.50000000  0.34613449  1
  Mg  Mg4  1  0.06233754  -0.00000000  0.62961780  1
  Mg  Mg5  1  0.33394993  -0.00000000  0.67588881  1
  Mg  Mg6  1  0.21773923  0.50000000  0.92248865  1
  Mg  Mg7  1  0.50983009  0.50000000  0.98661487  1
  Mg  Mg8  1  0.65888843  -0.00000000  0.34613449  1
  Mg  Mg9  1  0.56233754  0.50000000  0.62961780  1
  Mg  Mg10  1  0.83394993  0.50000000  0.67588881  1
  Mg  Mg11  1  0.71773923  -0.00000000  0.92248865  1
