# generated using pymatgen
data_Li2Fe2(SiO3)3
_symmetry_space_group_name_H-M   'P 1'
_cell_length_a   10.13087491
_cell_length_b   10.13087554
_cell_length_c   12.32763539
_cell_angle_alpha   90.00000000
_cell_angle_beta   90.00000000
_cell_angle_gamma   120.00000039
_symmetry_Int_Tables_number   1
_chemical_formula_structural   Li2Fe2(SiO3)3
_chemical_formula_sum   'Li12 Fe12 Si18 O54'
_cell_volume   1095.73199692
_cell_formula_units_Z   6
loop_
 _symmetry_equiv_pos_site_id
 _symmetry_equiv_pos_as_xyz
  1  'x, y, z'
loop_
 _atom_site_type_symbol
 _atom_site_label
 _atom_site_symmetry_multiplicity
 _atom_site_fract_x
 _atom_site_fract_y
 _atom_site_fract_z
 _atom_site_occupancy
  Li  Li0  1  0.13939098  0.96951647  0.18611009  1
  Li  Li1  1  0.29586981  0.82237498  0.01431740  1
  Li  Li2  1  0.17762502  0.47349482  0.68098440  1
  Li  Li3  1  0.03048353  0.16987451  0.85277709  1
  Li  Li4  1  0.52650518  0.70413019  0.34765040  1
  Li  Li5  1  0.17389218  0.04516354  0.68755774  1
  Li  Li6  1  0.34315209  0.32846444  0.76159578  1
  Li  Li7  1  0.83012549  0.86060902  0.51944409  1
  Li  Li8  1  0.87127236  0.82610782  0.02089074  1
  Li  Li9  1  0.67153556  0.01468865  0.42826178  1
  Li  Li10  1  0.98531135  0.65684791  0.09492878  1
  Li  Li11  1  0.95483646  0.12872764  0.35422474  1
  Fe  Fe12  1  0.34156533  0.83664819  0.49620891  1
  Fe  Fe13  1  0.16335181  0.50491714  0.16287591  1
  Fe  Fe14  1  0.49508286  0.65843467  0.82954291  1
  Fe  Fe15  1  0.33725543  0.32554256  0.23903437  1
  Fe  Fe16  1  0.36698019  0.33146559  0.00101825  1
  Fe  Fe17  1  0.49249844  0.15931338  0.83906441  1
  Fe  Fe18  1  0.66681494  0.50750156  0.17239741  1
  Fe  Fe19  1  0.98828713  0.66274457  0.57236737  1
  Fe  Fe20  1  0.96448541  0.63301981  0.33435125  1
  Fe  Fe21  1  0.66853441  0.03551459  0.66768425  1
  Fe  Fe22  1  0.67445744  0.01171287  0.90570037  1
  Fe  Fe23  1  0.84068662  0.33318506  0.50573041  1
  Si  Si24  1  0.13458051  0.95266990  0.91640160  1
  Si  Si25  1  0.28797076  0.81287453  0.75869984  1
  Si  Si26  1  0.17798421  0.51008809  0.90241938  1
  Si  Si27  1  0.33210388  0.82201579  0.23575238  1
  Si  Si28  1  0.04733010  0.18191061  0.58306760  1
  Si  Si29  1  0.18712547  0.47509623  0.42536684  1
  Si  Si30  1  0.17600348  0.01036288  0.43600529  1
  Si  Si31  1  0.48991191  0.66789612  0.56908638  1
  Si  Si32  1  0.52490377  0.71202924  0.09203284  1
  Si  Si33  1  0.61849927  0.49576479  0.44681324  1
  Si  Si34  1  0.47346477  0.19157286  0.57198091  1
  Si  Si35  1  0.81808939  0.86541949  0.24973460  1
  Si  Si36  1  0.83435940  0.82399652  0.76933929  1
  Si  Si37  1  0.71810809  0.52653523  0.90531491  1
  Si  Si38  1  0.50423521  0.12273348  0.11347924  1
  Si  Si39  1  0.87726652  0.38150073  0.78014624  1
  Si  Si40  1  0.80842714  0.28189191  0.23864791  1
  Si  Si41  1  0.98963712  0.16564060  0.10267229  1
  O  O42  1  0.08632996  0.82320964  0.43763266  1
  O  O43  1  0.09583768  0.87817258  0.03575008  1
  O  O44  1  0.18434400  0.85395802  0.83762320  1
  O  O45  1  0.15003713  0.69999753  0.23116018  1
  O  O46  1  0.06005252  0.52570784  0.44149805  1
  O  O47  1  0.02264319  0.37714241  0.84134535  1
  O  O48  1  0.21974601  0.77585371  0.63629544  1
  O  O49  1  0.14568103  0.57424437  0.01248917  1
  O  O50  1  0.35450022  0.97735681  0.17467935  1
  O  O51  1  0.25837533  0.64843142  0.80978522  1
  O  O52  1  0.14604198  0.33038598  0.50429020  1
  O  O53  1  0.42856434  0.85431897  0.34582317  1
  O  O54  1  0.12182742  0.21766411  0.70241708  1
  O  O55  1  0.22414629  0.44389131  0.30296244  1
  O  O56  1  0.46565532  0.93994748  0.77483205  1
  O  O57  1  0.39005609  0.74162467  0.14311822  1
  O  O58  1  0.30000247  0.45003960  0.89782718  1
  O  O59  1  0.17679036  0.26312032  0.10429966  1
  O  O60  1  0.08022769  0.05085158  0.52746573  1
  O  O61  1  0.35156858  0.60994391  0.47645122  1
  O  O62  1  0.20130908  0.10140548  0.32448242  1
  O  O63  1  0.42575563  0.57143566  0.67915617  1
  O  O64  1  0.54996040  0.84996287  0.56449418  1
  O  O65  1  0.55610869  0.78025399  0.96962844  1
  O  O66  1  0.25688064  0.13163780  0.90187464  1
  O  O67  1  0.47429216  0.53434468  0.10816505  1
  O  O68  1  0.66961402  0.81565600  0.17095620  1
  O  O69  1  0.62285759  0.64549978  0.50801235  1
  O  O70  1  0.34076555  0.04966161  0.49602447  1
  O  O71  1  0.73687968  0.91367004  0.77096566  1
  O  O72  1  0.55166403  0.48836175  0.32381541  1
  O  O73  1  0.40260384  0.17869653  0.69234288  1
  O  O74  1  0.78233589  0.90416232  0.36908308  1
  O  O75  1  0.49474474  0.34625922  0.51416604  1
  O  O76  1  0.47798602  0.26818779  0.12669989  1
  O  O77  1  0.55083226  0.37731436  0.89626495  1
  O  O78  1  0.70889606  0.65923445  0.82935747  1
  O  O79  1  0.51163825  0.06330228  0.99048141  1
  O  O80  1  0.77609268  0.59739616  0.02567588  1
  O  O81  1  0.90009740  0.79869092  0.65781542  1
  O  O82  1  0.87475716  0.74311936  0.23520764  1
  O  O83  1  0.62268564  0.17351689  0.56293195  1
  O  O84  1  0.79020277  0.52201398  0.46003389  1
  O  O85  1  0.97062389  0.91977231  0.86079973  1
  O  O86  1  0.65374078  0.14848552  0.18083304  1
  O  O87  1  0.85151448  0.50525526  0.84749904  1
  O  O88  1  0.82648311  0.44916774  0.22959895  1
  O  O89  1  0.73181221  0.20979723  0.79336689  1
  O  O90  1  0.82130347  0.22390732  0.35900988  1
  O  O91  1  0.93669772  0.44833597  0.65714841  1
  O  O92  1  0.86836220  0.12524284  0.56854164  1
  O  O93  1  0.95033839  0.29110394  0.16269047  1
  O  O94  1  0.89859452  0.09990260  0.99114942  1
  O  O95  1  0.94914842  0.02937611  0.19413273  1
