# generated using pymatgen
data_SmH32C8N4Cl7
_symmetry_space_group_name_H-M   'P 1'
_cell_length_a   8.84378960
_cell_length_b   10.55512265
_cell_length_c   13.52336426
_cell_angle_alpha   90.00000000
_cell_angle_beta   90.00000000
_cell_angle_gamma   90.00000000
_symmetry_Int_Tables_number   1
_chemical_formula_structural   SmH32C8N4Cl7
_chemical_formula_sum   'Sm2 H64 C16 N8 Cl14'
_cell_volume   1262.36932312
_cell_formula_units_Z   2
loop_
 _symmetry_equiv_pos_site_id
 _symmetry_equiv_pos_as_xyz
  1  'x, y, z'
loop_
 _atom_site_type_symbol
 _atom_site_label
 _atom_site_symmetry_multiplicity
 _atom_site_fract_x
 _atom_site_fract_y
 _atom_site_fract_z
 _atom_site_occupancy
  Sm  Sm0  1  0.07086521  0.50000000  0.00000000  1
  Sm  Sm1  1  0.92913479  0.00000000  0.50000000  1
  H  H2  1  0.02165751  0.22688419  0.82524507  1
  H  H3  1  0.02165751  0.77311581  0.17475493  1
  H  H4  1  0.97834249  0.27311581  0.32524507  1
  H  H5  1  0.97834249  0.72688419  0.67475493  1
  H  H6  1  0.03737366  0.10934767  0.74378698  1
  H  H7  1  0.03737366  0.89065233  0.25621302  1
  H  H8  1  0.96262634  0.39065233  0.24378698  1
  H  H9  1  0.96262634  0.60934767  0.75621302  1
  H  H10  1  0.45778489  0.17771076  0.05729003  1
  H  H11  1  0.45778489  0.82228924  0.94270997  1
  H  H12  1  0.54221511  0.32228924  0.55729003  1
  H  H13  1  0.54221511  0.67771076  0.44270997  1
  H  H14  1  0.37553651  0.32184708  0.06606249  1
  H  H15  1  0.37553651  0.67815292  0.93393751  1
  H  H16  1  0.62446349  0.17815292  0.56606249  1
  H  H17  1  0.62446349  0.82184708  0.43393751  1
  H  H18  1  0.53623100  0.18539647  0.22751445  1
  H  H19  1  0.53623100  0.81460353  0.77248555  1
  H  H20  1  0.46376900  0.31460353  0.72751445  1
  H  H21  1  0.46376900  0.68539647  0.27248555  1
  H  H22  1  0.33687927  0.20841048  0.21666890  1
  H  H23  1  0.33687927  0.79158952  0.78333110  1
  H  H24  1  0.66312073  0.29158952  0.71666890  1
  H  H25  1  0.66312073  0.70841048  0.28333110  1
  H  H26  1  0.45780383  0.34155596  0.23764289  1
  H  H27  1  0.45780383  0.65844404  0.76235711  1
  H  H28  1  0.54219617  0.15844404  0.73764289  1
  H  H29  1  0.54219617  0.84155596  0.26235711  1
  H  H30  1  0.17380286  0.11530617  0.94464028  1
  H  H31  1  0.17380286  0.88469383  0.05535972  1
  H  H32  1  0.82619714  0.38469383  0.44464028  1
  H  H33  1  0.82619714  0.61530617  0.55535972  1
  H  H34  1  0.27086838  0.13244669  0.82992217  1
  H  H35  1  0.27086838  0.86755331  0.17007783  1
  H  H36  1  0.72913162  0.36755331  0.32992217  1
  H  H37  1  0.72913162  0.63244669  0.67007783  1
  H  H38  1  0.18458485  0.98408277  0.86069978  1
  H  H39  1  0.18458485  0.01591723  0.13930022  1
  H  H40  1  0.81541515  0.51591723  0.36069978  1
  H  H41  1  0.81541515  0.48408277  0.63930022  1
  H  H42  1  0.90472377  0.96652967  0.85748344  1
  H  H43  1  0.90472377  0.03347033  0.14251656  1
  H  H44  1  0.09527623  0.53347033  0.35748344  1
  H  H45  1  0.09527623  0.46652967  0.64251656  1
  H  H46  1  0.79531593  0.09869062  0.81638378  1
  H  H47  1  0.79531593  0.90130938  0.18361622  1
  H  H48  1  0.20468407  0.40130938  0.31638378  1
  H  H49  1  0.20468407  0.59869062  0.68361622  1
  H  H50  1  0.87799302  0.10070592  0.93688957  1
  H  H51  1  0.87799302  0.89929408  0.06311043  1
  H  H52  1  0.12200698  0.39929408  0.43688957  1
  H  H53  1  0.12200698  0.60070592  0.56311043  1
  H  H54  1  0.61616594  0.42221571  0.09544048  1
  H  H55  1  0.61616594  0.57778429  0.90455952  1
  H  H56  1  0.38383406  0.07778429  0.59544048  1
  H  H57  1  0.38383406  0.92221571  0.40455952  1
  H  H58  1  0.61311587  0.33585831  0.98178374  1
  H  H59  1  0.61311587  0.66414169  0.01821626  1
  H  H60  1  0.38688413  0.16414169  0.48178374  1
  H  H61  1  0.38688413  0.83585831  0.51821626  1
  H  H62  1  0.70340073  0.26935801  0.08784035  1
  H  H63  1  0.70340073  0.73064199  0.91215965  1
  H  H64  1  0.29659927  0.23064199  0.58784035  1
  H  H65  1  0.29659927  0.76935801  0.41215965  1
  C  C66  1  0.44806627  0.24962407  0.20101195  1
  C  C67  1  0.44806627  0.75037593  0.79898805  1
  C  C68  1  0.55193373  0.25037593  0.70101195  1
  C  C69  1  0.55193373  0.74962407  0.29898805  1
  C  C70  1  0.17550054  0.08656618  0.86710514  1
  C  C71  1  0.17550054  0.91343382  0.13289486  1
  C  C72  1  0.82449946  0.41343382  0.36710514  1
  C  C73  1  0.82449946  0.58656618  0.63289486  1
  C  C74  1  0.89287479  0.06921927  0.86059855  1
  C  C75  1  0.89287479  0.93078073  0.13940145  1
  C  C76  1  0.10712521  0.43078073  0.36059855  1
  C  C77  1  0.10712521  0.56921927  0.63940145  1
  C  C78  1  0.60920275  0.32799740  0.06253393  1
  C  C79  1  0.60920275  0.67200260  0.93746607  1
  C  C80  1  0.39079725  0.17200260  0.56253393  1
  C  C81  1  0.39079725  0.82799740  0.43746607  1
  N  N82  1  0.03225428  0.12922510  0.81904053  1
  N  N83  1  0.03225428  0.87077490  0.18095947  1
  N  N84  1  0.96774572  0.37077490  0.31904053  1
  N  N85  1  0.96774572  0.62922510  0.68095947  1
  N  N86  1  0.46404176  0.26754017  0.09226497  1
  N  N87  1  0.46404176  0.73245983  0.90773503  1
  N  N88  1  0.53595824  0.23245983  0.59226497  1
  N  N89  1  0.53595824  0.76754017  0.40773503  1
  Cl  Cl90  1  0.06153876  0.26982723  0.09287958  1
  Cl  Cl91  1  0.06153876  0.73017277  0.90712042  1
  Cl  Cl92  1  0.93846124  0.23017277  0.59287958  1
  Cl  Cl93  1  0.93846124  0.76982723  0.40712042  1
  Cl  Cl94  1  0.87356592  0.41417232  0.85887877  1
  Cl  Cl95  1  0.87356592  0.58582768  0.14112123  1
  Cl  Cl96  1  0.12643408  0.08582768  0.35887877  1
  Cl  Cl97  1  0.12643408  0.91417232  0.64112123  1
  Cl  Cl98  1  0.29920315  0.57899946  0.12012240  1
  Cl  Cl99  1  0.29920315  0.42100054  0.87987760  1
  Cl  Cl100  1  0.70079685  0.92100054  0.62012240  1
  Cl  Cl101  1  0.70079685  0.07899946  0.37987760  1
  Cl  Cl102  1  0.51807103  0.00000000  0.00000000  1
  Cl  Cl103  1  0.48192897  0.50000000  0.50000000  1
