# generated using pymatgen
data_LiNi4(PO4)3
_symmetry_space_group_name_H-M   'P 1'
_cell_length_a   7.40035464
_cell_length_b   7.77383075
_cell_length_c   9.57749480
_cell_angle_alpha   110.03718890
_cell_angle_beta   111.56999269
_cell_angle_gamma   94.85955313
_symmetry_Int_Tables_number   1
_chemical_formula_structural   LiNi4(PO4)3
_chemical_formula_sum   'Li2 Ni8 P6 O24'
_cell_volume   467.17825689
_cell_formula_units_Z   2
loop_
 _symmetry_equiv_pos_site_id
 _symmetry_equiv_pos_as_xyz
  1  'x, y, z'
loop_
 _atom_site_type_symbol
 _atom_site_label
 _atom_site_symmetry_multiplicity
 _atom_site_fract_x
 _atom_site_fract_y
 _atom_site_fract_z
 _atom_site_occupancy
  Li  Li0  1  0.36041456  0.18223318  0.38834141  1
  Li  Li1  1  0.63958544  0.81776682  0.61165859  1
  Ni  Ni2  1  0.01284091  0.79239279  0.44496874  1
  Ni  Ni3  1  0.27809592  0.90409104  0.92187901  1
  Ni  Ni4  1  0.28586901  0.53694140  0.93424914  1
  Ni  Ni5  1  0.28910795  0.60156672  0.29153055  1
  Ni  Ni6  1  0.71089205  0.39843328  0.70846945  1
  Ni  Ni7  1  0.71413099  0.46305860  0.06575086  1
  Ni  Ni8  1  0.72190408  0.09590896  0.07812099  1
  Ni  Ni9  1  0.98715909  0.20760721  0.55503126  1
  P  P10  1  0.02293233  0.24597498  0.93507689  1
  P  P11  1  0.31124576  0.55087877  0.60884395  1
  P  P12  1  0.40425887  0.13493366  0.74753068  1
  P  P13  1  0.59574113  0.86506634  0.25246932  1
  P  P14  1  0.68875424  0.44912123  0.39115605  1
  P  P15  1  0.97706767  0.75402502  0.06492311  1
  O  O16  1  0.14225774  0.74776950  0.00083649  1
  O  O17  1  0.08661929  0.06245353  0.90847482  1
  O  O18  1  0.17861419  0.04883784  0.62704142  1
  O  O19  1  0.25780399  0.63251031  0.75887650  1
  O  O20  1  0.19726683  0.33947766  0.50635605  1
  O  O21  1  0.05276334  0.72238549  0.22999003  1
  O  O22  1  0.43268640  0.33803929  0.87153754  1
  O  O23  1  0.24503831  0.66900074  0.50226225  1
  O  O24  1  0.47114063  0.01339106  0.85049009  1
  O  O25  1  0.19751466  0.42180040  0.05890408  1
  O  O26  1  0.53809645  0.57841169  0.66230204  1
  O  O27  1  0.53205335  0.14336664  0.65348627  1
  O  O28  1  0.46794765  0.85663336  0.34651373  1
  O  O29  1  0.46190355  0.42158831  0.33769796  1
  O  O30  1  0.80248534  0.57819960  0.94109592  1
  O  O31  1  0.52885937  0.98660894  0.14950991  1
  O  O32  1  0.75496169  0.33099926  0.49773775  1
  O  O33  1  0.56731360  0.66196071  0.12846246  1
  O  O34  1  0.94723666  0.27761451  0.77000997  1
  O  O35  1  0.80273317  0.66052234  0.49364395  1
  O  O36  1  0.74219601  0.36748969  0.24112350  1
  O  O37  1  0.82138581  0.95116216  0.37295858  1
  O  O38  1  0.91338071  0.93754647  0.09152518  1
  O  O39  1  0.85774226  0.25223050  0.99916351  1
