# generated using pymatgen
data_Li2Ni(PO3)4
_symmetry_space_group_name_H-M   'P 1'
_cell_length_a   7.44092801
_cell_length_b   9.29036537
_cell_length_c   7.75478963
_cell_angle_alpha   90.00000000
_cell_angle_beta   111.03860195
_cell_angle_gamma   90.00000000
_symmetry_Int_Tables_number   1
_chemical_formula_structural   Li2Ni(PO3)4
_chemical_formula_sum   'Li4 Ni2 P8 O24'
_cell_volume   500.34460852
_cell_formula_units_Z   2
loop_
 _symmetry_equiv_pos_site_id
 _symmetry_equiv_pos_as_xyz
  1  'x, y, z'
loop_
 _atom_site_type_symbol
 _atom_site_label
 _atom_site_symmetry_multiplicity
 _atom_site_fract_x
 _atom_site_fract_y
 _atom_site_fract_z
 _atom_site_occupancy
  Li  Li0  1  0.11015342  0.68410958  0.33583474  1
  Li  Li1  1  0.61015342  0.81589042  0.83583474  1
  Li  Li2  1  0.38984658  0.18410958  0.16416526  1
  Li  Li3  1  0.88984658  0.31589042  0.66416526  1
  Ni  Ni4  1  0.00000000  0.00000000  0.00000000  1
  Ni  Ni5  1  0.50000000  0.50000000  0.50000000  1
  P  P6  1  0.18691377  0.58829966  0.73521049  1
  P  P7  1  0.31308623  0.08829966  0.76478951  1
  P  P8  1  0.16948350  0.21509092  0.37402079  1
  P  P9  1  0.33051650  0.71509092  0.12597921  1
  P  P10  1  0.66948350  0.28490908  0.87402079  1
  P  P11  1  0.83051650  0.78490908  0.62597921  1
  P  P12  1  0.68691377  0.91170034  0.23521049  1
  P  P13  1  0.81308623  0.41170034  0.26478951  1
  O  O14  1  0.04462919  0.72567109  0.67591788  1
  O  O15  1  0.18615978  0.10322950  0.87742053  1
  O  O16  1  0.08117191  0.45271879  0.73470440  1
  O  O17  1  0.31950010  0.62784967  0.94482073  1
  O  O18  1  0.18049990  0.12784967  0.55517927  1
  O  O19  1  0.17140171  0.11012223  0.22671731  1
  O  O20  1  0.41882809  0.95271879  0.76529560  1
  O  O21  1  0.31384022  0.60322950  0.62257947  1
  O  O22  1  0.17830383  0.82724165  0.09086096  1
  O  O23  1  0.45537081  0.22567109  0.82408212  1
  O  O24  1  0.32169617  0.32724165  0.40913904  1
  O  O25  1  0.32859829  0.61012223  0.27328269  1
  O  O26  1  0.67140171  0.38987777  0.72671731  1
  O  O27  1  0.67830383  0.67275835  0.59086096  1
  O  O28  1  0.54462919  0.77432891  0.17591788  1
  O  O29  1  0.82169617  0.17275835  0.90913904  1
  O  O30  1  0.68615978  0.39677050  0.37742053  1
  O  O31  1  0.58117191  0.04728121  0.23470440  1
  O  O32  1  0.82859829  0.88987777  0.77328269  1
  O  O33  1  0.81950010  0.87215033  0.44482073  1
  O  O34  1  0.68049990  0.37215033  0.05517927  1
  O  O35  1  0.91882809  0.54728121  0.26529560  1
  O  O36  1  0.81384022  0.89677050  0.12257947  1
  O  O37  1  0.95537081  0.27432891  0.32408212  1
