# generated using pymatgen
data_Co(IO3)2
_symmetry_space_group_name_H-M   'P 1'
_cell_length_a   6.68872650
_cell_length_b   11.20793988
_cell_length_c   7.76198335
_cell_angle_alpha   90.00000000
_cell_angle_beta   112.58652188
_cell_angle_gamma   90.00000000
_symmetry_Int_Tables_number   1
_chemical_formula_structural   Co(IO3)2
_chemical_formula_sum   'Co4 I8 O24'
_cell_volume   537.26067335
_cell_formula_units_Z   4
loop_
 _symmetry_equiv_pos_site_id
 _symmetry_equiv_pos_as_xyz
  1  'x, y, z'
loop_
 _atom_site_type_symbol
 _atom_site_label
 _atom_site_symmetry_multiplicity
 _atom_site_fract_x
 _atom_site_fract_y
 _atom_site_fract_z
 _atom_site_occupancy
  Co  Co0  1  0.18473088  0.89875237  0.02697551  1
  Co  Co1  1  0.31526912  0.39875237  0.47302449  1
  Co  Co2  1  0.68473088  0.60124763  0.52697551  1
  Co  Co3  1  0.81526912  0.10124763  0.97302449  1
  I  I4  1  0.28392204  0.20688335  0.93018139  1
  I  I5  1  0.21607796  0.70688335  0.56981861  1
  I  I6  1  0.24694401  0.08062207  0.46146038  1
  I  I7  1  0.25305599  0.58062207  0.03853962  1
  I  I8  1  0.74694401  0.41937793  0.96146038  1
  I  I9  1  0.75305599  0.91937793  0.53853962  1
  I  I10  1  0.78392204  0.29311665  0.43018139  1
  I  I11  1  0.71607796  0.79311665  0.06981861  1
  O  O12  1  0.13178159  0.08277023  0.98643953  1
  O  O13  1  0.04164269  0.89451941  0.69097804  1
  O  O14  1  0.00556147  0.61125387  0.58873382  1
  O  O15  1  0.12846180  0.21289483  0.67811632  1
  O  O16  1  0.37153820  0.71289483  0.82188368  1
  O  O17  1  0.14030326  0.71815859  0.09999721  1
  O  O18  1  0.18344724  0.46227289  0.17255404  1
  O  O19  1  0.49443853  0.11125387  0.91126618  1
  O  O20  1  0.31655276  0.96227289  0.32744596  1
  O  O21  1  0.35969674  0.21815859  0.40000279  1
  O  O22  1  0.45835731  0.39451941  0.80902196  1
  O  O23  1  0.36821841  0.58277023  0.51356047  1
  O  O24  1  0.63178159  0.41722977  0.48643953  1
  O  O25  1  0.54164269  0.60548059  0.19097804  1
  O  O26  1  0.64030326  0.78184141  0.59999721  1
  O  O27  1  0.68344724  0.03772711  0.67255404  1
  O  O28  1  0.50556147  0.88874613  0.08873382  1
  O  O29  1  0.81655276  0.53772711  0.82744596  1
  O  O30  1  0.85969674  0.28184141  0.90000279  1
  O  O31  1  0.62846180  0.28710517  0.17811632  1
  O  O32  1  0.87153820  0.78710517  0.32188368  1
  O  O33  1  0.99443853  0.38874613  0.41126618  1
  O  O34  1  0.95835731  0.10548059  0.30902196  1
  O  O35  1  0.86821841  0.91722977  0.01356047  1
