# generated using pymatgen
data_CeAg3
_symmetry_space_group_name_H-M   'P 1'
_cell_length_a   6.56161402
_cell_length_b   6.55742428
_cell_length_c   4.89837978
_cell_angle_alpha   90.00000000
_cell_angle_beta   90.00000000
_cell_angle_gamma   119.96094896
_symmetry_Int_Tables_number   1
_chemical_formula_structural   CeAg3
_chemical_formula_sum   'Ce2 Ag6'
_cell_volume   182.59875507
_cell_formula_units_Z   2
loop_
 _symmetry_equiv_pos_site_id
 _symmetry_equiv_pos_as_xyz
  1  'x, y, z'
loop_
 _atom_site_type_symbol
 _atom_site_label
 _atom_site_symmetry_multiplicity
 _atom_site_fract_x
 _atom_site_fract_y
 _atom_site_fract_z
 _atom_site_occupancy
  Ce  Ce0  1  0.33320825  0.66660223  0.75000100  1
  Ce  Ce1  1  0.66661510  0.33345953  0.25000100  1
  Ag  Ag2  1  0.15067573  0.30144679  0.25000100  1
  Ag  Ag3  1  0.69861987  0.84938162  0.25000100  1
  Ag  Ag4  1  0.15078449  0.84924073  0.25000100  1
  Ag  Ag5  1  0.84931163  0.69859280  0.75000100  1
  Ag  Ag6  1  0.30141194  0.15064146  0.75000100  1
  Ag  Ag7  1  0.84937201  0.15063083  0.75000100  1
