# generated using pymatgen
data_Li2CrFeO4
_symmetry_space_group_name_H-M   'P 1'
_cell_length_a   5.13403814
_cell_length_b   6.65929428
_cell_length_c   6.63399055
_cell_angle_alpha   96.04453078
_cell_angle_beta   82.75201421
_cell_angle_gamma   97.29508329
_symmetry_Int_Tables_number   1
_chemical_formula_structural   Li2CrFeO4
_chemical_formula_sum   'Li6 Cr3 Fe3 O12'
_cell_volume   222.25576165
_cell_formula_units_Z   3
loop_
 _symmetry_equiv_pos_site_id
 _symmetry_equiv_pos_as_xyz
  1  'x, y, z'
loop_
 _atom_site_type_symbol
 _atom_site_label
 _atom_site_symmetry_multiplicity
 _atom_site_fract_x
 _atom_site_fract_y
 _atom_site_fract_z
 _atom_site_occupancy
  Li  Li0  1  0.49963106  0.16583868  0.16482678  1
  Li  Li1  1  0.50515428  0.50061383  0.49977213  1
  Li  Li2  1  0.99469981  0.00033309  0.00108317  1
  Li  Li3  1  0.99961175  0.33234110  0.33564341  1
  Li  Li4  1  0.50004993  0.83575146  0.83276224  1
  Li  Li5  1  0.00088280  0.66485690  0.66562287  1
  Cr  Cr6  1  0.74997011  0.91962483  0.41948364  1
  Cr  Cr7  1  0.25009401  0.08526031  0.58511898  1
  Cr  Cr8  1  0.24997357  0.41422950  0.91434315  1
  Fe  Fe9  1  0.74999566  0.25002960  0.74999372  1
  Fe  Fe10  1  0.74997612  0.58045264  0.08083341  1
  Fe  Fe11  1  0.25010792  0.74976227  0.24969112  1
  O  O12  1  0.87925014  0.30072449  0.02566694  1
  O  O13  1  0.62171073  0.19725427  0.47509103  1
  O  O14  1  0.87775806  0.63788393  0.36577846  1
  O  O15  1  0.87816898  0.97661860  0.69843288  1
  O  O16  1  0.62205690  0.86477795  0.13651191  1
  O  O17  1  0.37760483  0.46676056  0.19673470  1
  O  O18  1  0.38598151  0.13968414  0.86118432  1
  O  O19  1  0.62098833  0.52413386  0.79978206  1
  O  O20  1  0.11952583  0.03144888  0.30483187  1
  O  O21  1  0.38030458  0.80603978  0.53236442  1
  O  O22  1  0.11403228  0.36020602  0.63861825  1
  O  O23  1  0.12247082  0.69537231  0.96582855  1
