# generated using pymatgen
data_MnCo3O8
_symmetry_space_group_name_H-M   'P 1'
_cell_length_a   8.01961646
_cell_length_b   8.04186251
_cell_length_c   8.07094209
_cell_angle_alpha   89.94925897
_cell_angle_beta   89.81677649
_cell_angle_gamma   90.17681532
_symmetry_Int_Tables_number   1
_chemical_formula_structural   MnCo3O8
_chemical_formula_sum   'Mn4 Co12 O32'
_cell_volume   520.51111883
_cell_formula_units_Z   4
loop_
 _symmetry_equiv_pos_site_id
 _symmetry_equiv_pos_as_xyz
  1  'x, y, z'
loop_
 _atom_site_type_symbol
 _atom_site_label
 _atom_site_symmetry_multiplicity
 _atom_site_fract_x
 _atom_site_fract_y
 _atom_site_fract_z
 _atom_site_occupancy
  Mn  Mn0  1  0.12520495  0.87455600  0.37520473  1
  Mn  Mn1  1  0.37590166  0.12690515  0.87527660  1
  Mn  Mn2  1  0.62317905  0.62633915  0.62482584  1
  Mn  Mn3  1  0.87509141  0.37497497  0.12541669  1
  Co  Co4  1  0.12269095  0.12774234  0.62448269  1
  Co  Co5  1  0.12533034  0.37791349  0.87229438  1
  Co  Co6  1  0.12832248  0.62222971  0.12234164  1
  Co  Co7  1  0.37230791  0.37480906  0.62248483  1
  Co  Co8  1  0.37425838  0.62253355  0.37296785  1
  Co  Co9  1  0.37755175  0.87233392  0.12543787  1
  Co  Co10  1  0.62210623  0.37192699  0.37425970  1
  Co  Co11  1  0.62563518  0.12304477  0.12715576  1
  Co  Co12  1  0.62746204  0.87441504  0.87737985  1
  Co  Co13  1  0.87177734  0.12237689  0.37735555  1
  Co  Co14  1  0.87470525  0.87797815  0.62788098  1
  Co  Co15  1  0.87839405  0.62748750  0.87497442  1
  O  O16  1  0.10662602  0.11584763  0.39119294  1
  O  O17  1  0.10860118  0.89278690  0.61402898  1
  O  O18  1  0.11510609  0.60919306  0.88711869  1
  O  O19  1  0.13457640  0.14333309  0.85827292  1
  O  O20  1  0.11515631  0.39088685  0.10923524  1
  O  O21  1  0.13997522  0.35992904  0.63633454  1
  O  O22  1  0.14090289  0.63619266  0.36042522  1
  O  O23  1  0.14281027  0.85768914  0.13565546  1
  O  O24  1  0.35946778  0.14198937  0.63590510  1
  O  O25  1  0.35922331  0.36724409  0.85700674  1
  O  O26  1  0.36010832  0.63551301  0.14046662  1
  O  O27  1  0.38398145  0.60929039  0.60847717  1
  O  O28  1  0.36540482  0.85865561  0.35786644  1
  O  O29  1  0.38949645  0.38847965  0.38811929  1
  O  O30  1  0.39263808  0.10888781  0.11428512  1
  O  O31  1  0.38973062  0.88739745  0.89193264  1
  O  O32  1  0.60894473  0.38615459  0.60820349  1
  O  O33  1  0.60764179  0.60830974  0.38582408  1
  O  O34  1  0.60979257  0.88750657  0.11119028  1
  O  O35  1  0.63481990  0.36001662  0.14143754  1
  O  O36  1  0.61565447  0.10917463  0.89235225  1
  O  O37  1  0.63854607  0.13538448  0.35941753  1
  O  O38  1  0.64012587  0.86608020  0.64326547  1
  O  O39  1  0.64161346  0.64198262  0.86430070  1
  O  O40  1  0.85805332  0.35742606  0.36458858  1
  O  O41  1  0.85874106  0.13639280  0.14002629  1
  O  O42  1  0.86109045  0.86016187  0.86293591  1
  O  O43  1  0.88411078  0.89007247  0.39179246  1
  O  O44  1  0.86486010  0.64337399  0.64159659  1
  O  O45  1  0.88684147  0.10930393  0.61273572  1
  O  O46  1  0.89130298  0.39169908  0.88629824  1
  O  O47  1  0.89413780  0.61621889  0.10811136  1
