# generated using pymatgen
data_H34C19
_symmetry_space_group_name_H-M   'P 1'
_cell_length_a   10.58756961
_cell_length_b   7.33459887
_cell_length_c   10.83892897
_cell_angle_alpha   90.00000000
_cell_angle_beta   105.79550453
_cell_angle_gamma   90.00000000
_symmetry_Int_Tables_number   1
_chemical_formula_structural   H34C19
_chemical_formula_sum   'H68 C38'
_cell_volume   809.92001414
_cell_formula_units_Z   2
loop_
 _symmetry_equiv_pos_site_id
 _symmetry_equiv_pos_as_xyz
  1  'x, y, z'
loop_
 _atom_site_type_symbol
 _atom_site_label
 _atom_site_symmetry_multiplicity
 _atom_site_fract_x
 _atom_site_fract_y
 _atom_site_fract_z
 _atom_site_occupancy
  H  H0  1  0.32773555  0.80877753  0.97359509  1
  H  H1  1  0.67226445  0.30877853  0.02640591  1
  H  H2  1  0.20849954  0.63260184  0.94264944  1
  H  H3  1  0.79150146  0.13260084  0.05735156  1
  H  H4  1  0.00322312  0.05696864  0.04404516  1
  H  H5  1  0.99677788  0.55696964  0.95595584  1
  H  H6  1  0.11649845  0.08005079  0.95185212  1
  H  H7  1  0.88350055  0.58005179  0.04814688  1
  H  H8  1  0.11587976  0.31469788  0.19381886  1
  H  H9  1  0.88412024  0.81469788  0.80618214  1
  H  H10  1  0.20588395  0.33725512  0.07968489  1
  H  H11  1  0.79411605  0.83725612  0.92031511  1
  H  H12  1  0.40685579  0.94036874  0.37816266  1
  H  H13  1  0.59314321  0.44036774  0.62183734  1
  H  H14  1  0.33527175  0.14678234  0.41090616  1
  H  H15  1  0.66472825  0.64678134  0.58909384  1
  H  H16  1  0.09389639  0.86451544  0.01717568  1
  H  H17  1  0.90610361  0.36451444  0.98282432  1
  H  H18  1  0.69632058  0.52753320  0.86259018  1
  H  H19  1  0.30367742  0.02753320  0.13741082  1
  H  H20  1  0.10145209  0.68175428  0.75840948  1
  H  H21  1  0.89854891  0.18175428  0.24158952  1
  H  H22  1  0.35514606  0.60669162  0.06732555  1
  H  H23  1  0.64485394  0.10669062  0.93267345  1
  H  H24  1  0.03095734  0.70855425  0.59235043  1
  H  H25  1  0.96904366  0.20855425  0.40764957  1
  H  H26  1  0.13183698  0.88262298  0.68191656  1
  H  H27  1  0.86816302  0.38262298  0.31808344  1
  H  H28  1  0.29020078  0.32484711  0.24509320  1
  H  H29  1  0.70980022  0.82484711  0.75490680  1
  H  H30  1  0.89680033  0.21380915  0.81284617  1
  H  H31  1  0.10319967  0.71381015  0.18715483  1
  H  H32  1  0.88902873  0.51627769  0.69900488  1
  H  H33  1  0.11097127  0.01627669  0.30099412  1
  H  H34  1  0.65945204  0.45109112  0.20224807  1
  H  H35  1  0.34054696  0.95109212  0.79775193  1
  H  H36  1  0.49133103  0.39952330  0.38854434  1
  H  H37  1  0.50866997  0.89952430  0.61145466  1
  H  H38  1  0.56282520  0.60296885  0.35144192  1
  H  H39  1  0.43717480  0.10297085  0.64855908  1
  H  H40  1  0.78336552  0.49489402  0.45831719  1
  H  H41  1  0.21663548  0.99489402  0.54168181  1
  H  H42  1  0.35489925  0.64169477  0.50763646  1
  H  H43  1  0.64509975  0.14169677  0.49236454  1
  H  H44  1  0.93785483  0.22076008  0.60244812  1
  H  H45  1  0.06214417  0.72076008  0.39755388  1
  H  H46  1  0.15057343  0.52222258  0.37863486  1
  H  H47  1  0.84942757  0.02222158  0.62136614  1
  H  H48  1  0.27521130  0.69354093  0.25588478  1
  H  H49  1  0.72478970  0.19354293  0.74411622  1
  H  H50  1  0.44529700  0.59939854  0.71118767  1
  H  H51  1  0.55470300  0.09939754  0.28881233  1
  H  H52  1  0.50710501  0.88424332  0.83339575  1
  H  H53  1  0.49289499  0.38424232  0.16660425  1
  H  H54  1  0.88654751  0.90667418  0.43543339  1
  H  H55  1  0.11345349  0.40667518  0.56456661  1
  H  H56  1  0.80366153  0.69330231  0.25589123  1
  H  H57  1  0.19633847  0.19330431  0.74410877  1
  H  H58  1  0.28456711  0.36350845  0.59367959  1
  H  H59  1  0.71543189  0.86350645  0.40631841  1
  H  H60  1  0.65057961  0.80370877  0.04970908  1
  H  H61  1  0.34942039  0.30371077  0.95029092  1
  H  H62  1  0.51005061  0.07591959  0.07092599  1
  H  H63  1  0.48994939  0.57592059  0.92907601  1
  H  H64  1  0.13533616  0.39191543  0.79910014  1
  H  H65  1  0.86466384  0.89191543  0.20089986  1
  H  H66  1  0.57681532  0.79899681  0.17779842  1
  H  H67  1  0.42318468  0.29899581  0.82220258  1
  C  C68  1  0.12022175  0.73448015  0.67046277  1
  C  C69  1  0.87977825  0.23448115  0.32953823  1
  C  C70  1  0.31424831  0.66041385  0.96983830  1
  C  C71  1  0.68574969  0.16041485  0.03016170  1
  C  C72  1  0.20020121  0.96217678  0.27986984  1
  C  C73  1  0.79979979  0.46217578  0.72012916  1
  C  C74  1  0.18475208  0.75385564  0.26989181  1
  C  C75  1  0.81524792  0.25385564  0.73010719  1
  C  C76  1  0.15822077  0.67143358  0.39086815  1
  C  C77  1  0.84177823  0.17143458  0.60913185  1
  C  C78  1  0.23924836  0.63952617  0.64213668  1
  C  C79  1  0.76075064  0.13952517  0.35786132  1
  C  C80  1  0.09968849  0.01122261  0.03653771  1
  C  C81  1  0.90031051  0.51122361  0.96346129  1
  C  C82  1  0.20611093  0.27101605  0.17096659  1
  C  C83  1  0.79389007  0.77101605  0.82903241  1
  C  C84  1  0.20939707  0.06292734  0.15626432  1
  C  C85  1  0.79060393  0.56292734  0.84373668  1
  C  C86  1  0.31757973  0.99886225  0.39689634  1
  C  C87  1  0.68242027  0.49886225  0.60310466  1
  C  C88  1  0.26531980  0.71417812  0.51455309  1
  C  C89  1  0.73468120  0.21417812  0.48544691  1
  C  C90  1  0.29973621  0.91965780  0.52294214  1
  C  C91  1  0.70026379  0.41965680  0.47705886  1
  C  C92  1  0.34780848  0.36849872  0.85781926  1
  C  C93  1  0.65219152  0.86849972  0.14217974  1
  C  C94  1  0.21484314  0.34051925  0.76055055  1
  C  C95  1  0.78515786  0.84051925  0.23944845  1
  C  C96  1  0.21053432  0.43184117  0.63218744  1
  C  C97  1  0.78946468  0.93184017  0.36781156  1
  C  C98  1  0.42124212  0.95442926  0.63551725  1
  C  C99  1  0.57875788  0.45442826  0.36448275  1
  C  C100  1  0.41074669  0.87056903  0.76188337  1
  C  C101  1  0.58925431  0.37056803  0.23811763  1
  C  C102  1  0.37074911  0.66862934  0.74880467  1
  C  C103  1  0.62925189  0.16863034  0.25119633  1
  C  C104  1  0.38405425  0.57129224  0.87904781  1
  C  C105  1  0.61594575  0.07129124  0.12095319  1
