# generated using pymatgen
data_MgTi
_symmetry_space_group_name_H-M   'P 1'
_cell_length_a   10.92653591
_cell_length_b   2.97026994
_cell_length_c   7.44959541
_cell_angle_alpha   90.00000000
_cell_angle_beta   104.41419978
_cell_angle_gamma   90.00000000
_symmetry_Int_Tables_number   1
_chemical_formula_structural   MgTi
_chemical_formula_sum   'Mg6 Ti6'
_cell_volume   234.16413000
_cell_formula_units_Z   6
loop_
 _symmetry_equiv_pos_site_id
 _symmetry_equiv_pos_as_xyz
  1  'x, y, z'
loop_
 _atom_site_type_symbol
 _atom_site_label
 _atom_site_symmetry_multiplicity
 _atom_site_fract_x
 _atom_site_fract_y
 _atom_site_fract_z
 _atom_site_occupancy
  Mg  Mg0  1  0.38818512  0.00000000  0.27535321  1
  Mg  Mg1  1  0.16609633  0.50000000  0.32759781  1
  Mg  Mg2  1  0.05804652  0.00000000  0.61908861  1
  Mg  Mg3  1  0.88818512  0.50000000  0.27535321  1
  Mg  Mg4  1  0.66609633  -0.00000000  0.32759781  1
  Mg  Mg5  1  0.55804652  0.50000000  0.61908861  1
  Ti  Ti6  1  0.99552954  0.00000000  0.98197721  1
  Ti  Ti7  1  0.33679436  0.00000000  0.69575523  1
  Ti  Ti8  1  0.22201514  0.50000000  0.93356093  1
  Ti  Ti9  1  0.49552954  0.50000000  0.98197721  1
  Ti  Ti10  1  0.83679436  0.50000000  0.69575523  1
  Ti  Ti11  1  0.72201514  0.00000000  0.93356093  1
