# generated using pymatgen
data_Li3Ca
_symmetry_space_group_name_H-M   'P 1'
_cell_length_a   5.29521845
_cell_length_b   5.29523502
_cell_length_c   5.29513875
_cell_angle_alpha   60.00006413
_cell_angle_beta   59.99994465
_cell_angle_gamma   59.99971132
_symmetry_Int_Tables_number   1
_chemical_formula_structural   Li3Ca
_chemical_formula_sum   'Li3 Ca1'
_cell_volume   104.98579711
_cell_formula_units_Z   1
loop_
 _symmetry_equiv_pos_site_id
 _symmetry_equiv_pos_as_xyz
  1  'x, y, z'
loop_
 _atom_site_type_symbol
 _atom_site_label
 _atom_site_symmetry_multiplicity
 _atom_site_fract_x
 _atom_site_fract_y
 _atom_site_fract_z
 _atom_site_occupancy
  Li  Li0  1  -0.00000307  0.00000020  0.00000031  1
  Li  Li1  1  0.49999918  0.50000346  0.49999809  1
  Li  Li2  1  0.24999671  0.25000373  0.24999841  1
  Ca  Ca3  1  0.75000718  0.74999262  0.75000319  1
