# generated using pymatgen
data_Mg5Ti
_symmetry_space_group_name_H-M   'P 1'
_cell_length_a   5.10389694
_cell_length_b   3.10794366
_cell_length_c   16.46512755
_cell_angle_alpha   90.00000000
_cell_angle_beta   90.00000000
_cell_angle_gamma   90.00000000
_symmetry_Int_Tables_number   1
_chemical_formula_structural   Mg5Ti
_chemical_formula_sum   'Mg10 Ti2'
_cell_volume   261.18012968
_cell_formula_units_Z   2
loop_
 _symmetry_equiv_pos_site_id
 _symmetry_equiv_pos_as_xyz
  1  'x, y, z'
loop_
 _atom_site_type_symbol
 _atom_site_label
 _atom_site_symmetry_multiplicity
 _atom_site_fract_x
 _atom_site_fract_y
 _atom_site_fract_z
 _atom_site_occupancy
  Mg  Mg0  1  0.50000000  0.00000000  0.00034702  1
  Mg  Mg1  1  0.50000000  -0.00000000  0.67005827  1
  Mg  Mg2  1  0.50000000  0.50000000  0.82878786  1
  Mg  Mg3  1  -0.00000000  -0.00000000  0.88525068  1
  Mg  Mg4  1  0.00000000  -0.00000000  0.56002928  1
  Mg  Mg5  1  0.50000000  0.50000000  0.50034702  1
  Mg  Mg6  1  0.50000000  0.50000000  0.17005827  1
  Mg  Mg7  1  0.50000000  0.00000000  0.32878786  1
  Mg  Mg8  1  -0.00000000  0.50000000  0.38525068  1
  Mg  Mg9  1  0.00000000  0.50000000  0.06002928  1
  Ti  Ti10  1  0.00000000  0.50000000  0.72219390  1
  Ti  Ti11  1  0.00000000  -0.00000000  0.22219390  1
