# generated using pymatgen
data_Nb4Ag2O11
_symmetry_space_group_name_H-M   'P 1'
_cell_length_a   13.24308657
_cell_length_b   13.24308657
_cell_length_c   13.24308617
_cell_angle_alpha   27.34979835
_cell_angle_beta   27.34979835
_cell_angle_gamma   27.34980500
_symmetry_Int_Tables_number   1
_chemical_formula_structural   Nb4Ag2O11
_chemical_formula_sum   'Nb8 Ag4 O22'
_cell_volume   432.59593303
_cell_formula_units_Z   2
loop_
 _symmetry_equiv_pos_site_id
 _symmetry_equiv_pos_as_xyz
  1  'x, y, z'
loop_
 _atom_site_type_symbol
 _atom_site_label
 _atom_site_symmetry_multiplicity
 _atom_site_fract_x
 _atom_site_fract_y
 _atom_site_fract_z
 _atom_site_occupancy
  Nb  Nb0  1  0.00393669  0.00393669  0.00393669  1
  Nb  Nb1  1  0.50393769  0.50393769  0.50393769  1
  Nb  Nb2  1  0.62198421  0.88507198  0.24739055  1
  Nb  Nb3  1  0.24739155  0.62198321  0.88507198  1
  Nb  Nb4  1  0.88507098  0.24739055  0.62198521  1
  Nb  Nb5  1  0.38507198  0.12198421  0.74739055  1
  Nb  Nb6  1  0.12198421  0.74739055  0.38507098  1
  Nb  Nb7  1  0.74739055  0.38507298  0.12198321  1
  Ag  Ag8  1  0.32861689  0.32861689  0.32861689  1
  Ag  Ag9  1  0.82861689  0.82861689  0.82861689  1
  Ag  Ag10  1  0.17390940  0.17390940  0.17390940  1
  Ag  Ag11  1  0.67390940  0.67390940  0.67390940  1
  O  O12  1  0.71698781  0.94739642  0.23595744  1
  O  O13  1  0.23595844  0.71698581  0.94739742  1
  O  O14  1  0.94739542  0.23595944  0.71698681  1
  O  O15  1  0.44739542  0.21698681  0.73595944  1
  O  O16  1  0.21698781  0.73595844  0.44739542  1
  O  O17  1  0.73595744  0.44739642  0.21698681  1
  O  O18  1  0.09297974  0.09297974  0.09297974  1
  O  O19  1  0.59297974  0.59297974  0.59297974  1
  O  O20  1  0.40316075  0.40316075  0.40316075  1
  O  O21  1  0.90316075  0.90316075  0.90316075  1
  O  O22  1  0.99152520  0.50258326  0.25117627  1
  O  O23  1  0.25117627  0.99152520  0.50258426  1
  O  O24  1  0.50258526  0.25117527  0.99152520  1
  O  O25  1  0.00258626  0.49152520  0.75117427  1
  O  O26  1  0.49152620  0.75117527  0.00258426  1
  O  O27  1  0.75117527  0.00258426  0.49152620  1
  O  O28  1  0.25510399  0.54657904  0.78494035  1
  O  O29  1  0.78494035  0.25510399  0.54658004  1
  O  O30  1  0.54658004  0.78493835  0.25510499  1
  O  O31  1  0.04657904  0.75510599  0.28493835  1
  O  O32  1  0.75510399  0.28493935  0.04658004  1
  O  O33  1  0.28493835  0.04658004  0.75510499  1
