# generated using pymatgen
data_CaV4(CoO7)2
_symmetry_space_group_name_H-M   'P 1'
_cell_length_a   6.82263725
_cell_length_b   11.25838853
_cell_length_c   14.65675774
_cell_angle_alpha   90.00000000
_cell_angle_beta   90.00000000
_cell_angle_gamma   101.49221089
_symmetry_Int_Tables_number   1
_chemical_formula_structural   CaV4(CoO7)2
_chemical_formula_sum   'Ca4 V16 Co8 O56'
_cell_volume   1103.24288940
_cell_formula_units_Z   4
loop_
 _symmetry_equiv_pos_site_id
 _symmetry_equiv_pos_as_xyz
  1  'x, y, z'
loop_
 _atom_site_type_symbol
 _atom_site_label
 _atom_site_symmetry_multiplicity
 _atom_site_fract_x
 _atom_site_fract_y
 _atom_site_fract_z
 _atom_site_occupancy
  Ca  Ca0  1  0.32522302  0.97187363  0.87640845  1
  Ca  Ca1  1  0.67477698  0.52812637  0.37640845  1
  Ca  Ca2  1  0.67477698  0.02812637  0.12359155  1
  Ca  Ca3  1  0.32522302  0.47187363  0.62359155  1
  V  V4  1  0.84078864  0.98166281  0.86516906  1
  V  V5  1  0.41827092  0.68674451  0.00875939  1
  V  V6  1  0.41827092  0.18674451  0.49124061  1
  V  V7  1  0.58172908  0.31325549  0.99124061  1
  V  V8  1  0.50746484  0.79377874  0.70364070  1
  V  V9  1  0.49253516  0.70622126  0.20364070  1
  V  V10  1  0.49253516  0.20622126  0.29635930  1
  V  V11  1  0.50746484  0.29377874  0.79635930  1
  V  V12  1  0.58172908  0.81325549  0.50875939  1
  V  V13  1  0.87273759  0.48070156  0.13687083  1
  V  V14  1  0.12726241  0.01929844  0.63687083  1
  V  V15  1  0.12726241  0.51929844  0.86312917  1
  V  V16  1  0.15921136  0.51833719  0.36516906  1
  V  V17  1  0.84078864  0.48166281  0.63483094  1
  V  V18  1  0.15921136  0.01833719  0.13483094  1
  V  V19  1  0.87273759  0.98070156  0.36312917  1
  Co  Co20  1  0.63850171  0.07851301  0.67087206  1
  Co  Co21  1  0.36149829  0.42148699  0.17087206  1
  Co  Co22  1  0.36149829  0.92148699  0.32912794  1
  Co  Co23  1  0.63850171  0.57851301  0.82912794  1
  Co  Co24  1  0.99747469  0.24752124  0.75598394  1
  Co  Co25  1  0.00252531  0.25247876  0.25598394  1
  Co  Co26  1  0.00252531  0.75247876  0.24401606  1
  Co  Co27  1  0.99747469  0.74752124  0.74401606  1
  O  O28  1  0.75079871  0.97105921  0.97229206  1
  O  O29  1  0.24920129  0.52894079  0.47229206  1
  O  O30  1  0.24920129  0.02894079  0.02770794  1
  O  O31  1  0.75079871  0.47105921  0.52770794  1
  O  O32  1  0.99249396  0.87519769  0.84012045  1
  O  O33  1  0.00750604  0.62480231  0.34012045  1
  O  O34  1  0.00750604  0.12480231  0.15987955  1
  O  O35  1  0.99249396  0.37519769  0.65987955  1
  O  O36  1  0.99217284  0.12504797  0.84622122  1
  O  O37  1  0.00782716  0.37495203  0.34622122  1
  O  O38  1  0.00782716  0.87495203  0.15377878  1
  O  O39  1  0.99217284  0.62504797  0.65377878  1
  O  O40  1  0.66695572  0.95115901  0.29089568  1
  O  O41  1  0.33304428  0.54884099  0.79089568  1
  O  O42  1  0.33304428  0.04884099  0.70910432  1
  O  O43  1  0.66695572  0.45115901  0.20910432  1
  O  O44  1  0.97891419  0.12953092  0.35552540  1
  O  O45  1  0.02108581  0.37046908  0.85552540  1
  O  O46  1  0.02108581  0.87046908  0.64447460  1
  O  O47  1  0.97891419  0.62953092  0.14447460  1
  O  O48  1  0.05958077  0.89389305  0.33494284  1
  O  O49  1  0.39525254  0.83327128  0.43388353  1
  O  O50  1  0.94041923  0.60610695  0.83494284  1
  O  O51  1  0.05958077  0.39389305  0.16505716  1
  O  O52  1  0.69081784  0.70539413  0.46939617  1
  O  O53  1  0.30918216  0.79460587  0.96939617  1
  O  O54  1  0.30918216  0.29460587  0.53060383  1
  O  O55  1  0.69081784  0.20539413  0.03060383  1
  O  O56  1  0.77402488  0.94793400  0.47357156  1
  O  O57  1  0.22597512  0.55206600  0.97357156  1
  O  O58  1  0.22597512  0.05206600  0.52642844  1
  O  O59  1  0.77402488  0.44793400  0.02642844  1
  O  O60  1  0.43911308  0.20281261  0.89318921  1
  O  O61  1  0.56088692  0.29718739  0.39318921  1
  O  O62  1  0.56088692  0.79718739  0.10681079  1
  O  O63  1  0.43911308  0.70281261  0.60681079  1
  O  O64  1  0.69406757  0.22198706  0.74895809  1
  O  O65  1  0.30593243  0.27801294  0.24895809  1
  O  O66  1  0.30593243  0.77801294  0.25104191  1
  O  O67  1  0.69406757  0.72198706  0.75104191  1
  O  O68  1  0.63058012  0.46307405  0.71022627  1
  O  O69  1  0.36941988  0.03692595  0.21022627  1
  O  O70  1  0.36941988  0.53692595  0.28977373  1
  O  O71  1  0.63058012  0.96307405  0.78977373  1
  O  O72  1  0.29413147  0.29060025  0.73420934  1
  O  O73  1  0.70586853  0.20939975  0.23420934  1
  O  O74  1  0.70586853  0.70939975  0.26579066  1
  O  O75  1  0.29413147  0.79060025  0.76579066  1
  O  O76  1  0.59660433  0.41335200  0.87774378  1
  O  O77  1  0.40339567  0.08664800  0.37774378  1
  O  O78  1  0.40339567  0.58664800  0.12225622  1
  O  O79  1  0.59660433  0.91335200  0.62225622  1
  O  O80  1  0.39525254  0.33327128  0.06611647  1
  O  O81  1  0.60474746  0.16672872  0.56611647  1
  O  O82  1  0.60474746  0.66672872  0.93388353  1
  O  O83  1  0.94041923  0.10610695  0.66505716  1
