# generated using pymatgen
data_Ca3Co2(Si2O7)2
_symmetry_space_group_name_H-M   'P 1'
_cell_length_a   5.12215765
_cell_length_b   7.83446146
_cell_length_c   7.83446146
_cell_angle_alpha   90.32954738
_cell_angle_beta   87.66181672
_cell_angle_gamma   92.33818328
_symmetry_Int_Tables_number   1
_chemical_formula_structural   Ca3Co2(Si2O7)2
_chemical_formula_sum   'Ca3 Co2 Si4 O14'
_cell_volume   313.86590050
_cell_formula_units_Z   1
loop_
 _symmetry_equiv_pos_site_id
 _symmetry_equiv_pos_as_xyz
  1  'x, y, z'
loop_
 _atom_site_type_symbol
 _atom_site_label
 _atom_site_symmetry_multiplicity
 _atom_site_fract_x
 _atom_site_fract_y
 _atom_site_fract_z
 _atom_site_occupancy
  Ca  Ca0  1  0.49389898  0.15813641  0.67134151  1
  Ca  Ca1  1  0.49389898  0.82865849  0.34186259  1
  Ca  Ca2  1  0.51994821  0.35040267  0.14959633  1
  Co  Co3  1  0.99968664  0.50023726  0.50502131  1
  Co  Co4  1  0.99968664  0.99497869  0.99976274  1
  Si  Si5  1  0.94734220  0.86566843  0.63433157  1
  Si  Si6  1  0.05241718  0.63718604  0.14552718  1
  Si  Si7  1  0.05241718  0.35447182  0.86281396  1
  Si  Si8  1  0.94954604  0.14340713  0.35659187  1
  O  O9  1  0.81069403  0.68449103  0.56997515  1
  O  O10  1  0.79550296  0.31691186  0.41871857  1
  O  O11  1  0.18608078  0.39498558  0.67071856  1
  O  O12  1  0.21345241  0.57981908  0.31670768  1
  O  O13  1  0.81069403  0.93002385  0.81550897  1
  O  O14  1  0.18608078  0.82928144  0.10501542  1
  O  O15  1  0.21345241  0.18329232  0.92017992  1
  O  O16  1  0.79550296  0.08128243  0.18308814  1
  O  O17  1  0.26013945  0.88750153  0.61249947  1
  O  O18  1  0.74171132  0.62858516  0.17638287  1
  O  O19  1  0.16081031  0.49973082  0.00026918  1
  O  O20  1  0.81361765  0.00185979  0.49814021  1
  O  O21  1  0.74171132  0.32361713  0.87141584  1
  O  O22  1  0.26113054  0.15539204  0.34460796  1
