# generated using pymatgen
data_Al14(CuSe8)3
_symmetry_space_group_name_H-M   'P 1'
_cell_length_a   7.46974553
_cell_length_b   7.46974573
_cell_length_c   22.50405880
_cell_angle_alpha   60.34383795
_cell_angle_beta   60.34383564
_cell_angle_gamma   60.28430944
_symmetry_Int_Tables_number   1
_chemical_formula_structural   Al14(CuSe8)3
_chemical_formula_sum   'Al14 Cu3 Se24'
_cell_volume   894.39466907
_cell_formula_units_Z   1
loop_
 _symmetry_equiv_pos_site_id
 _symmetry_equiv_pos_as_xyz
  1  'x, y, z'
loop_
 _atom_site_type_symbol
 _atom_site_label
 _atom_site_symmetry_multiplicity
 _atom_site_fract_x
 _atom_site_fract_y
 _atom_site_fract_z
 _atom_site_occupancy
  Al  Al0  1  0.24395787  0.24395787  0.08399193  1
  Al  Al1  1  0.25028762  0.25028762  0.41442780  1
  Al  Al2  1  0.25007569  0.25007569  0.74967374  1
  Al  Al3  1  0.10966693  0.63069985  0.20952368  1
  Al  Al4  1  0.10729307  0.63101620  0.54359052  1
  Al  Al5  1  0.10632855  0.63072312  0.87742245  1
  Al  Al6  1  0.62984197  0.62984197  0.03866235  1
  Al  Al7  1  0.63039109  0.63039109  0.36795620  1
  Al  Al8  1  0.63152689  0.63152689  0.70180163  1
  Al  Al9  1  0.63069985  0.10966693  0.20952368  1
  Al  Al10  1  0.63101620  0.10729307  0.54359052  1
  Al  Al11  1  0.63072312  0.10632855  0.87742245  1
  Al  Al12  1  0.63092541  0.63092541  0.54362851  1
  Al  Al13  1  0.63069633  0.63069633  0.87751424  1
  Cu  Cu14  1  0.99862539  0.99862539  0.00166553  1
  Cu  Cu15  1  0.00331125  0.00331125  0.33249044  1
  Cu  Cu16  1  0.00000607  0.00000607  0.66682762  1
  Se  Se17  1  0.38340008  0.38340008  0.12767660  1
  Se  Se18  1  0.38308646  0.38308646  0.46170567  1
  Se  Se19  1  0.38391957  0.38391957  0.79440301  1
  Se  Se20  1  0.38406095  0.85062146  0.12759532  1
  Se  Se21  1  0.38417809  0.84654349  0.46216254  1
  Se  Se22  1  0.38398139  0.84921975  0.79426513  1
  Se  Se23  1  0.38284880  0.38284880  0.28425831  1
  Se  Se24  1  0.38313887  0.38313887  0.61677400  1
  Se  Se25  1  0.38546511  0.38546511  0.94837270  1
  Se  Se26  1  0.85062146  0.38406095  0.12759532  1
  Se  Se27  1  0.84654349  0.38417809  0.46216254  1
  Se  Se28  1  0.84921975  0.38398139  0.79426513  1
  Se  Se29  1  0.39387850  0.86898376  0.28929891  1
  Se  Se30  1  0.39356093  0.86874917  0.62293824  1
  Se  Se31  1  0.39420882  0.86752467  0.95629341  1
  Se  Se32  1  0.87066076  0.87066076  0.13029337  1
  Se  Se33  1  0.86840811  0.86840811  0.46455149  1
  Se  Se34  1  0.86894977  0.86894977  0.79775829  1
  Se  Se35  1  0.86898376  0.39387850  0.28929891  1
  Se  Se36  1  0.86874917  0.39356093  0.62293824  1
  Se  Se37  1  0.86752467  0.39420882  0.95629341  1
  Se  Se38  1  0.86827993  0.86827993  0.29014984  1
  Se  Se39  1  0.86896352  0.86896352  0.62281068  1
  Se  Se40  1  0.86988873  0.86988873  0.95572367  1
