# generated using pymatgen
data_MgMoF5
_symmetry_space_group_name_H-M   'P 1'
_cell_length_a   5.52094486
_cell_length_b   5.52094442
_cell_length_c   7.76624846
_cell_angle_alpha   98.03182727
_cell_angle_beta   111.19579376
_cell_angle_gamma   107.14891718
_symmetry_Int_Tables_number   1
_chemical_formula_structural   MgMoF5
_chemical_formula_sum   'Mg2 Mo2 F10'
_cell_volume   202.67351426
_cell_formula_units_Z   2
loop_
 _symmetry_equiv_pos_site_id
 _symmetry_equiv_pos_as_xyz
  1  'x, y, z'
loop_
 _atom_site_type_symbol
 _atom_site_label
 _atom_site_symmetry_multiplicity
 _atom_site_fract_x
 _atom_site_fract_y
 _atom_site_fract_z
 _atom_site_occupancy
  Mg  Mg0  1  0.26630081  0.51630081  0.75000000  1
  Mg  Mg1  1  0.73369919  0.48369919  0.25000000  1
  Mo  Mo2  1  0.00000000  0.00000000  0.00000000  1
  Mo  Mo3  1  0.50000000  0.00000000  0.50000000  1
  F  F4  1  0.38915185  0.13915185  0.25000000  1
  F  F5  1  0.61084815  0.86084815  0.75000000  1
  F  F6  1  0.59352539  0.71052169  0.36525103  1
  F  F7  1  0.84526966  0.22827436  0.13474897  1
  F  F8  1  0.75044446  0.67870046  0.05256966  1
  F  F9  1  0.12613080  0.69787480  0.44743034  1
  F  F10  1  0.24955554  0.32129954  0.94743034  1
  F  F11  1  0.87386920  0.30212520  0.55256966  1
  F  F12  1  0.15473034  0.77172564  0.86525103  1
  F  F13  1  0.40647461  0.28947831  0.63474897  1
