# generated using pymatgen
data_TiO2
_symmetry_space_group_name_H-M   'P 1'
_cell_length_a   2.98386421
_cell_length_b   7.44749957
_cell_length_c   7.44758902
_cell_angle_alpha   87.69921341
_cell_angle_beta   78.44509088
_cell_angle_gamma   78.44424170
_symmetry_Int_Tables_number   1
_chemical_formula_structural   TiO2
_chemical_formula_sum   'Ti4 O8'
_cell_volume   158.86183408
_cell_formula_units_Z   4
loop_
 _symmetry_equiv_pos_site_id
 _symmetry_equiv_pos_as_xyz
  1  'x, y, z'
loop_
 _atom_site_type_symbol
 _atom_site_label
 _atom_site_symmetry_multiplicity
 _atom_site_fract_x
 _atom_site_fract_y
 _atom_site_fract_z
 _atom_site_occupancy
  Ti  Ti0  1  0.64389768  0.18355453  0.52861346  1
  Ti  Ti1  1  0.17251165  0.47138708  0.18355920  1
  Ti  Ti2  1  0.82748935  0.52861092  0.81644080  1
  Ti  Ti3  1  0.35610232  0.81644647  0.47138554  1
  O  O4  1  0.83571974  0.70396349  0.62454979  1
  O  O5  1  0.46023709  0.37543236  0.70399524  1
  O  O6  1  0.53976391  0.62456664  0.29600576  1
  O  O7  1  0.16427926  0.29603751  0.37545121  1
  O  O8  1  0.15643911  0.05477607  0.63237350  1
  O  O9  1  0.78881147  0.36761443  0.05480540  1
  O  O10  1  0.84356089  0.94522393  0.36762750  1
  O  O11  1  0.21118953  0.63238657  0.94519460  1
