# generated using pymatgen
data_VF5
_symmetry_space_group_name_H-M   'P 1'
_cell_length_a   5.39863689
_cell_length_b   5.41159896
_cell_length_c   7.60423239
_cell_angle_alpha   96.15984889
_cell_angle_beta   111.39438444
_cell_angle_gamma   109.82464274
_symmetry_Int_Tables_number   1
_chemical_formula_structural   VF5
_chemical_formula_sum   'V2 F10'
_cell_volume   187.70189475
_cell_formula_units_Z   2
loop_
 _symmetry_equiv_pos_site_id
 _symmetry_equiv_pos_as_xyz
  1  'x, y, z'
loop_
 _atom_site_type_symbol
 _atom_site_label
 _atom_site_symmetry_multiplicity
 _atom_site_fract_x
 _atom_site_fract_y
 _atom_site_fract_z
 _atom_site_occupancy
  V  V0  1  0.99606621  0.99986212  0.99970048  1
  V  V1  1  0.49963689  0.00054122  0.49902047  1
  F  F2  1  0.32449660  0.07452368  0.24778989  1
  F  F3  1  0.66882693  0.92587205  0.74958001  1
  F  F4  1  0.59105424  0.76161117  0.38652729  1
  F  F5  1  0.87387514  0.20841128  0.11228142  1
  F  F6  1  0.77846538  0.71458778  0.04973764  1
  F  F7  1  0.16098486  0.73766932  0.44990560  1
  F  F8  1  0.21487396  0.28613918  0.95120496  1
  F  F9  1  0.83870224  0.26185482  0.54670336  1
  F  F10  1  0.11166193  0.78904588  0.88285264  1
  F  F11  1  0.40960363  0.24153051  0.61057326  1
