# generated using pymatgen
data_K2O
_symmetry_space_group_name_H-M   'P 1'
_cell_length_a   7.09089453
_cell_length_b   8.32568423
_cell_length_c   8.32282678
_cell_angle_alpha   95.02588157
_cell_angle_beta   64.81461758
_cell_angle_gamma   148.38757207
_symmetry_Int_Tables_number   1
_chemical_formula_structural   K2O
_chemical_formula_sum   'K6 O3'
_cell_volume   189.97291586
_cell_formula_units_Z   3
loop_
 _symmetry_equiv_pos_site_id
 _symmetry_equiv_pos_as_xyz
  1  'x, y, z'
loop_
 _atom_site_type_symbol
 _atom_site_label
 _atom_site_symmetry_multiplicity
 _atom_site_fract_x
 _atom_site_fract_y
 _atom_site_fract_z
 _atom_site_occupancy
  K  K0  1  0.11234666  0.85265676  0.06790773  1
  K  K1  1  0.17032637  0.76631531  0.66078557  1
  K  K2  1  0.14951348  0.48949676  0.93762218  1
  K  K3  1  0.33447964  0.66018616  0.26057758  1
  K  K4  1  0.95926299  0.02258276  0.40484056  1
  K  K5  1  0.31129900  0.24462633  0.67560994  1
  O  O6  1  0.51033417  0.17680704  0.33445838  1
  O  O7  1  0.92470964  0.25781935  0.66775523  1
  O  O8  1  0.41387805  0.41370552  0.00108983  1
