# generated using pymatgen
data_Ti4(CuO4)3
_symmetry_space_group_name_H-M   'P 1'
_cell_length_a   6.40753759
_cell_length_b   6.40753743
_cell_length_c   6.40753783
_cell_angle_alpha   109.47121893
_cell_angle_beta   109.47121833
_cell_angle_gamma   109.47121908
_symmetry_Int_Tables_number   1
_chemical_formula_structural   Ti4(CuO4)3
_chemical_formula_sum   'Ti4 Cu3 O12'
_cell_volume   202.51240541
_cell_formula_units_Z   1
loop_
 _symmetry_equiv_pos_site_id
 _symmetry_equiv_pos_as_xyz
  1  'x, y, z'
loop_
 _atom_site_type_symbol
 _atom_site_label
 _atom_site_symmetry_multiplicity
 _atom_site_fract_x
 _atom_site_fract_y
 _atom_site_fract_z
 _atom_site_occupancy
  Ti  Ti0  1  0.00000000  0.00000000  0.50000000  1
  Ti  Ti1  1  0.00000000  0.50000000  0.00000000  1
  Ti  Ti2  1  0.50000000  0.50000000  0.50000000  1
  Ti  Ti3  1  0.50000000  0.00000000  0.00000000  1
  Cu  Cu4  1  0.50000000  0.50000000  0.00000000  1
  Cu  Cu5  1  0.00000000  0.50000000  0.50000000  1
  Cu  Cu6  1  0.50000000  0.00000000  0.50000000  1
  O  O7  1  0.82322002  0.31500819  0.13822821  1
  O  O8  1  0.17677998  0.68499181  0.86177179  1
  O  O9  1  0.82322002  0.68499181  0.50821284  1
  O  O10  1  0.31500819  0.49178716  0.17677998  1
  O  O11  1  0.49178716  0.17677998  0.31500819  1
  O  O12  1  0.13822821  0.82322002  0.31500819  1
  O  O13  1  0.68499181  0.86177179  0.17677998  1
  O  O14  1  0.50821284  0.82322002  0.68499181  1
  O  O15  1  0.17677998  0.31500819  0.49178716  1
  O  O16  1  0.68499181  0.50821284  0.82322002  1
  O  O17  1  0.86177179  0.17677998  0.68499181  1
  O  O18  1  0.31500819  0.13822821  0.82322002  1
