# generated using pymatgen
data_MgTi2O4
_symmetry_space_group_name_H-M   'P 1'
_cell_length_a   6.11674468
_cell_length_b   5.92403001
_cell_length_c   23.88695598
_cell_angle_alpha   60.26392628
_cell_angle_beta   60.86535727
_cell_angle_gamma   61.03685319
_symmetry_Int_Tables_number   1
_chemical_formula_structural   MgTi2O4
_chemical_formula_sum   'Mg8 Ti16 O32'
_cell_volume   621.95706727
_cell_formula_units_Z   8
loop_
 _symmetry_equiv_pos_site_id
 _symmetry_equiv_pos_as_xyz
  1  'x, y, z'
loop_
 _atom_site_type_symbol
 _atom_site_label
 _atom_site_symmetry_multiplicity
 _atom_site_fract_x
 _atom_site_fract_y
 _atom_site_fract_z
 _atom_site_occupancy
  Mg  Mg0  1  0.11695992  0.13034490  0.03058807  1
  Mg  Mg1  1  0.01777352  0.49470624  0.12320300  1
  Mg  Mg2  1  0.12708431  0.12705162  0.27970286  1
  Mg  Mg3  1  0.99606504  0.50414475  0.37391136  1
  Mg  Mg4  1  0.00100017  0.49930779  0.62509581  1
  Mg  Mg5  1  0.49916167  0.50354070  0.49843948  1
  Mg  Mg6  1  0.01692230  0.49177972  0.87487957  1
  Mg  Mg7  1  0.50456446  0.49201816  0.75284930  1
  Ti  Ti8  1  0.49524882  0.50463751  0.12712044  1
  Ti  Ti9  1  0.49653976  0.50670354  0.24751304  1
  Ti  Ti10  1  0.49524882  0.99163189  0.12712044  1
  Ti  Ti11  1  0.12250176  0.12085959  0.53394452  1
  Ti  Ti12  1  0.49583645  0.49105791  0.37041483  1
  Ti  Ti13  1  0.86084667  0.87763918  0.22096874  1
  Ti  Ti14  1  0.11903086  0.12196120  0.78426168  1
  Ti  Ti15  1  0.49583645  0.03144734  0.37041483  1
  Ti  Ti16  1  0.50029000  0.50690604  0.62498321  1
  Ti  Ti17  1  0.88186472  0.88042095  0.46432310  1
  Ti  Ti18  1  0.50029000  0.99287113  0.62498321  1
  Ti  Ti19  1  0.49926089  0.96857118  0.88024409  1
  Ti  Ti20  1  0.49926089  0.51119158  0.88024409  1
  Ti  Ti21  1  0.87483321  0.87841159  0.71708540  1
  Ti  Ti22  1  0.49507134  0.50876566  0.99684958  1
  Ti  Ti23  1  0.85437197  0.87777071  0.97252140  1
  O  O24  1  0.27568596  0.24822021  0.06311273  1
  O  O25  1  0.27147949  0.25359949  0.18033038  1
  O  O26  1  0.27568596  0.72364492  0.06311273  1
  O  O27  1  0.71953097  0.26077669  0.06472916  1
  O  O28  1  0.23126754  0.75643819  0.18896352  1
  O  O29  1  0.26210207  0.25611019  0.31419412  1
  O  O30  1  0.74720212  0.26495560  0.18541700  1
  O  O31  1  0.25250259  0.25152738  0.43611016  1
  O  O32  1  0.26210207  0.72501126  0.31419412  1
  O  O33  1  0.74777400  0.73881481  0.06864885  1
  O  O34  1  0.74278167  0.25771463  0.31044777  1
  O  O35  1  0.74720212  0.74617429  0.18541700  1
  O  O36  1  0.25841897  0.25039406  0.56511855  1
  O  O37  1  0.25902076  0.75021089  0.43513911  1
  O  O38  1  0.73993611  0.26689490  0.43450806  1
  O  O39  1  0.25040240  0.25091784  0.68694073  1
  O  O40  1  0.25841897  0.73071178  0.56511855  1
  O  O41  1  0.74033700  0.74489903  0.31746599  1
  O  O42  1  0.74114365  0.25257846  0.56342486  1
  O  O43  1  0.73993611  0.75513773  0.43450806  1
  O  O44  1  0.25446077  0.74803338  0.68736787  1
  O  O45  1  0.26027946  0.24512288  0.81410473  1
  O  O46  1  0.74127736  0.26830343  0.68497792  1
  O  O47  1  0.27714178  0.25331271  0.92905770  1
  O  O48  1  0.26027946  0.73817673  0.81410473  1
  O  O49  1  0.75166564  0.75037225  0.56189772  1
  O  O50  1  0.74481007  0.24638550  0.81560473  1
  O  O51  1  0.74127736  0.75050951  0.68497792  1
  O  O52  1  0.22259914  0.75387290  0.94241402  1
  O  O53  1  0.75273651  0.26361541  0.93602582  1
  O  O54  1  0.75194241  0.74427929  0.81487450  1
  O  O55  1  0.75273651  0.73954381  0.93602582  1
