# generated using pymatgen
data_Zn3Cu10(TeO6)6
_symmetry_space_group_name_H-M   'P 1'
_cell_length_a   8.50331849
_cell_length_b   8.46322511
_cell_length_c   10.47338360
_cell_angle_alpha   82.60637549
_cell_angle_beta   83.71785757
_cell_angle_gamma   61.18815993
_symmetry_Int_Tables_number   1
_chemical_formula_structural   Zn3Cu10(TeO6)6
_chemical_formula_sum   'Zn3 Cu10 Te6 O36'
_cell_volume   653.95032523
_cell_formula_units_Z   1
loop_
 _symmetry_equiv_pos_site_id
 _symmetry_equiv_pos_as_xyz
  1  'x, y, z'
loop_
 _atom_site_type_symbol
 _atom_site_label
 _atom_site_symmetry_multiplicity
 _atom_site_fract_x
 _atom_site_fract_y
 _atom_site_fract_z
 _atom_site_occupancy
  Zn  Zn0  1  0.85437514  0.55689438  0.31558000  1
  Zn  Zn1  1  0.43343409  0.52610304  0.77876670  1
  Zn  Zn2  1  0.14128752  0.81897215  0.27917455  1
  Cu  Cu3  1  0.79340434  0.52697855  0.98569859  1
  Cu  Cu4  1  0.13295167  0.18810624  0.49543638  1
  Cu  Cu5  1  0.33605242  0.35522709  0.29249354  1
  Cu  Cu6  1  0.96845063  0.72410994  0.79578321  1
  Cu  Cu7  1  0.64933335  0.67648439  0.70448214  1
  Cu  Cu8  1  0.96798559  0.03571626  0.00021072  1
  Cu  Cu9  1  0.64103160  0.35738112  0.50098335  1
  Cu  Cu10  1  0.28245770  0.04287818  0.20379546  1
  Cu  Cu11  1  0.80796121  0.87282343  0.51526658  1
  Cu  Cu12  1  0.47889769  0.19156193  0.00932499  1
  Te  Te13  1  0.44879133  0.86733412  0.95128826  1
  Te  Te14  1  0.79943993  0.19723111  0.24797011  1
  Te  Te15  1  0.81225611  0.18784230  0.74973134  1
  Te  Te16  1  0.46992529  0.84876015  0.45589550  1
  Te  Te17  1  0.15911229  0.51734599  0.55066528  1
  Te  Te18  1  0.13195319  0.54535739  0.04670830  1
  O  O19  1  0.41257128  0.09822306  0.87068480  1
  O  O20  1  0.70584559  0.44219888  0.80432450  1
  O  O21  1  0.56814438  0.61186353  0.55829550  1
  O  O22  1  0.73394354  0.11417839  0.42348840  1
  O  O23  1  0.56495543  0.26640834  0.19174070  1
  O  O24  1  0.88915326  0.26107835  0.57615131  1
  O  O25  1  0.38719330  0.79137693  0.31158312  1
  O  O26  1  0.02820729  0.11065154  0.83654746  1
  O  O27  1  0.57887813  0.29021913  0.67111797  1
  O  O28  1  0.08169004  0.42532507  0.40768085  1
  O  O29  1  0.55664701  0.63562653  0.05396852  1
  O  O30  1  0.51656932  0.96704827  0.09317388  1
  O  O31  1  0.87732812  0.95161766  0.69505318  1
  O  O32  1  0.70607139  0.74010420  0.86749241  1
  O  O33  1  0.36559787  0.44088010  0.94854871  1
  O  O34  1  0.21911082  0.60080420  0.18724531  1
  O  O35  1  0.04900679  0.75365898  0.44735102  1
  O  O36  1  0.25920373  0.29251220  0.13649493  1
  O  O37  1  0.38219237  0.43987209  0.44245413  1
  O  O38  1  0.24563624  0.94501702  0.55824487  1
  O  O39  1  0.69828310  0.79865347  0.36800821  1
  O  O40  1  0.90368068  0.65371714  0.63612581  1
  O  O41  1  0.90616631  0.96532769  0.17139300  1
  O  O42  1  0.39405232  0.78376065  0.80757181  1
  O  O43  1  0.04663270  0.77735499  0.94288757  1
  O  O44  1  0.72920594  0.12479647  0.92652064  1
  O  O45  1  0.02715165  0.49147689  0.90534472  1
  O  O46  1  0.21777307  0.60744888  0.68440335  1
  O  O47  1  0.04964437  0.10233578  0.30662655  1
  O  O48  1  0.34817883  0.10498601  0.36995917  1
  O  O49  1  0.19796332  0.29009041  0.63357119  1
  O  O50  1  0.87088591  0.28571470  0.07867330  1
  O  O51  1  0.72003182  0.41905205  0.33263786  1
  O  O52  1  0.57898043  0.90987942  0.59282744  1
  O  O53  1  0.22050967  0.95238507  0.05779948  1
  O  O54  1  0.90739786  0.58989117  0.13352937  1
