# generated using pymatgen
data_Mg(CoO2)2
_symmetry_space_group_name_H-M   'P 1'
_cell_length_a   5.81405070
_cell_length_b   5.80229858
_cell_length_c   23.16618340
_cell_angle_alpha   59.93968245
_cell_angle_beta   60.26844827
_cell_angle_gamma   60.06508310
_symmetry_Int_Tables_number   1
_chemical_formula_structural   Mg(CoO2)2
_chemical_formula_sum   'Mg8 Co16 O32'
_cell_volume   553.74065339
_cell_formula_units_Z   8
loop_
 _symmetry_equiv_pos_site_id
 _symmetry_equiv_pos_as_xyz
  1  'x, y, z'
loop_
 _atom_site_type_symbol
 _atom_site_label
 _atom_site_symmetry_multiplicity
 _atom_site_fract_x
 _atom_site_fract_y
 _atom_site_fract_z
 _atom_site_occupancy
  Mg  Mg0  1  0.14018542  0.12041457  0.02973817  1
  Mg  Mg1  1  0.00182984  0.49887483  0.12509860  1
  Mg  Mg2  1  0.13896405  0.11754358  0.28150034  1
  Mg  Mg3  1  0.00493704  0.49825464  0.37463243  1
  Mg  Mg4  1  0.00021456  0.50059793  0.62464855  1
  Mg  Mg5  1  0.50172150  0.50160514  0.49876747  1
  Mg  Mg6  1  0.99789179  0.50049585  0.87528620  1
  Mg  Mg7  1  0.49869043  0.49983319  0.75041157  1
  Co  Co8  1  0.49699407  0.49964758  0.12462684  1
  Co  Co9  1  0.49820304  0.49893167  0.25098624  1
  Co  Co10  1  0.49698554  0.00484199  0.12462474  1
  Co  Co11  1  0.13330963  0.11607665  0.53363458  1
  Co  Co12  1  0.50026898  0.49760517  0.37437184  1
  Co  Co13  1  0.86178377  0.87938827  0.21987199  1
  Co  Co14  1  0.13360713  0.11883717  0.78217317  1
  Co  Co15  1  0.50027467  0.00463511  0.37437133  1
  Co  Co16  1  0.50030785  0.50037125  0.62483370  1
  Co  Co17  1  0.86772680  0.88295995  0.46658854  1
  Co  Co18  1  0.50030772  -0.00001636  0.62483364  1
  Co  Co19  1  0.49911240  0.99933709  0.87543589  1
  Co  Co20  1  0.49912480  0.49981524  0.87543243  1
  Co  Co21  1  0.86595567  0.88381087  0.71660534  1
  Co  Co22  1  0.49800512  0.49718087  0.00191123  1
  Co  Co23  1  0.86272148  0.88060197  0.96903288  1
  O  O24  1  0.27812258  0.25573169  0.06393552  1
  O  O25  1  0.28063314  0.25326642  0.17820951  1
  O  O26  1  0.27811661  0.71038315  0.06393807  1
  O  O27  1  0.71222938  0.26224556  0.06581863  1
  O  O28  1  0.27831972  0.74092774  0.18495622  1
  O  O29  1  0.28048045  0.25808783  0.31337668  1
  O  O30  1  0.72347057  0.27865281  0.18729034  1
  O  O31  1  0.27614593  0.24733025  0.43230413  1
  O  O32  1  0.28047202  0.70793828  0.31337491  1
  O  O33  1  0.72350783  0.75057856  0.06882782  1
  O  O34  1  0.71162050  0.26304094  0.31557261  1
  O  O35  1  0.72348891  0.74870688  0.18728635  1
  O  O36  1  0.26672174  0.24324583  0.56618245  1
  O  O37  1  0.27135279  0.75392185  0.43019911  1
  O  O38  1  0.73825916  0.27308711  0.43251588  1
  O  O39  1  0.27635542  0.24904372  0.68139313  1
  O  O40  1  0.26671395  0.72530799  0.56618437  1
  O  O41  1  0.71895913  0.75181987  0.31934590  1
  O  O42  1  0.72676923  0.24918073  0.56871303  1
  O  O43  1  0.73825321  0.75858250  0.43251884  1
  O  O44  1  0.27277023  0.75125128  0.68118474  1
  O  O45  1  0.26471288  0.23930637  0.81697208  1
  O  O46  1  0.73433658  0.27439114  0.68372138  1
  O  O47  1  0.27899610  0.25663008  0.92693484  1
  O  O48  1  0.26471715  0.72807919  0.81697620  1
  O  O49  1  0.72360042  0.75106418  0.56856309  1
  O  O50  1  0.72875954  0.24683312  0.81939391  1
  O  O51  1  0.73432509  0.75638202  0.68372415  1
  O  O52  1  0.27888147  0.73934882  0.93560768  1
  O  O53  1  0.72132114  0.27758371  0.93842723  1
  O  O54  1  0.72714578  0.74901299  0.81870448  1
  O  O55  1  0.72131907  0.74739419  0.93842604  1
