# generated using pymatgen
data_Y8Cu3(SiSe7)3
_symmetry_space_group_name_H-M   'P 1'
_cell_length_a   10.31734657
_cell_length_b   10.27209403
_cell_length_c   18.24430411
_cell_angle_alpha   89.99672796
_cell_angle_beta   89.99353368
_cell_angle_gamma   120.04214187
_symmetry_Int_Tables_number   1
_chemical_formula_structural   Y8Cu3(SiSe7)3
_chemical_formula_sum   'Y16 Cu6 Si6 Se42'
_cell_volume   1673.78763038
_cell_formula_units_Z   2
loop_
 _symmetry_equiv_pos_site_id
 _symmetry_equiv_pos_as_xyz
  1  'x, y, z'
loop_
 _atom_site_type_symbol
 _atom_site_label
 _atom_site_symmetry_multiplicity
 _atom_site_fract_x
 _atom_site_fract_y
 _atom_site_fract_z
 _atom_site_occupancy
  Y  Y0  1  0.22193377  0.35719406  0.30877242  1
  Y  Y1  1  0.22282502  0.35923215  0.63743796  1
  Y  Y2  1  0.22977445  0.36264607  0.97409447  1
  Y  Y3  1  0.64688636  0.87458372  0.30925827  1
  Y  Y4  1  0.64146860  0.87042351  0.63766125  1
  Y  Y5  1  0.63538273  0.86238759  0.97302845  1
  Y  Y6  1  0.86941726  0.22643557  0.14322021  1
  Y  Y7  1  0.86520199  0.22632477  0.80828970  1
  Y  Y8  1  0.77738173  0.64097516  0.13728643  1
  Y  Y9  1  0.76984708  0.63720523  0.47401428  1
  Y  Y10  1  0.77817624  0.64286614  0.80883009  1
  Y  Y11  1  0.13472827  0.77350523  0.30830873  1
  Y  Y12  1  0.13094286  0.77376325  0.64326941  1
  Y  Y13  1  0.35847985  0.12960396  0.13759787  1
  Y  Y14  1  0.36488128  0.13751184  0.47287332  1
  Y  Y15  1  0.35317896  0.12566310  0.80936517  1
  Cu  Cu16  1  0.00034090  0.00090486  0.32204804  1
  Cu  Cu17  1  0.99960487  0.99737791  0.65904482  1
  Cu  Cu18  1  0.00187980  0.99729293  0.99015681  1
  Cu  Cu19  1  0.00030361  0.00223368  0.15917258  1
  Cu  Cu20  1  0.99803978  0.00249615  0.49023598  1
  Cu  Cu21  1  0.99979336  0.99910285  0.82221157  1
  Si  Si22  1  0.66311102  0.33491437  0.28074828  1
  Si  Si23  1  0.66982191  0.33330060  0.61162482  1
  Si  Si24  1  0.66854163  0.33186332  0.94387016  1
  Si  Si25  1  0.32987207  0.66665339  0.11158737  1
  Si  Si26  1  0.33142707  0.66811316  0.44402508  1
  Si  Si27  1  0.33692663  0.66509907  0.78070570  1
  Se  Se28  1  0.83606236  0.73793786  0.31789938  1
  Se  Se29  1  0.83352131  0.73610782  0.64883517  1
  Se  Se30  1  0.83409245  0.74005536  0.98106447  1
  Se  Se31  1  0.42572428  0.90317956  0.06284202  1
  Se  Se32  1  0.42372140  0.90495528  0.39454770  1
  Se  Se33  1  0.41940306  0.89906975  0.72712142  1
  Se  Se34  1  0.26239195  0.09836935  0.31754073  1
  Se  Se35  1  0.26203474  0.10037484  0.65023375  1
  Se  Se36  1  0.26043924  0.09926783  0.98318000  1
  Se  Se37  1  0.16650942  0.26371575  0.14898028  1
  Se  Se38  1  0.16559440  0.25973396  0.48110447  1
  Se  Se39  1  0.16386373  0.26203497  0.81780737  1
  Se  Se40  1  0.48090743  0.58027725  0.06117639  1
  Se  Se41  1  0.48047586  0.58138155  0.39448772  1
  Se  Se42  1  0.48147334  0.57984130  0.72442596  1
  Se  Se43  1  0.73799687  0.89963061  0.15027751  1
  Se  Se44  1  0.73970299  0.90127084  0.48314980  1
  Se  Se45  1  0.73773038  0.90166209  0.81750312  1
  Se  Se46  1  0.58059346  0.10103236  0.22710595  1
  Se  Se47  1  0.57438861  0.09677346  0.56291917  1
  Se  Se48  1  0.57614124  0.09493214  0.89449736  1
  Se  Se49  1  0.33365484  0.66638427  0.23722512  1
  Se  Se50  1  0.33384845  0.66874588  0.56928107  1
  Se  Se51  1  0.33415669  0.66549836  0.90400838  1
  Se  Se52  1  0.89812828  0.48048889  0.22816081  1
  Se  Se53  1  0.90083735  0.48243317  0.55964563  1
  Se  Se54  1  0.90160827  0.48074964  0.89624214  1
  Se  Se55  1  0.66627658  0.33145968  0.06919419  1
  Se  Se56  1  0.66603730  0.33443184  0.40406701  1
  Se  Se57  1  0.66629079  0.33366902  0.73716845  1
  Se  Se58  1  0.90538261  0.16601206  0.31098958  1
  Se  Se59  1  0.90190655  0.16190354  0.65479472  1
  Se  Se60  1  0.90281525  0.16260097  0.98441562  1
  Se  Se61  1  0.09832901  0.83802946  0.15488991  1
  Se  Se62  1  0.09709410  0.83745641  0.48444499  1
  Se  Se63  1  0.09475009  0.83409176  0.81081884  1
  Se  Se64  1  0.09885592  0.51775464  0.05965715  1
  Se  Se65  1  0.09820457  0.51890740  0.39660357  1
  Se  Se66  1  0.10192873  0.51952910  0.72806806  1
  Se  Se67  1  0.51873114  0.42028226  0.22443653  1
  Se  Se68  1  0.51866396  0.41949041  0.56109739  1
  Se  Se69  1  0.51955589  0.41880966  0.89441087  1
