# generated using pymatgen
data_CaMn4O8
_symmetry_space_group_name_H-M   'P 1'
_cell_length_a   6.14338273
_cell_length_b   9.61391903
_cell_length_c   10.33551882
_cell_angle_alpha   90.44945958
_cell_angle_beta   89.99930663
_cell_angle_gamma   89.99459602
_symmetry_Int_Tables_number   1
_chemical_formula_structural   CaMn4O8
_chemical_formula_sum   'Ca4 Mn16 O32'
_cell_volume   610.41746364
_cell_formula_units_Z   4
loop_
 _symmetry_equiv_pos_site_id
 _symmetry_equiv_pos_as_xyz
  1  'x, y, z'
loop_
 _atom_site_type_symbol
 _atom_site_label
 _atom_site_symmetry_multiplicity
 _atom_site_fract_x
 _atom_site_fract_y
 _atom_site_fract_z
 _atom_site_occupancy
  Ca  Ca0  1  0.50840717  0.49415036  0.60789958  1
  Ca  Ca1  1  0.00840116  0.50587337  0.39211458  1
  Ca  Ca2  1  0.74188419  0.99216315  0.10781424  1
  Ca  Ca3  1  0.24186579  0.00782158  0.89215234  1
  Mn  Mn4  1  0.49180674  0.66440924  0.84854388  1
  Mn  Mn5  1  0.99780695  0.65331262  0.83816888  1
  Mn  Mn6  1  0.50610019  0.16798967  0.64795516  1
  Mn  Mn7  1  0.00509480  0.17593761  0.64212210  1
  Mn  Mn8  1  0.00606081  0.83202174  0.35214986  1
  Mn  Mn9  1  0.50532589  0.82408229  0.35780000  1
  Mn  Mn10  1  0.99212565  0.33557878  0.15158642  1
  Mn  Mn11  1  0.49764802  0.34676960  0.16178891  1
  Mn  Mn12  1  0.25224640  0.15219584  0.33745690  1
  Mn  Mn13  1  0.75794676  0.16352190  0.34775168  1
  Mn  Mn14  1  0.24466560  0.67522835  0.14289213  1
  Mn  Mn15  1  0.74379585  0.66708012  0.14855650  1
  Mn  Mn16  1  0.24381289  0.33292210  0.85129668  1
  Mn  Mn17  1  0.74480121  0.32475836  0.85708121  1
  Mn  Mn18  1  0.25809596  0.83645294  0.65207793  1
  Mn  Mn19  1  0.75206967  0.84781993  0.66275151  1
  O  O20  1  0.23334867  0.30981086  0.03446625  1
  O  O21  1  0.74719552  0.30475899  0.04079383  1
  O  O22  1  0.25105836  0.95496475  0.35013840  1
  O  O23  1  0.76475230  0.96278351  0.34847394  1
  O  O24  1  0.26471969  0.03725043  0.65151397  1
  O  O25  1  0.75108556  0.04499358  0.64994554  1
  O  O26  1  0.24703000  0.69524319  0.95923471  1
  O  O27  1  0.73337418  0.69019228  0.96548412  1
  O  O28  1  0.01638910  0.81042498  0.53539236  1
  O  O29  1  0.50288635  0.80492284  0.54148019  1
  O  O30  1  0.99863815  0.45585519  0.84995399  1
  O  O31  1  0.48530896  0.46360687  0.84839512  1
  O  O32  1  0.49868501  0.54421888  0.15006434  1
  O  O33  1  0.98533410  0.53632801  0.15163202  1
  O  O34  1  0.51654024  0.18954470  0.46466858  1
  O  O35  1  0.00284228  0.19510603  0.45842676  1
  O  O36  1  0.51517989  0.14911972  0.21617061  1
  O  O37  1  0.97931638  0.14251687  0.20472089  1
  O  O38  1  0.98118793  0.81135251  0.15709058  1
  O  O39  1  0.51972357  0.81231938  0.16802192  1
  O  O40  1  0.01517116  0.85087335  0.78384727  1
  O  O41  1  0.47925295  0.85744023  0.79528075  1
  O  O42  1  0.48114954  0.18864659  0.84292741  1
  O  O43  1  0.01964836  0.18765302  0.83189724  1
  O  O44  1  0.27073571  0.64362449  0.70552538  1
  O  O45  1  0.73499218  0.65029949  0.71707628  1
  O  O46  1  0.26898933  0.31262691  0.65604629  1
  O  O47  1  0.73038368  0.31338356  0.66701516  1
  O  O48  1  0.23502907  0.34966078  0.28298017  1
  O  O49  1  0.77075448  0.35635531  0.29448180  1
  O  O50  1  0.23033773  0.68663933  0.33298519  1
  O  O51  1  0.76899985  0.68737982  0.34392447  1
