# generated using pymatgen
data_SrYMg6
_symmetry_space_group_name_H-M   'P 1'
_cell_length_a   6.83580146
_cell_length_b   6.83580078
_cell_length_c   5.26013730
_cell_angle_alpha   90.00000000
_cell_angle_beta   90.00000000
_cell_angle_gamma   117.49759061
_symmetry_Int_Tables_number   1
_chemical_formula_structural   SrYMg6
_chemical_formula_sum   'Sr1 Y1 Mg6'
_cell_volume   218.02904298
_cell_formula_units_Z   1
loop_
 _symmetry_equiv_pos_site_id
 _symmetry_equiv_pos_as_xyz
  1  'x, y, z'
loop_
 _atom_site_type_symbol
 _atom_site_label
 _atom_site_symmetry_multiplicity
 _atom_site_fract_x
 _atom_site_fract_y
 _atom_site_fract_z
 _atom_site_occupancy
  Sr  Sr0  1  0.40187839  0.09812161  0.75000000  1
  Y  Y1  1  0.09606662  0.40393339  0.25000000  1
  Mg  Mg2  1  0.05788456  0.88619743  0.25000000  1
  Mg  Mg3  1  0.61380257  0.44211544  0.25000000  1
  Mg  Mg4  1  0.59418358  0.90581642  0.25000000  1
  Mg  Mg5  1  0.42851524  0.60924646  0.75000000  1
  Mg  Mg6  1  0.89075354  0.07148476  0.75000000  1
  Mg  Mg7  1  0.91691551  0.58308449  0.75000000  1
