# generated using pymatgen
data_LiFe2P2O9
_symmetry_space_group_name_H-M   'P 1'
_cell_length_a   6.34389655
_cell_length_b   7.68106727
_cell_length_c   14.04571624
_cell_angle_alpha   90.00000000
_cell_angle_beta   90.00000000
_cell_angle_gamma   90.00000000
_symmetry_Int_Tables_number   1
_chemical_formula_structural   LiFe2P2O9
_chemical_formula_sum   'Li4 Fe8 P8 O36'
_cell_volume   684.41820236
_cell_formula_units_Z   4
loop_
 _symmetry_equiv_pos_site_id
 _symmetry_equiv_pos_as_xyz
  1  'x, y, z'
loop_
 _atom_site_type_symbol
 _atom_site_label
 _atom_site_symmetry_multiplicity
 _atom_site_fract_x
 _atom_site_fract_y
 _atom_site_fract_z
 _atom_site_occupancy
  Li  Li0  1  0.75000000  0.95378163  0.76969196  1
  Li  Li1  1  0.75000000  0.54621837  0.26969196  1
  Li  Li2  1  0.25000100  0.45378063  0.73030804  1
  Li  Li3  1  0.25000100  0.04621837  0.23030804  1
  Fe  Fe4  1  0.75000000  0.35104519  0.88116784  1
  Fe  Fe5  1  0.25000100  0.64895481  0.11883216  1
  Fe  Fe6  1  0.25000100  0.85104519  0.61883216  1
  Fe  Fe7  1  0.75000000  0.14895481  0.38116784  1
  Fe  Fe8  1  0.50000000  -0.00000000  -0.00000000  1
  Fe  Fe9  1  0.50000000  0.50000000  0.50000000  1
  Fe  Fe10  1  -0.00000000  0.50000000  0.50000000  1
  Fe  Fe11  1  -0.00000000  -0.00000000  -0.00000000  1
  P  P12  1  0.25000100  0.35338275  0.93476418  1
  P  P13  1  0.75000000  0.64661725  0.06523682  1
  P  P14  1  0.75000000  0.85338275  0.56523582  1
  P  P15  1  0.25000100  0.14661825  0.43476418  1
  P  P16  1  0.75000000  0.38946246  0.69299661  1
  P  P17  1  0.75000000  0.11053754  0.19299661  1
  P  P18  1  0.25000100  0.88946246  0.80700339  1
  P  P19  1  0.25000100  0.61053654  0.30700339  1
  O  O20  1  0.04588484  0.58753899  0.36582527  1
  O  O21  1  0.54588384  0.41246001  0.63417473  1
  O  O22  1  0.95411516  0.08753899  0.13417473  1
  O  O23  1  0.45411516  0.91246101  0.86582527  1
  O  O24  1  0.95411516  0.41246001  0.63417473  1
  O  O25  1  0.45411516  0.58753899  0.36582527  1
  O  O26  1  0.04588484  0.91246101  0.86582527  1
  O  O27  1  0.54588384  0.08753899  0.13417473  1
  O  O28  1  0.25000100  0.33040644  0.48540774  1
  O  O29  1  0.75000000  0.66959456  0.51459226  1
  O  O30  1  0.75000000  0.83040544  0.01459126  1
  O  O31  1  0.25000100  0.16959456  0.98540774  1
  O  O32  1  0.75000000  0.14240933  0.95309617  1
  O  O33  1  0.25000100  0.85759067  0.04690283  1
  O  O34  1  0.25000100  0.64240933  0.54690283  1
  O  O35  1  0.75000000  0.35759167  0.45309717  1
  O  O36  1  0.75000000  0.21528054  0.74957912  1
  O  O37  1  0.25000100  0.78471946  0.25042188  1
  O  O38  1  0.25000100  0.71528054  0.75042088  1
  O  O39  1  0.75000000  0.28472046  0.24957812  1
  O  O40  1  0.43931905  0.13854468  0.36629946  1
  O  O41  1  0.93931905  0.86145532  0.63370054  1
  O  O42  1  0.56068095  0.63854368  0.13370054  1
  O  O43  1  0.06068095  0.36145532  0.86629946  1
  O  O44  1  0.56068095  0.86145532  0.63370054  1
  O  O45  1  0.06068095  0.13854468  0.36629946  1
  O  O46  1  0.43931905  0.36145532  0.86629946  1
  O  O47  1  0.93931905  0.63854368  0.13370054  1
  O  O48  1  0.75000000  0.50531834  0.99020743  1
  O  O49  1  0.25000100  0.02398125  0.72243013  1
  O  O50  1  0.25000100  0.47601775  0.22243013  1
  O  O51  1  0.75000000  0.52398125  0.77756987  1
  O  O52  1  0.75000000  0.99468166  0.49020743  1
  O  O53  1  0.25000100  0.00531834  0.50979257  1
  O  O54  1  0.25000100  0.49468066  0.00979157  1
  O  O55  1  0.75000000  0.97601875  0.27756987  1
