# generated using pymatgen
data_LiCo3P3O13
_symmetry_space_group_name_H-M   'P 1'
_cell_length_a   6.10371996
_cell_length_b   7.21767365
_cell_length_c   10.55787351
_cell_angle_alpha   100.45987733
_cell_angle_beta   90.00000000
_cell_angle_gamma   90.00000000
_symmetry_Int_Tables_number   1
_chemical_formula_structural   LiCo3P3O13
_chemical_formula_sum   'Li2 Co6 P6 O26'
_cell_volume   457.39422282
_cell_formula_units_Z   2
loop_
 _symmetry_equiv_pos_site_id
 _symmetry_equiv_pos_as_xyz
  1  'x, y, z'
loop_
 _atom_site_type_symbol
 _atom_site_label
 _atom_site_symmetry_multiplicity
 _atom_site_fract_x
 _atom_site_fract_y
 _atom_site_fract_z
 _atom_site_occupancy
  Li  Li0  1  0.75000000  0.63897553  0.13510244  1
  Li  Li1  1  0.25000000  0.36102447  0.86489756  1
  Co  Co2  1  0.25000000  0.36715906  0.19081979  1
  Co  Co3  1  0.75000000  0.63284094  0.80918021  1
  Co  Co4  1  0.25000000  0.76757282  0.45414777  1
  Co  Co5  1  0.50000000  -0.00000000  -0.00000000  1
  Co  Co6  1  0.75000000  0.23242718  0.54585223  1
  Co  Co7  1  0.00000000  -0.00000000  -0.00000000  1
  P  P8  1  0.25000000  0.21938233  0.46464770  1
  P  P9  1  0.75000000  0.78061767  0.53535230  1
  P  P10  1  0.25000000  0.73463563  0.77699799  1
  P  P11  1  0.75000000  0.26536437  0.22300201  1
  P  P12  1  0.75000000  0.29928165  0.87810031  1
  P  P13  1  0.25000000  0.70071835  0.12189969  1
  O  O14  1  0.75000000  0.35245547  0.74153321  1
  O  O15  1  0.54886355  0.72365766  0.44703178  1
  O  O16  1  0.25000000  0.80342389  0.65024179  1
  O  O17  1  0.53689088  0.19548986  0.90075192  1
  O  O18  1  0.75000000  0.65406733  0.63820929  1
  O  O19  1  0.75000000  0.86584957  0.90341488  1
  O  O20  1  0.25000000  0.34593267  0.36179071  1
  O  O21  1  0.03689088  0.80451014  0.09924808  1
  O  O22  1  0.25000000  0.01105238  0.40233432  1
  O  O23  1  0.75000000  0.98894762  0.59766568  1
  O  O24  1  0.05783294  0.60853938  0.80571616  1
  O  O25  1  0.25000000  0.13415043  0.09658512  1
  O  O26  1  0.55783294  0.39146062  0.19428384  1
  O  O27  1  0.75000000  0.50660763  0.95577796  1
  O  O28  1  0.75000000  0.19657611  0.34975821  1
  O  O29  1  0.46310912  0.80451014  0.09924808  1
  O  O30  1  0.95113645  0.72365766  0.44703178  1
  O  O31  1  0.45113645  0.27634234  0.55296822  1
  O  O32  1  0.44216706  0.60853938  0.80571616  1
  O  O33  1  0.25000000  0.64754453  0.25846679  1
  O  O34  1  0.75000000  0.08349690  0.10985839  1
  O  O35  1  0.25000000  0.91650310  0.89014161  1
  O  O36  1  0.94216706  0.39146062  0.19428384  1
  O  O37  1  0.96310912  0.19548986  0.90075192  1
  O  O38  1  0.04886355  0.27634234  0.55296822  1
  O  O39  1  0.25000000  0.49339237  0.04422204  1
