# generated using pymatgen
data_Eu2O3
_symmetry_space_group_name_H-M   'P 1'
_cell_length_a   3.79421455
_cell_length_b   3.79435980
_cell_length_c   5.98596808
_cell_angle_alpha   89.99999996
_cell_angle_beta   90.00016031
_cell_angle_gamma   120.00126034
_symmetry_Int_Tables_number   1
_chemical_formula_structural   Eu2O3
_chemical_formula_sum   'Eu2 O3'
_cell_volume   74.63111133
_cell_formula_units_Z   1
loop_
 _symmetry_equiv_pos_site_id
 _symmetry_equiv_pos_as_xyz
  1  'x, y, z'
loop_
 _atom_site_type_symbol
 _atom_site_label
 _atom_site_symmetry_multiplicity
 _atom_site_fract_x
 _atom_site_fract_y
 _atom_site_fract_z
 _atom_site_occupancy
  Eu  Eu0  1  0.66665020  0.33332510  0.75536306  1
  Eu  Eu1  1  0.33334980  0.66667490  0.24463694  1
  O  O2  1  -0.00000000  -0.00000000  0.00000000  1
  O  O3  1  0.66665777  0.33332889  0.35125790  1
  O  O4  1  0.33334223  0.66667111  0.64874210  1
