# generated using pymatgen
data_TeMoWSe2S
_symmetry_space_group_name_H-M   'P 1'
_cell_length_a   3.34275001
_cell_length_b   3.34286547
_cell_length_c   38.09599825
_cell_angle_alpha   89.99998018
_cell_angle_beta   90.00000000
_cell_angle_gamma   119.99885752
_symmetry_Int_Tables_number   1
_chemical_formula_structural   TeMoWSe2S
_chemical_formula_sum   'Te2 Mo2 W2 Se4 S2'
_cell_volume   368.66999073
_cell_formula_units_Z   2
loop_
 _symmetry_equiv_pos_site_id
 _symmetry_equiv_pos_as_xyz
  1  'x, y, z'
loop_
 _atom_site_type_symbol
 _atom_site_label
 _atom_site_symmetry_multiplicity
 _atom_site_fract_x
 _atom_site_fract_y
 _atom_site_fract_z
 _atom_site_occupancy
  Te  Te0  1  0.66664711  0.33329321  0.41985859  1
  Te  Te1  1  0.66664709  0.33329319  0.51945407  1
  Mo  Mo2  1  0.33329042  0.66658084  0.09393514  1
  Mo  Mo3  1  0.33330845  0.66661690  0.46965545  1
  W  W4  1  0.66669063  0.33338126  0.28175290  1
  W  W5  1  0.66669537  0.33339074  0.65757891  1
  Se  Se6  1  0.33335399  0.66670899  0.32570801  1
  Se  Se7  1  0.33334925  0.66669951  0.70150985  1
  Se  Se8  1  0.33334628  0.66669355  0.23780854  1
  Se  Se9  1  0.33335980  0.66672059  0.61361389  1
  S  S10  1  0.66665532  0.33330965  0.05405948  1
  S  S11  1  0.66665629  0.33331158  0.13381316  1
