# generated using pymatgen
data_Te2Mo3W(Se2S)2
_symmetry_space_group_name_H-M   'P 1'
_cell_length_a   3.34440041
_cell_length_b   3.34450692
_cell_length_c   38.09317390
_cell_angle_alpha   89.99989446
_cell_angle_beta   90.00000000
_cell_angle_gamma   119.99894663
_symmetry_Int_Tables_number   1
_chemical_formula_structural   Te2Mo3W(Se2S)2
_chemical_formula_sum   'Te2 Mo3 W1 Se4 S2'
_cell_volume   369.00543912
_cell_formula_units_Z   1
loop_
 _symmetry_equiv_pos_site_id
 _symmetry_equiv_pos_as_xyz
  1  'x, y, z'
loop_
 _atom_site_type_symbol
 _atom_site_label
 _atom_site_symmetry_multiplicity
 _atom_site_fract_x
 _atom_site_fract_y
 _atom_site_fract_z
 _atom_site_occupancy
  Te  Te0  1  0.33335470  0.66671040  0.70735093  1
  Te  Te1  1  0.33335504  0.66671108  0.60777960  1
  Mo  Mo2  1  0.33329392  0.66658785  0.09392412  1
  Mo  Mo3  1  0.33331258  0.66662516  0.46962755  1
  Mo  Mo4  1  0.66668582  0.33337163  0.65759669  1
  W  W5  1  0.66668558  0.33337116  0.28178716  1
  Se  Se6  1  0.33334635  0.66669371  0.32580404  1
  Se  Se7  1  0.66665031  0.33329961  0.42583340  1
  Se  Se8  1  0.66665018  0.33329937  0.51343151  1
  Se  Se9  1  0.33334694  0.66669488  0.23777008  1
  S  S10  1  0.66665798  0.33331496  0.05411972  1
  S  S11  1  0.66666059  0.33332017  0.13372320  1
