# generated using pymatgen
data_TeMoWSe2S
_symmetry_space_group_name_H-M   'P 1'
_cell_length_a   3.34263069
_cell_length_b   3.34275489
_cell_length_c   38.08723058
_cell_angle_alpha   90.00008790
_cell_angle_beta   90.00000000
_cell_angle_gamma   119.99877082
_symmetry_Int_Tables_number   1
_chemical_formula_structural   TeMoWSe2S
_chemical_formula_sum   'Te2 Mo2 W2 Se4 S2'
_cell_volume   368.56011529
_cell_formula_units_Z   2
loop_
 _symmetry_equiv_pos_site_id
 _symmetry_equiv_pos_as_xyz
  1  'x, y, z'
loop_
 _atom_site_type_symbol
 _atom_site_label
 _atom_site_symmetry_multiplicity
 _atom_site_fract_x
 _atom_site_fract_y
 _atom_site_fract_z
 _atom_site_occupancy
  Te  Te0  1  0.33335933  0.66671967  0.33157005  1
  Te  Te1  1  0.33335434  0.66670969  0.23194189  1
  Mo  Mo2  1  0.33329515  0.66659030  0.09392251  1
  Mo  Mo3  1  0.66669400  0.33338799  0.28176668  1
  W  W4  1  0.33331025  0.66662050  0.46969951  1
  W  W5  1  0.66668934  0.33337868  0.65753153  1
  Se  Se6  1  0.33335034  0.66670168  0.70148793  1
  Se  Se7  1  0.66664914  0.33329729  0.42574711  1
  Se  Se8  1  0.66663302  0.33326504  0.51364877  1
  Se  Se9  1  0.33335063  0.66670226  0.61358520  1
  S  S10  1  0.66665587  0.33331073  0.05404463  1
  S  S11  1  0.66665858  0.33331617  0.13380217  1
