# generated using pymatgen
data_TeMoWSe2S
_symmetry_space_group_name_H-M   'P 1'
_cell_length_a   3.34363846
_cell_length_b   3.34370427
_cell_length_c   38.09569877
_cell_angle_alpha   89.99970374
_cell_angle_beta   90.00000000
_cell_angle_gamma   119.99934892
_symmetry_Int_Tables_number   1
_chemical_formula_structural   TeMoWSe2S
_chemical_formula_sum   'Te2 Mo2 W2 Se4 S2'
_cell_volume   368.85578318
_cell_formula_units_Z   2
loop_
 _symmetry_equiv_pos_site_id
 _symmetry_equiv_pos_as_xyz
  1  'x, y, z'
loop_
 _atom_site_type_symbol
 _atom_site_label
 _atom_site_symmetry_multiplicity
 _atom_site_fract_x
 _atom_site_fract_y
 _atom_site_fract_z
 _atom_site_occupancy
  Te  Te0  1  0.33335151  0.66670401  0.70734606  1
  Te  Te1  1  0.33336247  0.66672594  0.60779269  1
  Mo  Mo2  1  0.33330109  0.66660217  0.09392108  1
  Mo  Mo3  1  0.66668743  0.33337485  0.65759908  1
  W  W4  1  0.33331104  0.66662208  0.46963075  1
  W  W5  1  0.66669125  0.33338250  0.28178779  1
  Se  Se6  1  0.33335069  0.66670239  0.32579567  1
  Se  Se7  1  0.66665180  0.33330261  0.42561767  1
  Se  Se8  1  0.66663785  0.33327470  0.51365248  1
  Se  Se9  1  0.33334972  0.66670045  0.23776964  1
  S  S10  1  0.66665173  0.33330246  0.05412719  1
  S  S11  1  0.66665342  0.33330583  0.13370790  1
