# generated using pymatgen
data_Te2Mo3W(Se2S)2
_symmetry_space_group_name_H-M   'P 1'
_cell_length_a   3.34364439
_cell_length_b   3.34365870
_cell_length_c   38.09537559
_cell_angle_alpha   89.99997935
_cell_angle_beta   90.00000000
_cell_angle_gamma   119.99985856
_symmetry_Int_Tables_number   1
_chemical_formula_structural   Te2Mo3W(Se2S)2
_chemical_formula_sum   'Te2 Mo3 W1 Se4 S2'
_cell_volume   368.84638653
_cell_formula_units_Z   1
loop_
 _symmetry_equiv_pos_site_id
 _symmetry_equiv_pos_as_xyz
  1  'x, y, z'
loop_
 _atom_site_type_symbol
 _atom_site_label
 _atom_site_symmetry_multiplicity
 _atom_site_fract_x
 _atom_site_fract_y
 _atom_site_fract_z
 _atom_site_occupancy
  Te  Te0  1  0.66665325  0.33330551  0.41991475  1
  Te  Te1  1  0.66665424  0.33330749  0.51942141  1
  Mo  Mo2  1  0.33330794  0.66661587  0.09393850  1
  Mo  Mo3  1  0.33331630  0.66663261  0.46965697  1
  Mo  Mo4  1  0.66669021  0.33338042  0.65757413  1
  W  W5  1  0.66668602  0.33337203  0.28174245  1
  Se  Se6  1  0.33334781  0.66669662  0.32573960  1
  Se  Se7  1  0.33335696  0.66671491  0.70136251  1
  Se  Se8  1  0.33334833  0.66669767  0.23775357  1
  Se  Se9  1  0.33335067  0.66670233  0.61377534  1
  S  S10  1  0.66663524  0.33326949  0.05412322  1
  S  S11  1  0.66665302  0.33330505  0.13374556  1
