# generated using pymatgen
data_YMg2
_symmetry_space_group_name_H-M   'P 1'
_cell_length_a   12.83554546
_cell_length_b   3.30924434
_cell_length_c   7.80258616
_cell_angle_alpha   90.00000000
_cell_angle_beta   103.40545104
_cell_angle_gamma   90.00000000
_symmetry_Int_Tables_number   1
_chemical_formula_structural   YMg2
_chemical_formula_sum   'Y4 Mg8'
_cell_volume   322.39231773
_cell_formula_units_Z   4
loop_
 _symmetry_equiv_pos_site_id
 _symmetry_equiv_pos_as_xyz
  1  'x, y, z'
loop_
 _atom_site_type_symbol
 _atom_site_label
 _atom_site_symmetry_multiplicity
 _atom_site_fract_x
 _atom_site_fract_y
 _atom_site_fract_z
 _atom_site_occupancy
  Y  Y0  1  0.38308132  0.00000000  0.27333883  1
  Y  Y1  1  0.06059001  0.00000000  0.61215250  1
  Y  Y2  1  0.88308132  0.50000000  0.27333883  1
  Y  Y3  1  0.56059001  0.50000000  0.61215250  1
  Mg  Mg4  1  0.00477757  0.00000000  0.00221952  1
  Mg  Mg5  1  0.16408858  0.50000000  0.32725984  1
  Mg  Mg6  1  0.33194871  0.00000000  0.67057248  1
  Mg  Mg7  1  0.22218082  0.50000000  0.94778983  1
  Mg  Mg8  1  0.50477757  0.50000000  0.00221952  1
  Mg  Mg9  1  0.66408858  0.00000000  0.32725984  1
  Mg  Mg10  1  0.83194871  0.50000000  0.67057248  1
  Mg  Mg11  1  0.72218082  0.00000000  0.94778983  1
