# generated using pymatgen
data_Te2Mo2SeS
_symmetry_space_group_name_H-M   'P 1'
_cell_length_a   3.39887841
_cell_length_b   3.39885710
_cell_length_c   38.69344397
_cell_angle_alpha   89.99997105
_cell_angle_beta   89.99999872
_cell_angle_gamma   120.00011660
_symmetry_Int_Tables_number   1
_chemical_formula_structural   Te2Mo2SeS
_chemical_formula_sum   'Te4 Mo4 Se2 S2'
_cell_volume   387.11147252
_cell_formula_units_Z   2
loop_
 _symmetry_equiv_pos_site_id
 _symmetry_equiv_pos_as_xyz
  1  'x, y, z'
loop_
 _atom_site_type_symbol
 _atom_site_label
 _atom_site_symmetry_multiplicity
 _atom_site_fract_x
 _atom_site_fract_y
 _atom_site_fract_z
 _atom_site_occupancy
  Te  Te0  1  0.33335502  0.66671079  0.70593756  1
  Te  Te1  1  0.66665207  0.33330370  0.42123014  1
  Te  Te2  1  0.66665385  0.33330735  0.51795849  1
  Te  Te3  1  0.33335277  0.66670626  0.60922487  1
  Mo  Mo4  1  0.33330820  0.66661590  0.09392869  1
  Mo  Mo5  1  0.33331112  0.66662181  0.46959649  1
  Mo  Mo6  1  0.66669434  0.33338869  0.28182238  1
  Mo  Mo7  1  0.66669408  0.33338892  0.65761384  1
  Se  Se8  1  0.66662457  0.33324881  0.05134918  1
  Se  Se9  1  0.66663873  0.33327714  0.13649350  1
  S  S10  1  0.33335807  0.66671632  0.32067753  1
  S  S11  1  0.33335719  0.66671432  0.24291533  1
