# generated using pymatgen
data_Te2Mo2SeS
_symmetry_space_group_name_H-M   'P 1'
_cell_length_a   3.39918853
_cell_length_b   3.39905995
_cell_length_c   40.00886246
_cell_angle_alpha   90.00542120
_cell_angle_beta   90.00000000
_cell_angle_gamma   120.00125121
_symmetry_Int_Tables_number   1
_chemical_formula_structural   Te2Mo2SeS
_chemical_formula_sum   'Te4 Mo4 Se2 S2'
_cell_volume   400.32750926
_cell_formula_units_Z   2
loop_
 _symmetry_equiv_pos_site_id
 _symmetry_equiv_pos_as_xyz
  1  'x, y, z'
loop_
 _atom_site_type_symbol
 _atom_site_label
 _atom_site_symmetry_multiplicity
 _atom_site_fract_x
 _atom_site_fract_y
 _atom_site_fract_z
 _atom_site_occupancy
  Te  Te0  1  0.33336878  0.66673856  0.32748741  1
  Te  Te1  1  0.66653640  0.33307180  0.42368733  1
  Te  Te2  1  0.66670197  0.33340295  0.51734439  1
  Te  Te3  1  0.33332042  0.66664185  0.23368835  1
  Mo  Mo4  1  0.33338154  0.66676307  0.09387983  1
  Mo  Mo5  1  0.33326420  0.66652840  0.47051234  1
  Mo  Mo6  1  0.66669629  0.33339258  0.28060280  1
  Mo  Mo7  1  0.66666414  0.33332828  0.65794288  1
  Se  Se8  1  0.33332037  0.66664174  0.69913552  1
  Se  Se9  1  0.33330136  0.66660373  0.61674546  1
  S  S10  1  0.66671247  0.33342395  0.05630000  1
  S  S11  1  0.66673204  0.33346308  0.13142167  1
