# generated using pymatgen
data_Te2Mo3W(Se2S)2
_symmetry_space_group_name_H-M   'P 1'
_cell_length_a   3.34407563
_cell_length_b   3.34411152
_cell_length_c   38.08102325
_cell_angle_alpha   90.00051127
_cell_angle_beta   90.00000000
_cell_angle_gamma   119.99964490
_symmetry_Int_Tables_number   1
_chemical_formula_structural   Te2Mo3W(Se2S)2
_chemical_formula_sum   'Te2 Mo3 W1 Se4 S2'
_cell_volume   368.80571116
_cell_formula_units_Z   1
loop_
 _symmetry_equiv_pos_site_id
 _symmetry_equiv_pos_as_xyz
  1  'x, y, z'
loop_
 _atom_site_type_symbol
 _atom_site_label
 _atom_site_symmetry_multiplicity
 _atom_site_fract_x
 _atom_site_fract_y
 _atom_site_fract_z
 _atom_site_occupancy
  Te  Te0  1  0.33338390  0.66676880  0.70737178  1
  Te  Te1  1  0.33335205  0.66670509  0.60777451  1
  Mo  Mo2  1  0.33328851  0.66657701  0.09391871  1
  Mo  Mo3  1  0.66668510  0.33337021  0.28179014  1
  Mo  Mo4  1  0.66668894  0.33337788  0.65759417  1
  W  W5  1  0.33331103  0.66662206  0.46963484  1
  Se  Se6  1  0.33335387  0.66670874  0.32558821  1
  Se  Se7  1  0.66664581  0.33329061  0.42560839  1
  Se  Se8  1  0.66665127  0.33330154  0.51366764  1
  Se  Se9  1  0.33334519  0.66669138  0.23796340  1
  S  S10  1  0.66663963  0.33327825  0.05409024  1
  S  S11  1  0.66665471  0.33330842  0.13374594  1
