# generated using pymatgen
data_Te2Mo2SeS
_symmetry_space_group_name_H-M   'P 1'
_cell_length_a   3.39840964
_cell_length_b   3.39850267
_cell_length_c   38.64974218
_cell_angle_alpha   90.00022969
_cell_angle_beta   90.00000000
_cell_angle_gamma   119.99909450
_symmetry_Int_Tables_number   1
_chemical_formula_structural   Te2Mo2SeS
_chemical_formula_sum   'Te4 Mo4 Se2 S2'
_cell_volume   386.58458957
_cell_formula_units_Z   2
loop_
 _symmetry_equiv_pos_site_id
 _symmetry_equiv_pos_as_xyz
  1  'x, y, z'
loop_
 _atom_site_type_symbol
 _atom_site_label
 _atom_site_symmetry_multiplicity
 _atom_site_fract_x
 _atom_site_fract_y
 _atom_site_fract_z
 _atom_site_occupancy
  Te  Te0  1  0.33335263  0.66670626  0.33020324  1
  Te  Te1  1  0.33335058  0.66670217  0.70596097  1
  Te  Te2  1  0.33335194  0.66670488  0.23335108  1
  Te  Te3  1  0.33335546  0.66671191  0.60909602  1
  Mo  Mo4  1  0.33329310  0.66658620  0.09394911  1
  Mo  Mo5  1  0.33330604  0.66661208  0.46965058  1
  Mo  Mo6  1  0.66669248  0.33338497  0.28179845  1
  Mo  Mo7  1  0.66669168  0.33338336  0.65752001  1
  Se  Se8  1  0.66664865  0.33329630  0.42707498  1
  Se  Se9  1  0.66664041  0.33327981  0.51225361  1
  S  S10  1  0.66665860  0.33331620  0.05506431  1
  S  S11  1  0.66665843  0.33331587  0.13282563  1
