# generated using pymatgen
data_Te2Mo3W(Se2S)2
_symmetry_space_group_name_H-M   'P 1'
_cell_length_a   3.34248813
_cell_length_b   3.34252711
_cell_length_c   39.92948630
_cell_angle_alpha   89.99947106
_cell_angle_beta   90.00000000
_cell_angle_gamma   119.99961433
_symmetry_Int_Tables_number   1
_chemical_formula_structural   Te2Mo3W(Se2S)2
_chemical_formula_sum   'Te2 Mo3 W1 Se4 S2'
_cell_volume   386.34104880
_cell_formula_units_Z   1
loop_
 _symmetry_equiv_pos_site_id
 _symmetry_equiv_pos_as_xyz
  1  'x, y, z'
loop_
 _atom_site_type_symbol
 _atom_site_label
 _atom_site_symmetry_multiplicity
 _atom_site_fract_x
 _atom_site_fract_y
 _atom_site_fract_z
 _atom_site_occupancy
  Te  Te0  1  0.66668659  0.33337217  0.42202082  1
  Te  Te1  1  0.66669092  0.33338085  0.51701561  1
  Mo  Mo2  1  0.33340216  0.66680432  0.09394892  1
  Mo  Mo3  1  0.33335634  0.66671267  0.46950787  1
  Mo  Mo4  1  0.66664317  0.33328634  0.28088918  1
  W  W5  1  0.66655524  0.33311048  0.65859030  1
  Se  Se6  1  0.33327256  0.66654612  0.32262216  1
  Se  Se7  1  0.33328504  0.66657107  0.70052458  1
  Se  Se8  1  0.33334957  0.66670014  0.23906074  1
  Se  Se9  1  0.33318788  0.66637676  0.61670145  1
  S  S10  1  0.66679090  0.33358081  0.05596355  1
  S  S11  1  0.66677963  0.33355826  0.13190283  1
