# generated using pymatgen
data_Te2Mo2SeS
_symmetry_space_group_name_H-M   'P 1'
_cell_length_a   3.39863825
_cell_length_b   3.39877334
_cell_length_c   40.02570487
_cell_angle_alpha   90.00039024
_cell_angle_beta   90.00004583
_cell_angle_gamma   119.99803487
_symmetry_Int_Tables_number   1
_chemical_formula_structural   Te2Mo2SeS
_chemical_formula_sum   'Te4 Mo4 Se2 S2'
_cell_volume   400.41041325
_cell_formula_units_Z   2
loop_
 _symmetry_equiv_pos_site_id
 _symmetry_equiv_pos_as_xyz
  1  'x, y, z'
loop_
 _atom_site_type_symbol
 _atom_site_label
 _atom_site_symmetry_multiplicity
 _atom_site_fract_x
 _atom_site_fract_y
 _atom_site_fract_z
 _atom_site_occupancy
  Te  Te0  1  0.33331589  0.66663414  0.70575175  1
  Te  Te1  1  0.66668233  0.33336330  0.42157601  1
  Te  Te2  1  0.66668173  0.33336193  0.51522110  1
  Te  Te3  1  0.33329321  0.66658539  0.61215066  1
  Mo  Mo4  1  0.33332989  0.66667164  0.09409109  1
  Mo  Mo5  1  0.33335549  0.66671361  0.46838935  1
  Mo  Mo6  1  0.66667327  0.33334510  0.28146672  1
  Mo  Mo7  1  0.66663001  0.33325859  0.65897216  1
  Se  Se8  1  0.33334544  0.66669300  0.32263613  1
  Se  Se9  1  0.33334001  0.66668185  0.24030599  1
  S  S10  1  0.66668340  0.33335987  0.05657589  1
  S  S11  1  0.66666931  0.33333159  0.13161113  1
