# generated using pymatgen
data_Te2Mo3W(Se2S)2
_symmetry_space_group_name_H-M   'P 1'
_cell_length_a   3.34436207
_cell_length_b   3.34455100
_cell_length_c   38.04925256
_cell_angle_alpha   90.00005972
_cell_angle_beta   90.00000000
_cell_angle_gamma   119.99813152
_symmetry_Int_Tables_number   1
_chemical_formula_structural   Te2Mo3W(Se2S)2
_chemical_formula_sum   'Te2 Mo3 W1 Se4 S2'
_cell_volume   368.58363578
_cell_formula_units_Z   1
loop_
 _symmetry_equiv_pos_site_id
 _symmetry_equiv_pos_as_xyz
  1  'x, y, z'
loop_
 _atom_site_type_symbol
 _atom_site_label
 _atom_site_symmetry_multiplicity
 _atom_site_fract_x
 _atom_site_fract_y
 _atom_site_fract_z
 _atom_site_occupancy
  Te  Te0  1  0.33335251  0.66670602  0.33166295  1
  Te  Te1  1  0.33335603  0.66671306  0.23188074  1
  Mo  Mo2  1  0.33329233  0.66658466  0.09391406  1
  Mo  Mo3  1  0.33330990  0.66661979  0.46967580  1
  Mo  Mo4  1  0.66669298  0.33338595  0.28175887  1
  W  W5  1  0.66669084  0.33338168  0.65752747  1
  Se  Se6  1  0.33335167  0.66670433  0.70151359  1
  Se  Se7  1  0.66664822  0.33329545  0.42592026  1
  Se  Se8  1  0.66664971  0.33329843  0.51347482  1
  Se  Se9  1  0.33335059  0.66670219  0.61356287  1
  S  S10  1  0.66664711  0.33329321  0.05406684  1
  S  S11  1  0.66665811  0.33331522  0.13378970  1
