# generated using pymatgen
data_Te2Mo3W(Se2S)2
_symmetry_space_group_name_H-M   'P 1'
_cell_length_a   3.34465034
_cell_length_b   3.34462486
_cell_length_c   39.68811937
_cell_angle_alpha   90.01515953
_cell_angle_beta   90.00000000
_cell_angle_gamma   120.00025197
_symmetry_Int_Tables_number   1
_chemical_formula_structural   Te2Mo3W(Se2S)2
_chemical_formula_sum   'Te2 Mo3 W1 Se4 S2'
_cell_volume   384.49275872
_cell_formula_units_Z   1
loop_
 _symmetry_equiv_pos_site_id
 _symmetry_equiv_pos_as_xyz
  1  'x, y, z'
loop_
 _atom_site_type_symbol
 _atom_site_label
 _atom_site_symmetry_multiplicity
 _atom_site_fract_x
 _atom_site_fract_y
 _atom_site_fract_z
 _atom_site_occupancy
  Te  Te0  1  0.33348920  0.66697939  0.32867778  1
  Te  Te1  1  0.33335832  0.66671765  0.23290651  1
  Mo  Mo2  1  0.33334926  0.66669852  0.09356020  1
  Mo  Mo3  1  0.66678438  0.33356875  0.28081905  1
  Mo  Mo4  1  0.66669509  0.33339018  0.65791457  1
  W  W5  1  0.33312634  0.66625267  0.47062333  1
  Se  Se6  1  0.33336613  0.66673327  0.69986662  1
  Se  Se7  1  0.66630361  0.33260623  0.42844354  1
  Se  Se8  1  0.66672524  0.33344948  0.51280758  1
  Se  Se9  1  0.33335495  0.66671091  0.61591750  1
  S  S10  1  0.66665719  0.33331337  0.05536791  1
  S  S11  1  0.66679029  0.33357958  0.13184342  1
