# generated using pymatgen
data_Te4MoW3Se4
_symmetry_space_group_name_H-M   'P 1'
_cell_length_a   3.43881257
_cell_length_b   3.43879624
_cell_length_c   39.14759167
_cell_angle_alpha   89.99994227
_cell_angle_beta   90.00000000
_cell_angle_gamma   120.00015700
_symmetry_Int_Tables_number   1
_chemical_formula_structural   Te4MoW3Se4
_chemical_formula_sum   'Te4 Mo1 W3 Se4'
_cell_volume   400.91281917
_cell_formula_units_Z   1
loop_
 _symmetry_equiv_pos_site_id
 _symmetry_equiv_pos_as_xyz
  1  'x, y, z'
loop_
 _atom_site_type_symbol
 _atom_site_label
 _atom_site_symmetry_multiplicity
 _atom_site_fract_x
 _atom_site_fract_y
 _atom_site_fract_z
 _atom_site_occupancy
  Te  Te0  1  0.33336928  0.66673957  0.32941756  1
  Te  Te1  1  0.33334867  0.66669833  0.70516858  1
  Te  Te2  1  0.33335825  0.66671750  0.23416283  1
  Te  Te3  1  0.33334847  0.66669795  0.60991879  1
  Mo  Mo4  1  0.33330864  0.66661729  0.09393206  1
  W  W5  1  0.33330928  0.66661856  0.46964981  1
  W  W6  1  0.66668840  0.33337681  0.28180540  1
  W  W7  1  0.66668552  0.33337104  0.65752990  1
  Se  Se8  1  0.66664488  0.33328876  0.05216126  1
  Se  Se9  1  0.66664682  0.33329264  0.42776613  1
  Se  Se10  1  0.66664526  0.33328952  0.13568078  1
  Se  Se11  1  0.66664652  0.33329204  0.51155492  1
