# generated using pymatgen
data_Te4MoW3Se4
_symmetry_space_group_name_H-M   'P 1'
_cell_length_a   3.43917046
_cell_length_b   3.43914752
_cell_length_c   39.20834252
_cell_angle_alpha   90.00029715
_cell_angle_beta   90.00000000
_cell_angle_gamma   120.00022063
_symmetry_Int_Tables_number   1
_chemical_formula_structural   Te4MoW3Se4
_chemical_formula_sum   'Te4 Mo1 W3 Se4'
_cell_volume   401.61752622
_cell_formula_units_Z   1
loop_
 _symmetry_equiv_pos_site_id
 _symmetry_equiv_pos_as_xyz
  1  'x, y, z'
loop_
 _atom_site_type_symbol
 _atom_site_label
 _atom_site_symmetry_multiplicity
 _atom_site_fract_x
 _atom_site_fract_y
 _atom_site_fract_z
 _atom_site_occupancy
  Te  Te0  1  0.33335255  0.66670610  0.32932708  1
  Te  Te1  1  0.66664679  0.33329258  0.42212036  1
  Te  Te2  1  0.66664968  0.33329836  0.51726221  1
  Te  Te3  1  0.33335105  0.66670311  0.23418863  1
  Mo  Mo4  1  0.33331226  0.66662452  0.09391526  1
  W  W5  1  0.33331267  0.66662533  0.46971793  1
  W  W6  1  0.66668870  0.33337740  0.28175103  1
  W  W7  1  0.66669122  0.33338243  0.65755368  1
  Se  Se8  1  0.33335426  0.66670952  0.69938987  1
  Se  Se9  1  0.66664731  0.33329363  0.05218365  1
  Se  Se10  1  0.66664125  0.33328149  0.13565598  1
  Se  Se11  1  0.33335227  0.66670553  0.61568230  1
