# generated using pymatgen
data_TeMoWSe2S
_symmetry_space_group_name_H-M   'P 1'
_cell_length_a   3.34467626
_cell_length_b   3.34457249
_cell_length_c   38.07755892
_cell_angle_alpha   89.99952991
_cell_angle_beta   90.00000000
_cell_angle_gamma   120.00102630
_symmetry_Int_Tables_number   1
_chemical_formula_structural   TeMoWSe2S
_chemical_formula_sum   'Te2 Mo2 W2 Se4 S2'
_cell_volume   368.88410364
_cell_formula_units_Z   2
loop_
 _symmetry_equiv_pos_site_id
 _symmetry_equiv_pos_as_xyz
  1  'x, y, z'
loop_
 _atom_site_type_symbol
 _atom_site_label
 _atom_site_symmetry_multiplicity
 _atom_site_fract_x
 _atom_site_fract_y
 _atom_site_fract_z
 _atom_site_occupancy
  Te  Te0  1  0.66664447  0.33328795  0.04407723  1
  Te  Te1  1  0.66664715  0.33329330  0.14366045  1
  Mo  Mo2  1  0.33331481  0.66662962  0.09384968  1
  Mo  Mo3  1  0.33333546  0.66667092  0.46965796  1
  W  W4  1  0.66668962  0.33337924  0.28186142  1
  W  W5  1  0.66669045  0.33338090  0.65754763  1
  Se  Se6  1  0.33335257  0.66670614  0.32584825  1
  Se  Se7  1  0.33335319  0.66670737  0.70154763  1
  Se  Se8  1  0.33335194  0.66670488  0.23784651  1
  Se  Se9  1  0.33335305  0.66670709  0.61352886  1
  S  S10  1  0.66663333  0.33326566  0.42987342  1
  S  S11  1  0.66663397  0.33326694  0.50944896  1
