# generated using pymatgen
data_TeMoWSe2S
_symmetry_space_group_name_H-M   'P 1'
_cell_length_a   3.34392322
_cell_length_b   3.34377015
_cell_length_c   38.05167349
_cell_angle_alpha   89.99968262
_cell_angle_beta   90.00000000
_cell_angle_gamma   120.00151437
_symmetry_Int_Tables_number   1
_chemical_formula_structural   TeMoWSe2S
_chemical_formula_sum   'Te2 Mo2 W2 Se4 S2'
_cell_volume   368.46011106
_cell_formula_units_Z   2
loop_
 _symmetry_equiv_pos_site_id
 _symmetry_equiv_pos_as_xyz
  1  'x, y, z'
loop_
 _atom_site_type_symbol
 _atom_site_label
 _atom_site_symmetry_multiplicity
 _atom_site_fract_x
 _atom_site_fract_y
 _atom_site_fract_z
 _atom_site_occupancy
  Te  Te0  1  0.66664766  0.33329432  0.04402870  1
  Te  Te1  1  0.66664407  0.33328714  0.14380457  1
  Mo  Mo2  1  0.33330148  0.66660297  0.09389281  1
  Mo  Mo3  1  0.66668728  0.33337456  0.28179663  1
  W  W4  1  0.33330573  0.66661146  0.46966386  1
  W  W5  1  0.66669743  0.33339486  0.65755108  1
  Se  Se6  1  0.33335184  0.66670468  0.70155160  1
  Se  Se7  1  0.66664955  0.33329810  0.42563261  1
  Se  Se8  1  0.66665069  0.33330039  0.51369972  1
  Se  Se9  1  0.33335478  0.66671055  0.61352755  1
  S  S10  1  0.33335549  0.66671198  0.32164873  1
  S  S11  1  0.33335399  0.66670898  0.24195014  1
