# generated using pymatgen
data_Te4MoW3Se4
_symmetry_space_group_name_H-M   'P 1'
_cell_length_a   3.43981419
_cell_length_b   3.43982562
_cell_length_c   39.16529657
_cell_angle_alpha   89.99993260
_cell_angle_beta   90.00000000
_cell_angle_gamma   119.99989002
_symmetry_Int_Tables_number   1
_chemical_formula_structural   Te4MoW3Se4
_chemical_formula_sum   'Te4 Mo1 W3 Se4'
_cell_volume   401.33214161
_cell_formula_units_Z   1
loop_
 _symmetry_equiv_pos_site_id
 _symmetry_equiv_pos_as_xyz
  1  'x, y, z'
loop_
 _atom_site_type_symbol
 _atom_site_label
 _atom_site_symmetry_multiplicity
 _atom_site_fract_x
 _atom_site_fract_y
 _atom_site_fract_z
 _atom_site_occupancy
  Te  Te0  1  0.33336138  0.66672375  0.32942024  1
  Te  Te1  1  0.33335185  0.66670470  0.70514852  1
  Te  Te2  1  0.33335869  0.66671839  0.23418035  1
  Te  Te3  1  0.33335215  0.66670530  0.60991123  1
  Mo  Mo4  1  0.33331437  0.66662874  0.46967460  1
  W  W5  1  0.33330432  0.66660865  0.09391545  1
  W  W6  1  0.66669064  0.33338128  0.28182842  1
  W  W7  1  0.66668746  0.33337493  0.65753672  1
  Se  Se8  1  0.66664585  0.33329069  0.05205155  1
  Se  Se9  1  0.66664952  0.33329804  0.42787674  1
  Se  Se10  1  0.66663397  0.33326694  0.13577888  1
  Se  Se11  1  0.66664979  0.33329859  0.51142529  1
