# generated using pymatgen
data_Te4MoW3Se4
_symmetry_space_group_name_H-M   'P 1'
_cell_length_a   3.43837392
_cell_length_b   3.43839196
_cell_length_c   39.19040105
_cell_angle_alpha   90.00023693
_cell_angle_beta   90.00000000
_cell_angle_gamma   119.99982647
_symmetry_Int_Tables_number   1
_chemical_formula_structural   Te4MoW3Se4
_chemical_formula_sum   'Te4 Mo1 W3 Se4'
_cell_volume   401.25419441
_cell_formula_units_Z   1
loop_
 _symmetry_equiv_pos_site_id
 _symmetry_equiv_pos_as_xyz
  1  'x, y, z'
loop_
 _atom_site_type_symbol
 _atom_site_label
 _atom_site_symmetry_multiplicity
 _atom_site_fract_x
 _atom_site_fract_y
 _atom_site_fract_z
 _atom_site_occupancy
  Te  Te0  1  0.33336005  0.66672110  0.70513925  1
  Te  Te1  1  0.66664551  0.33329002  0.42205811  1
  Te  Te2  1  0.66664434  0.33328768  0.51720692  1
  Te  Te3  1  0.33335335  0.66670771  0.60998520  1
  Mo  Mo4  1  0.33331168  0.66662336  0.09393544  1
  W  W5  1  0.33331206  0.66662413  0.46962324  1
  W  W6  1  0.66668671  0.33337342  0.28181184  1
  W  W7  1  0.66669489  0.33338977  0.65757236  1
  Se  Se8  1  0.33335228  0.66670556  0.32365342  1
  Se  Se9  1  0.66664671  0.33329243  0.05218858  1
  Se  Se10  1  0.66664197  0.33328294  0.13564691  1
  Se  Se11  1  0.33335045  0.66670189  0.23992672  1
