# generated using pymatgen
data_Te4MoW3Se4
_symmetry_space_group_name_H-M   'P 1'
_cell_length_a   3.44006800
_cell_length_b   3.44007458
_cell_length_c   39.16015360
_cell_angle_alpha   90.00111837
_cell_angle_beta   90.00000692
_cell_angle_gamma   119.99989584
_symmetry_Int_Tables_number   1
_chemical_formula_structural   Te4MoW3Se4
_chemical_formula_sum   'Te4 Mo1 W3 Se4'
_cell_volume   401.33807165
_cell_formula_units_Z   1
loop_
 _symmetry_equiv_pos_site_id
 _symmetry_equiv_pos_as_xyz
  1  'x, y, z'
loop_
 _atom_site_type_symbol
 _atom_site_label
 _atom_site_symmetry_multiplicity
 _atom_site_fract_x
 _atom_site_fract_y
 _atom_site_fract_z
 _atom_site_occupancy
  Te  Te0  1  0.33336195  0.66672473  0.70515494  1
  Te  Te1  1  0.66663864  0.33327698  0.04630815  1
  Te  Te2  1  0.66664086  0.33328111  0.14156123  1
  Te  Te3  1  0.33335404  0.66670846  0.60991029  1
  Mo  Mo4  1  0.66668728  0.33337535  0.28180066  1
  W  W5  1  0.33331240  0.66662394  0.09391724  1
  W  W6  1  0.33331033  0.66661987  0.46963405  1
  W  W7  1  0.66669522  0.33339098  0.65753728  1
  Se  Se8  1  0.33335426  0.66670903  0.32359688  1
  Se  Se9  1  0.66664275  0.33328500  0.42774966  1
  Se  Se10  1  0.66665152  0.33330252  0.51154646  1
  Se  Se11  1  0.33335075  0.66670202  0.24003115  1
