# generated using pymatgen
data_TeMoWSe2S
_symmetry_space_group_name_H-M   'P 1'
_cell_length_a   3.34380910
_cell_length_b   3.34393903
_cell_length_c   38.07677142
_cell_angle_alpha   89.99938149
_cell_angle_beta   90.00000000
_cell_angle_gamma   119.99871464
_symmetry_Int_Tables_number   1
_chemical_formula_structural   TeMoWSe2S
_chemical_formula_sum   'Te2 Mo2 W2 Se4 S2'
_cell_volume   368.71957936
_cell_formula_units_Z   2
loop_
 _symmetry_equiv_pos_site_id
 _symmetry_equiv_pos_as_xyz
  1  'x, y, z'
loop_
 _atom_site_type_symbol
 _atom_site_label
 _atom_site_symmetry_multiplicity
 _atom_site_fract_x
 _atom_site_fract_y
 _atom_site_fract_z
 _atom_site_occupancy
  Te  Te0  1  0.66664861  0.33329623  0.41978044  1
  Te  Te1  1  0.66664226  0.33328353  0.51943511  1
  Mo  Mo2  1  0.33331393  0.66662787  0.46961770  1
  Mo  Mo3  1  0.66672286  0.33344571  0.28179426  1
  W  W4  1  0.33331122  0.66662244  0.09391835  1
  W  W5  1  0.66670118  0.33340235  0.65760557  1
  Se  Se6  1  0.33335307  0.66670714  0.70157135  1
  Se  Se7  1  0.66664763  0.33329427  0.04990792  1
  Se  Se8  1  0.66662908  0.33325715  0.13795280  1
  Se  Se9  1  0.33335780  0.66671660  0.61357562  1
  S  S10  1  0.33333575  0.66667250  0.32157607  1
  S  S11  1  0.33333661  0.66667422  0.24201281  1
