# generated using pymatgen
data_Mg30TiCuO32
_symmetry_space_group_name_H-M   'P 1'
_cell_length_a   8.53374199
_cell_length_b   8.53314324
_cell_length_c   8.53314324
_cell_angle_alpha   90.00000000
_cell_angle_beta   90.00000000
_cell_angle_gamma   90.00000000
_symmetry_Int_Tables_number   1
_chemical_formula_structural   Mg30TiCuO32
_chemical_formula_sum   'Mg30 Ti1 Cu1 O32'
_cell_volume   621.38044248
_cell_formula_units_Z   1
loop_
 _symmetry_equiv_pos_site_id
 _symmetry_equiv_pos_as_xyz
  1  'x, y, z'
loop_
 _atom_site_type_symbol
 _atom_site_label
 _atom_site_symmetry_multiplicity
 _atom_site_fract_x
 _atom_site_fract_y
 _atom_site_fract_z
 _atom_site_occupancy
  Mg  Mg0  1  -0.00000000  -0.00000000  0.50000000  1
  Mg  Mg1  1  -0.00000000  0.50000000  -0.00000000  1
  Mg  Mg2  1  0.50000000  -0.00000000  -0.00000000  1
  Mg  Mg3  1  0.50000000  -0.00000000  0.50000000  1
  Mg  Mg4  1  0.50000000  0.50000000  -0.00000000  1
  Mg  Mg5  1  0.50000000  0.50000000  0.50000000  1
  Mg  Mg6  1  -0.00000000  0.24402174  0.24402174  1
  Mg  Mg7  1  -0.00000000  0.24402174  0.75597826  1
  Mg  Mg8  1  -0.00000000  0.75597826  0.24402174  1
  Mg  Mg9  1  -0.00000000  0.75597826  0.75597826  1
  Mg  Mg10  1  0.50000000  0.24873910  0.24873910  1
  Mg  Mg11  1  0.50000000  0.24873910  0.75126090  1
  Mg  Mg12  1  0.50000000  0.75126090  0.24873910  1
  Mg  Mg13  1  0.50000000  0.75126090  0.75126090  1
  Mg  Mg14  1  0.24804737  -0.00000000  0.24713237  1
  Mg  Mg15  1  0.24804737  -0.00000000  0.75286763  1
  Mg  Mg16  1  0.25212064  0.50000000  0.24727660  1
  Mg  Mg17  1  0.25212064  0.50000000  0.75272340  1
  Mg  Mg18  1  0.75195263  -0.00000000  0.24713237  1
  Mg  Mg19  1  0.75195263  -0.00000000  0.75286763  1
  Mg  Mg20  1  0.74787936  0.50000000  0.24727660  1
  Mg  Mg21  1  0.74787936  0.50000000  0.75272340  1
  Mg  Mg22  1  0.24804737  0.24713237  -0.00000000  1
  Mg  Mg23  1  0.25212064  0.24727660  0.50000000  1
  Mg  Mg24  1  0.24804737  0.75286763  -0.00000000  1
  Mg  Mg25  1  0.25212064  0.75272340  0.50000000  1
  Mg  Mg26  1  0.75195263  0.24713237  -0.00000000  1
  Mg  Mg27  1  0.74787936  0.24727660  0.50000000  1
  Mg  Mg28  1  0.75195263  0.75286763  -0.00000000  1
  Mg  Mg29  1  0.74787936  0.75272340  0.50000000  1
  Ti  Ti30  1  -0.00000000  0.50000000  0.50000000  1
  Cu  Cu31  1  -0.00000000  -0.00000000  -0.00000000  1
  O  O32  1  0.26179256  -0.00000000  -0.00000000  1
  O  O33  1  0.25093048  -0.00000000  0.50000000  1
  O  O34  1  0.25093048  0.50000000  -0.00000000  1
  O  O35  1  0.24889150  0.50000000  0.50000000  1
  O  O36  1  0.73820744  -0.00000000  -0.00000000  1
  O  O37  1  0.74906952  -0.00000000  0.50000000  1
  O  O38  1  0.74906952  0.50000000  -0.00000000  1
  O  O39  1  0.75110850  0.50000000  0.50000000  1
  O  O40  1  0.24905430  0.25059765  0.25059765  1
  O  O41  1  0.24905430  0.25059765  0.74940235  1
  O  O42  1  0.24905430  0.74940235  0.25059765  1
  O  O43  1  0.24905430  0.74940235  0.74940235  1
  O  O44  1  0.75094570  0.25059765  0.25059765  1
  O  O45  1  0.75094570  0.25059765  0.74940235  1
  O  O46  1  0.75094570  0.74940235  0.25059765  1
  O  O47  1  0.75094570  0.74940235  0.74940235  1
  O  O48  1  -0.00000000  -0.00000000  0.26497681  1
  O  O49  1  -0.00000000  -0.00000000  0.73502319  1
  O  O50  1  -0.00000000  0.50000000  0.25728974  1
  O  O51  1  -0.00000000  0.50000000  0.74271026  1
  O  O52  1  0.50000000  -0.00000000  0.25218850  1
  O  O53  1  0.50000000  -0.00000000  0.74781150  1
  O  O54  1  0.50000000  0.50000000  0.25146053  1
  O  O55  1  0.50000000  0.50000000  0.74853947  1
  O  O56  1  -0.00000000  0.26497681  -0.00000000  1
  O  O57  1  -0.00000000  0.25728974  0.50000000  1
  O  O58  1  -0.00000000  0.73502319  -0.00000000  1
  O  O59  1  -0.00000000  0.74271026  0.50000000  1
  O  O60  1  0.50000000  0.25218850  -0.00000000  1
  O  O61  1  0.50000000  0.25146053  0.50000000  1
  O  O62  1  0.50000000  0.74781150  -0.00000000  1
  O  O63  1  0.50000000  0.74853947  0.50000000  1
