# generated using pymatgen
data_Te2Mo3W(Se2S)2
_symmetry_space_group_name_H-M   'P 1'
_cell_length_a   3.34407314
_cell_length_b   3.34412350
_cell_length_c   38.02701303
_cell_angle_alpha   89.99952514
_cell_angle_beta   90.00000000
_cell_angle_gamma   119.99950186
_symmetry_Int_Tables_number   1
_chemical_formula_structural   Te2Mo3W(Se2S)2
_chemical_formula_sum   'Te2 Mo3 W1 Se4 S2'
_cell_volume   368.28421097
_cell_formula_units_Z   1
loop_
 _symmetry_equiv_pos_site_id
 _symmetry_equiv_pos_as_xyz
  1  'x, y, z'
loop_
 _atom_site_type_symbol
 _atom_site_label
 _atom_site_symmetry_multiplicity
 _atom_site_fract_x
 _atom_site_fract_y
 _atom_site_fract_z
 _atom_site_occupancy
  Te  Te0  1  0.66664633  0.33329166  0.04401453  1
  Te  Te1  1  0.66664474  0.33328848  0.14382344  1
  Mo  Mo2  1  0.33330902  0.66661803  0.09389711  1
  Mo  Mo3  1  0.33331250  0.66662501  0.46965573  1
  Mo  Mo4  1  0.66670717  0.33341435  0.28179942  1
  W  W5  1  0.66669346  0.33338693  0.65754998  1
  Se  Se6  1  0.33335087  0.66670275  0.70158123  1
  Se  Se7  1  0.66664764  0.33329428  0.42581183  1
  Se  Se8  1  0.66664693  0.33329287  0.51351224  1
  Se  Se9  1  0.33335539  0.66671178  0.61349470  1
  S  S10  1  0.33334289  0.66668678  0.32168519  1
  S  S11  1  0.33334304  0.66668709  0.24192259  1
