# generated using pymatgen
data_MgZr3
_symmetry_space_group_name_H-M   'P 1'
_cell_length_a   7.09432537
_cell_length_b   7.09432537
_cell_length_c   7.09432537
_cell_angle_alpha   90.00000000
_cell_angle_beta   90.00000000
_cell_angle_gamma   90.00000000
_symmetry_Int_Tables_number   1
_chemical_formula_structural   MgZr3
_chemical_formula_sum   'Mg4 Zr12'
_cell_volume   357.05351141
_cell_formula_units_Z   4
loop_
 _symmetry_equiv_pos_site_id
 _symmetry_equiv_pos_as_xyz
  1  'x, y, z'
loop_
 _atom_site_type_symbol
 _atom_site_label
 _atom_site_symmetry_multiplicity
 _atom_site_fract_x
 _atom_site_fract_y
 _atom_site_fract_z
 _atom_site_occupancy
  Mg  Mg0  1  0.50000000  0.00000000  0.00000000  1
  Mg  Mg1  1  0.50000000  0.50000000  0.50000000  1
  Mg  Mg2  1  0.00000000  0.00000000  0.50000000  1
  Mg  Mg3  1  0.00000000  0.50000000  0.00000000  1
  Zr  Zr4  1  0.00000000  0.00000000  0.00000000  1
  Zr  Zr5  1  0.25000000  0.25000000  0.25000000  1
  Zr  Zr6  1  0.25000000  0.25000000  0.75000000  1
  Zr  Zr7  1  0.00000000  0.50000000  0.50000000  1
  Zr  Zr8  1  0.25000000  0.75000000  0.75000000  1
  Zr  Zr9  1  0.25000000  0.75000000  0.25000000  1
  Zr  Zr10  1  0.50000000  0.00000000  0.50000000  1
  Zr  Zr11  1  0.75000000  0.25000000  0.75000000  1
  Zr  Zr12  1  0.75000000  0.25000000  0.25000000  1
  Zr  Zr13  1  0.50000000  0.50000000  0.00000000  1
  Zr  Zr14  1  0.75000000  0.75000000  0.25000000  1
  Zr  Zr15  1  0.75000000  0.75000000  0.75000000  1
