# generated using pymatgen
data_Mg14VCuO16
_symmetry_space_group_name_H-M   'P 1'
_cell_length_a   8.55681822
_cell_length_b   8.61277030
_cell_length_c   4.23895100
_cell_angle_alpha   90.00000000
_cell_angle_beta   90.00000000
_cell_angle_gamma   90.00000000
_symmetry_Int_Tables_number   1
_chemical_formula_structural   Mg14VCuO16
_chemical_formula_sum   'Mg14 V1 Cu1 O16'
_cell_volume   312.40182856
_cell_formula_units_Z   1
loop_
 _symmetry_equiv_pos_site_id
 _symmetry_equiv_pos_as_xyz
  1  'x, y, z'
loop_
 _atom_site_type_symbol
 _atom_site_label
 _atom_site_symmetry_multiplicity
 _atom_site_fract_x
 _atom_site_fract_y
 _atom_site_fract_z
 _atom_site_occupancy
  Mg  Mg0  1  0.50000000  -0.00000000  -0.00000000  1
  Mg  Mg1  1  0.50000000  0.50000000  -0.00000000  1
  Mg  Mg2  1  0.00000000  0.24252924  0.50000000  1
  Mg  Mg3  1  0.00000000  0.75747076  0.50000000  1
  Mg  Mg4  1  0.50000000  0.24853790  0.50000000  1
  Mg  Mg5  1  0.50000000  0.75146210  0.50000000  1
  Mg  Mg6  1  0.24820932  -0.00000000  0.50000000  1
  Mg  Mg7  1  0.25286675  0.50000000  0.50000000  1
  Mg  Mg8  1  0.75179068  -0.00000000  0.50000000  1
  Mg  Mg9  1  0.74713325  0.50000000  0.50000000  1
  Mg  Mg10  1  0.24968035  0.24620738  -0.00000000  1
  Mg  Mg11  1  0.24968035  0.75379262  -0.00000000  1
  Mg  Mg12  1  0.75031965  0.24620738  0.00000000  1
  Mg  Mg13  1  0.75031965  0.75379262  -0.00000000  1
  V  V14  1  0.00000000  0.50000000  -0.00000000  1
  Cu  Cu15  1  0.00000000  -0.00000000  -0.00000000  1
  O  O16  1  0.25892755  -0.00000000  -0.00000000  1
  O  O17  1  0.25124879  0.50000000  -0.00000000  1
  O  O18  1  0.74107245  -0.00000000  0.00000000  1
  O  O19  1  0.74875121  0.50000000  0.00000000  1
  O  O20  1  0.24841450  0.25042874  0.50000000  1
  O  O21  1  0.24841450  0.74957126  0.50000000  1
  O  O22  1  0.75158550  0.25042874  0.50000000  1
  O  O23  1  0.75158550  0.74957126  0.50000000  1
  O  O24  1  0.00000000  -0.00000000  0.50000000  1
  O  O25  1  0.00000000  0.50000000  0.50000000  1
  O  O26  1  0.50000000  -0.00000000  0.50000000  1
  O  O27  1  0.50000000  0.50000000  0.50000000  1
  O  O28  1  0.00000000  0.26421231  -0.00000000  1
  O  O29  1  0.00000000  0.73578769  -0.00000000  1
  O  O30  1  0.50000000  0.25227519  -0.00000000  1
  O  O31  1  0.50000000  0.74772481  -0.00000000  1
