# generated using pymatgen
data_Te2Mo3W(Se2S)2
_symmetry_space_group_name_H-M   'P 1'
_cell_length_a   3.34426312
_cell_length_b   3.34426182
_cell_length_c   38.02238044
_cell_angle_alpha   90.00000918
_cell_angle_beta   90.00000000
_cell_angle_gamma   120.00001284
_symmetry_Int_Tables_number   1
_chemical_formula_structural   Te2Mo3W(Se2S)2
_chemical_formula_sum   'Te2 Mo3 W1 Se4 S2'
_cell_volume   368.27360149
_cell_formula_units_Z   1
loop_
 _symmetry_equiv_pos_site_id
 _symmetry_equiv_pos_as_xyz
  1  'x, y, z'
loop_
 _atom_site_type_symbol
 _atom_site_label
 _atom_site_symmetry_multiplicity
 _atom_site_fract_x
 _atom_site_fract_y
 _atom_site_fract_z
 _atom_site_occupancy
  Te  Te0  1  0.33335133  0.66670367  0.70745708  1
  Te  Te1  1  0.33335755  0.66671611  0.60761229  1
  Mo  Mo2  1  0.33331135  0.66662269  0.09389561  1
  Mo  Mo3  1  0.33330523  0.66661047  0.46964957  1
  Mo  Mo4  1  0.66668955  0.33337909  0.65755962  1
  W  W5  1  0.66668651  0.33337302  0.28180241  1
  Se  Se6  1  0.33335214  0.66670529  0.32586973  1
  Se  Se7  1  0.66664825  0.33329550  0.05007982  1
  Se  Se8  1  0.66664906  0.33329712  0.13774531  1
  Se  Se9  1  0.33334825  0.66669749  0.23775632  1
  S  S10  1  0.66664953  0.33329807  0.42978156  1
  S  S11  1  0.66665124  0.33330149  0.50953867  1
