# generated using pymatgen
data_Te2Mo3W(Se2S)2
_symmetry_space_group_name_H-M   'P 1'
_cell_length_a   3.34317638
_cell_length_b   3.34311782
_cell_length_c   38.02833033
_cell_angle_alpha   90.00006541
_cell_angle_beta   90.00000000
_cell_angle_gamma   120.00057940
_symmetry_Int_Tables_number   1
_chemical_formula_structural   Te2Mo3W(Se2S)2
_chemical_formula_sum   'Te2 Mo3 W1 Se4 S2'
_cell_volume   368.08348033
_cell_formula_units_Z   1
loop_
 _symmetry_equiv_pos_site_id
 _symmetry_equiv_pos_as_xyz
  1  'x, y, z'
loop_
 _atom_site_type_symbol
 _atom_site_label
 _atom_site_symmetry_multiplicity
 _atom_site_fract_x
 _atom_site_fract_y
 _atom_site_fract_z
 _atom_site_occupancy
  Te  Te0  1  0.33335895  0.66671891  0.33168619  1
  Te  Te1  1  0.33335941  0.66671982  0.23195148  1
  Mo  Mo2  1  0.33330885  0.66661771  0.09387601  1
  Mo  Mo3  1  0.33328614  0.66657227  0.46967442  1
  Mo  Mo4  1  0.66669425  0.33338850  0.28182448  1
  W  W5  1  0.66669533  0.33339065  0.65753843  1
  Se  Se6  1  0.33335146  0.66670392  0.70151701  1
  Se  Se7  1  0.66663700  0.33327300  0.05011857  1
  Se  Se8  1  0.66665111  0.33330121  0.13767601  1
  Se  Se9  1  0.33335242  0.66670585  0.61353903  1
  S  S10  1  0.66665378  0.33330657  0.42975787  1
  S  S11  1  0.66665130  0.33330160  0.50958851  1
