# generated using pymatgen
data_Al5(FeO4)3
_symmetry_space_group_name_H-M   'P 1'
_cell_length_a   5.76317702
_cell_length_b   5.76317607
_cell_length_c   17.11574358
_cell_angle_alpha   59.58876558
_cell_angle_beta   59.58876478
_cell_angle_gamma   60.20046339
_symmetry_Int_Tables_number   1
_chemical_formula_structural   Al5(FeO4)3
_chemical_formula_sum   'Al10 Fe6 O24'
_cell_volume   400.05735917
_cell_formula_units_Z   2
loop_
 _symmetry_equiv_pos_site_id
 _symmetry_equiv_pos_as_xyz
  1  'x, y, z'
loop_
 _atom_site_type_symbol
 _atom_site_label
 _atom_site_symmetry_multiplicity
 _atom_site_fract_x
 _atom_site_fract_y
 _atom_site_fract_z
 _atom_site_occupancy
  Al  Al0  1  0.11623844  0.11623845  0.04622413  1
  Al  Al1  1  0.12222345  0.12222345  0.37169815  1
  Al  Al2  1  0.12335902  0.12335902  0.71362559  1
  Al  Al3  1  0.49870387  0.49870387  0.00929911  1
  Al  Al4  1  0.50129613  0.50129613  0.32403389  1
  Al  Al5  1  0.49625147  0.49625147  0.50252979  1
  Al  Al6  1  0.50374853  0.50374853  0.83080321  1
  Al  Al7  1  0.88376156  0.88376155  0.28710887  1
  Al  Al8  1  0.87664098  0.87664098  0.61970741  1
  Al  Al9  1  0.87777655  0.87777655  0.96163585  1
  Fe  Fe10  1  0.00000000  0.50000000  0.16666700  1
  Fe  Fe11  1  0.98475950  0.49275533  0.50545317  1
  Fe  Fe12  1  0.01524050  0.50724467  0.82787983  1
  Fe  Fe13  1  0.50000000  0.00000000  0.16666700  1
  Fe  Fe14  1  0.49275533  0.98475950  0.50545317  1
  Fe  Fe15  1  0.50724467  0.01524050  0.82787983  1
  O  O16  1  0.25700033  0.25700033  0.08259637  1
  O  O17  1  0.26068624  0.26068624  0.41117200  1
  O  O18  1  0.24550854  0.24550854  0.75678332  1
  O  O19  1  0.24408935  0.24408935  0.24467390  1
  O  O20  1  0.25481403  0.25481403  0.58220120  1
  O  O21  1  0.26365577  0.26365577  0.91286240  1
  O  O22  1  0.24178464  0.74072972  0.07817248  1
  O  O23  1  0.26848801  0.72368986  0.41701318  1
  O  O24  1  0.25170226  0.74723796  0.76073072  1
  O  O25  1  0.74072972  0.24178464  0.07817248  1
  O  O26  1  0.72368986  0.26848801  0.41701318  1
  O  O27  1  0.74723796  0.25170226  0.76073072  1
  O  O28  1  0.25927028  0.75821536  0.25516152  1
  O  O29  1  0.25276204  0.74829774  0.57260228  1
  O  O30  1  0.27631014  0.73151199  0.91631982  1
  O  O31  1  0.75821536  0.25927028  0.25516152  1
  O  O32  1  0.74829774  0.25276204  0.57260228  1
  O  O33  1  0.73151199  0.27631014  0.91631982  1
  O  O34  1  0.75591065  0.75591065  0.08866010  1
  O  O35  1  0.73634423  0.73634423  0.42047060  1
  O  O36  1  0.74518597  0.74518597  0.75113180  1
  O  O37  1  0.74299967  0.74299967  0.25073663  1
  O  O38  1  0.75449146  0.75449146  0.57654968  1
  O  O39  1  0.73931376  0.73931376  0.92216200  1
