# generated using pymatgen
data_Mg30MnNbO32
_symmetry_space_group_name_H-M   'P 1'
_cell_length_a   8.56499862
_cell_length_b   8.56559389
_cell_length_c   8.56559389
_cell_angle_alpha   90.00000000
_cell_angle_beta   90.00000000
_cell_angle_gamma   90.00000000
_symmetry_Int_Tables_number   1
_chemical_formula_structural   Mg30MnNbO32
_chemical_formula_sum   'Mg30 Mn1 Nb1 O32'
_cell_volume   628.40879852
_cell_formula_units_Z   1
loop_
 _symmetry_equiv_pos_site_id
 _symmetry_equiv_pos_as_xyz
  1  'x, y, z'
loop_
 _atom_site_type_symbol
 _atom_site_label
 _atom_site_symmetry_multiplicity
 _atom_site_fract_x
 _atom_site_fract_y
 _atom_site_fract_z
 _atom_site_occupancy
  Mg  Mg0  1  0.00000000  0.00000000  0.50000000  1
  Mg  Mg1  1  0.00000000  0.50000000  0.00000000  1
  Mg  Mg2  1  0.50000000  0.00000000  0.00000000  1
  Mg  Mg3  1  0.50000000  0.00000000  0.50000000  1
  Mg  Mg4  1  0.50000000  0.50000000  0.00000000  1
  Mg  Mg5  1  0.50000000  0.50000000  0.50000000  1
  Mg  Mg6  1  0.00000000  0.24901175  0.24901175  1
  Mg  Mg7  1  0.00000000  0.24901175  0.75098825  1
  Mg  Mg8  1  0.00000000  0.75098825  0.24901175  1
  Mg  Mg9  1  0.00000000  0.75098825  0.75098825  1
  Mg  Mg10  1  0.50000000  0.24996742  0.24996742  1
  Mg  Mg11  1  0.50000000  0.24996742  0.75003258  1
  Mg  Mg12  1  0.50000000  0.75003258  0.24996742  1
  Mg  Mg13  1  0.50000000  0.75003258  0.75003258  1
  Mg  Mg14  1  0.25067333  0.00000000  0.25069301  1
  Mg  Mg15  1  0.25067333  0.00000000  0.74930699  1
  Mg  Mg16  1  0.25160801  0.50000000  0.24826283  1
  Mg  Mg17  1  0.25160801  0.50000000  0.75173717  1
  Mg  Mg18  1  0.74932667  0.00000000  0.25069301  1
  Mg  Mg19  1  0.74932667  0.00000000  0.74930699  1
  Mg  Mg20  1  0.74839199  0.50000000  0.24826283  1
  Mg  Mg21  1  0.74839199  0.50000000  0.75173717  1
  Mg  Mg22  1  0.25067333  0.25069301  0.00000000  1
  Mg  Mg23  1  0.25160801  0.24826283  0.50000000  1
  Mg  Mg24  1  0.25067333  0.74930699  0.00000000  1
  Mg  Mg25  1  0.25160801  0.75173717  0.50000000  1
  Mg  Mg26  1  0.74932667  0.25069301  0.00000000  1
  Mg  Mg27  1  0.74839199  0.24826283  0.50000000  1
  Mg  Mg28  1  0.74932667  0.74930699  0.00000000  1
  Mg  Mg29  1  0.74839199  0.75173717  0.50000000  1
  Mn  Mn30  1  0.00000000  0.00000000  0.00000000  1
  Nb  Nb31  1  0.00000000  0.50000000  0.50000000  1
  O  O32  1  0.25630979  0.00000000  0.00000000  1
  O  O33  1  0.25186266  0.00000000  0.50000000  1
  O  O34  1  0.25186266  0.50000000  0.00000000  1
  O  O35  1  0.26220862  0.50000000  0.50000000  1
  O  O36  1  0.74369021  0.00000000  0.00000000  1
  O  O37  1  0.74813734  0.00000000  0.50000000  1
  O  O38  1  0.74813734  0.50000000  0.00000000  1
  O  O39  1  0.73779138  0.50000000  0.50000000  1
  O  O40  1  0.24945315  0.25004055  0.25004055  1
  O  O41  1  0.24945315  0.25004055  0.74995945  1
  O  O42  1  0.24945315  0.74995945  0.25004055  1
  O  O43  1  0.24945315  0.74995945  0.74995945  1
  O  O44  1  0.75054685  0.25004055  0.25004055  1
  O  O45  1  0.75054685  0.25004055  0.74995945  1
  O  O46  1  0.75054685  0.74995945  0.25004055  1
  O  O47  1  0.75054685  0.74995945  0.74995945  1
  O  O48  1  0.00000000  0.00000000  0.25476733  1
  O  O49  1  0.00000000  0.00000000  0.74523267  1
  O  O50  1  0.00000000  0.50000000  0.23828091  1
  O  O51  1  0.00000000  0.50000000  0.76171909  1
  O  O52  1  0.50000000  0.00000000  0.25038115  1
  O  O53  1  0.50000000  0.00000000  0.74961885  1
  O  O54  1  0.50000000  0.50000000  0.24884163  1
  O  O55  1  0.50000000  0.50000000  0.75115837  1
  O  O56  1  0.00000000  0.25476733  0.00000000  1
  O  O57  1  0.00000000  0.23828091  0.50000000  1
  O  O58  1  0.00000000  0.74523267  0.00000000  1
  O  O59  1  0.00000000  0.76171909  0.50000000  1
  O  O60  1  0.50000000  0.25038115  0.00000000  1
  O  O61  1  0.50000000  0.24884163  0.50000000  1
  O  O62  1  0.50000000  0.74961885  0.00000000  1
  O  O63  1  0.50000000  0.75115837  0.50000000  1
