# generated using pymatgen
data_Mg5Ti
_symmetry_space_group_name_H-M   'P 1'
_cell_length_a   11.61253278
_cell_length_b   3.10347669
_cell_length_c   7.46269287
_cell_angle_alpha   90.00000000
_cell_angle_beta   104.68300397
_cell_angle_gamma   90.00000000
_symmetry_Int_Tables_number   1
_chemical_formula_structural   Mg5Ti
_chemical_formula_sum   'Mg10 Ti2'
_cell_volume   260.16657231
_cell_formula_units_Z   2
loop_
 _symmetry_equiv_pos_site_id
 _symmetry_equiv_pos_as_xyz
  1  'x, y, z'
loop_
 _atom_site_type_symbol
 _atom_site_label
 _atom_site_symmetry_multiplicity
 _atom_site_fract_x
 _atom_site_fract_y
 _atom_site_fract_z
 _atom_site_occupancy
  Mg  Mg0  1  0.99817661  0.00000000  0.00752656  1
  Mg  Mg1  1  0.16682804  0.50000000  0.33098878  1
  Mg  Mg2  1  0.05319263  0.00000000  0.60636091  1
  Mg  Mg3  1  0.33416483  0.00000000  0.65960726  1
  Mg  Mg4  1  0.22529730  0.50000000  0.95035944  1
  Mg  Mg5  1  0.49817661  0.50000000  0.00752656  1
  Mg  Mg6  1  0.66682804  -0.00000000  0.33098878  1
  Mg  Mg7  1  0.55319263  0.50000000  0.60636091  1
  Mg  Mg8  1  0.83416483  0.50000000  0.65960726  1
  Mg  Mg9  1  0.72529730  0.00000000  0.95035944  1
  Ti  Ti10  1  0.38900759  -0.00000000  0.27849004  1
  Ti  Ti11  1  0.88900759  0.50000000  0.27849004  1
