# generated using pymatgen
data_Ca2Mg
_symmetry_space_group_name_H-M   'P 1'
_cell_length_a   10.98884450
_cell_length_b   6.31161199
_cell_length_c   5.94541856
_cell_angle_alpha   90.00000000
_cell_angle_beta   90.00000000
_cell_angle_gamma   90.00000000
_symmetry_Int_Tables_number   1
_chemical_formula_structural   Ca2Mg
_chemical_formula_sum   'Ca8 Mg4'
_cell_volume   412.35831367
_cell_formula_units_Z   4
loop_
 _symmetry_equiv_pos_site_id
 _symmetry_equiv_pos_as_xyz
  1  'x, y, z'
loop_
 _atom_site_type_symbol
 _atom_site_label
 _atom_site_symmetry_multiplicity
 _atom_site_fract_x
 _atom_site_fract_y
 _atom_site_fract_z
 _atom_site_occupancy
  Ca  Ca0  1  0.15958254  0.31948395  0.75000000  1
  Ca  Ca1  1  0.34041746  0.81948395  0.75000000  1
  Ca  Ca2  1  0.15958254  0.68051605  0.25000000  1
  Ca  Ca3  1  0.34041746  0.18051605  0.25000000  1
  Ca  Ca4  1  0.65958254  0.81948395  0.75000000  1
  Ca  Ca5  1  0.84041746  0.31948395  0.75000000  1
  Ca  Ca6  1  0.65958254  0.18051605  0.25000000  1
  Ca  Ca7  1  0.84041746  0.68051605  0.25000000  1
  Mg  Mg8  1  -0.00000000  0.83446484  0.75000000  1
  Mg  Mg9  1  0.00000000  0.16553516  0.25000000  1
  Mg  Mg10  1  0.50000000  0.33446484  0.75000000  1
  Mg  Mg11  1  0.50000000  0.66553516  0.25000000  1
