# generated using pymatgen
data_Ce2Mg
_symmetry_space_group_name_H-M   'P 1'
_cell_length_a   12.71007801
_cell_length_b   3.20763676
_cell_length_c   8.06143510
_cell_angle_alpha   90.00000000
_cell_angle_beta   107.47914904
_cell_angle_gamma   90.00000000
_symmetry_Int_Tables_number   1
_chemical_formula_structural   Ce2Mg
_chemical_formula_sum   'Ce8 Mg4'
_cell_volume   313.48377072
_cell_formula_units_Z   4
loop_
 _symmetry_equiv_pos_site_id
 _symmetry_equiv_pos_as_xyz
  1  'x, y, z'
loop_
 _atom_site_type_symbol
 _atom_site_label
 _atom_site_symmetry_multiplicity
 _atom_site_fract_x
 _atom_site_fract_y
 _atom_site_fract_z
 _atom_site_occupancy
  Ce  Ce0  1  0.02020567  0.00000000  0.02157221  1
  Ce  Ce1  1  0.18236166  0.50000000  0.34818306  1
  Ce  Ce2  1  0.31541116  -0.00000000  0.67221159  1
  Ce  Ce3  1  0.21572789  0.50000000  0.92084663  1
  Ce  Ce4  1  0.52020567  0.50000000  0.02157221  1
  Ce  Ce5  1  0.68236166  -0.00000000  0.34818306  1
  Ce  Ce6  1  0.81541116  0.50000000  0.67221159  1
  Ce  Ce7  1  0.71572789  -0.00000000  0.92084663  1
  Mg  Mg8  1  0.39699879  -0.00000000  0.27822906  1
  Mg  Mg9  1  0.03596183  -0.00000000  0.59229045  1
  Mg  Mg10  1  0.89699879  0.50000000  0.27822906  1
  Mg  Mg11  1  0.53596183  0.50000000  0.59229045  1
