# generated using pymatgen
data_NaHfMg30O31
_symmetry_space_group_name_H-M   'P 1'
_cell_length_a   8.56201150
_cell_length_b   8.59528630
_cell_length_c   8.58446380
_cell_angle_alpha   90.00000000
_cell_angle_beta   90.00000000
_cell_angle_gamma   90.00000000
_symmetry_Int_Tables_number   1
_chemical_formula_structural   NaHfMg30O31
_chemical_formula_sum   'Na1 Hf1 Mg30 O31'
_cell_volume   631.75593062
_cell_formula_units_Z   1
loop_
 _symmetry_equiv_pos_site_id
 _symmetry_equiv_pos_as_xyz
  1  'x, y, z'
loop_
 _atom_site_type_symbol
 _atom_site_label
 _atom_site_symmetry_multiplicity
 _atom_site_fract_x
 _atom_site_fract_y
 _atom_site_fract_z
 _atom_site_occupancy
  Na  Na0  1  0.99987666  -0.00000000  0.00000000  1
  Hf  Hf1  1  0.01331082  -0.00000000  0.50000000  1
  Mg  Mg2  1  0.00009951  0.50000000  0.00000000  1
  Mg  Mg3  1  0.99847153  0.50000000  0.50000000  1
  Mg  Mg4  1  0.50029833  -0.00000000  0.00000000  1
  Mg  Mg5  1  0.50015108  -0.00000000  0.50000000  1
  Mg  Mg6  1  0.49995375  0.50000000  0.00000000  1
  Mg  Mg7  1  0.50027342  0.50000000  0.50000000  1
  Mg  Mg8  1  0.00004106  0.25549523  0.24346418  1
  Mg  Mg9  1  0.00004106  0.25549523  0.75653582  1
  Mg  Mg10  1  0.00004106  0.74450477  0.24346418  1
  Mg  Mg11  1  0.00004106  0.74450477  0.75653582  1
  Mg  Mg12  1  0.49977580  0.25074695  0.24866829  1
  Mg  Mg13  1  0.49977580  0.25074695  0.75133171  1
  Mg  Mg14  1  0.49977580  0.74925305  0.24866829  1
  Mg  Mg15  1  0.49977580  0.74925305  0.75133171  1
  Mg  Mg16  1  0.25570057  -0.00000000  0.24206315  1
  Mg  Mg17  1  0.25570057  -0.00000000  0.75793685  1
  Mg  Mg18  1  0.25065552  0.50000000  0.24785884  1
  Mg  Mg19  1  0.25065552  0.50000000  0.75214116  1
  Mg  Mg20  1  0.74585330  -0.00000000  0.24458078  1
  Mg  Mg21  1  0.74585330  -0.00000000  0.75541922  1
  Mg  Mg22  1  0.74934429  0.50000000  0.24876816  1
  Mg  Mg23  1  0.74934429  0.50000000  0.75123184  1
  Mg  Mg24  1  0.24944457  0.25003164  0.00000000  1
  Mg  Mg25  1  0.25221613  0.25484337  0.50000000  1
  Mg  Mg26  1  0.24944457  0.74996836  0.00000000  1
  Mg  Mg27  1  0.25221613  0.74515663  0.50000000  1
  Mg  Mg28  1  0.75055775  0.24925484  0.00000000  1
  Mg  Mg29  1  0.74704163  0.25284545  0.50000000  1
  Mg  Mg30  1  0.75055775  0.75074516  0.00000000  1
  Mg  Mg31  1  0.74704163  0.74715455  0.50000000  1
  O  O32  1  0.26303747  -0.00000000  0.00000000  1
  O  O33  1  0.25198617  0.50000000  0.00000000  1
  O  O34  1  0.24982416  0.50000000  0.50000000  1
  O  O35  1  0.73715873  -0.00000000  0.00000000  1
  O  O36  1  0.74928962  -0.00000000  0.50000000  1
  O  O37  1  0.74801680  0.50000000  0.00000000  1
  O  O38  1  0.74812050  0.50000000  0.50000000  1
  O  O39  1  0.24951624  0.25164678  0.24788986  1
  O  O40  1  0.24951624  0.25164678  0.75211014  1
  O  O41  1  0.24951624  0.74835322  0.24788986  1
  O  O42  1  0.24951624  0.74835322  0.75211014  1
  O  O43  1  0.75061437  0.24891352  0.25006055  1
  O  O44  1  0.75061437  0.24891352  0.74993945  1
  O  O45  1  0.75061437  0.75108648  0.25006055  1
  O  O46  1  0.75061437  0.75108648  0.74993945  1
  O  O47  1  0.00020535  -0.00000000  0.26198741  1
  O  O48  1  0.00020535  -0.00000000  0.73801259  1
  O  O49  1  0.99977555  0.50000000  0.25259738  1
  O  O50  1  0.99977555  0.50000000  0.74740262  1
  O  O51  1  0.50001769  -0.00000000  0.25304186  1
  O  O52  1  0.50001769  -0.00000000  0.74695814  1
  O  O53  1  0.50030162  0.50000000  0.25113738  1
  O  O54  1  0.50030162  0.50000000  0.74886262  1
  O  O55  1  0.99965022  0.26292002  0.00000000  1
  O  O56  1  0.99365244  0.25600144  0.50000000  1
  O  O57  1  0.99965022  0.73707998  0.00000000  1
  O  O58  1  0.99365244  0.74399856  0.50000000  1
  O  O59  1  0.50035861  0.25176023  0.00000000  1
  O  O60  1  0.50039555  0.25057069  0.50000000  1
  O  O61  1  0.50035861  0.74823977  0.00000000  1
  O  O62  1  0.50039555  0.74942931  0.50000000  1
