# generated using pymatgen
data_SrMg2
_symmetry_space_group_name_H-M   'P 1'
_cell_length_a   13.09987648
_cell_length_b   3.72623973
_cell_length_c   8.37636587
_cell_angle_alpha   90.00000000
_cell_angle_beta   109.11151024
_cell_angle_gamma   90.00000000
_symmetry_Int_Tables_number   1
_chemical_formula_structural   SrMg2
_chemical_formula_sum   'Sr4 Mg8'
_cell_volume   386.34183603
_cell_formula_units_Z   4
loop_
 _symmetry_equiv_pos_site_id
 _symmetry_equiv_pos_as_xyz
  1  'x, y, z'
loop_
 _atom_site_type_symbol
 _atom_site_label
 _atom_site_symmetry_multiplicity
 _atom_site_fract_x
 _atom_site_fract_y
 _atom_site_fract_z
 _atom_site_occupancy
  Sr  Sr0  1  0.48268948  0.00000000  0.23213625  1
  Sr  Sr1  1  0.01731052  0.50000000  0.76786375  1
  Sr  Sr2  1  0.98268948  0.50000000  0.23213625  1
  Sr  Sr3  1  0.51731052  -0.00000000  0.76786375  1
  Mg  Mg4  1  0.19570623  -0.00000000  0.13920963  1
  Mg  Mg5  1  0.32409786  0.50000000  0.44365215  1
  Mg  Mg6  1  0.17590214  0.00000000  0.55634785  1
  Mg  Mg7  1  0.30429377  0.50000000  0.86079037  1
  Mg  Mg8  1  0.69570623  0.50000000  0.13920963  1
  Mg  Mg9  1  0.82409786  -0.00000000  0.44365215  1
  Mg  Mg10  1  0.67590214  0.50000000  0.55634785  1
  Mg  Mg11  1  0.80429377  0.00000000  0.86079037  1
