# generated using pymatgen
data_VZnP2O7
_symmetry_space_group_name_H-M   'P 1'
_cell_length_a   5.79858781
_cell_length_b   6.58605590
_cell_length_c   7.31378603
_cell_angle_alpha   81.99937582
_cell_angle_beta   85.27287795
_cell_angle_gamma   70.47750809
_symmetry_Int_Tables_number   1
_chemical_formula_structural   VZnP2O7
_chemical_formula_sum   'V2 Zn2 P4 O14'
_cell_volume   260.49937177
_cell_formula_units_Z   2
loop_
 _symmetry_equiv_pos_site_id
 _symmetry_equiv_pos_as_xyz
  1  'x, y, z'
loop_
 _atom_site_type_symbol
 _atom_site_label
 _atom_site_symmetry_multiplicity
 _atom_site_fract_x
 _atom_site_fract_y
 _atom_site_fract_z
 _atom_site_occupancy
  V  V0  1  0.25163057  0.14986699  0.20136329  1
  V  V1  1  0.74837335  0.85010920  0.79863887  1
  Zn  Zn2  1  0.35264310  0.65479078  0.66143850  1
  Zn  Zn3  1  0.64732725  0.34522911  0.33855512  1
  P  P4  1  0.18281535  0.67426812  0.09662069  1
  P  P5  1  0.81718482  0.32574343  0.90336645  1
  P  P6  1  0.23263223  0.20776929  0.61639059  1
  P  P7  1  0.76737838  0.79222751  0.38362720  1
  O  O8  1  0.11513183  0.69946434  0.89256469  1
  O  O9  1  0.88486078  0.30053300  0.10744347  1
  O  O10  1  0.28073406  0.84418476  0.14296226  1
  O  O11  1  0.71929903  0.15579744  0.85701460  1
  O  O12  1  0.34699366  0.44118500  0.16081906  1
  O  O13  1  0.65300883  0.55879902  0.83918180  1
  O  O14  1  0.61296807  0.63973353  0.43486940  1
  O  O15  1  0.38703065  0.36026929  0.56513224  1
  O  O16  1  0.06147109  0.21810850  0.46387981  1
  O  O17  1  0.93851462  0.78190119  0.53611884  1
  O  O18  1  0.08007779  0.30025701  0.79763599  1
  O  O19  1  0.61075982  0.02804736  0.31735137  1
  O  O20  1  0.38923112  0.97195978  0.68265134  1
  O  O21  1  0.91993560  0.69975335  0.20237442  1
