# generated using pymatgen
data_MgSnP2O7
_symmetry_space_group_name_H-M   'P 1'
_cell_length_a   6.33343937
_cell_length_b   6.75687167
_cell_length_c   6.98948020
_cell_angle_alpha   86.90014599
_cell_angle_beta   85.42612771
_cell_angle_gamma   68.22380355
_symmetry_Int_Tables_number   1
_chemical_formula_structural   MgSnP2O7
_chemical_formula_sum   'Mg2 Sn2 P4 O14'
_cell_volume   276.78350927
_cell_formula_units_Z   2
loop_
 _symmetry_equiv_pos_site_id
 _symmetry_equiv_pos_as_xyz
  1  'x, y, z'
loop_
 _atom_site_type_symbol
 _atom_site_label
 _atom_site_symmetry_multiplicity
 _atom_site_fract_x
 _atom_site_fract_y
 _atom_site_fract_z
 _atom_site_occupancy
  Mg  Mg0  1  0.35534471  0.67777654  0.65999425  1
  Mg  Mg1  1  0.64465501  0.32222561  0.34000297  1
  Sn  Sn2  1  0.25713843  0.12723351  0.14406632  1
  Sn  Sn3  1  0.74286989  0.87275818  0.85593770  1
  P  P4  1  0.19195211  0.66236155  0.13650508  1
  P  P5  1  0.80804716  0.33763823  0.86349486  1
  P  P6  1  0.22495830  0.23013228  0.60154834  1
  P  P7  1  0.77504096  0.76986812  0.39845192  1
  O  O8  1  0.15046786  0.72281734  0.92187768  1
  O  O9  1  0.84953221  0.27718336  0.07812222  1
  O  O10  1  0.22595607  0.83052256  0.25343207  1
  O  O11  1  0.77404303  0.16947658  0.74656899  1
  O  O12  1  0.37423925  0.44294753  0.16825346  1
  O  O13  1  0.62576020  0.55705318  0.83174701  1
  O  O14  1  0.63001114  0.62956452  0.43347771  1
  O  O15  1  0.36998839  0.37043652  0.56652210  1
  O  O16  1  0.08381393  0.23438526  0.42920579  1
  O  O17  1  0.91618737  0.76561447  0.57079285  1
  O  O18  1  0.04803483  0.35241617  0.77671520  1
  O  O19  1  0.64747662  0.00079716  0.32820045  1
  O  O20  1  0.35252119  0.99920360  0.67179964  1
  O  O21  1  0.95196433  0.64758473  0.22328438  1
