# generated using pymatgen
data_H4PbI3N
_symmetry_space_group_name_H-M   'P 1'
_cell_length_a   6.36680010
_cell_length_b   6.36649279
_cell_length_c   6.37402789
_cell_angle_alpha   90.72042294
_cell_angle_beta   90.66753136
_cell_angle_gamma   90.53109637
_symmetry_Int_Tables_number   1
_chemical_formula_structural   H4PbI3N
_chemical_formula_sum   'H4 Pb1 I3 N1'
_cell_volume   258.31662652
_cell_formula_units_Z   1
loop_
 _symmetry_equiv_pos_site_id
 _symmetry_equiv_pos_as_xyz
  1  'x, y, z'
loop_
 _atom_site_type_symbol
 _atom_site_label
 _atom_site_symmetry_multiplicity
 _atom_site_fract_x
 _atom_site_fract_y
 _atom_site_fract_z
 _atom_site_occupancy
  H  H0  1  0.89759562  0.89489226  0.05788104  1
  H  H1  1  0.96745397  0.15059991  0.04812858  1
  H  H2  1  0.99670218  0.99391599  0.83544025  1
  H  H3  1  0.15345302  0.96408520  0.04777530  1
  Pb  Pb4  1  0.49695802  0.49625776  0.50651702  1
  I  I5  1  0.49109553  0.49050059  0.00618067  1
  I  I6  1  0.50860068  0.99663396  0.50265269  1
  I  I7  1  0.99734026  0.50821702  0.50320584  1
  N  N8  1  0.00380171  0.00089731  0.99721861  1
