# generated using pymatgen
data_LiHfMg30O31
_symmetry_space_group_name_H-M   'P 1'
_cell_length_a   8.56013223
_cell_length_b   8.56421987
_cell_length_c   8.54966825
_cell_angle_alpha   90.00000000
_cell_angle_beta   90.00000000
_cell_angle_gamma   90.00000000
_symmetry_Int_Tables_number   1
_chemical_formula_structural   LiHfMg30O31
_chemical_formula_sum   'Li1 Hf1 Mg30 O31'
_cell_volume   626.78348539
_cell_formula_units_Z   1
loop_
 _symmetry_equiv_pos_site_id
 _symmetry_equiv_pos_as_xyz
  1  'x, y, z'
loop_
 _atom_site_type_symbol
 _atom_site_label
 _atom_site_symmetry_multiplicity
 _atom_site_fract_x
 _atom_site_fract_y
 _atom_site_fract_z
 _atom_site_occupancy
  Li  Li0  1  0.99194495  -0.00000000  0.00000000  1
  Hf  Hf1  1  0.00017464  -0.00000000  0.50000000  1
  Mg  Mg2  1  0.99967277  0.50000000  0.00000000  1
  Mg  Mg3  1  0.99994300  0.50000000  0.50000000  1
  Mg  Mg4  1  0.50019638  -0.00000000  0.00000000  1
  Mg  Mg5  1  0.50028264  -0.00000000  0.50000000  1
  Mg  Mg6  1  0.50069042  0.50000000  0.00000000  1
  Mg  Mg7  1  0.50032998  0.50000000  0.50000000  1
  Mg  Mg8  1  0.00027277  0.25326342  0.24176401  1
  Mg  Mg9  1  0.00027277  0.25326342  0.75823599  1
  Mg  Mg10  1  0.00027277  0.74673658  0.24176401  1
  Mg  Mg11  1  0.00027277  0.74673658  0.75823599  1
  Mg  Mg12  1  0.50011754  0.25046930  0.24849772  1
  Mg  Mg13  1  0.50011754  0.25046930  0.75150228  1
  Mg  Mg14  1  0.50011754  0.74953070  0.24849772  1
  Mg  Mg15  1  0.50011754  0.74953070  0.75150228  1
  Mg  Mg16  1  0.25392889  -0.00000000  0.24184251  1
  Mg  Mg17  1  0.25392889  -0.00000000  0.75815749  1
  Mg  Mg18  1  0.25066245  0.50000000  0.24919811  1
  Mg  Mg19  1  0.25066245  0.50000000  0.75080189  1
  Mg  Mg20  1  0.74682374  -0.00000000  0.24226255  1
  Mg  Mg21  1  0.74682374  -0.00000000  0.75773745  1
  Mg  Mg22  1  0.74956667  0.50000000  0.24864558  1
  Mg  Mg23  1  0.74956667  0.50000000  0.75135442  1
  Mg  Mg24  1  0.24854566  0.25079777  0.00000000  1
  Mg  Mg25  1  0.25357521  0.25349080  0.50000000  1
  Mg  Mg26  1  0.24854566  0.74920223  0.00000000  1
  Mg  Mg27  1  0.25357521  0.74650920  0.50000000  1
  Mg  Mg28  1  0.75195400  0.24835434  0.00000000  1
  Mg  Mg29  1  0.74682909  0.25346120  0.50000000  1
  Mg  Mg30  1  0.75195400  0.75164566  0.00000000  1
  Mg  Mg31  1  0.74682909  0.74653880  0.50000000  1
  O  O32  1  0.25473068  -0.00000000  0.50000000  1
  O  O33  1  0.25110232  0.50000000  0.00000000  1
  O  O34  1  0.25064840  0.50000000  0.50000000  1
  O  O35  1  0.74405860  -0.00000000  0.00000000  1
  O  O36  1  0.74575029  -0.00000000  0.50000000  1
  O  O37  1  0.74947924  0.50000000  0.00000000  1
  O  O38  1  0.74959977  0.50000000  0.50000000  1
  O  O39  1  0.24941241  0.25008231  0.25122502  1
  O  O40  1  0.24941241  0.25008231  0.74877498  1
  O  O41  1  0.24941241  0.74991769  0.25122502  1
  O  O42  1  0.24941241  0.74991769  0.74877498  1
  O  O43  1  0.75100492  0.24919545  0.25057365  1
  O  O44  1  0.75100492  0.24919545  0.74942635  1
  O  O45  1  0.75100492  0.75080455  0.25057365  1
  O  O46  1  0.75100492  0.75080455  0.74942635  1
  O  O47  1  0.99961058  -0.00000000  0.25707585  1
  O  O48  1  0.99961058  -0.00000000  0.74292415  1
  O  O49  1  0.00017414  0.50000000  0.25116903  1
  O  O50  1  0.00017414  0.50000000  0.74883097  1
  O  O51  1  0.50100015  -0.00000000  0.25204311  1
  O  O52  1  0.50100015  -0.00000000  0.74795689  1
  O  O53  1  0.50014512  0.50000000  0.25052148  1
  O  O54  1  0.50014512  0.50000000  0.74947852  1
  O  O55  1  0.99984069  0.25647907  0.00000000  1
  O  O56  1  1.00016394  0.25443130  0.50000000  1
  O  O57  1  0.99984069  0.74352093  0.00000000  1
  O  O58  1  1.00016394  0.74556870  0.50000000  1
  O  O59  1  0.50111131  0.25195992  0.00000000  1
  O  O60  1  0.50015107  0.25060023  0.50000000  1
  O  O61  1  0.50111131  0.74804008  0.00000000  1
  O  O62  1  0.50015107  0.74939977  0.50000000  1
