# generated using pymatgen
data_Ca(FeO2)2
_symmetry_space_group_name_H-M   'P 1'
_cell_length_a   6.26114918
_cell_length_b   6.26928339
_cell_length_c   19.00816938
_cell_angle_alpha   59.84415807
_cell_angle_beta   60.29602975
_cell_angle_gamma   60.19164004
_symmetry_Int_Tables_number   1
_chemical_formula_structural   Ca(FeO2)2
_chemical_formula_sum   'Ca6 Fe12 O24'
_cell_volume   528.89506601
_cell_formula_units_Z   6
loop_
 _symmetry_equiv_pos_site_id
 _symmetry_equiv_pos_as_xyz
  1  'x, y, z'
loop_
 _atom_site_type_symbol
 _atom_site_label
 _atom_site_symmetry_multiplicity
 _atom_site_fract_x
 _atom_site_fract_y
 _atom_site_fract_z
 _atom_site_occupancy
  Ca  Ca0  1  0.12124772  0.11991380  0.04513279  1
  Ca  Ca1  1  0.11650263  0.12612339  0.38006252  1
  Ca  Ca2  1  0.49461150  0.49407443  0.33759259  1
  Ca  Ca3  1  0.11379289  0.11850528  0.71824958  1
  Ca  Ca4  1  0.50447803  0.50317637  0.99590978  1
  Ca  Ca5  1  0.88058055  0.87773495  0.62121324  1
  Fe  Fe6  1  0.49701030  0.49487945  0.16481768  1
  Fe  Fe7  1  0.49493548  0.01140224  0.16557030  1
  Fe  Fe8  1  0.49997078  0.50298348  0.50037430  1
  Fe  Fe9  1  0.01221369  0.49405859  0.16503148  1
  Fe  Fe10  1  0.47793570  0.01222775  0.51101254  1
  Fe  Fe11  1  0.50545439  0.50259630  0.66213169  1
  Fe  Fe12  1  0.88461242  0.87774152  0.28312794  1
  Fe  Fe13  1  0.49951621  0.50142103  0.82869941  1
  Fe  Fe14  1  0.00056206  0.49806365  0.50279827  1
  Fe  Fe15  1  0.49949932  0.01608160  0.82872327  1
  Fe  Fe16  1  0.01462780  0.50093365  0.82904763  1
  Fe  Fe17  1  0.88178156  0.88070721  0.95229042  1
  O  O18  1  0.25274380  0.25247065  0.09785471  1
  O  O19  1  0.26469748  0.26019544  0.23596898  1
  O  O20  1  0.25574891  0.69695161  0.09699140  1
  O  O21  1  0.69929615  0.25362556  0.09765071  1
  O  O22  1  0.24040666  0.23784368  0.44209205  1
  O  O23  1  0.26979943  0.75328376  0.23842062  1
  O  O24  1  0.25278664  0.26402404  0.57683421  1
  O  O25  1  0.75570194  0.26474769  0.24024480  1
  O  O26  1  0.74998364  0.74845355  0.08358605  1
  O  O27  1  0.24200689  0.70196935  0.43810474  1
  O  O28  1  0.69483887  0.24026766  0.44061846  1
  O  O29  1  0.75905103  0.75396385  0.23790698  1
  O  O30  1  0.27087576  0.27530690  0.75434697  1
  O  O31  1  0.30787687  0.72913708  0.57818993  1
  O  O32  1  0.72769723  0.30747456  0.57895883  1
  O  O33  1  0.26977260  0.26628432  0.89874986  1
  O  O34  1  0.76541521  0.73030706  0.41060170  1
  O  O35  1  0.27380765  0.69536323  0.75327668  1
  O  O36  1  0.69206144  0.27653279  0.75379396  1
  O  O37  1  0.72960782  0.73052746  0.57805206  1
  O  O38  1  0.26029262  0.76763449  0.90196794  1
  O  O39  1  0.76783886  0.26040702  0.90205346  1
  O  O40  1  0.72961243  0.73286639  0.77028387  1
  O  O41  1  0.76874500  0.76773417  0.90166360  1
