# generated using pymatgen
data_CaMn2O4
_symmetry_space_group_name_H-M   'P 1'
_cell_length_a   6.56564846
_cell_length_b   6.56363746
_cell_length_c   18.22329212
_cell_angle_alpha   61.72193009
_cell_angle_beta   61.72087111
_cell_angle_gamma   54.37769418
_symmetry_Int_Tables_number   1
_chemical_formula_structural   CaMn2O4
_chemical_formula_sum   'Ca6 Mn12 O24'
_cell_volume   540.29120957
_cell_formula_units_Z   6
loop_
 _symmetry_equiv_pos_site_id
 _symmetry_equiv_pos_as_xyz
  1  'x, y, z'
loop_
 _atom_site_type_symbol
 _atom_site_label
 _atom_site_symmetry_multiplicity
 _atom_site_fract_x
 _atom_site_fract_y
 _atom_site_fract_z
 _atom_site_occupancy
  Ca  Ca0  1  0.12472428  0.12511489  0.04637121  1
  Ca  Ca1  1  0.12306969  0.12298495  0.37930862  1
  Ca  Ca2  1  0.49812870  0.49822153  0.99955062  1
  Ca  Ca3  1  0.11934129  0.11959929  0.71657851  1
  Ca  Ca4  1  0.88205392  0.88163533  0.28501284  1
  Ca  Ca5  1  0.87237193  0.87234895  0.62426197  1
  Mn  Mn6  1  0.00396895  0.50802235  0.16675555  1
  Mn  Mn7  1  0.49365863  0.49388456  0.17542715  1
  Mn  Mn8  1  0.99906716  0.49863335  0.50018945  1
  Mn  Mn9  1  0.50793589  0.00390958  0.16684510  1
  Mn  Mn10  1  0.50227349  0.50218719  0.33557622  1
  Mn  Mn11  1  0.49742579  0.49739894  0.50051216  1
  Mn  Mn12  1  0.00327420  0.50009987  0.83158569  1
  Mn  Mn13  1  0.49874159  0.99908406  0.50015323  1
  Mn  Mn14  1  0.50006767  0.00322316  0.83159960  1
  Mn  Mn15  1  0.49910963  0.49920966  0.66303998  1
  Mn  Mn16  1  0.49830940  0.49837261  0.82705199  1
  Mn  Mn17  1  0.87896961  0.87901172  0.95120408  1
  O  O18  1  0.26235285  0.26167737  0.09598176  1
  O  O19  1  0.25729696  0.25760460  0.23805450  1
  O  O20  1  0.24351011  0.70530035  0.10936413  1
  O  O21  1  0.70454713  0.24147526  0.10977589  1
  O  O22  1  0.30992437  0.73568752  0.24688762  1
  O  O23  1  0.26769526  0.26788432  0.42320630  1
  O  O24  1  0.73373782  0.30912256  0.24741043  1
  O  O25  1  0.75906234  0.75892953  0.08987363  1
  O  O26  1  0.27151404  0.69766784  0.42336182  1
  O  O27  1  0.25487810  0.25483549  0.56954651  1
  O  O28  1  0.73226182  0.73291356  0.24383631  1
  O  O29  1  0.69782355  0.27125277  0.42340840  1
  O  O30  1  0.29881117  0.72747113  0.57556818  1
  O  O31  1  0.27142490  0.27151836  0.75404350  1
  O  O32  1  0.72739200  0.29885646  0.57558908  1
  O  O33  1  0.74398702  0.74385807  0.43038422  1
  O  O34  1  0.25610219  0.25611633  0.90031677  1
  O  O35  1  0.27262467  0.69656400  0.74901447  1
  O  O36  1  0.73253982  0.73249493  0.57585578  1
  O  O37  1  0.69649434  0.27259707  0.74900609  1
  O  O38  1  0.27174546  0.74922605  0.89662839  1
  O  O39  1  0.73925386  0.73921176  0.76698920  1
  O  O40  1  0.74920297  0.27170548  0.89658693  1
  O  O41  1  0.74332443  0.74308421  0.90828912  1
