# generated using pymatgen
data_BaYCu2O5
_symmetry_space_group_name_H-M   'P 1'
_cell_length_a   3.88445395
_cell_length_b   3.88468713
_cell_length_c   7.59713120
_cell_angle_alpha   90.00412083
_cell_angle_beta   90.00385958
_cell_angle_gamma   89.98223819
_symmetry_Int_Tables_number   1
_chemical_formula_structural   BaYCu2O5
_chemical_formula_sum   'Ba1 Y1 Cu2 O5'
_cell_volume   114.63985482
_cell_formula_units_Z   1
loop_
 _symmetry_equiv_pos_site_id
 _symmetry_equiv_pos_as_xyz
  1  'x, y, z'
loop_
 _atom_site_type_symbol
 _atom_site_label
 _atom_site_symmetry_multiplicity
 _atom_site_fract_x
 _atom_site_fract_y
 _atom_site_fract_z
 _atom_site_occupancy
  Ba  Ba0  1  -0.00000105  0.99999987  0.96712958  1
  Y  Y1  1  -0.00000130  0.99999998  0.46535153  1
  Cu  Cu2  1  0.49999951  0.49999824  0.69876648  1
  Cu  Cu3  1  0.50001199  0.50000999  0.23204465  1
  O  O4  1  0.99996324  0.49998897  0.65206695  1
  O  O5  1  0.49998707  0.99996953  0.65207285  1
  O  O6  1  0.00002283  0.50000806  0.27760579  1
  O  O7  1  0.50000887  0.00001707  0.27760093  1
  O  O8  1  0.50000385  0.50000229  0.96527926  1
