# generated using pymatgen
data_Co4(CuO4)3
_symmetry_space_group_name_H-M   'P 1'
_cell_length_a   6.21826083
_cell_length_b   6.21826173
_cell_length_c   6.21826165
_cell_angle_alpha   109.47122035
_cell_angle_beta   109.47122327
_cell_angle_gamma   109.47121882
_symmetry_Int_Tables_number   1
_chemical_formula_structural   Co4(CuO4)3
_chemical_formula_sum   'Co4 Cu3 O12'
_cell_volume   185.09088473
_cell_formula_units_Z   1
loop_
 _symmetry_equiv_pos_site_id
 _symmetry_equiv_pos_as_xyz
  1  'x, y, z'
loop_
 _atom_site_type_symbol
 _atom_site_label
 _atom_site_symmetry_multiplicity
 _atom_site_fract_x
 _atom_site_fract_y
 _atom_site_fract_z
 _atom_site_occupancy
  Co  Co0  1  -0.00000000  0.00000000  0.50000000  1
  Co  Co1  1  -0.00000000  0.50000000  -0.00000000  1
  Co  Co2  1  0.50000000  0.50000000  0.50000000  1
  Co  Co3  1  0.50000000  0.00000000  -0.00000000  1
  Cu  Cu4  1  0.50000000  0.50000000  -0.00000000  1
  Cu  Cu5  1  -0.00000000  0.50000000  0.50000000  1
  Cu  Cu6  1  0.50000000  0.00000000  0.50000000  1
  O  O7  1  0.81842803  0.31404187  0.13246990  1
  O  O8  1  0.18157197  0.68595813  0.86753010  1
  O  O9  1  0.81842803  0.68595813  0.50438716  1
  O  O10  1  0.31404187  0.49561284  0.18157197  1
  O  O11  1  0.49561284  0.18157197  0.31404187  1
  O  O12  1  0.13246990  0.81842803  0.31404187  1
  O  O13  1  0.68595813  0.86753010  0.18157197  1
  O  O14  1  0.50438716  0.81842803  0.68595813  1
  O  O15  1  0.18157197  0.31404187  0.49561284  1
  O  O16  1  0.68595813  0.50438716  0.81842803  1
  O  O17  1  0.86753010  0.18157197  0.68595813  1
  O  O18  1  0.31404187  0.13246990  0.81842803  1
