# generated using pymatgen
data_MgCo4(CuO4)3
_symmetry_space_group_name_H-M   'P 1'
_cell_length_a   6.23889449
_cell_length_b   6.23701976
_cell_length_c   6.23821275
_cell_angle_alpha   109.44363298
_cell_angle_beta   109.47707120
_cell_angle_gamma   109.48281630
_symmetry_Int_Tables_number   1
_chemical_formula_structural   MgCo4(CuO4)3
_chemical_formula_sum   'Mg1 Co4 Cu3 O12'
_cell_volume   186.88625102
_cell_formula_units_Z   1
loop_
 _symmetry_equiv_pos_site_id
 _symmetry_equiv_pos_as_xyz
  1  'x, y, z'
loop_
 _atom_site_type_symbol
 _atom_site_label
 _atom_site_symmetry_multiplicity
 _atom_site_fract_x
 _atom_site_fract_y
 _atom_site_fract_z
 _atom_site_occupancy
  Mg  Mg0  1  0.99999617  0.99998009  0.00000067  1
  Co  Co1  1  -0.00000269  0.00000011  0.50000016  1
  Co  Co2  1  0.99999880  0.49999712  -0.00000227  1
  Co  Co3  1  0.50000076  0.50000035  0.49999827  1
  Co  Co4  1  0.50000126  0.00000075  0.00000068  1
  Cu  Cu5  1  0.49999907  0.50000179  0.99999827  1
  Cu  Cu6  1  0.00000205  0.49999988  0.50000165  1
  Cu  Cu7  1  0.49999801  -0.00000075  0.49999716  1
  O  O8  1  0.82819354  0.30576165  0.13372739  1
  O  O9  1  0.17180971  0.69423830  0.86627552  1
  O  O10  1  0.82841385  0.69477751  0.52303798  1
  O  O11  1  0.30556356  0.47762225  0.17184509  1
  O  O12  1  0.47738061  0.17196626  0.30561849  1
  O  O13  1  0.13371863  0.82784288  0.30559399  1
  O  O14  1  0.69465856  0.86634568  0.17148234  1
  O  O15  1  0.52261756  0.82803531  0.69437812  1
  O  O16  1  0.17159121  0.30522601  0.47697016  1
  O  O17  1  0.69444291  0.52238880  0.82815919  1
  O  O18  1  0.86627693  0.17216013  0.69439665  1
  O  O19  1  0.30534050  0.13365587  0.82851848  1
