# generated using pymatgen
data_MgMnNiP2O9
_symmetry_space_group_name_H-M   'P 1'
_cell_length_a   6.21643949
_cell_length_b   7.22547784
_cell_length_c   14.21638923
_cell_angle_alpha   89.93940082
_cell_angle_beta   90.01597155
_cell_angle_gamma   89.98109207
_symmetry_Int_Tables_number   1
_chemical_formula_structural   MgMnNiP2O9
_chemical_formula_sum   'Mg4 Mn4 Ni4 P8 O36'
_cell_volume   638.55352422
_cell_formula_units_Z   4
loop_
 _symmetry_equiv_pos_site_id
 _symmetry_equiv_pos_as_xyz
  1  'x, y, z'
loop_
 _atom_site_type_symbol
 _atom_site_label
 _atom_site_symmetry_multiplicity
 _atom_site_fract_x
 _atom_site_fract_y
 _atom_site_fract_z
 _atom_site_occupancy
  Mg  Mg0  1  0.75085681  0.88099314  0.77899798  1
  Mg  Mg1  1  0.74973770  0.61785358  0.27858314  1
  Mg  Mg2  1  0.25062471  0.12080513  0.22193308  1
  Mg  Mg3  1  0.24982916  0.38202892  0.72109377  1
  Mn  Mn4  1  0.74931088  0.35141064  0.87992960  1
  Mn  Mn5  1  0.24958822  0.64864314  0.12001336  1
  Mn  Mn6  1  0.25022329  0.85115093  0.62027038  1
  Mn  Mn7  1  0.74967300  0.14885885  0.37990177  1
  Ni  Ni8  1  0.50084549  0.00098622  0.00033158  1
  Ni  Ni9  1  0.49980767  0.50068532  0.49977736  1
  Ni  Ni10  1  0.00010327  0.50068921  0.49979561  1
  Ni  Ni11  1  0.00059045  -0.00004655  0.00028494  1
  P  P12  1  0.24928830  0.36002796  0.93360506  1
  P  P13  1  0.74959326  0.63992952  0.06663278  1
  P  P14  1  0.74999428  0.86039075  0.56668061  1
  P  P15  1  0.25002326  0.13977157  0.43361450  1
  P  P16  1  0.74967918  0.39227103  0.69754626  1
  P  P17  1  0.24973389  0.60815558  0.30212395  1
  P  P18  1  0.25078352  0.89199671  0.80253142  1
  P  P19  1  0.75042997  0.10743240  0.19734743  1
  O  O20  1  0.03774207  0.60935054  0.35856274  1
  O  O21  1  0.53787838  0.39093850  0.64120869  1
  O  O22  1  0.96267648  0.10897812  0.14133675  1
  O  O23  1  0.46292324  0.89099618  0.85873332  1
  O  O24  1  0.96160716  0.39058112  0.64140560  1
  O  O25  1  0.46175218  0.60953273  0.35859963  1
  O  O26  1  0.03906255  0.88966357  0.85902545  1
  O  O27  1  0.53856478  0.10986364  0.14098804  1
  O  O28  1  0.24983383  0.32957320  0.48047693  1
  O  O29  1  0.75012373  0.67059939  0.51949098  1
  O  O30  1  0.75032058  0.82978843  0.01929025  1
  O  O31  1  0.25005455  0.17004259  0.98045739  1
  O  O32  1  0.75111629  0.14218374  0.94579409  1
  O  O33  1  0.25122630  0.85611904  0.05291606  1
  O  O34  1  0.24996860  0.64203592  0.55445611  1
  O  O35  1  0.75008676  0.35742703  0.44612856  1
  O  O36  1  0.74926048  0.21335809  0.76366074  1
  O  O37  1  0.24952979  0.78709282  0.23630066  1
  O  O38  1  0.25080346  0.71309507  0.73664696  1
  O  O39  1  0.75027459  0.28640517  0.26331064  1
  O  O40  1  0.43915821  0.12478991  0.36121468  1
  O  O41  1  0.93971880  0.87610917  0.63844737  1
  O  O42  1  0.56056600  0.62451163  0.13856438  1
  O  O43  1  0.06006101  0.37602124  0.86151393  1
  O  O44  1  0.56097749  0.87548525  0.63871955  1
  O  O45  1  0.06042300  0.12361186  0.36165489  1
  O  O46  1  0.43882877  0.37588573  0.86157329  1
  O  O47  1  0.93911809  0.62427816  0.13843943  1
  O  O48  1  0.74964186  0.94654947  0.27205189  1
  O  O49  1  0.24976274  0.05256737  0.72768718  1
  O  O50  1  0.24990209  0.44725193  0.22775787  1
  O  O51  1  0.74949595  0.55299023  0.77228266  1
  O  O52  1  0.74905516  0.01191402  0.49376882  1
  O  O53  1  0.25132013  0.98788103  0.50608059  1
  O  O54  1  0.24824263  0.51060208  0.00661725  1
  O  O55  1  0.74820293  0.48789397  0.99384206  1
