# generated using pymatgen
data_MgVBiO5
_symmetry_space_group_name_H-M   'P 1'
_cell_length_a   5.27936572
_cell_length_b   10.71072594
_cell_length_c   15.60387015
_cell_angle_alpha   90.00000000
_cell_angle_beta   90.00000000
_cell_angle_gamma   90.00000000
_symmetry_Int_Tables_number   1
_chemical_formula_structural   MgVBiO5
_chemical_formula_sum   'Mg8 V8 Bi8 O40'
_cell_volume   882.33393496
_cell_formula_units_Z   8
loop_
 _symmetry_equiv_pos_site_id
 _symmetry_equiv_pos_as_xyz
  1  'x, y, z'
loop_
 _atom_site_type_symbol
 _atom_site_label
 _atom_site_symmetry_multiplicity
 _atom_site_fract_x
 _atom_site_fract_y
 _atom_site_fract_z
 _atom_site_occupancy
  Mg  Mg0  1  0.49382370  0.36268925  0.45359536  1
  Mg  Mg1  1  0.99382370  0.13731075  0.45359536  1
  Mg  Mg2  1  0.99382370  0.63731075  0.04640464  1
  Mg  Mg3  1  0.00617630  0.36268925  0.95359536  1
  Mg  Mg4  1  0.50617630  0.13731075  0.95359536  1
  Mg  Mg5  1  0.00617630  0.86268925  0.54640464  1
  Mg  Mg6  1  0.50617630  0.63731075  0.54640464  1
  Mg  Mg7  1  0.49382370  0.86268925  0.04640464  1
  V  V8  1  0.98534991  0.39885571  0.59189428  1
  V  V9  1  0.51465009  0.89885571  0.40810572  1
  V  V10  1  0.01465009  0.60114429  0.40810572  1
  V  V11  1  0.48534991  0.10114429  0.59189428  1
  V  V12  1  0.01465009  0.10114429  0.09189428  1
  V  V13  1  0.98534991  0.89885571  0.90810572  1
  V  V14  1  0.51465009  0.39885571  0.09189428  1
  V  V15  1  0.48534991  0.60114429  0.90810572  1
  Bi  Bi16  1  0.97793615  0.85359270  0.22590413  1
  Bi  Bi17  1  0.02206385  0.14640730  0.77409587  1
  Bi  Bi18  1  0.52206385  0.35359270  0.77409587  1
  Bi  Bi19  1  0.02206385  0.64640730  0.72590413  1
  Bi  Bi20  1  0.47793615  0.14640730  0.27409587  1
  Bi  Bi21  1  0.47793615  0.64640730  0.22590413  1
  Bi  Bi22  1  0.52206385  0.85359270  0.72590413  1
  Bi  Bi23  1  0.97793615  0.35359270  0.27409587  1
  O  O24  1  0.92677327  0.32810719  0.69297476  1
  O  O25  1  0.30312609  0.04222487  0.05606333  1
  O  O26  1  0.19687391  0.54222487  0.94393667  1
  O  O27  1  0.29467694  0.78416515  0.14899127  1
  O  O28  1  0.20532306  0.28416515  0.85100873  1
  O  O29  1  0.92677327  0.82810719  0.80702524  1
  O  O30  1  0.20532306  0.78416515  0.64899127  1
  O  O31  1  0.57322673  0.82810719  0.30702524  1
  O  O32  1  0.30312609  0.54222487  0.44393667  1
  O  O33  1  0.07322673  0.67189281  0.30702524  1
  O  O34  1  0.57322673  0.32810719  0.19297476  1
  O  O35  1  0.63791283  0.19781606  0.52023988  1
  O  O36  1  0.80312609  0.95777513  0.44393667  1
  O  O37  1  0.70532306  0.71583485  0.64899127  1
  O  O38  1  0.18823969  0.02497663  0.88244151  1
  O  O39  1  0.80312609  0.45777513  0.05606333  1
  O  O40  1  0.07322673  0.17189281  0.19297476  1
  O  O41  1  0.79467694  0.21583485  0.35100873  1
  O  O42  1  0.13791283  0.80218394  0.97976012  1
  O  O43  1  0.19687391  0.04222487  0.55606333  1
  O  O44  1  0.36208717  0.80218394  0.47976012  1
  O  O45  1  0.81176031  0.97502337  0.11755849  1
  O  O46  1  0.70532306  0.21583485  0.85100873  1
  O  O47  1  0.68823969  0.97502337  0.61755849  1
  O  O48  1  0.36208717  0.30218394  0.02023988  1
  O  O49  1  0.13791283  0.30218394  0.52023988  1
  O  O50  1  0.69687391  0.45777513  0.55606333  1
  O  O51  1  0.69687391  0.95777513  0.94393667  1
  O  O52  1  0.68823969  0.47502337  0.88244151  1
  O  O53  1  0.86208717  0.69781606  0.47976012  1
  O  O54  1  0.86208717  0.19781606  0.02023988  1
  O  O55  1  0.63791283  0.69781606  0.97976012  1
  O  O56  1  0.81176031  0.47502337  0.38244151  1
  O  O57  1  0.79467694  0.71583485  0.14899127  1
  O  O58  1  0.29467694  0.28416515  0.35100873  1
  O  O59  1  0.18823969  0.52497663  0.61755849  1
  O  O60  1  0.31176031  0.52497663  0.11755849  1
  O  O61  1  0.42677327  0.17189281  0.69297476  1
  O  O62  1  0.31176031  0.02497663  0.38244151  1
  O  O63  1  0.42677327  0.67189281  0.80702524  1
