# generated using pymatgen
data_Mg2Cr3O8
_symmetry_space_group_name_H-M   'P 1'
_cell_length_a   5.85820836
_cell_length_b   5.85820794
_cell_length_c   9.49630891
_cell_angle_alpha   90.00000000
_cell_angle_beta   90.00000000
_cell_angle_gamma   119.99999811
_symmetry_Int_Tables_number   1
_chemical_formula_structural   Mg2Cr3O8
_chemical_formula_sum   'Mg4 Cr6 O16'
_cell_volume   282.23773035
_cell_formula_units_Z   2
loop_
 _symmetry_equiv_pos_site_id
 _symmetry_equiv_pos_as_xyz
  1  'x, y, z'
loop_
 _atom_site_type_symbol
 _atom_site_label
 _atom_site_symmetry_multiplicity
 _atom_site_fract_x
 _atom_site_fract_y
 _atom_site_fract_z
 _atom_site_occupancy
  Mg  Mg0  1  0.66666700  0.33333400  0.02024695  1
  Mg  Mg1  1  0.33333300  0.66666600  0.52024795  1
  Mg  Mg2  1  0.66666700  0.33333400  0.42248862  1
  Mg  Mg3  1  0.33333300  0.66666600  0.92248962  1
  Cr  Cr4  1  0.67280626  0.83640363  0.24378954  1
  Cr  Cr5  1  0.83640463  0.16359737  0.74378954  1
  Cr  Cr6  1  0.16359737  0.32719474  0.24378954  1
  Cr  Cr7  1  0.83640263  0.67280626  0.74378954  1
  Cr  Cr8  1  0.32719474  0.16359737  0.74378954  1
  Cr  Cr9  1  0.16359737  0.83640363  0.24378954  1
  O  O10  1  0.83654906  0.16345194  0.14875310  1
  O  O11  1  0.67309612  0.83654906  0.64875210  1
  O  O12  1  0.16345194  0.32690488  0.64875210  1
  O  O13  1  0.83654806  0.67309612  0.14875310  1
  O  O14  1  0.32690388  0.16345194  0.14875310  1
  O  O15  1  0.16345194  0.83654906  0.64875210  1
  O  O16  1  0.51913707  0.48086193  0.86303695  1
  O  O17  1  0.03827514  0.51913707  0.36303595  1
  O  O18  1  0.48086293  0.96172586  0.36303595  1
  O  O19  1  0.51913707  0.03827514  0.86303695  1
  O  O20  1  -0.00000000  -0.00000000  0.35252764  1
  O  O21  1  -0.00000000  -0.00000000  0.85252764  1
  O  O22  1  0.33333300  0.66666600  0.13150105  1
  O  O23  1  0.96172386  0.48086193  0.86303695  1
  O  O24  1  0.48086193  0.51913707  0.36303595  1
  O  O25  1  0.66666700  0.33333400  0.63150105  1
