# generated using pymatgen
data_TiZn(GeO3)2
_symmetry_space_group_name_H-M   'P 1'
_cell_length_a   5.35399898
_cell_length_b   8.52313669
_cell_length_c   12.31361126
_cell_angle_alpha   90.00000000
_cell_angle_beta   104.41640371
_cell_angle_gamma   90.00000000
_symmetry_Int_Tables_number   1
_chemical_formula_structural   TiZn(GeO3)2
_chemical_formula_sum   'Ti4 Zn4 Ge8 O24'
_cell_volume   544.21204174
_cell_formula_units_Z   4
loop_
 _symmetry_equiv_pos_site_id
 _symmetry_equiv_pos_as_xyz
  1  'x, y, z'
loop_
 _atom_site_type_symbol
 _atom_site_label
 _atom_site_symmetry_multiplicity
 _atom_site_fract_x
 _atom_site_fract_y
 _atom_site_fract_z
 _atom_site_occupancy
  Ti  Ti0  1  0.96290144  0.65642897  0.29055874  1
  Ti  Ti1  1  0.53709856  0.15642897  0.70944126  1
  Ti  Ti2  1  0.03709856  0.34357103  0.70944126  1
  Ti  Ti3  1  0.46290144  0.84357103  0.29055874  1
  Zn  Zn4  1  0.44080003  0.45147114  0.24638415  1
  Zn  Zn5  1  0.05919997  0.95147114  0.75361585  1
  Zn  Zn6  1  0.55919997  0.54852886  0.75361585  1
  Zn  Zn7  1  0.94080003  0.04852886  0.24638415  1
  Ge  Ge8  1  0.82758199  0.36522613  0.08196037  1
  Ge  Ge9  1  0.67241801  0.86522613  0.91803963  1
  Ge  Ge10  1  0.17241801  0.63477387  0.91803963  1
  Ge  Ge11  1  0.32758199  0.13477387  0.08196037  1
  Ge  Ge12  1  0.19752736  0.34714203  0.46749783  1
  Ge  Ge13  1  0.30247264  0.84714203  0.53250217  1
  Ge  Ge14  1  0.80247264  0.65285797  0.53250217  1
  Ge  Ge15  1  0.69752736  0.15285797  0.46749783  1
  O  O16  1  0.45029561  0.29060521  0.40095230  1
  O  O17  1  0.04970439  0.79060521  0.59904770  1
  O  O18  1  0.54970439  0.70939479  0.59904770  1
  O  O19  1  0.95029561  0.20939479  0.40095230  1
  O  O20  1  0.18753105  0.31410741  0.14797266  1
  O  O21  1  0.31246895  0.81410741  0.85202834  1
  O  O22  1  0.81246895  0.68589259  0.85202834  1
  O  O23  1  0.68753105  0.18589259  0.14797266  1
  O  O24  1  0.63680884  0.96182293  0.42086749  1
  O  O25  1  0.86319116  0.46182293  0.57913251  1
  O  O26  1  0.36319116  0.03817707  0.57913251  1
  O  O27  1  0.13680884  0.53817707  0.42086749  1
  O  O28  1  0.27133799  0.00362389  0.20576345  1
  O  O29  1  0.22866201  0.50362389  0.79423655  1
  O  O30  1  0.72866201  0.99637611  0.79423655  1
  O  O31  1  0.77133799  0.49637611  0.20576345  1
  O  O32  1  0.75610075  0.33871875  0.77456736  1
  O  O33  1  0.74389925  0.83871875  0.22543264  1
  O  O34  1  0.24389925  0.66128125  0.22543264  1
  O  O35  1  0.25610075  0.16128125  0.77456736  1
  O  O36  1  0.32393438  0.34086731  0.61359158  1
  O  O37  1  0.17606562  0.84086731  0.38640842  1
  O  O38  1  0.67606562  0.65913269  0.38640842  1
  O  O39  1  0.82393438  0.15913269  0.61359158  1
