# generated using pymatgen
data_TiZnNiP2O9
_symmetry_space_group_name_H-M   'P 1'
_cell_length_a   6.27203390
_cell_length_b   7.34325313
_cell_length_c   14.35996623
_cell_angle_alpha   90.00000000
_cell_angle_beta   90.00000000
_cell_angle_gamma   90.00000000
_symmetry_Int_Tables_number   1
_chemical_formula_structural   TiZnNiP2O9
_chemical_formula_sum   'Ti4 Zn4 Ni4 P8 O36'
_cell_volume   661.37886832
_cell_formula_units_Z   4
loop_
 _symmetry_equiv_pos_site_id
 _symmetry_equiv_pos_as_xyz
  1  'x, y, z'
loop_
 _atom_site_type_symbol
 _atom_site_label
 _atom_site_symmetry_multiplicity
 _atom_site_fract_x
 _atom_site_fract_y
 _atom_site_fract_z
 _atom_site_occupancy
  Ti  Ti0  1  0.75000000  0.34762244  0.88512344  1
  Ti  Ti1  1  0.25000000  0.65237756  0.11487656  1
  Ti  Ti2  1  0.25000000  0.84762244  0.61487656  1
  Ti  Ti3  1  0.75000000  0.15237756  0.38512344  1
  Zn  Zn4  1  0.75000000  0.88400602  0.78329679  1
  Zn  Zn5  1  0.75000000  0.61599398  0.28329679  1
  Zn  Zn6  1  0.25000000  0.11599398  0.21670321  1
  Zn  Zn7  1  0.25000000  0.38400602  0.71670321  1
  Ni  Ni8  1  0.50000000  0.00000000  -0.00000000  1
  Ni  Ni9  1  0.50000000  0.50000000  0.50000000  1
  Ni  Ni10  1  0.00000000  0.50000000  0.50000000  1
  Ni  Ni11  1  0.00000000  0.00000000  -0.00000000  1
  P  P12  1  0.25000000  0.35624310  0.93043759  1
  P  P13  1  0.75000000  0.64375690  0.06956241  1
  P  P14  1  0.75000000  0.85624310  0.56956241  1
  P  P15  1  0.25000000  0.14375690  0.43043759  1
  P  P16  1  0.75000000  0.39003264  0.69852756  1
  P  P17  1  0.25000000  0.60996736  0.30147244  1
  P  P18  1  0.25000000  0.89003264  0.80147244  1
  P  P19  1  0.75000000  0.10996736  0.19852756  1
  O  O20  1  0.03809858  0.61076694  0.35954836  1
  O  O21  1  0.53809858  0.38923306  0.64045164  1
  O  O22  1  0.96190142  0.11076694  0.14045164  1
  O  O23  1  0.46190142  0.88923306  0.85954836  1
  O  O24  1  0.96190142  0.38923306  0.64045164  1
  O  O25  1  0.46190142  0.61076694  0.35954836  1
  O  O26  1  0.03809858  0.88923306  0.85954836  1
  O  O27  1  0.53809858  0.11076694  0.14045164  1
  O  O28  1  0.25000000  0.33297642  0.47541873  1
  O  O29  1  0.75000000  0.66702358  0.52458127  1
  O  O30  1  0.75000000  0.83297642  0.02458127  1
  O  O31  1  0.25000000  0.16702358  0.97541873  1
  O  O32  1  0.75000000  0.14355241  0.94750315  1
  O  O33  1  0.25000000  0.85644759  0.05249685  1
  O  O34  1  0.25000000  0.64355241  0.55249685  1
  O  O35  1  0.75000000  0.35644759  0.44750315  1
  O  O36  1  0.75000000  0.21370131  0.76155159  1
  O  O37  1  0.25000000  0.78629869  0.23844841  1
  O  O38  1  0.25000000  0.71370131  0.73844841  1
  O  O39  1  0.75000000  0.28629869  0.26155159  1
  O  O40  1  0.44025641  0.12107833  0.36260798  1
  O  O41  1  0.94025741  0.87892167  0.63739202  1
  O  O42  1  0.55974259  0.62107833  0.13739202  1
  O  O43  1  0.05974259  0.37892167  0.86260798  1
  O  O44  1  0.55974259  0.87892167  0.63739202  1
  O  O45  1  0.05974259  0.12107833  0.36260798  1
  O  O46  1  0.44025641  0.37892167  0.86260798  1
  O  O47  1  0.94025741  0.62107833  0.13739202  1
  O  O48  1  0.75000000  0.94992409  0.26961388  1
  O  O49  1  0.25000000  0.05007591  0.73038612  1
  O  O50  1  0.25000000  0.44992409  0.23038612  1
  O  O51  1  0.75000000  0.55007591  0.76961388  1
  O  O52  1  0.75000000  0.99968966  0.49309001  1
  O  O53  1  0.25000000  0.00031034  0.50690999  1
  O  O54  1  0.25000000  0.49968966  0.00690999  1
  O  O55  1  0.75000000  0.50031034  0.99309001  1
