# generated using pymatgen
data_Ge2BiO6
_symmetry_space_group_name_H-M   'P 1'
_cell_length_a   5.74338249
_cell_length_b   7.16425885
_cell_length_c   7.16426007
_cell_angle_alpha   85.13043190
_cell_angle_beta   76.53193309
_cell_angle_gamma   76.53193034
_symmetry_Int_Tables_number   1
_chemical_formula_structural   Ge2BiO6
_chemical_formula_sum   'Ge4 Bi2 O12'
_cell_volume   278.65148791
_cell_formula_units_Z   2
loop_
 _symmetry_equiv_pos_site_id
 _symmetry_equiv_pos_as_xyz
  1  'x, y, z'
loop_
 _atom_site_type_symbol
 _atom_site_label
 _atom_site_symmetry_multiplicity
 _atom_site_fract_x
 _atom_site_fract_y
 _atom_site_fract_z
 _atom_site_occupancy
  Ge  Ge0  1  0.74965071  0.37575116  0.21867704  1
  Ge  Ge1  1  0.75034929  0.78132296  0.62424884  1
  Ge  Ge2  1  0.25034929  0.62424884  0.78132296  1
  Ge  Ge3  1  0.24965071  0.21867704  0.37575116  1
  Bi  Bi4  1  0.75000000  0.87649557  0.12350443  1
  Bi  Bi5  1  0.25000000  0.12350443  0.87649557  1
  O  O6  1  0.48882531  0.33268979  0.38854599  1
  O  O7  1  0.01117469  0.61145401  0.66731021  1
  O  O8  1  0.51117469  0.66731021  0.61145401  1
  O  O9  1  0.98882531  0.38854599  0.33268979  1
  O  O10  1  0.18361315  0.09295743  0.59528849  1
  O  O11  1  0.31638685  0.40471251  0.90704257  1
  O  O12  1  0.81638685  0.90704257  0.40471251  1
  O  O13  1  0.68361315  0.59528849  0.09295743  1
  O  O14  1  0.86078777  0.17754785  0.05590763  1
  O  O15  1  0.63921223  0.94409237  0.82245215  1
  O  O16  1  0.13921223  0.82245215  0.94409237  1
  O  O17  1  0.36078777  0.05590763  0.17754785  1
