# generated using pymatgen
data_CaTi3O7
_symmetry_space_group_name_H-M   'P 1'
_cell_length_a   5.44389164
_cell_length_b   10.58244221
_cell_length_c   10.94777502
_cell_angle_alpha   90.00000000
_cell_angle_beta   90.00000000
_cell_angle_gamma   90.00000000
_symmetry_Int_Tables_number   1
_chemical_formula_structural   CaTi3O7
_chemical_formula_sum   'Ca4 Ti12 O28'
_cell_volume   630.69769166
_cell_formula_units_Z   4
loop_
 _symmetry_equiv_pos_site_id
 _symmetry_equiv_pos_as_xyz
  1  'x, y, z'
loop_
 _atom_site_type_symbol
 _atom_site_label
 _atom_site_symmetry_multiplicity
 _atom_site_fract_x
 _atom_site_fract_y
 _atom_site_fract_z
 _atom_site_occupancy
  Ca  Ca0  1  0.67410928  0.75000000  0.93260689  1
  Ca  Ca1  1  0.17410928  0.25000000  0.56739311  1
  Ca  Ca2  1  0.32589072  0.25000000  0.06739311  1
  Ca  Ca3  1  0.82589072  0.75000000  0.43260689  1
  Ti  Ti4  1  0.30116862  0.02668528  0.30732314  1
  Ti  Ti5  1  0.80116862  0.97331472  0.19267686  1
  Ti  Ti6  1  0.69883138  0.52668528  0.69267686  1
  Ti  Ti7  1  0.19883138  0.47331472  0.80732314  1
  Ti  Ti8  1  0.31040169  0.75000000  0.21842438  1
  Ti  Ti9  1  0.81040169  0.25000000  0.28157562  1
  Ti  Ti10  1  0.68959831  0.25000000  0.78157562  1
  Ti  Ti11  1  0.18959831  0.75000000  0.71842438  1
  Ti  Ti12  1  0.80116862  0.52668528  0.19267686  1
  Ti  Ti13  1  0.30116862  0.47331472  0.30732314  1
  Ti  Ti14  1  0.19883138  0.02668528  0.80732314  1
  Ti  Ti15  1  0.69883138  0.97331472  0.69267686  1
  O  O16  1  0.93397474  0.11989459  0.72383169  1
  O  O17  1  0.43397474  0.88010541  0.77616831  1
  O  O18  1  0.06602526  0.61989459  0.27616831  1
  O  O19  1  0.56602526  0.38010541  0.22383169  1
  O  O20  1  0.06602526  0.88010541  0.27616831  1
  O  O21  1  0.56602526  0.11989459  0.22383169  1
  O  O22  1  0.93397474  0.38010541  0.72383169  1
  O  O23  1  0.43397474  0.61989459  0.77616831  1
  O  O24  1  0.45739547  0.11923333  0.71911296  1
  O  O25  1  0.95739547  0.88076667  0.78088704  1
  O  O26  1  0.54260453  0.61923333  0.28088704  1
  O  O27  1  0.04260453  0.38076667  0.21911296  1
  O  O28  1  0.54260453  0.88076667  0.28088704  1
  O  O29  1  0.04260453  0.11923333  0.21911296  1
  O  O30  1  0.45739547  0.38076667  0.71911296  1
  O  O31  1  0.95739547  0.61923333  0.78088704  1
  O  O32  1  0.16861979  0.75000000  0.56465911  1
  O  O33  1  0.66861979  0.25000000  0.93534089  1
  O  O34  1  0.83138021  0.25000000  0.43534089  1
  O  O35  1  0.33138021  0.75000000  0.06465911  1
  O  O36  1  0.21739089  0.41994518  0.95161591  1
  O  O37  1  0.71739089  0.58005482  0.54838409  1
  O  O38  1  0.78260911  0.91994518  0.04838409  1
  O  O39  1  0.28260911  0.08005482  0.45161591  1
  O  O40  1  0.78260911  0.58005482  0.04838409  1
  O  O41  1  0.28260911  0.41994518  0.45161591  1
  O  O42  1  0.21739089  0.08005482  0.95161591  1
  O  O43  1  0.71739089  0.91994518  0.54838409  1
