# generated using pymatgen
data_CaTi2O5
_symmetry_space_group_name_H-M   'P 1'
_cell_length_a   3.81540567
_cell_length_b   5.86891735
_cell_length_c   11.50554279
_cell_angle_alpha   90.00000000
_cell_angle_beta   90.00000000
_cell_angle_gamma   108.96872046
_symmetry_Int_Tables_number   1
_chemical_formula_structural   CaTi2O5
_chemical_formula_sum   'Ca2 Ti4 O10'
_cell_volume   243.64497410
_cell_formula_units_Z   2
loop_
 _symmetry_equiv_pos_site_id
 _symmetry_equiv_pos_as_xyz
  1  'x, y, z'
loop_
 _atom_site_type_symbol
 _atom_site_label
 _atom_site_symmetry_multiplicity
 _atom_site_fract_x
 _atom_site_fract_y
 _atom_site_fract_z
 _atom_site_occupancy
  Ca  Ca0  1  0.90151817  0.80303434  0.75000000  1
  Ca  Ca1  1  0.09848283  0.19696666  0.25000000  1
  Ti  Ti2  1  0.20488920  0.40977939  0.59687461  1
  Ti  Ti3  1  0.79511180  0.59022161  0.40312439  1
  Ti  Ti4  1  0.79511180  0.59022161  0.09687561  1
  Ti  Ti5  1  0.20488920  0.40977939  0.90312539  1
  O  O6  1  0.71452750  0.42905500  0.25000000  1
  O  O7  1  0.28547350  0.57094600  0.75000000  1
  O  O8  1  0.24106297  0.48212595  0.07571556  1
  O  O9  1  0.75893903  0.51787505  0.92428444  1
  O  O10  1  0.75893903  0.51787505  0.57571556  1
  O  O11  1  0.24106297  0.48212595  0.42428344  1
  O  O12  1  0.05439046  0.10877992  0.62083154  1
  O  O13  1  0.94560954  0.89121908  0.37916846  1
  O  O14  1  0.05439046  0.10877992  0.87916846  1
  O  O15  1  0.94560954  0.89121908  0.12083254  1
