# generated using pymatgen
data_Ca2Ta2MnO8
_symmetry_space_group_name_H-M   'P 1'
_cell_length_a   5.47270235
_cell_length_b   6.47352028
_cell_length_c   10.16626087
_cell_angle_alpha   108.62242322
_cell_angle_beta   91.86947287
_cell_angle_gamma   90.00285380
_symmetry_Int_Tables_number   1
_chemical_formula_structural   Ca2Ta2MnO8
_chemical_formula_sum   'Ca4 Ta4 Mn2 O16'
_cell_volume   341.10716445
_cell_formula_units_Z   2
loop_
 _symmetry_equiv_pos_site_id
 _symmetry_equiv_pos_as_xyz
  1  'x, y, z'
loop_
 _atom_site_type_symbol
 _atom_site_label
 _atom_site_symmetry_multiplicity
 _atom_site_fract_x
 _atom_site_fract_y
 _atom_site_fract_z
 _atom_site_occupancy
  Ca  Ca0  1  0.75526939  0.44922570  0.57660724  1
  Ca  Ca1  1  0.74351763  0.87308483  0.42245831  1
  Ca  Ca2  1  0.24376351  0.55036543  0.42525352  1
  Ca  Ca3  1  0.25497162  0.12534766  0.57694159  1
  Ta  Ta4  1  0.74200590  0.25929787  0.22827992  1
  Ta  Ta5  1  0.75700290  0.03038633  0.77191598  1
  Ta  Ta6  1  0.25696931  0.74012019  0.77290792  1
  Ta  Ta7  1  0.24186415  0.96856718  0.22827413  1
  Mn  Mn8  1  0.74962400  0.64587064  0.00024171  1
  Mn  Mn9  1  0.24938405  0.35244460  0.00029612  1
  O  O10  1  0.07068856  0.18718197  0.14306532  1
  O  O11  1  0.42812738  0.04440796  0.85733383  1
  O  O12  1  0.92807579  0.81215948  0.85754261  1
  O  O13  1  0.57098733  0.95497187  0.14352068  1
  O  O14  1  0.58584513  0.40712930  0.11801074  1
  O  O15  1  0.91339163  0.28882277  0.88224124  1
  O  O16  1  0.41344930  0.59247343  0.88314568  1
  O  O17  1  0.08524817  0.71040598  0.11792669  1
  O  O18  1  0.47656554  0.25282809  0.36415148  1
  O  O19  1  0.02234521  0.88746631  0.63629731  1
  O  O20  1  0.34176737  0.84714251  0.37268792  1
  O  O21  1  0.15641868  0.47422920  0.62850972  1
  O  O22  1  0.65674099  0.15083710  0.62716764  1
  O  O23  1  0.84263973  0.52468852  0.37299735  1
  O  O24  1  0.97682381  0.11138421  0.36419836  1
  O  O25  1  0.52202894  0.74619188  0.63681098  1
