# generated using pymatgen
data_PrZn(MoO3)2
_symmetry_space_group_name_H-M   'P 1'
_cell_length_a   5.50835686
_cell_length_b   5.87742212
_cell_length_c   8.15035499
_cell_angle_alpha   90.00101952
_cell_angle_beta   89.77524410
_cell_angle_gamma   89.99821826
_symmetry_Int_Tables_number   1
_chemical_formula_structural   PrZn(MoO3)2
_chemical_formula_sum   'Pr2 Zn2 Mo4 O12'
_cell_volume   263.86521074
_cell_formula_units_Z   2
loop_
 _symmetry_equiv_pos_site_id
 _symmetry_equiv_pos_as_xyz
  1  'x, y, z'
loop_
 _atom_site_type_symbol
 _atom_site_label
 _atom_site_symmetry_multiplicity
 _atom_site_fract_x
 _atom_site_fract_y
 _atom_site_fract_z
 _atom_site_occupancy
  Pr  Pr0  1  0.02203480  0.94362675  0.75136030  1
  Pr  Pr1  1  0.52203019  0.55636527  0.25135864  1
  Zn  Zn2  1  0.52355388  0.61380328  0.74621010  1
  Zn  Zn3  1  0.02355832  0.88618150  0.24620708  1
  Mo  Mo4  1  0.99760763  0.47765705  0.99712079  1
  Mo  Mo5  1  0.99868783  0.48740419  0.50252598  1
  Mo  Mo6  1  0.49760030  0.02233997  0.49712730  1
  Mo  Mo7  1  0.49868661  0.01259209  0.00252407  1
  O  O8  1  0.10547165  0.50098118  0.24648651  1
  O  O9  1  0.17492299  0.19092780  0.95075256  1
  O  O10  1  0.19394306  0.19004060  0.56064825  1
  O  O11  1  0.31436074  0.70672112  0.55668128  1
  O  O12  1  0.29934354  0.69152941  0.93413688  1
  O  O13  1  0.37007836  0.96215056  0.25408066  1
  O  O14  1  0.60549219  0.99905010  0.74648571  1
  O  O15  1  0.69392591  0.30995922  0.06064112  1
  O  O16  1  0.67492797  0.30908104  0.45075145  1
  O  O17  1  0.81435377  0.79327414  0.05667879  1
  O  O18  1  0.79933884  0.80847518  0.43413826  1
  O  O19  1  0.87007640  0.53784155  0.75408327  1
