# generated using pymatgen
data_PrMg(MoO3)2
_symmetry_space_group_name_H-M   'P 1'
_cell_length_a   5.47867633
_cell_length_b   5.69176215
_cell_length_c   8.08332332
_cell_angle_alpha   89.99939225
_cell_angle_beta   90.26903442
_cell_angle_gamma   89.99996114
_symmetry_Int_Tables_number   1
_chemical_formula_structural   PrMg(MoO3)2
_chemical_formula_sum   'Pr2 Mg2 Mo4 O12'
_cell_volume   252.06209997
_cell_formula_units_Z   2
loop_
 _symmetry_equiv_pos_site_id
 _symmetry_equiv_pos_as_xyz
  1  'x, y, z'
loop_
 _atom_site_type_symbol
 _atom_site_label
 _atom_site_symmetry_multiplicity
 _atom_site_fract_x
 _atom_site_fract_y
 _atom_site_fract_z
 _atom_site_occupancy
  Pr  Pr0  1  0.00854264  0.94473731  0.74936914  1
  Pr  Pr1  1  0.50855079  0.55525645  0.24935580  1
  Mg  Mg2  1  0.48438790  0.45177760  0.74967652  1
  Mg  Mg3  1  0.98436973  0.04822964  0.24966361  1
  Mo  Mo4  1  0.99872204  0.49691983  0.99955416  1
  Mo  Mo5  1  0.99804194  0.49341819  0.49973085  1
  Mo  Mo6  1  0.49870039  0.00307769  0.49955019  1
  Mo  Mo7  1  0.49805444  0.00658304  0.99972722  1
  O  O8  1  0.10835240  0.41907129  0.25155564  1
  O  O9  1  0.21288957  0.20504779  0.93120065  1
  O  O10  1  0.19550406  0.21069451  0.56809964  1
  O  O11  1  0.31067492  0.68108611  0.57018979  1
  O  O12  1  0.32880830  0.69262872  0.93404795  1
  O  O13  1  0.35407985  0.95242640  0.24660708  1
  O  O14  1  0.60834292  0.08094343  0.75154907  1
  O  O15  1  0.69555017  0.28928252  0.06811984  1
  O  O16  1  0.71286889  0.29495912  0.43120832  1
  O  O17  1  0.81070939  0.81892217  0.07015734  1
  O  O18  1  0.82877683  0.80736137  0.43402303  1
  O  O19  1  0.85406684  0.54757780  0.74661315  1
