# generated using pymatgen
data_Ca(WO3)2
_symmetry_space_group_name_H-M   'P 1'
_cell_length_a   5.51868458
_cell_length_b   5.58303346
_cell_length_c   7.81652538
_cell_angle_alpha   89.79225576
_cell_angle_beta   89.97646633
_cell_angle_gamma   89.99250541
_symmetry_Int_Tables_number   1
_chemical_formula_structural   Ca(WO3)2
_chemical_formula_sum   'Ca2 W4 O12'
_cell_volume   240.83336345
_cell_formula_units_Z   2
loop_
 _symmetry_equiv_pos_site_id
 _symmetry_equiv_pos_as_xyz
  1  'x, y, z'
loop_
 _atom_site_type_symbol
 _atom_site_label
 _atom_site_symmetry_multiplicity
 _atom_site_fract_x
 _atom_site_fract_y
 _atom_site_fract_z
 _atom_site_occupancy
  Ca  Ca0  1  0.50850116  0.54032845  0.25085251  1
  Ca  Ca1  1  0.00855161  0.95589573  0.74941024  1
  W  W2  1  0.50149941  0.00315397  0.99875440  1
  W  W3  1  0.00024675  0.49375284  0.99967489  1
  W  W4  1  0.00108384  0.49777396  0.49873254  1
  W  W5  1  0.49930909  0.00719611  0.49897128  1
  O  O6  1  0.70334970  0.29731501  0.45802844  1
  O  O7  1  0.19795519  0.21316815  0.53973717  1
  O  O8  1  0.79587442  0.77046371  0.02923269  1
  O  O9  1  0.28050981  0.71137428  0.97526602  1
  O  O10  1  0.28311034  0.72010438  0.52978225  1
  O  O11  1  0.79107573  0.77567949  0.47285144  1
  O  O12  1  0.19032412  0.21307133  0.95873807  1
  O  O13  1  0.71047338  0.30036781  0.03987552  1
  O  O14  1  0.07981797  0.48469842  0.24487889  1
  O  O15  1  0.57444804  0.01501843  0.74384543  1
  O  O16  1  0.44958241  0.98354857  0.25559849  1
  O  O17  1  0.94646603  0.51714936  0.75566274  1
