# generated using pymatgen
data_YTi4(CuO4)3
_symmetry_space_group_name_H-M   'P 1'
_cell_length_a   6.46915275
_cell_length_b   6.46903078
_cell_length_c   6.46892747
_cell_angle_alpha   109.47020708
_cell_angle_beta   109.48492023
_cell_angle_gamma   109.46231110
_symmetry_Int_Tables_number   1
_chemical_formula_structural   YTi4(CuO4)3
_chemical_formula_sum   'Y1 Ti4 Cu3 O12'
_cell_volume   208.38994416
_cell_formula_units_Z   1
loop_
 _symmetry_equiv_pos_site_id
 _symmetry_equiv_pos_as_xyz
  1  'x, y, z'
loop_
 _atom_site_type_symbol
 _atom_site_label
 _atom_site_symmetry_multiplicity
 _atom_site_fract_x
 _atom_site_fract_y
 _atom_site_fract_z
 _atom_site_occupancy
  Y  Y0  1  0.00000123  0.99999914  0.99999578  1
  Ti  Ti1  1  0.50000124  0.00000573  0.99999758  1
  Ti  Ti2  1  0.99998875  0.99999322  0.49999258  1
  Ti  Ti3  1  0.00000500  0.50000173  0.00000162  1
  Ti  Ti4  1  0.49999692  0.49999336  0.50000179  1
  Cu  Cu5  1  0.49999788  0.99999602  0.49999831  1
  Cu  Cu6  1  0.49999920  0.50000015  0.99999815  1
  Cu  Cu7  1  0.00000367  0.50000565  0.50000423  1
  O  O8  1  0.82388637  0.29564302  0.11943958  1
  O  O9  1  0.17611915  0.70436510  0.88056676  1
  O  O10  1  0.82384559  0.70442106  0.52825018  1
  O  O11  1  0.29580148  0.47189080  0.17610445  1
  O  O12  1  0.47193705  0.17621649  0.29570920  1
  O  O13  1  0.11947834  0.82378767  0.29574404  1
  O  O14  1  0.70416721  0.88030906  0.17607086  1
  O  O15  1  0.52806171  0.82377826  0.70429720  1
  O  O16  1  0.17615613  0.29558160  0.47175190  1
  O  O17  1  0.70420681  0.52811051  0.82389255  1
  O  O18  1  0.88051432  0.17620629  0.70425437  1
  O  O19  1  0.29583394  0.11969315  0.82392889  1
