# generated using pymatgen
data_Ta2Zn2SnO8
_symmetry_space_group_name_H-M   'P 1'
_cell_length_a   5.43407075
_cell_length_b   6.00385481
_cell_length_c   10.92016455
_cell_angle_alpha   105.94688276
_cell_angle_beta   91.54033422
_cell_angle_gamma   90.00912585
_symmetry_Int_Tables_number   1
_chemical_formula_structural   Ta2Zn2SnO8
_chemical_formula_sum   'Ta4 Zn4 Sn2 O16'
_cell_volume   342.42951981
_cell_formula_units_Z   2
loop_
 _symmetry_equiv_pos_site_id
 _symmetry_equiv_pos_as_xyz
  1  'x, y, z'
loop_
 _atom_site_type_symbol
 _atom_site_label
 _atom_site_symmetry_multiplicity
 _atom_site_fract_x
 _atom_site_fract_y
 _atom_site_fract_z
 _atom_site_occupancy
  Ta  Ta0  1  0.72261713  0.28033378  0.25189175  1
  Ta  Ta1  1  0.77495819  0.03088721  0.74761225  1
  Ta  Ta2  1  0.27500580  0.71982069  0.74778527  1
  Ta  Ta3  1  0.22253273  0.96923374  0.25263167  1
  Zn  Zn4  1  0.77533125  0.43154534  0.56094586  1
  Zn  Zn5  1  0.72362763  0.86921337  0.43993211  1
  Zn  Zn6  1  0.22298906  0.56958647  0.43857833  1
  Zn  Zn7  1  0.27518689  0.13194402  0.56124352  1
  Sn  Sn8  1  0.74826652  0.67889721  0.00034863  1
  Sn  Sn9  1  0.24717247  0.32059727  0.00068730  1
  O  O10  1  0.03413893  0.17288782  0.16511700  1
  O  O11  1  0.46189314  0.01237135  0.83311784  1
  O  O12  1  0.96271953  0.82524475  0.83369270  1
  O  O13  1  0.53445209  0.98833743  0.16599744  1
  O  O14  1  0.62354152  0.44172269  0.13633433  1
  O  O15  1  0.87535944  0.30784183  0.86266874  1
  O  O16  1  0.37567423  0.55964828  0.86361630  1
  O  O17  1  0.12330104  0.69063653  0.13902674  1
  O  O18  1  0.41924573  0.29348765  0.36240194  1
  O  O19  1  0.07695851  0.93154090  0.63616720  1
  O  O20  1  0.35445625  0.85105966  0.39884057  1
  O  O21  1  0.14454068  0.45374585  0.60181765  1
  O  O22  1  0.64397869  0.15122711  0.60188662  1
  O  O23  1  0.85370472  0.54669265  0.39758617  1
  O  O24  1  0.91969195  0.06896579  0.36323069  1
  O  O25  1  0.57821287  0.70744962  0.63667138  1
