# generated using pymatgen
data_Zn(CuO2)2
_symmetry_space_group_name_H-M   'P 1'
_cell_length_a   5.91960145
_cell_length_b   5.91963011
_cell_length_c   17.73811503
_cell_angle_alpha   59.96300336
_cell_angle_beta   59.96267748
_cell_angle_gamma   60.04597889
_symmetry_Int_Tables_number   1
_chemical_formula_structural   Zn(CuO2)2
_chemical_formula_sum   'Zn6 Cu12 O24'
_cell_volume   439.42611575
_cell_formula_units_Z   6
loop_
 _symmetry_equiv_pos_site_id
 _symmetry_equiv_pos_as_xyz
  1  'x, y, z'
loop_
 _atom_site_type_symbol
 _atom_site_label
 _atom_site_symmetry_multiplicity
 _atom_site_fract_x
 _atom_site_fract_y
 _atom_site_fract_z
 _atom_site_occupancy
  Zn  Zn0  1  0.12009707  0.12011022  0.04659569  1
  Zn  Zn1  1  0.12087261  0.12087001  0.37906923  1
  Zn  Zn2  1  0.49972545  0.49973363  0.33371517  1
  Zn  Zn3  1  0.12261171  0.12260677  0.71065294  1
  Zn  Zn4  1  0.50062335  0.50064104  0.99934229  1
  Zn  Zn5  1  0.87670380  0.87669663  0.62332459  1
  Cu  Cu6  1  0.49949953  0.49949419  0.16709994  1
  Cu  Cu7  1  0.49953316  0.99979076  0.16707236  1
  Cu  Cu8  1  0.50026100  0.50025048  0.50002046  1
  Cu  Cu9  1  0.99979584  0.49953122  0.16706694  1
  Cu  Cu10  1  0.50047184  0.99924563  0.49999116  1
  Cu  Cu11  1  0.50000542  0.50000662  0.66670317  1
  Cu  Cu12  1  0.87768640  0.87768972  0.28908641  1
  Cu  Cu13  1  0.49955132  0.49954870  0.83363233  1
  Cu  Cu14  1  0.99924722  0.50046388  0.49998333  1
  Cu  Cu15  1  0.49952985  0.99976657  0.83367925  1
  Cu  Cu16  1  0.99978280  0.49953424  0.83368824  1
  Cu  Cu17  1  0.87604635  0.87606426  0.95727697  1
  O  O18  1  0.25437570  0.25435274  0.09255690  1
  O  O19  1  0.25634192  0.25632702  0.24388145  1
  O  O20  1  0.25404607  0.71361725  0.09262832  1
  O  O21  1  0.71361614  0.25403725  0.09262959  1
  O  O22  1  0.25306716  0.25301539  0.42633365  1
  O  O23  1  0.28288766  0.74887577  0.23988675  1
  O  O24  1  0.25861734  0.25865263  0.57488008  1
  O  O25  1  0.74886182  0.28289511  0.23988638  1
  O  O26  1  0.74502793  0.74505762  0.08797200  1
  O  O27  1  0.25283327  0.71521619  0.42620704  1
  O  O28  1  0.71522223  0.25280015  0.42621563  1
  O  O29  1  0.74853568  0.74855957  0.23997515  1
  O  O30  1  0.26273223  0.26277989  0.75361046  1
  O  O31  1  0.28878919  0.73906605  0.57792918  1
  O  O32  1  0.73902449  0.28878026  0.57794209  1
  O  O33  1  0.25843697  0.25844479  0.90822362  1
  O  O34  1  0.74591229  0.74586623  0.42081679  1
  O  O35  1  0.26251243  0.71380914  0.75350587  1
  O  O36  1  0.71379643  0.26254880  0.75350679  1
  O  O37  1  0.73880524  0.73886632  0.57782241  1
  O  O38  1  0.27617007  0.74954172  0.90838442  1
  O  O39  1  0.74958820  0.27615932  0.90837938  1
  O  O40  1  0.73935321  0.73933223  0.76051126  1
  O  O41  1  0.74939859  0.74935299  0.90831332  1
