# generated using pymatgen
data_HoMgTi2O6
_symmetry_space_group_name_H-M   'P 1'
_cell_length_a   5.24370457
_cell_length_b   5.48621561
_cell_length_c   7.61290839
_cell_angle_alpha   90.00058534
_cell_angle_beta   90.00041119
_cell_angle_gamma   89.97783687
_symmetry_Int_Tables_number   1
_chemical_formula_structural   HoMgTi2O6
_chemical_formula_sum   'Ho2 Mg2 Ti4 O12'
_cell_volume   219.00884679
_cell_formula_units_Z   2
loop_
 _symmetry_equiv_pos_site_id
 _symmetry_equiv_pos_as_xyz
  1  'x, y, z'
loop_
 _atom_site_type_symbol
 _atom_site_label
 _atom_site_symmetry_multiplicity
 _atom_site_fract_x
 _atom_site_fract_y
 _atom_site_fract_z
 _atom_site_occupancy
  Ho  Ho0  1  0.01590801  0.93137709  0.74996427  1
  Ho  Ho1  1  0.51574631  0.56862240  0.25003530  1
  Mg  Mg2  1  0.48822190  0.45020836  0.74998974  1
  Mg  Mg3  1  0.98819871  0.04988818  0.25000173  1
  Ti  Ti4  1  0.00120446  0.49159126  0.99970738  1
  Ti  Ti5  1  0.00125178  0.49158973  0.50026623  1
  Ti  Ti6  1  0.50137829  0.00836418  0.49968546  1
  Ti  Ti7  1  0.50134107  0.00836367  0.00033673  1
  O  O8  1  0.10758753  0.44517534  0.24996189  1
  O  O9  1  0.19255959  0.19782923  0.93931631  1
  O  O10  1  0.19266055  0.19779872  0.56069791  1
  O  O11  1  0.31435864  0.69102682  0.93824788  1
  O  O12  1  0.31444880  0.69103064  0.56170664  1
  O  O13  1  0.37174315  0.96168018  0.25001590  1
  O  O14  1  0.60769291  0.05477911  0.75000263  1
  O  O15  1  0.69256113  0.30221899  0.43924067  1
  O  O16  1  0.69253877  0.30227679  0.06075538  1
  O  O17  1  0.81436973  0.80886215  0.06160804  1
  O  O18  1  0.81438576  0.80890483  0.43843519  1
  O  O19  1  0.87184093  0.53841533  0.75002572  1
