# generated using pymatgen
data_CaTiBiO5
_symmetry_space_group_name_H-M   'P 1'
_cell_length_a   5.88465198
_cell_length_b   8.86413294
_cell_length_c   10.88526062
_cell_angle_alpha   90.00000000
_cell_angle_beta   90.00000000
_cell_angle_gamma   111.38442028
_symmetry_Int_Tables_number   1
_chemical_formula_structural   CaTiBiO5
_chemical_formula_sum   'Ca4 Ti4 Bi4 O20'
_cell_volume   528.71040151
_cell_formula_units_Z   4
loop_
 _symmetry_equiv_pos_site_id
 _symmetry_equiv_pos_as_xyz
  1  'x, y, z'
loop_
 _atom_site_type_symbol
 _atom_site_label
 _atom_site_symmetry_multiplicity
 _atom_site_fract_x
 _atom_site_fract_y
 _atom_site_fract_z
 _atom_site_occupancy
  Ca  Ca0  1  0.64333640  0.17726407  0.90304441  1
  Ca  Ca1  1  0.35666360  0.82273593  0.09695559  1
  Ca  Ca2  1  0.85666360  0.32273593  0.40304441  1
  Ca  Ca3  1  0.14333640  0.67726407  0.59695559  1
  Ti  Ti4  1  0.82146840  0.94757422  0.61970715  1
  Ti  Ti5  1  0.17853160  0.05242478  0.38029285  1
  Ti  Ti6  1  0.67853160  0.55242578  0.11970715  1
  Ti  Ti7  1  0.32146840  0.44757522  0.88029285  1
  Bi  Bi8  1  0.13192846  0.15520939  0.10105597  1
  Bi  Bi9  1  0.86807154  0.84479061  0.89894403  1
  Bi  Bi10  1  0.63192846  0.65520939  0.39894403  1
  Bi  Bi11  1  0.36807154  0.34479061  0.60105597  1
  O  O12  1  0.50006007  0.35306493  0.04282301  1
  O  O13  1  0.04377860  0.31950929  0.96325731  1
  O  O14  1  0.50301606  0.66125064  0.20576309  1
  O  O15  1  0.73449751  0.50801588  0.53600627  1
  O  O16  1  0.79263414  0.50526911  0.26562432  1
  O  O17  1  0.29263414  0.00526911  0.23437568  1
  O  O18  1  0.54377860  0.81950929  0.53674269  1
  O  O19  1  0.45622140  0.18049071  0.46325731  1
  O  O20  1  0.26550249  0.49198412  0.46399373  1
  O  O21  1  0.99993993  0.14693507  0.54282301  1
  O  O22  1  0.20736586  0.49473089  0.73437568  1
  O  O23  1  0.49993993  0.64693507  0.95717699  1
  O  O24  1  0.00006007  0.85306493  0.45717699  1
  O  O25  1  0.70736586  0.99473089  0.76562432  1
  O  O26  1  0.76550249  0.99198412  0.03600627  1
  O  O27  1  0.23449751  0.00801588  0.96399373  1
  O  O28  1  0.49698394  0.33874936  0.79423691  1
  O  O29  1  0.95622140  0.68049071  0.03674269  1
  O  O30  1  0.99698394  0.83874936  0.70576309  1
  O  O31  1  0.00301606  0.16125064  0.29423691  1
