# generated using pymatgen
data_TiZnSiO5
_symmetry_space_group_name_H-M   'P 1'
_cell_length_a   5.44837257
_cell_length_b   7.38560662
_cell_length_c   8.15982655
_cell_angle_alpha   90.20993375
_cell_angle_beta   41.50340235
_cell_angle_gamma   107.08821968
_symmetry_Int_Tables_number   1
_chemical_formula_structural   TiZnSiO5
_chemical_formula_sum   'Ti2 Zn2 Si2 O10'
_cell_volume   195.46458173
_cell_formula_units_Z   2
loop_
 _symmetry_equiv_pos_site_id
 _symmetry_equiv_pos_as_xyz
  1  'x, y, z'
loop_
 _atom_site_type_symbol
 _atom_site_label
 _atom_site_symmetry_multiplicity
 _atom_site_fract_x
 _atom_site_fract_y
 _atom_site_fract_z
 _atom_site_occupancy
  Ti  Ti0  1  0.50377918  0.50895237  0.50532246  1
  Ti  Ti1  1  0.50027114  0.00976488  0.49127115  1
  Zn  Zn2  1  0.73743865  0.35521795  0.08489339  1
  Zn  Zn3  1  0.75352379  0.86274709  0.66334642  1
  Si  Si4  1  0.45730029  0.23212553  0.86644528  1
  Si  Si5  1  0.46337328  0.72721650  0.17206569  1
  O  O6  1  0.56498350  0.07791525  0.69608476  1
  O  O7  1  0.31878756  0.36922801  0.81350124  1
  O  O8  1  0.33685688  0.87181951  0.35509768  1
  O  O9  1  0.59146303  0.58225716  0.22584182  1
  O  O10  1  0.05646493  0.58288991  0.26866853  1
  O  O11  1  0.83475737  0.85755334  0.85836357  1
  O  O12  1  0.83969519  0.36646522  0.79734106  1
  O  O13  1  0.06244995  0.09819882  0.18077352  1
  O  O14  1  0.48266841  0.73544199  0.59315360  1
  O  O15  1  0.45974085  0.22917945  0.42881283  1
