# generated using pymatgen
data_Ce5Mg
_symmetry_space_group_name_H-M   'P 1'
_cell_length_a   5.93296880
_cell_length_b   3.41020056
_cell_length_c   17.82661037
_cell_angle_alpha   90.00000000
_cell_angle_beta   90.00000000
_cell_angle_gamma   90.00000000
_symmetry_Int_Tables_number   1
_chemical_formula_structural   Ce5Mg
_chemical_formula_sum   'Ce10 Mg2'
_cell_volume   360.67891806
_cell_formula_units_Z   2
loop_
 _symmetry_equiv_pos_site_id
 _symmetry_equiv_pos_as_xyz
  1  'x, y, z'
loop_
 _atom_site_type_symbol
 _atom_site_label
 _atom_site_symmetry_multiplicity
 _atom_site_fract_x
 _atom_site_fract_y
 _atom_site_fract_z
 _atom_site_occupancy
  Ce  Ce0  1  -0.00000000  0.00000000  0.00825743  1
  Ce  Ce1  1  0.00000000  -0.00000000  0.67031331  1
  Ce  Ce2  1  -0.00000000  0.50000000  0.83130816  1
  Ce  Ce3  1  0.50000000  0.00000000  0.54379860  1
  Ce  Ce4  1  0.50000000  0.00000000  0.89181382  1
  Ce  Ce5  1  0.00000000  0.50000000  0.50825743  1
  Ce  Ce6  1  0.00000000  0.50000000  0.17031331  1
  Ce  Ce7  1  -0.00000000  -0.00000000  0.33130816  1
  Ce  Ce8  1  0.50000000  0.50000000  0.04379860  1
  Ce  Ce9  1  0.50000000  0.50000000  0.39181382  1
  Mg  Mg10  1  0.50000000  0.50000000  0.72117569  1
  Mg  Mg11  1  0.50000000  0.00000000  0.22117569  1
