# generated using pymatgen
data_Ba2YCr2F11
_symmetry_space_group_name_H-M   'P 1'
_cell_length_a   7.90986257
_cell_length_b   7.90986164
_cell_length_c   14.14020854
_cell_angle_alpha   90.00000000
_cell_angle_beta   90.00000000
_cell_angle_gamma   119.99999934
_symmetry_Int_Tables_number   1
_chemical_formula_structural   Ba2YCr2F11
_chemical_formula_sum   'Ba6 Y3 Cr6 F33'
_cell_volume   766.16846735
_cell_formula_units_Z   3
loop_
 _symmetry_equiv_pos_site_id
 _symmetry_equiv_pos_as_xyz
  1  'x, y, z'
loop_
 _atom_site_type_symbol
 _atom_site_label
 _atom_site_symmetry_multiplicity
 _atom_site_fract_x
 _atom_site_fract_y
 _atom_site_fract_z
 _atom_site_occupancy
  Ba  Ba0  1  0.55700452  0.19913334  0.66722266  1
  Ba  Ba1  1  0.18211527  0.51447414  0.81101422  1
  Ba  Ba2  1  0.64212882  0.44299548  0.00055566  1
  Ba  Ba3  1  0.48552586  0.66764013  0.47768022  1
  Ba  Ba4  1  0.33235987  0.81788473  0.14434722  1
  Ba  Ba5  1  0.80086666  0.35787118  0.33388866  1
  Y  Y6  1  0.15035381  0.00294398  0.88348364  1
  Y  Y7  1  0.85259016  0.84964619  0.21681664  1
  Y  Y8  1  0.99705602  0.14740984  0.55014964  1
  Cr  Cr9  1  0.63903911  0.99443068  0.88965899  1
  Cr  Cr10  1  0.77036517  0.74917352  0.72407511  1
  Cr  Cr11  1  0.25082648  0.02119265  0.39074111  1
  Cr  Cr12  1  0.35539057  0.36096089  0.22299199  1
  Cr  Cr13  1  0.97880735  0.22963483  0.05740811  1
  Cr  Cr14  1  0.00556932  0.64460943  0.55632499  1
  F  F15  1  0.69008531  0.10165636  0.02544057  1
  F  F16  1  0.50714757  0.71220906  0.92696696  1
  F  F17  1  0.41157205  0.30991469  0.35877357  1
  F  F18  1  0.09550483  0.42361586  0.47520166  1
  F  F19  1  0.54172170  0.27355459  0.17985161  1
  F  F20  1  0.92318691  0.62081947  0.18451023  1
  F  F21  1  0.57638414  0.67188897  0.14186866  1
  F  F22  1  0.37918053  0.30236744  0.85117723  1
  F  F23  1  0.73183189  0.45827830  0.51318461  1
  F  F24  1  0.26228081  0.34053349  0.08614387  1
  F  F25  1  0.32811103  0.90449517  0.80853566  1
  F  F26  1  0.89834364  0.58842795  0.69210757  1
  F  F27  1  0.33139211  0.02811262  0.00104980  1
  F  F28  1  0.03530749  0.49705089  0.02013087  1
  F  F29  1  0.69672051  0.66860789  0.33438280  1
  F  F30  1  0.28779094  0.79493851  0.59363296  1
  F  F31  1  0.99621243  0.16476225  0.89962563  1
  F  F32  1  0.07825267  0.73771919  0.41947687  1
  F  F33  1  0.00831864  0.05466822  0.39887173  1
  F  F34  1  0.97188738  0.30327949  0.66771580  1
  F  F35  1  0.04634958  0.99168136  0.73220573  1
  F  F36  1  0.50294911  0.53825659  0.68679787  1
  F  F37  1  0.46174341  0.96469251  0.35346387  1
  F  F38  1  0.16854881  0.00378757  0.23295863  1
  F  F39  1  0.65946651  0.92174733  0.75281087  1
  F  F40  1  0.72644541  0.26816811  0.84651861  1
  F  F41  1  0.20506149  0.49285243  0.26029996  1
  F  F42  1  0.91661966  0.70306600  0.88472545  1
  F  F43  1  0.78644634  0.08338034  0.21805845  1
  F  F44  1  0.94533178  0.95365042  0.06553873  1
  F  F45  1  0.69763256  0.07681309  0.51784323  1
  F  F46  1  0.83523775  0.83145119  0.56629163  1
  F  F47  1  0.29693400  0.21355366  0.55139145  1
