# generated using pymatgen
data_Cr3P3O13
_symmetry_space_group_name_H-M   'P 1'
_cell_length_a   6.25566896
_cell_length_b   7.44698837
_cell_length_c   10.53036699
_cell_angle_alpha   99.88949274
_cell_angle_beta   90.00000000
_cell_angle_gamma   90.00000000
_symmetry_Int_Tables_number   1
_chemical_formula_structural   Cr3P3O13
_chemical_formula_sum   'Cr6 P6 O26'
_cell_volume   483.27715295
_cell_formula_units_Z   2
loop_
 _symmetry_equiv_pos_site_id
 _symmetry_equiv_pos_as_xyz
  1  'x, y, z'
loop_
 _atom_site_type_symbol
 _atom_site_label
 _atom_site_symmetry_multiplicity
 _atom_site_fract_x
 _atom_site_fract_y
 _atom_site_fract_z
 _atom_site_occupancy
  Cr  Cr0  1  0.25000000  0.36979540  0.19535728  1
  Cr  Cr1  1  0.75000000  0.63020460  0.80464272  1
  Cr  Cr2  1  0.25000000  0.77517930  0.44411481  1
  Cr  Cr3  1  0.50000000  0.00000000  0.00000000  1
  Cr  Cr4  1  0.75000000  0.22482070  0.55588519  1
  Cr  Cr5  1  0.00000000  0.00000000  0.00000000  1
  P  P6  1  0.25000000  0.21350845  0.47597495  1
  P  P7  1  0.75000000  0.78649155  0.52402505  1
  P  P8  1  0.25000000  0.74428676  0.76614977  1
  P  P9  1  0.75000000  0.25571324  0.23385023  1
  P  P10  1  0.75000000  0.30424216  0.88042294  1
  P  P11  1  0.25000000  0.69575784  0.11957706  1
  O  O12  1  0.75000000  0.34682237  0.73891160  1
  O  O13  1  0.55368093  0.74108727  0.43621685  1
  O  O14  1  0.25000000  0.80367556  0.63464939  1
  O  O15  1  0.54604688  0.20675908  0.90931879  1
  O  O16  1  0.75000000  0.65871196  0.62447602  1
  O  O17  1  0.75000000  0.87192275  0.90828143  1
  O  O18  1  0.25000000  0.34128804  0.37552398  1
  O  O19  1  0.04604688  0.79324092  0.09068121  1
  O  O20  1  0.25000000  0.01353487  0.40346487  1
  O  O21  1  0.75000000  0.98646513  0.59653513  1
  O  O22  1  0.05364525  0.63055890  0.78915426  1
  O  O23  1  0.25000000  0.12807725  0.09171857  1
  O  O24  1  0.55364525  0.36944110  0.21084574  1
  O  O25  1  0.75000000  0.51130521  0.94991866  1
  O  O26  1  0.75000000  0.19632444  0.36535061  1
  O  O27  1  0.45395312  0.79324092  0.09068121  1
  O  O28  1  0.94631907  0.74108727  0.43621685  1
  O  O29  1  0.44631907  0.25891273  0.56378315  1
  O  O30  1  0.44635475  0.63055890  0.78915426  1
  O  O31  1  0.25000000  0.65317763  0.26108840  1
  O  O32  1  0.75000000  0.08041981  0.12352368  1
  O  O33  1  0.25000000  0.91958019  0.87647632  1
  O  O34  1  0.94635475  0.36944110  0.21084574  1
  O  O35  1  0.95395312  0.20675908  0.90931879  1
  O  O36  1  0.05368093  0.25891273  0.56378315  1
  O  O37  1  0.25000000  0.48869479  0.05008134  1
