# generated using pymatgen
data_Ca2MnNb2O8
_symmetry_space_group_name_H-M   'P 1'
_cell_length_a   5.53661910
_cell_length_b   6.36225014
_cell_length_c   10.19883124
_cell_angle_alpha   108.20347377
_cell_angle_beta   91.82972339
_cell_angle_gamma   89.95788621
_symmetry_Int_Tables_number   1
_chemical_formula_structural   Ca2MnNb2O8
_chemical_formula_sum   'Ca4 Mn2 Nb4 O16'
_cell_volume   341.08758224
_cell_formula_units_Z   2
loop_
 _symmetry_equiv_pos_site_id
 _symmetry_equiv_pos_as_xyz
  1  'x, y, z'
loop_
 _atom_site_type_symbol
 _atom_site_label
 _atom_site_symmetry_multiplicity
 _atom_site_fract_x
 _atom_site_fract_y
 _atom_site_fract_z
 _atom_site_occupancy
  Ca  Ca0  1  0.75884603  0.47804028  0.58773509  1
  Ca  Ca1  1  0.74355672  0.89098269  0.41749482  1
  Ca  Ca2  1  0.24493124  0.52758743  0.42341937  1
  Ca  Ca3  1  0.25724472  0.10622834  0.57873340  1
  Mn  Mn4  1  0.75182883  0.65313208  0.00122187  1
  Mn  Mn5  1  0.25084909  0.35233186  0.00222149  1
  Nb  Nb6  1  0.75560442  0.26749963  0.22953228  1
  Nb  Nb7  1  0.74619177  0.04217126  0.77396427  1
  Nb  Nb8  1  0.24670680  0.73691295  0.77562083  1
  Nb  Nb9  1  0.25614177  0.96044387  0.22703998  1
  O  O10  1  0.08595373  0.19628013  0.14595473  1
  O  O11  1  0.41595993  0.05415932  0.85711309  1
  O  O12  1  0.91351767  0.80493815  0.85548539  1
  O  O13  1  0.58906612  0.94882957  0.14708469  1
  O  O14  1  0.59199359  0.40931094  0.11852697  1
  O  O15  1  0.91000726  0.29495069  0.88500349  1
  O  O16  1  0.41223102  0.59640900  0.88687634  1
  O  O17  1  0.09239337  0.70752294  0.11502274  1
  O  O18  1  0.50454443  0.24502375  0.36817878  1
  O  O19  1  0.99634511  0.88049633  0.63451870  1
  O  O20  1  0.34645928  0.83041109  0.36941487  1
  O  O21  1  0.15655765  0.46401434  0.63324026  1
  O  O22  1  0.65481321  0.16522653  0.62889732  1
  O  O23  1  0.84659512  0.53577296  0.37497135  1
  O  O24  1  0.00792180  0.11921512  0.36796546  1
  O  O25  1  0.49379430  0.75558574  0.63450743  1
