# generated using pymatgen
data_Nb2Zn2CrO8
_symmetry_space_group_name_H-M   'P 1'
_cell_length_a   5.28711948
_cell_length_b   5.99633901
_cell_length_c   10.22717005
_cell_angle_alpha   106.99100718
_cell_angle_beta   90.80480146
_cell_angle_gamma   90.01035562
_symmetry_Int_Tables_number   1
_chemical_formula_structural   Nb2Zn2CrO8
_chemical_formula_sum   'Nb4 Zn4 Cr2 O16'
_cell_volume   310.04927761
_cell_formula_units_Z   2
loop_
 _symmetry_equiv_pos_site_id
 _symmetry_equiv_pos_as_xyz
  1  'x, y, z'
loop_
 _atom_site_type_symbol
 _atom_site_label
 _atom_site_symmetry_multiplicity
 _atom_site_fract_x
 _atom_site_fract_y
 _atom_site_fract_z
 _atom_site_occupancy
  Nb  Nb0  1  0.73216425  0.27488093  0.23124351  1
  Nb  Nb1  1  0.75984616  0.04188581  0.76744018  1
  Nb  Nb2  1  0.25988152  0.72449620  0.76728262  1
  Nb  Nb3  1  0.23225884  0.95354359  0.23146023  1
  Zn  Zn4  1  0.76246141  0.43610514  0.56131105  1
  Zn  Zn5  1  0.73458744  0.87256093  0.43990273  1
  Zn  Zn6  1  0.23434306  0.56370644  0.43876939  1
  Zn  Zn7  1  0.26253059  0.12404575  0.56088548  1
  Cr  Cr8  1  0.75669190  0.64786359  0.99836585  1
  Cr  Cr9  1  0.25677469  0.34852871  0.99844183  1
  O  O10  1  0.06447089  0.17936204  0.14422305  1
  O  O11  1  0.42735737  0.05003953  0.85893312  1
  O  O12  1  0.92761469  0.80753262  0.85896898  1
  O  O13  1  0.56427476  0.96249391  0.14395824  1
  O  O14  1  0.59338243  0.43327890  0.11301313  1
  O  O15  1  0.92568342  0.29855409  0.88299470  1
  O  O16  1  0.42548598  0.58264937  0.88272096  1
  O  O17  1  0.09333358  0.67736835  0.11303303  1
  O  O18  1  0.43500823  0.28439396  0.35890158  1
  O  O19  1  0.06193581  0.92367726  0.64213297  1
  O  O20  1  0.36342917  0.83965506  0.38912369  1
  O  O21  1  0.13511637  0.44985604  0.61218169  1
  O  O22  1  0.63465974  0.16193792  0.61249063  1
  O  O23  1  0.86289144  0.54634338  0.38905831  1
  O  O24  1  0.93506945  0.07092722  0.35885402  1
  O  O25  1  0.56262184  0.71808526  0.64231502  1
