# generated using pymatgen
data_ZrCl
_symmetry_space_group_name_H-M   'P 1'
_cell_length_a   3.36168184
_cell_length_b   3.36164775
_cell_length_c   9.61556321
_cell_angle_alpha   89.99989653
_cell_angle_beta   89.99898242
_cell_angle_gamma   119.99957030
_symmetry_Int_Tables_number   1
_chemical_formula_structural   ZrCl
_chemical_formula_sum   'Zr2 Cl2'
_cell_volume   94.10572647
_cell_formula_units_Z   2
loop_
 _symmetry_equiv_pos_site_id
 _symmetry_equiv_pos_as_xyz
  1  'x, y, z'
loop_
 _atom_site_type_symbol
 _atom_site_label
 _atom_site_symmetry_multiplicity
 _atom_site_fract_x
 _atom_site_fract_y
 _atom_site_fract_z
 _atom_site_occupancy
  Zr  Zr0  1  0.33331657  0.66665807  0.36888813  1
  Zr  Zr1  1  0.66668343  0.33334193  0.63111187  1
  Cl  Cl2  1  0.33332560  0.66666285  0.81926603  1
  Cl  Cl3  1  0.66667440  0.33333715  0.18073397  1
