# generated using pymatgen
data_PbS
_symmetry_space_group_name_H-M   'P 1'
_cell_length_a   4.24533506
_cell_length_b   4.24533506
_cell_length_c   11.31214503
_cell_angle_alpha   85.97736536
_cell_angle_beta   85.97736536
_cell_angle_gamma   90.00012291
_symmetry_Int_Tables_number   1
_chemical_formula_structural   PbS
_chemical_formula_sum   'Pb2 S2'
_cell_volume   202.87153308
_cell_formula_units_Z   2
loop_
 _symmetry_equiv_pos_site_id
 _symmetry_equiv_pos_as_xyz
  1  'x, y, z'
loop_
 _atom_site_type_symbol
 _atom_site_label
 _atom_site_symmetry_multiplicity
 _atom_site_fract_x
 _atom_site_fract_y
 _atom_site_fract_z
 _atom_site_occupancy
  Pb  Pb0  1  0.22617636  0.22617636  0.62509752  1
  Pb  Pb1  1  0.77382364  0.77382364  0.37490248  1
  S  S2  1  0.72892032  0.72892032  0.61411631  1
  S  S3  1  0.27107968  0.27107968  0.38588369  1
