# generated using pymatgen
data_Mn(InSe2)2
_symmetry_space_group_name_H-M   'P 1'
_cell_length_a   4.21196885
_cell_length_b   4.21196885
_cell_length_c   13.63219857
_cell_angle_alpha   81.11301037
_cell_angle_beta   81.11301037
_cell_angle_gamma   59.99998701
_symmetry_Int_Tables_number   1
_chemical_formula_structural   Mn(InSe2)2
_chemical_formula_sum   'Mn1 In2 Se4'
_cell_volume   206.08413194
_cell_formula_units_Z   1
loop_
 _symmetry_equiv_pos_site_id
 _symmetry_equiv_pos_as_xyz
  1  'x, y, z'
loop_
 _atom_site_type_symbol
 _atom_site_label
 _atom_site_symmetry_multiplicity
 _atom_site_fract_x
 _atom_site_fract_y
 _atom_site_fract_z
 _atom_site_occupancy
  Mn  Mn0  1  0.76748307  0.76748307  0.69755078  1
  In  In1  1  0.00288816  0.00288816  0.99133551  1
  In  In2  1  0.23364108  0.23364108  0.29907676  1
  Se  Se3  1  0.11690602  0.11690602  0.64928195  1
  Se  Se4  1  0.87314596  0.87314596  0.38056212  1
  Se  Se5  1  0.70312460  0.70312460  0.89062620  1
  Se  Se6  1  0.29881111  0.29881111  0.10356668  1
