# generated using pymatgen
data_CeMg3
_symmetry_space_group_name_H-M   'P 1'
_cell_length_a   3.18095020
_cell_length_b   11.48557936
_cell_length_c   6.00019889
_cell_angle_alpha   90.00000000
_cell_angle_beta   90.00000000
_cell_angle_gamma   90.00000000
_symmetry_Int_Tables_number   1
_chemical_formula_structural   CeMg3
_chemical_formula_sum   'Ce2 Mg6'
_cell_volume   219.21760223
_cell_formula_units_Z   2
loop_
 _symmetry_equiv_pos_site_id
 _symmetry_equiv_pos_as_xyz
  1  'x, y, z'
loop_
 _atom_site_type_symbol
 _atom_site_label
 _atom_site_symmetry_multiplicity
 _atom_site_fract_x
 _atom_site_fract_y
 _atom_site_fract_z
 _atom_site_occupancy
  Ce  Ce0  1  0.00000000  0.00000000  0.33678537  1
  Ce  Ce1  1  0.50000000  0.50000000  0.83678537  1
  Mg  Mg2  1  0.50000000  0.00000000  0.83306227  1
  Mg  Mg3  1  -0.00000000  0.24420308  0.99840918  1
  Mg  Mg4  1  0.50000000  0.25579692  0.49840918  1
  Mg  Mg5  1  0.00000000  0.50000000  0.33306227  1
  Mg  Mg6  1  0.50000000  0.74420308  0.49840918  1
  Mg  Mg7  1  -0.00000000  0.75579692  0.99840918  1
