# generated using pymatgen
data_Sr3Ca5Ti3Mn5O20
_symmetry_space_group_name_H-M   'P 1'
_cell_length_a   11.05294824
_cell_length_b   11.30016941
_cell_length_c   17.45693264
_cell_angle_alpha   108.83053474
_cell_angle_beta   108.44222098
_cell_angle_gamma   90.21113367
_symmetry_Int_Tables_number   1
_chemical_formula_structural   Sr3Ca5Ti3Mn5O20
_chemical_formula_sum   'Sr12 Ca20 Ti12 Mn20 O80'
_cell_volume   1944.05412230
_cell_formula_units_Z   4
loop_
 _symmetry_equiv_pos_site_id
 _symmetry_equiv_pos_as_xyz
  1  'x, y, z'
loop_
 _atom_site_type_symbol
 _atom_site_label
 _atom_site_symmetry_multiplicity
 _atom_site_fract_x
 _atom_site_fract_y
 _atom_site_fract_z
 _atom_site_occupancy
  Sr  Sr0  1  0.30540301  0.56083673  0.61341578  1
  Sr  Sr1  1  0.80933949  0.06147208  0.60929352  1
  Sr  Sr2  1  0.81266895  0.56322045  0.61287197  1
  Sr  Sr3  1  0.19111930  0.43379812  0.38484086  1
  Sr  Sr4  1  0.19523048  0.43908639  0.89098979  1
  Sr  Sr5  1  0.69625278  0.93277682  0.38365790  1
  Sr  Sr6  1  0.06117689  0.29895403  0.61083779  1
  Sr  Sr7  1  0.05804222  0.80191198  0.61364968  1
  Sr  Sr8  1  0.55799548  0.29913403  0.61297163  1
  Sr  Sr9  1  0.44272248  0.19850875  0.88617470  1
  Sr  Sr10  1  0.94667747  0.20130786  0.38583176  1
  Sr  Sr11  1  0.94930962  0.20381850  0.89084863  1
  Ca  Ca12  1  0.30202067  0.06938492  0.11211271  1
  Ca  Ca13  1  0.30141606  0.06586987  0.60748731  1
  Ca  Ca14  1  0.30136628  0.56487670  0.11467448  1
  Ca  Ca15  1  0.80278614  0.06723662  0.10774540  1
  Ca  Ca16  1  0.80563774  0.56793321  0.11241738  1
  Ca  Ca17  1  0.18833094  0.93347301  0.38687547  1
  Ca  Ca18  1  0.19619476  0.93508735  0.89372495  1
  Ca  Ca19  1  0.69999382  0.43354206  0.38816208  1
  Ca  Ca20  1  0.69600984  0.43835815  0.89124541  1
  Ca  Ca21  1  0.69161370  0.93295295  0.88846788  1
  Ca  Ca22  1  0.05675967  0.29285611  0.10993773  1
  Ca  Ca23  1  0.04978660  0.79716761  0.11276959  1
  Ca  Ca24  1  0.55059126  0.29189320  0.11042642  1
  Ca  Ca25  1  0.55791752  0.79368915  0.10999798  1
  Ca  Ca26  1  0.55749349  0.79607337  0.61046971  1
  Ca  Ca27  1  0.44456771  0.20566415  0.38773934  1
  Ca  Ca28  1  0.44496533  0.70454706  0.38738772  1
  Ca  Ca29  1  0.44416750  0.70667556  0.89107909  1
  Ca  Ca30  1  0.94076445  0.70300448  0.38722322  1
  Ca  Ca31  1  0.94454302  0.70656035  0.89410008  1
  Ti  Ti32  1  0.00285459  0.99954054  0.99918904  1
  Ti  Ti33  1  0.00439653  0.50031780  0.00403764  1
  Ti  Ti34  1  0.50392426  0.99937259  0.00211659  1
  Ti  Ti35  1  0.49958660  0.99802879  0.49770803  1
  Ti  Ti36  1  0.50401337  0.50259796  0.00265001  1
  Ti  Ti37  1  0.50287880  0.50025488  0.49674658  1
  Ti  Ti38  1  0.25599224  0.75306967  0.00792749  1
  Ti  Ti39  1  0.25377142  0.75123203  0.49882912  1
  Ti  Ti40  1  0.74977818  0.25235059  0.99958699  1
  Ti  Ti41  1  0.75191331  0.25082365  0.49706674  1
  Ti  Ti42  1  0.75442360  0.74950631  0.00030753  1
  Ti  Ti43  1  0.75339051  0.74705105  0.49632245  1
  Mn  Mn44  1  0.00470109  0.99592974  0.49643097  1
  Mn  Mn45  1  0.00143122  0.50040688  0.49684024  1
  Mn  Mn46  1  0.25774634  0.24963422  0.00316723  1
  Mn  Mn47  1  0.25393408  0.24693911  0.49839309  1
  Mn  Mn48  1  0.10961775  0.09207814  0.24682117  1
  Mn  Mn49  1  0.11436497  0.09288548  0.75526040  1
  Mn  Mn50  1  0.10878870  0.59696303  0.24872803  1
  Mn  Mn51  1  0.11375970  0.60467860  0.75710764  1
  Mn  Mn52  1  0.60262988  0.09704357  0.24667625  1
  Mn  Mn53  1  0.60644041  0.09395042  0.74836533  1
  Mn  Mn54  1  0.60703465  0.59000218  0.24731872  1
  Mn  Mn55  1  0.61257371  0.60357632  0.75309583  1
  Mn  Mn56  1  0.35886679  0.40395941  0.24836986  1
  Mn  Mn57  1  0.36875924  0.40733072  0.75330729  1
  Mn  Mn58  1  0.35702534  0.90496623  0.25058819  1
  Mn  Mn59  1  0.36753525  0.90271266  0.75048961  1
  Mn  Mn60  1  0.85125575  0.40309088  0.24424707  1
  Mn  Mn61  1  0.85969924  0.41014262  0.75382284  1
  Mn  Mn62  1  0.85897406  0.90381543  0.24465631  1
  Mn  Mn63  1  0.85674750  0.90027966  0.75104774  1
  O  O64  1  0.12673008  0.11432469  0.48950837  1
  O  O65  1  0.12486295  0.11302316  0.99078003  1
  O  O66  1  0.12264356  0.62566893  0.48831506  1
  O  O67  1  0.12626017  0.62663183  0.98963008  1
  O  O68  1  0.62242210  0.12193444  0.48506502  1
  O  O69  1  0.62907833  0.12032713  0.98807957  1
  O  O70  1  0.62304238  0.61595190  0.48291864  1
  O  O71  1  0.62730567  0.62135687  0.98549484  1
  O  O72  1  0.13587250  0.38918884  0.01976521  1
  O  O73  1  0.12605437  0.38190834  0.50427962  1
  O  O74  1  0.14285635  0.88063326  0.01742679  1
  O  O75  1  0.13779625  0.88142445  0.50943176  1
  O  O76  1  0.64138858  0.38107088  0.01751443  1
  O  O77  1  0.63482956  0.37793595  0.50798519  1
  O  O78  1  0.64290515  0.87960583  0.01710780  1
  O  O79  1  0.63312508  0.87026758  0.50767578  1
  O  O80  1  0.37493219  0.10643379  0.48317206  1
  O  O81  1  0.37692744  0.10683491  0.98619215  1
  O  O82  1  0.37689474  0.61980750  0.48503111  1
  O  O83  1  0.38048435  0.62098547  0.98902886  1
  O  O84  1  0.87700172  0.11600353  0.48998145  1
  O  O85  1  0.87541341  0.11567487  0.99109306  1
  O  O86  1  0.87290994  0.61653789  0.48688441  1
  O  O87  1  0.87458903  0.61671811  0.98583966  1
  O  O88  1  0.39230642  0.39116459  0.01719486  1
  O  O89  1  0.38513955  0.38130250  0.50626722  1
  O  O90  1  0.39146361  0.88244983  0.01520921  1
  O  O91  1  0.38863959  0.88184640  0.51379397  1
  O  O92  1  0.88840677  0.38776175  0.01792564  1
  O  O93  1  0.88106691  0.38029012  0.50583447  1
  O  O94  1  0.89352776  0.88510138  0.01790749  1
  O  O95  1  0.88493877  0.87570576  0.50681290  1
  O  O96  1  0.08401095  0.09271746  0.13133479  1
  O  O97  1  0.08410314  0.08303430  0.64041762  1
  O  O98  1  0.07864962  0.60285561  0.12781049  1
  O  O99  1  0.07495992  0.59170850  0.64172640  1
  O  O100  1  0.58342191  0.09592513  0.12513912  1
  O  O101  1  0.58049694  0.08488616  0.62442384  1
  O  O102  1  0.58870524  0.59713021  0.12702766  1
  O  O103  1  0.57487236  0.59133279  0.62492868  1
  O  O104  1  0.45056506  0.40518085  0.37053843  1
  O  O105  1  0.45854410  0.41132037  0.87695235  1
  O  O106  1  0.45016810  0.90185227  0.37155311  1
  O  O107  1  0.46331396  0.90635348  0.87532039  1
  O  O108  1  0.93309495  0.41223659  0.35756171  1
  O  O109  1  0.95240909  0.41388865  0.87688181  1
  O  O110  1  0.94841178  0.89768810  0.36288963  1
  O  O111  1  0.95406528  0.90556410  0.87622399  1
  O  O112  1  0.33415969  0.28091796  0.12704675  1
  O  O113  1  0.32413659  0.28843736  0.62811172  1
  O  O114  1  0.33419645  0.78028279  0.12811298  1
  O  O115  1  0.32904478  0.78697094  0.62530044  1
  O  O116  1  0.82869575  0.28698371  0.12864763  1
  O  O117  1  0.82345929  0.29669337  0.62725409  1
  O  O118  1  0.83462200  0.77736499  0.12528104  1
  O  O119  1  0.82271279  0.79031174  0.62577485  1
  O  O120  1  0.19186120  0.19786834  0.36500837  1
  O  O121  1  0.19331315  0.20882140  0.87320645  1
  O  O122  1  0.20454742  0.71556428  0.37253244  1
  O  O123  1  0.20498335  0.71582230  0.87430658  1
  O  O124  1  0.69616296  0.21305896  0.37135527  1
  O  O125  1  0.70013710  0.21927219  0.87572400  1
  O  O126  1  0.70329183  0.70557365  0.36985046  1
  O  O127  1  0.71158570  0.72427573  0.87659005  1
  O  O128  1  0.41430354  0.07921949  0.24853972  1
  O  O129  1  0.41701121  0.07421572  0.74210326  1
  O  O130  1  0.41967337  0.57828201  0.24875283  1
  O  O131  1  0.43021788  0.58325953  0.75916885  1
  O  O132  1  0.92567616  0.07212829  0.23918582  1
  O  O133  1  0.93458353  0.06973703  0.75145248  1
  O  O134  1  0.91974887  0.56843533  0.24822017  1
  O  O135  1  0.93650753  0.58590746  0.76154304  1
  O  O136  1  0.16806596  0.42113770  0.24050409  1
  O  O137  1  0.18456586  0.44331829  0.75287373  1
  O  O138  1  0.16831419  0.92329140  0.24838057  1
  O  O139  1  0.18629240  0.93476228  0.76177935  1
  O  O140  1  0.66968186  0.41311017  0.24601847  1
  O  O141  1  0.67601619  0.43230648  0.75863182  1
  O  O142  1  0.67161311  0.92550955  0.24024237  1
  O  O143  1  0.66953688  0.92140971  0.75197360  1
