# generated using pymatgen
data_NdSnAu
_symmetry_space_group_name_H-M   'P 1'
_cell_length_a   4.74625428
_cell_length_b   4.74625428
_cell_length_c   7.93426058
_cell_angle_alpha   90.00000000
_cell_angle_beta   90.00000000
_cell_angle_gamma   119.94862669
_symmetry_Int_Tables_number   1
_chemical_formula_structural   NdSnAu
_chemical_formula_sum   'Nd2 Sn2 Au2'
_cell_volume   154.86871088
_cell_formula_units_Z   2
loop_
 _symmetry_equiv_pos_site_id
 _symmetry_equiv_pos_as_xyz
  1  'x, y, z'
loop_
 _atom_site_type_symbol
 _atom_site_label
 _atom_site_symmetry_multiplicity
 _atom_site_fract_x
 _atom_site_fract_y
 _atom_site_fract_z
 _atom_site_occupancy
  Nd  Nd0  1  -0.00000000  -0.00000000  0.50000000  1
  Nd  Nd1  1  -0.00000000  -0.00000000  0.00000000  1
  Sn  Sn2  1  0.66666724  0.33333276  0.25000000  1
  Sn  Sn3  1  0.33333276  0.66666724  0.75000000  1
  Au  Au4  1  0.66672058  0.33327942  0.75000000  1
  Au  Au5  1  0.33327942  0.66672058  0.25000000  1
