# generated using pymatgen
data_Co(RhSe2)2
_symmetry_space_group_name_H-M   'P 1'
_cell_length_a   3.73044918
_cell_length_b   6.42991824
_cell_length_c   6.37955041
_cell_angle_alpha   119.05662314
_cell_angle_beta   107.00023503
_cell_angle_gamma   90.00000000
_symmetry_Int_Tables_number   1
_chemical_formula_structural   Co(RhSe2)2
_chemical_formula_sum   'Co1 Rh2 Se4'
_cell_volume   126.05950126
_cell_formula_units_Z   1
loop_
 _symmetry_equiv_pos_site_id
 _symmetry_equiv_pos_as_xyz
  1  'x, y, z'
loop_
 _atom_site_type_symbol
 _atom_site_label
 _atom_site_symmetry_multiplicity
 _atom_site_fract_x
 _atom_site_fract_y
 _atom_site_fract_z
 _atom_site_occupancy
  Co  Co0  1  0.00000000  0.00000000  0.00000000  1
  Rh  Rh1  1  0.73742191  0.72008415  0.47484383  1
  Rh  Rh2  1  0.26257809  0.27991585  0.52515617  1
  Se  Se3  1  0.62885133  0.97330690  0.25770265  1
  Se  Se4  1  0.37114867  0.02669310  0.74229735  1
  Se  Se5  1  0.88321352  0.55438780  0.76642704  1
  Se  Se6  1  0.11678648  0.44561220  0.23357296  1
