# generated using pymatgen
data_Sr2Ca2TiMn3O10
_symmetry_space_group_name_H-M   'P 1'
_cell_length_a   11.07984267
_cell_length_b   11.30657430
_cell_length_c   17.51972213
_cell_angle_alpha   108.77565657
_cell_angle_beta   108.52659986
_cell_angle_gamma   90.04427318
_symmetry_Int_Tables_number   1
_chemical_formula_structural   Sr2Ca2TiMn3O10
_chemical_formula_sum   'Sr16 Ca16 Ti8 Mn24 O80'
_cell_volume   1957.27938188
_cell_formula_units_Z   8
loop_
 _symmetry_equiv_pos_site_id
 _symmetry_equiv_pos_as_xyz
  1  'x, y, z'
loop_
 _atom_site_type_symbol
 _atom_site_label
 _atom_site_symmetry_multiplicity
 _atom_site_fract_x
 _atom_site_fract_y
 _atom_site_fract_z
 _atom_site_occupancy
  Sr  Sr0  1  0.30922787  0.56084494  0.61026100  1
  Sr  Sr1  1  0.80764441  0.06030643  0.60815442  1
  Sr  Sr2  1  0.81006569  0.56011821  0.61003103  1
  Sr  Sr3  1  0.19664465  0.43707211  0.38848400  1
  Sr  Sr4  1  0.19240384  0.43742159  0.88906263  1
  Sr  Sr5  1  0.69755886  0.43904730  0.38761017  1
  Sr  Sr6  1  0.69930502  0.93577766  0.38654803  1
  Sr  Sr7  1  0.69538863  0.93618073  0.88828689  1
  Sr  Sr8  1  0.06027937  0.29877633  0.60998491  1
  Sr  Sr9  1  0.06016904  0.79884786  0.60918682  1
  Sr  Sr10  1  0.55837064  0.30021187  0.61004225  1
  Sr  Sr11  1  0.55990744  0.79714038  0.60998287  1
  Sr  Sr12  1  0.44656035  0.20126363  0.38705416  1
  Sr  Sr13  1  0.44097972  0.19895911  0.88606718  1
  Sr  Sr14  1  0.94754252  0.19947368  0.38843522  1
  Sr  Sr15  1  0.94872530  0.20492760  0.88989251  1
  Ca  Ca16  1  0.30050666  0.07077973  0.10954405  1
  Ca  Ca17  1  0.30509032  0.06123163  0.60534950  1
  Ca  Ca18  1  0.30444923  0.56355961  0.11282990  1
  Ca  Ca19  1  0.80366048  0.06738996  0.10848108  1
  Ca  Ca20  1  0.80276601  0.56855527  0.11434104  1
  Ca  Ca21  1  0.19447113  0.93328854  0.39103236  1
  Ca  Ca22  1  0.19683924  0.93649201  0.89258314  1
  Ca  Ca23  1  0.69868607  0.43825004  0.89443444  1
  Ca  Ca24  1  0.05574969  0.28826316  0.10916052  1
  Ca  Ca25  1  0.05174932  0.80023457  0.11260100  1
  Ca  Ca26  1  0.54810558  0.29111247  0.10893394  1
  Ca  Ca27  1  0.55422677  0.79424215  0.10975555  1
  Ca  Ca28  1  0.44794692  0.70416668  0.39116044  1
  Ca  Ca29  1  0.44306571  0.70557391  0.89123110  1
  Ca  Ca30  1  0.94708671  0.70685294  0.39217650  1
  Ca  Ca31  1  0.94366199  0.70185224  0.89310514  1
  Ti  Ti32  1  0.00362272  0.99762425  0.99843616  1
  Ti  Ti33  1  0.00614281  0.50521578  0.00910701  1
  Ti  Ti34  1  0.50107273  0.99688652  0.00106825  1
  Ti  Ti35  1  0.50300268  0.99756878  0.49793408  1
  Ti  Ti36  1  0.50336874  0.50303402  0.00162496  1
  Ti  Ti37  1  0.25311347  0.75172581  0.00450342  1
  Ti  Ti38  1  0.75085865  0.25434954  0.00231908  1
  Ti  Ti39  1  0.75524092  0.74899348  0.00193937  1
  Mn  Mn40  1  0.00645028  0.99672680  0.49798919  1
  Mn  Mn41  1  0.00430132  0.50083660  0.49828317  1
  Mn  Mn42  1  0.50382887  0.50089570  0.49858472  1
  Mn  Mn43  1  0.25559994  0.25222456  0.00200305  1
  Mn  Mn44  1  0.25448750  0.24598697  0.49917525  1
  Mn  Mn45  1  0.25547341  0.75007455  0.49822456  1
  Mn  Mn46  1  0.75339403  0.24930907  0.49798701  1
  Mn  Mn47  1  0.75522891  0.74789522  0.49722692  1
  Mn  Mn48  1  0.10546059  0.09095340  0.24688768  1
  Mn  Mn49  1  0.11336550  0.09219081  0.75005224  1
  Mn  Mn50  1  0.10906570  0.59593393  0.24999943  1
  Mn  Mn51  1  0.11566832  0.60318639  0.75415488  1
  Mn  Mn52  1  0.60420669  0.09057049  0.24283939  1
  Mn  Mn53  1  0.60750719  0.10057787  0.74906797  1
  Mn  Mn54  1  0.60917891  0.59182489  0.24633455  1
  Mn  Mn55  1  0.61291662  0.59565847  0.75455622  1
  Mn  Mn56  1  0.35565033  0.40693399  0.24858623  1
  Mn  Mn57  1  0.36656788  0.40712377  0.75252068  1
  Mn  Mn58  1  0.35687186  0.90211719  0.24768139  1
  Mn  Mn59  1  0.36073968  0.90373100  0.74969231  1
  Mn  Mn60  1  0.85622559  0.40503056  0.24608576  1
  Mn  Mn61  1  0.85890784  0.41107099  0.75650363  1
  Mn  Mn62  1  0.86238544  0.90333085  0.24584768  1
  Mn  Mn63  1  0.86565175  0.90365357  0.75033109  1
  O  O64  1  0.12768006  0.11561405  0.49056986  1
  O  O65  1  0.12352030  0.11259079  0.99343464  1
  O  O66  1  0.12202752  0.62559381  0.48545819  1
  O  O67  1  0.12439904  0.62606609  0.98849706  1
  O  O68  1  0.62245207  0.11975356  0.49053694  1
  O  O69  1  0.62830172  0.12531533  0.99334106  1
  O  O70  1  0.62141244  0.62280264  0.48775185  1
  O  O71  1  0.62902517  0.62147722  0.98759771  1
  O  O72  1  0.13144351  0.39036593  0.01594705  1
  O  O73  1  0.13436777  0.37168790  0.50497334  1
  O  O74  1  0.14240367  0.88047981  0.01844484  1
  O  O75  1  0.13726031  0.88024376  0.50648630  1
  O  O76  1  0.64301517  0.38314573  0.01925311  1
  O  O77  1  0.63035091  0.37557338  0.50276998  1
  O  O78  1  0.64136370  0.87797690  0.01670689  1
  O  O79  1  0.63064787  0.87583602  0.50492963  1
  O  O80  1  0.37051700  0.11173116  0.48629571  1
  O  O81  1  0.37815012  0.10909316  0.99084335  1
  O  O82  1  0.37544283  0.62137841  0.48839048  1
  O  O83  1  0.37994914  0.62102673  0.98760794  1
  O  O84  1  0.87623781  0.12084408  0.49424545  1
  O  O85  1  0.87770952  0.11802459  0.99294321  1
  O  O86  1  0.87315095  0.62371022  0.48868664  1
  O  O87  1  0.87615270  0.61746523  0.98777384  1
  O  O88  1  0.39406698  0.39403266  0.01770472  1
  O  O89  1  0.37985215  0.37529153  0.50351794  1
  O  O90  1  0.39268328  0.88440796  0.01824873  1
  O  O91  1  0.38363936  0.88288676  0.50985742  1
  O  O92  1  0.88750011  0.38934055  0.01728978  1
  O  O93  1  0.87922857  0.37633855  0.50377222  1
  O  O94  1  0.89187756  0.88377448  0.01721443  1
  O  O95  1  0.88411937  0.87698715  0.50477787  1
  O  O96  1  0.08249904  0.08956167  0.13278401  1
  O  O97  1  0.08048378  0.07785342  0.63286295  1
  O  O98  1  0.07985491  0.60308549  0.12874972  1
  O  O99  1  0.07282546  0.58328471  0.63216132  1
  O  O100  1  0.58474447  0.09319299  0.12865879  1
  O  O101  1  0.57407461  0.08355637  0.62516646  1
  O  O102  1  0.58662058  0.60015773  0.12738721  1
  O  O103  1  0.57280648  0.57859875  0.63089566  1
  O  O104  1  0.43492741  0.41775011  0.36412760  1
  O  O105  1  0.46083085  0.41252475  0.87749580  1
  O  O106  1  0.44497817  0.90709779  0.36954306  1
  O  O107  1  0.45487471  0.90828979  0.87693929  1
  O  O108  1  0.93487761  0.41492891  0.36169471  1
  O  O109  1  0.94451204  0.41619748  0.87256977  1
  O  O110  1  0.94834642  0.90942874  0.36752300  1
  O  O111  1  0.95386899  0.90410334  0.87649337  1
  O  O112  1  0.33584442  0.29241646  0.13785647  1
  O  O113  1  0.32654850  0.28799481  0.63056057  1
  O  O114  1  0.33224271  0.77618968  0.12661530  1
  O  O115  1  0.32034079  0.79107171  0.62727941  1
  O  O116  1  0.83612957  0.28846613  0.13018331  1
  O  O117  1  0.82504739  0.30923019  0.64138078  1
  O  O118  1  0.83645928  0.77785046  0.12655407  1
  O  O119  1  0.82317169  0.79408638  0.62764900  1
  O  O120  1  0.18470712  0.19556560  0.36166729  1
  O  O121  1  0.19076611  0.20481880  0.86468973  1
  O  O122  1  0.20348422  0.71373551  0.36948292  1
  O  O123  1  0.20743625  0.72125577  0.87715059  1
  O  O124  1  0.68312378  0.18932259  0.35873493  1
  O  O125  1  0.69913891  0.21900846  0.87841678  1
  O  O126  1  0.69809366  0.70231796  0.36747164  1
  O  O127  1  0.71162751  0.71364761  0.87639824  1
  O  O128  1  0.42247706  0.06925990  0.23887745  1
  O  O129  1  0.42041042  0.07190589  0.74402023  1
  O  O130  1  0.42223917  0.56915128  0.24748140  1
  O  O131  1  0.43275889  0.58294185  0.75991955  1
  O  O132  1  0.92366243  0.07306471  0.23965755  1
  O  O133  1  0.93824187  0.07226444  0.75137743  1
  O  O134  1  0.92225053  0.57156191  0.24906615  1
  O  O135  1  0.93439550  0.57393115  0.76113619  1
  O  O136  1  0.17209936  0.41914465  0.23968921  1
  O  O137  1  0.18539090  0.43755864  0.75282151  1
  O  O138  1  0.17036560  0.92795589  0.24788374  1
  O  O139  1  0.18219251  0.93266513  0.76088797  1
  O  O140  1  0.67203452  0.41679143  0.23824208  1
  O  O141  1  0.68293467  0.42611635  0.76036654  1
  O  O142  1  0.67460820  0.92899557  0.23930880  1
  O  O143  1  0.68631020  0.93779474  0.75290113  1
