# generated using pymatgen
data_Sr3Ca5TiMn7O20
_symmetry_space_group_name_H-M   'P 1'
_cell_length_a   10.99893415
_cell_length_b   11.19898190
_cell_length_c   17.46731545
_cell_angle_alpha   108.75052380
_cell_angle_beta   108.35005400
_cell_angle_gamma   90.04036497
_symmetry_Int_Tables_number   1
_chemical_formula_structural   Sr3Ca5TiMn7O20
_chemical_formula_sum   'Sr12 Ca20 Ti4 Mn28 O80'
_cell_volume   1921.31062523
_cell_formula_units_Z   4
loop_
 _symmetry_equiv_pos_site_id
 _symmetry_equiv_pos_as_xyz
  1  'x, y, z'
loop_
 _atom_site_type_symbol
 _atom_site_label
 _atom_site_symmetry_multiplicity
 _atom_site_fract_x
 _atom_site_fract_y
 _atom_site_fract_z
 _atom_site_occupancy
  Sr  Sr0  1  0.31133174  0.56101602  0.60987462  1
  Sr  Sr1  1  0.80594421  0.05760616  0.60686671  1
  Sr  Sr2  1  0.80630183  0.56027585  0.60956619  1
  Sr  Sr3  1  0.19795254  0.43811970  0.38830043  1
  Sr  Sr4  1  0.20016493  0.44039645  0.89130190  1
  Sr  Sr5  1  0.69744540  0.93749468  0.38669892  1
  Sr  Sr6  1  0.05835634  0.29667476  0.60765867  1
  Sr  Sr7  1  0.05972660  0.80118170  0.60993624  1
  Sr  Sr8  1  0.55935711  0.29989263  0.60999664  1
  Sr  Sr9  1  0.44692781  0.20326492  0.88856403  1
  Sr  Sr10  1  0.94719724  0.19719885  0.38661202  1
  Sr  Sr11  1  0.94720144  0.20200895  0.88902657  1
  Ca  Ca12  1  0.30624995  0.06701730  0.11113859  1
  Ca  Ca13  1  0.30515613  0.05985934  0.60278666  1
  Ca  Ca14  1  0.31218590  0.56791102  0.11109711  1
  Ca  Ca15  1  0.80517069  0.06856007  0.10972505  1
  Ca  Ca16  1  0.80313528  0.56206420  0.11177456  1
  Ca  Ca17  1  0.19828819  0.93441187  0.39274959  1
  Ca  Ca18  1  0.19467439  0.93661899  0.89202459  1
  Ca  Ca19  1  0.69975524  0.43637103  0.39269519  1
  Ca  Ca20  1  0.69579846  0.43343301  0.89333504  1
  Ca  Ca21  1  0.69798511  0.93745248  0.89048552  1
  Ca  Ca22  1  0.05542010  0.29274277  0.10955228  1
  Ca  Ca23  1  0.05888285  0.79625159  0.11019482  1
  Ca  Ca24  1  0.55498396  0.29607177  0.10998037  1
  Ca  Ca25  1  0.55064948  0.79287296  0.10976840  1
  Ca  Ca26  1  0.55634737  0.79402017  0.60589920  1
  Ca  Ca27  1  0.45020908  0.20674151  0.39280279  1
  Ca  Ca28  1  0.44827046  0.70639103  0.39361871  1
  Ca  Ca29  1  0.44198096  0.70122078  0.89187777  1
  Ca  Ca30  1  0.95151206  0.70638686  0.39293751  1
  Ca  Ca31  1  0.94953024  0.70745187  0.89429233  1
  Ti  Ti32  1  0.00762406  0.00062304  0.00294971  1
  Ti  Ti33  1  0.00737434  0.50571434  0.00619319  1
  Ti  Ti34  1  0.50397045  0.99865626  0.99867951  1
  Ti  Ti35  1  0.75491767  0.74949112  0.00196945  1
  Mn  Mn36  1  0.00558132  0.99592253  0.49703305  1
  Mn  Mn37  1  0.00246102  0.49956692  0.49713327  1
  Mn  Mn38  1  0.50286082  0.99800566  0.49813759  1
  Mn  Mn39  1  0.50685573  0.50092771  0.00309906  1
  Mn  Mn40  1  0.50456672  0.50092186  0.49761896  1
  Mn  Mn41  1  0.25605726  0.25160695  0.00332662  1
  Mn  Mn42  1  0.25446119  0.24761298  0.49624096  1
  Mn  Mn43  1  0.25629125  0.75331195  0.00308138  1
  Mn  Mn44  1  0.25696773  0.75061417  0.49931737  1
  Mn  Mn45  1  0.75636875  0.25082675  0.00268338  1
  Mn  Mn46  1  0.75239000  0.24899276  0.49710050  1
  Mn  Mn47  1  0.75324562  0.74626158  0.49708850  1
  Mn  Mn48  1  0.11101877  0.08984284  0.24744624  1
  Mn  Mn49  1  0.11181733  0.09247719  0.74980856  1
  Mn  Mn50  1  0.11012128  0.59865408  0.24958545  1
  Mn  Mn51  1  0.11125235  0.59921381  0.75026883  1
  Mn  Mn52  1  0.60474817  0.09686778  0.24560187  1
  Mn  Mn53  1  0.60332650  0.09198824  0.74582269  1
  Mn  Mn54  1  0.60967379  0.59317633  0.25151491  1
  Mn  Mn55  1  0.61648938  0.60385663  0.75488680  1
  Mn  Mn56  1  0.36030639  0.40389890  0.24959703  1
  Mn  Mn57  1  0.36536046  0.40347061  0.74995774  1
  Mn  Mn58  1  0.35590699  0.90600974  0.25277097  1
  Mn  Mn59  1  0.36671647  0.90494921  0.75009511  1
  Mn  Mn60  1  0.85632238  0.40688431  0.25112033  1
  Mn  Mn61  1  0.86013591  0.40988453  0.75631116  1
  Mn  Mn62  1  0.86025444  0.89981154  0.24475901  1
  Mn  Mn63  1  0.85929798  0.90049983  0.75040534  1
  O  O64  1  0.12794768  0.11692800  0.49138605  1
  O  O65  1  0.12679964  0.12005077  0.99043108  1
  O  O66  1  0.12121411  0.62406742  0.48897550  1
  O  O67  1  0.12231952  0.62612632  0.99088221  1
  O  O68  1  0.61920435  0.12130578  0.48869873  1
  O  O69  1  0.62740415  0.11707542  0.99196762  1
  O  O70  1  0.62088305  0.61702626  0.48380567  1
  O  O71  1  0.62721851  0.62349429  0.98640663  1
  O  O72  1  0.13492606  0.38478487  0.01619200  1
  O  O73  1  0.13126473  0.37723212  0.50512608  1
  O  O74  1  0.13894830  0.88268081  0.01475843  1
  O  O75  1  0.13734581  0.88022518  0.50765557  1
  O  O76  1  0.63976857  0.37663471  0.01404633  1
  O  O77  1  0.62849200  0.37716139  0.50154404  1
  O  O78  1  0.64113821  0.88129707  0.01831617  1
  O  O79  1  0.62687127  0.87191334  0.50491868  1
  O  O80  1  0.37266230  0.11507478  0.48820812  1
  O  O81  1  0.37479849  0.11300633  0.99003380  1
  O  O82  1  0.37824679  0.62232689  0.48796582  1
  O  O83  1  0.37566826  0.62889508  0.99531759  1
  O  O84  1  0.87626008  0.11816218  0.49270741  1
  O  O85  1  0.87492537  0.11689745  0.99189447  1
  O  O86  1  0.87114383  0.61590259  0.48557724  1
  O  O87  1  0.87374735  0.61587523  0.98438475  1
  O  O88  1  0.38350498  0.38013771  0.01553142  1
  O  O89  1  0.38412697  0.37851959  0.50513456  1
  O  O90  1  0.38880407  0.88381246  0.01409177  1
  O  O91  1  0.38572213  0.88287281  0.51152872  1
  O  O92  1  0.88501884  0.38647675  0.01352109  1
  O  O93  1  0.87871364  0.37934143  0.50302358  1
  O  O94  1  0.89267827  0.88604115  0.01760272  1
  O  O95  1  0.88335416  0.87468199  0.50334362  1
  O  O96  1  0.08566056  0.09441967  0.12846507  1
  O  O97  1  0.07973009  0.07814216  0.63297244  1
  O  O98  1  0.07419727  0.59786326  0.12784656  1
  O  O99  1  0.07025970  0.58338119  0.63286101  1
  O  O100  1  0.57536655  0.09399232  0.12947310  1
  O  O101  1  0.57466974  0.08218267  0.63037020  1
  O  O102  1  0.58332270  0.59549977  0.13806131  1
  O  O103  1  0.57499922  0.59132642  0.63085194  1
  O  O104  1  0.43993480  0.41015440  0.36444200  1
  O  O105  1  0.44432470  0.41318882  0.86519436  1
  O  O106  1  0.43888828  0.90931384  0.36742527  1
  O  O107  1  0.45902167  0.90642930  0.87479330  1
  O  O108  1  0.93900188  0.41575398  0.36539617  1
  O  O109  1  0.94778873  0.41461837  0.87149212  1
  O  O110  1  0.94811800  0.90675346  0.36685418  1
  O  O111  1  0.95180446  0.90844235  0.87458180  1
  O  O112  1  0.33864404  0.28885484  0.14026251  1
  O  O113  1  0.32623880  0.29587671  0.63263437  1
  O  O114  1  0.33248921  0.79354804  0.14196517  1
  O  O115  1  0.32668011  0.79175585  0.62780637  1
  O  O116  1  0.83701052  0.29317309  0.14117905  1
  O  O117  1  0.82256328  0.30960046  0.63964395  1
  O  O118  1  0.83486379  0.77528148  0.12542101  1
  O  O119  1  0.81895420  0.79426845  0.62655367  1
  O  O120  1  0.19495443  0.20074099  0.36777618  1
  O  O121  1  0.18920372  0.20462295  0.86203867  1
  O  O122  1  0.20046307  0.71095362  0.37083476  1
  O  O123  1  0.19886778  0.71157216  0.86194321  1
  O  O124  1  0.68614530  0.19943697  0.36046622  1
  O  O125  1  0.68596944  0.20505985  0.85898028  1
  O  O126  1  0.69394525  0.70092245  0.36670401  1
  O  O127  1  0.70969921  0.72457561  0.87549873  1
  O  O128  1  0.42240086  0.07222917  0.24975616  1
  O  O129  1  0.42301451  0.07690217  0.74230095  1
  O  O130  1  0.42769081  0.57272445  0.24958732  1
  O  O131  1  0.43479958  0.57168288  0.75837493  1
  O  O132  1  0.92385531  0.06810884  0.23987539  1
  O  O133  1  0.93379566  0.06898632  0.74918817  1
  O  O134  1  0.92255741  0.56895645  0.24950589  1
  O  O135  1  0.93843488  0.57655707  0.75956352  1
  O  O136  1  0.18019564  0.42373624  0.24107581  1
  O  O137  1  0.18593515  0.43765850  0.75045944  1
  O  O138  1  0.17629908  0.91582781  0.24941101  1
  O  O139  1  0.18628544  0.93545125  0.75982569  1
  O  O140  1  0.67238920  0.42097942  0.24907033  1
  O  O141  1  0.68621796  0.43239101  0.75993835  1
  O  O142  1  0.67198607  0.93118611  0.24036324  1
  O  O143  1  0.67240480  0.92936521  0.75119378  1
