# generated using pymatgen
data_H3CBr
_symmetry_space_group_name_H-M   'P 1'
_cell_length_a   4.47054412
_cell_length_b   4.47054412
_cell_length_c   8.08227489
_cell_angle_alpha   90.00000000
_cell_angle_beta   90.00000000
_cell_angle_gamma   102.90813985
_symmetry_Int_Tables_number   1
_chemical_formula_structural   H3CBr
_chemical_formula_sum   'H6 C2 Br2'
_cell_volume   157.44848437
_cell_formula_units_Z   2
loop_
 _symmetry_equiv_pos_site_id
 _symmetry_equiv_pos_as_xyz
  1  'x, y, z'
loop_
 _atom_site_type_symbol
 _atom_site_label
 _atom_site_symmetry_multiplicity
 _atom_site_fract_x
 _atom_site_fract_y
 _atom_site_fract_z
 _atom_site_occupancy
  H  H0  1  0.44128963  0.44128963  0.86299954  1
  H  H1  1  0.55871037  0.55871037  0.36299954  1
  H  H2  1  0.76886702  0.50993392  -0.00097976  1
  H  H3  1  0.50993392  0.76886702  -0.00097976  1
  H  H4  1  0.23113298  0.49006608  0.49902024  1
  H  H5  1  0.49006608  0.23113298  0.49902024  1
  C  C6  1  0.61484021  0.61484021  0.92525448  1
  C  C7  1  0.38515979  0.38515979  0.42525448  1
  Br  Br8  1  0.86387097  0.86387097  0.75340549  1
  Br  Br9  1  0.13612903  0.13612903  0.25340549  1
