# generated using pymatgen
data_Te2Mo3W(Se2S)2
_symmetry_space_group_name_H-M   'P 1'
_cell_length_a   3.34337969
_cell_length_b   3.34332946
_cell_length_c   38.04026840
_cell_angle_alpha   89.99973916
_cell_angle_beta   90.00000000
_cell_angle_gamma   120.00050495
_symmetry_Int_Tables_number   1
_chemical_formula_structural   Te2Mo3W(Se2S)2
_chemical_formula_sum   'Te2 Mo3 W1 Se4 S2'
_cell_volume   368.24500873
_cell_formula_units_Z   1
loop_
 _symmetry_equiv_pos_site_id
 _symmetry_equiv_pos_as_xyz
  1  'x, y, z'
loop_
 _atom_site_type_symbol
 _atom_site_label
 _atom_site_symmetry_multiplicity
 _atom_site_fract_x
 _atom_site_fract_y
 _atom_site_fract_z
 _atom_site_occupancy
  Te  Te0  1  0.33335342  0.66670783  0.70740481  1
  Te  Te1  1  0.33335098  0.66670296  0.60770588  1
  Mo  Mo2  1  0.33331104  0.66662207  0.09391359  1
  Mo  Mo3  1  0.66669054  0.33338107  0.28179897  1
  Mo  Mo4  1  0.66668780  0.33337561  0.65756062  1
  W  W5  1  0.33330992  0.66661983  0.46963391  1
  Se  Se6  1  0.66664387  0.33328674  0.05018707  1
  Se  Se7  1  0.66664696  0.33329291  0.42572402  1
  Se  Se8  1  0.66664731  0.33329361  0.13765048  1
  Se  Se9  1  0.66664701  0.33329302  0.51357791  1
  S  S10  1  0.33335622  0.66671345  0.32179080  1
  S  S11  1  0.33335494  0.66671089  0.24179994  1
