# generated using pymatgen
data_Sr2ZrCrO6
_symmetry_space_group_name_H-M   'P 1'
_cell_length_a   5.68932939
_cell_length_b   5.68932939
_cell_length_c   5.68932939
_cell_angle_alpha   90.40562647
_cell_angle_beta   119.76608843
_cell_angle_gamma   119.76608843
_symmetry_Int_Tables_number   1
_chemical_formula_structural   Sr2ZrCrO6
_chemical_formula_sum   'Sr2 Zr1 Cr1 O6'
_cell_volume   130.67401147
_cell_formula_units_Z   1
loop_
 _symmetry_equiv_pos_site_id
 _symmetry_equiv_pos_as_xyz
  1  'x, y, z'
loop_
 _atom_site_type_symbol
 _atom_site_label
 _atom_site_symmetry_multiplicity
 _atom_site_fract_x
 _atom_site_fract_y
 _atom_site_fract_z
 _atom_site_occupancy
  Sr  Sr0  1  0.50000000  0.25000000  0.75000000  1
  Sr  Sr1  1  0.50000000  0.75000000  0.25000000  1
  Zr  Zr2  1  0.00000000  0.50000000  0.50000000  1
  Cr  Cr3  1  0.00000000  -0.00000000  -0.00000000  1
  O  O4  1  0.00000000  0.24002436  0.24002436  1
  O  O5  1  -0.00000000  0.75997564  0.75997564  1
  O  O6  1  0.48282762  0.24141381  0.24141381  1
  O  O7  1  0.51717238  0.75858619  0.75858619  1
  O  O8  1  -0.00000000  0.75858619  0.24141381  1
  O  O9  1  0.00000000  0.24141381  0.75858619  1
