# generated using pymatgen
data_Mg16Al13
_symmetry_space_group_name_H-M   'P 1'
_cell_length_a   10.52498579
_cell_length_b   10.52498579
_cell_length_c   10.52498579
_cell_angle_alpha   90.00000000
_cell_angle_beta   90.00000000
_cell_angle_gamma   90.00000000
_symmetry_Int_Tables_number   1
_chemical_formula_structural   Mg16Al13
_chemical_formula_sum   'Mg32 Al26'
_cell_volume   1165.90873077
_cell_formula_units_Z   2
loop_
 _symmetry_equiv_pos_site_id
 _symmetry_equiv_pos_as_xyz
  1  'x, y, z'
loop_
 _atom_site_type_symbol
 _atom_site_label
 _atom_site_symmetry_multiplicity
 _atom_site_fract_x
 _atom_site_fract_y
 _atom_site_fract_z
 _atom_site_occupancy
  Mg  Mg0  1  0.14312654  0.45943091  0.85687346  1
  Mg  Mg1  1  0.85687346  0.45943091  0.14312654  1
  Mg  Mg2  1  0.35687346  0.35687346  0.04056909  1
  Mg  Mg3  1  0.04056909  0.35687346  0.35687346  1
  Mg  Mg4  1  0.45943091  0.85687346  0.14312654  1
  Mg  Mg5  1  0.64312654  0.35687346  0.95943091  1
  Mg  Mg6  1  0.32773447  0.32773447  0.32773447  1
  Mg  Mg7  1  0.67226553  0.32773447  0.67226553  1
  Mg  Mg8  1  0.17226553  0.17226553  0.82773447  1
  Mg  Mg9  1  0.32773447  0.67226553  0.67226553  1
  Mg  Mg10  1  0.45943091  0.14312654  0.85687346  1
  Mg  Mg11  1  0.14312654  0.14312654  0.54056909  1
  Mg  Mg12  1  0.85687346  0.14312654  0.45943091  1
  Mg  Mg13  1  0.54056909  0.14312654  0.14312654  1
  Mg  Mg14  1  0.35687346  0.04056909  0.35687346  1
  Mg  Mg15  1  0.14312654  0.54056909  0.14312654  1
  Mg  Mg16  1  0.64312654  0.95943091  0.35687346  1
  Mg  Mg17  1  0.35687346  0.95943091  0.64312654  1
  Mg  Mg18  1  0.85687346  0.85687346  0.54056909  1
  Mg  Mg19  1  0.54056909  0.85687346  0.85687346  1
  Mg  Mg20  1  0.95943091  0.35687346  0.64312654  1
  Mg  Mg21  1  0.14312654  0.85687346  0.45943091  1
  Mg  Mg22  1  0.82773447  0.82773447  0.82773447  1
  Mg  Mg23  1  0.17226553  0.82773447  0.17226553  1
  Mg  Mg24  1  0.67226553  0.67226553  0.32773447  1
  Mg  Mg25  1  0.82773447  0.17226553  0.17226553  1
  Mg  Mg26  1  0.95943091  0.64312654  0.35687346  1
  Mg  Mg27  1  0.64312654  0.64312654  0.04056909  1
  Mg  Mg28  1  0.35687346  0.64312654  0.95943091  1
  Mg  Mg29  1  0.04056909  0.64312654  0.64312654  1
  Mg  Mg30  1  0.85687346  0.54056909  0.85687346  1
  Mg  Mg31  1  0.64312654  0.04056909  0.64312654  1
  Al  Al32  1  -0.00000000  0.00000000  -0.00000000  1
  Al  Al33  1  0.40879962  0.40879962  0.77598195  1
  Al  Al34  1  0.72401805  0.90879962  0.09120038  1
  Al  Al35  1  0.77598195  0.40879962  0.40879962  1
  Al  Al36  1  0.59120038  0.40879962  0.22401805  1
  Al  Al37  1  0.09120038  0.27598195  0.09120038  1
  Al  Al38  1  0.40879962  0.77598195  0.40879962  1
  Al  Al39  1  0.90879962  0.72401805  0.09120038  1
  Al  Al40  1  0.09120038  0.72401805  0.90879962  1
  Al  Al41  1  0.27598195  0.09120038  0.09120038  1
  Al  Al42  1  0.09120038  0.09120038  0.27598195  1
  Al  Al43  1  0.90879962  0.09120038  0.72401805  1
  Al  Al44  1  0.72401805  0.09120038  0.90879962  1
  Al  Al45  1  0.50000000  0.50000000  0.50000000  1
  Al  Al46  1  0.90879962  0.90879962  0.27598195  1
  Al  Al47  1  0.22401805  0.40879962  0.59120038  1
  Al  Al48  1  0.27598195  0.90879962  0.90879962  1
  Al  Al49  1  0.09120038  0.90879962  0.72401805  1
  Al  Al50  1  0.59120038  0.77598195  0.59120038  1
  Al  Al51  1  0.90879962  0.27598195  0.90879962  1
  Al  Al52  1  0.40879962  0.22401805  0.59120038  1
  Al  Al53  1  0.59120038  0.22401805  0.40879962  1
  Al  Al54  1  0.77598195  0.59120038  0.59120038  1
  Al  Al55  1  0.59120038  0.59120038  0.77598195  1
  Al  Al56  1  0.40879962  0.59120038  0.22401805  1
  Al  Al57  1  0.22401805  0.59120038  0.40879962  1
