# generated using pymatgen
data_MgGa2
_symmetry_space_group_name_H-M   'P 1'
_cell_length_a   10.76129156
_cell_length_b   3.17925316
_cell_length_c   7.22768950
_cell_angle_alpha   90.00000000
_cell_angle_beta   109.49327469
_cell_angle_gamma   90.00000000
_symmetry_Int_Tables_number   1
_chemical_formula_structural   MgGa2
_chemical_formula_sum   'Mg4 Ga8'
_cell_volume   233.10607782
_cell_formula_units_Z   4
loop_
 _symmetry_equiv_pos_site_id
 _symmetry_equiv_pos_as_xyz
  1  'x, y, z'
loop_
 _atom_site_type_symbol
 _atom_site_label
 _atom_site_symmetry_multiplicity
 _atom_site_fract_x
 _atom_site_fract_y
 _atom_site_fract_z
 _atom_site_occupancy
  Mg  Mg0  1  0.18880525  -0.00000000  0.64747650  1
  Mg  Mg1  1  0.31119475  0.50000000  0.35252350  1
  Mg  Mg2  1  0.68880525  0.50000000  0.64747650  1
  Mg  Mg3  1  0.81119475  -0.00000000  0.35252350  1
  Ga  Ga4  1  0.36590035  0.50000000  0.97404604  1
  Ga  Ga5  1  0.47320041  0.00000000  0.70386847  1
  Ga  Ga6  1  0.02679959  0.50000000  0.29613153  1
  Ga  Ga7  1  0.13409965  0.00000000  0.02595396  1
  Ga  Ga8  1  0.86590035  -0.00000000  0.97404604  1
  Ga  Ga9  1  0.97320041  0.50000000  0.70386847  1
  Ga  Ga10  1  0.52679959  0.00000000  0.29613153  1
  Ga  Ga11  1  0.63409965  0.50000000  0.02595396  1
