# generated using pymatgen
data_TiSiAg2O5
_symmetry_space_group_name_H-M   'P 1'
_cell_length_a   5.52764753
_cell_length_b   6.55907177
_cell_length_c   6.55907177
_cell_angle_alpha   90.00000000
_cell_angle_beta   90.00000000
_cell_angle_gamma   90.00000000
_symmetry_Int_Tables_number   1
_chemical_formula_structural   TiSiAg2O5
_chemical_formula_sum   'Ti2 Si2 Ag4 O10'
_cell_volume   237.80725973
_cell_formula_units_Z   2
loop_
 _symmetry_equiv_pos_site_id
 _symmetry_equiv_pos_as_xyz
  1  'x, y, z'
loop_
 _atom_site_type_symbol
 _atom_site_label
 _atom_site_symmetry_multiplicity
 _atom_site_fract_x
 _atom_site_fract_y
 _atom_site_fract_z
 _atom_site_occupancy
  Ti  Ti0  1  0.93691780  0.50000000  -0.00000000  1
  Ti  Ti1  1  0.06308220  0.00000000  0.50000000  1
  Si  Si2  1  -0.00000000  0.50000000  0.50000000  1
  Si  Si3  1  -0.00000000  0.00000000  -0.00000000  1
  Ag  Ag4  1  0.50000000  0.25000000  0.25000000  1
  Ag  Ag5  1  0.50000000  0.75000000  0.75000000  1
  Ag  Ag6  1  0.50000000  0.75000000  0.25000000  1
  Ag  Ag7  1  0.50000000  0.25000000  0.75000000  1
  O  O8  1  0.83170451  0.50000000  0.29249279  1
  O  O9  1  0.83170451  0.50000000  0.70750721  1
  O  O10  1  0.16829549  0.00000000  0.79249279  1
  O  O11  1  0.16829549  0.00000000  0.20750721  1
  O  O12  1  0.16829549  0.70750721  0.50000000  1
  O  O13  1  0.16829549  0.29249279  0.50000000  1
  O  O14  1  0.83170451  0.20750721  -0.00000000  1
  O  O15  1  0.83170451  0.79249279  -0.00000000  1
  O  O16  1  0.24655340  0.50000000  -0.00000000  1
  O  O17  1  0.75344660  0.00000000  0.50000000  1
