# generated using pymatgen
data_Tm2Si2O7
_symmetry_space_group_name_H-M   'P 1'
_cell_length_a   6.61779306
_cell_length_b   6.60222267
_cell_length_c   35.81730872
_cell_angle_alpha   84.44852748
_cell_angle_beta   88.11062557
_cell_angle_gamma   87.85708078
_symmetry_Int_Tables_number   1
_chemical_formula_structural   Tm2Si2O7
_chemical_formula_sum   'Tm24 Si24 O84'
_cell_volume   1555.82772960
_cell_formula_units_Z   12
loop_
 _symmetry_equiv_pos_site_id
 _symmetry_equiv_pos_as_xyz
  1  'x, y, z'
loop_
 _atom_site_type_symbol
 _atom_site_label
 _atom_site_symmetry_multiplicity
 _atom_site_fract_x
 _atom_site_fract_y
 _atom_site_fract_z
 _atom_site_occupancy
  Tm  Tm0  1  0.11795075  0.64839932  0.04652977  1
  Tm  Tm1  1  0.15141133  0.12267833  0.19997109  1
  Tm  Tm2  1  0.11879459  0.64303331  0.54666450  1
  Tm  Tm3  1  0.12094398  0.09610343  0.69658079  1
  Tm  Tm4  1  0.19456196  0.47152083  0.37001565  1
  Tm  Tm5  1  0.19880255  0.46561284  0.86928125  1
  Tm  Tm6  1  0.38520928  0.65460519  0.45280615  1
  Tm  Tm7  1  0.38438503  0.65058638  0.95336963  1
  Tm  Tm8  1  0.41737585  0.61112483  0.20639711  1
  Tm  Tm9  1  0.45433953  0.62297596  0.70574775  1
  Tm  Tm10  1  0.45210121  0.95982179  0.36884571  1
  Tm  Tm11  1  0.45598451  0.95975859  0.87053233  1
  Tm  Tm12  1  0.54401549  0.04024141  0.12946767  1
  Tm  Tm13  1  0.54789879  0.04017821  0.63115429  1
  Tm  Tm14  1  0.54566047  0.37702404  0.29425225  1
  Tm  Tm15  1  0.58262415  0.38887517  0.79360289  1
  Tm  Tm16  1  0.61561497  0.34941362  0.04663037  1
  Tm  Tm17  1  0.61479072  0.34539481  0.54719385  1
  Tm  Tm18  1  0.80119745  0.53438716  0.13071875  1
  Tm  Tm19  1  0.80543804  0.52847917  0.62998435  1
  Tm  Tm20  1  0.87905602  0.90389657  0.30341921  1
  Tm  Tm21  1  0.88120541  0.35696669  0.45333550  1
  Tm  Tm22  1  0.84858867  0.87732167  0.80002891  1
  Tm  Tm23  1  0.88204925  0.35160068  0.95347023  1
  Si  Si24  1  0.00067432  0.04964904  0.10735198  1
  Si  Si25  1  0.99941404  0.04388898  0.60648524  1
  Si  Si26  1  0.03504684  0.39501176  0.27667885  1
  Si  Si27  1  0.12068773  0.18284321  0.03063478  1
  Si  Si28  1  0.09030226  0.26963248  0.77956074  1
  Si  Si29  1  0.12131246  0.18070357  0.53024754  1
  Si  Si30  1  0.33720187  0.51051261  0.12867695  1
  Si  Si31  1  0.34951102  0.86149126  0.29009893  1
  Si  Si32  1  0.33629388  0.50716239  0.63064957  1
  Si  Si33  1  0.37048057  0.17710533  0.45869953  1
  Si  Si34  1  0.35140781  0.86649429  0.79167201  1
  Si  Si35  1  0.36904610  0.17507194  0.95910002  1
  Si  Si36  1  0.63095390  0.82492806  0.04089998  1
  Si  Si37  1  0.64859219  0.13350571  0.20832799  1
  Si  Si38  1  0.62951943  0.82289467  0.54130047  1
  Si  Si39  1  0.66370612  0.49283761  0.36935043  1
  Si  Si40  1  0.65048898  0.13850874  0.70990107  1
  Si  Si41  1  0.66279813  0.48948739  0.87132305  1
  Si  Si42  1  0.87868754  0.81929643  0.46975246  1
  Si  Si43  1  0.90969774  0.73036752  0.22043926  1
  Si  Si44  1  0.87931227  0.81715679  0.96936522  1
  Si  Si45  1  0.96495316  0.60498824  0.72332115  1
  Si  Si46  1  0.00058596  0.95611102  0.39351476  1
  Si  Si47  1  0.99932568  0.95035096  0.89264802  1
  O  O48  1  0.08781194  0.98782284  0.06335798  1
  O  O49  1  0.08477750  0.69334644  0.48416780  1
  O  O50  1  0.12441947  0.37340200  0.23474907  1
  O  O51  1  0.08947250  0.98445114  0.56289814  1
  O  O52  1  0.08535425  0.69239014  0.98411179  1
  O  O53  1  0.12713967  0.78371267  0.20106294  1
  O  O54  1  0.13203605  0.58102149  0.10702415  1
  O  O55  1  0.08184006  0.36679388  0.73448982  1
  O  O56  1  0.15987375  0.12621573  0.37701947  1
  O  O57  1  0.12816723  0.74275382  0.40581968  1
  O  O58  1  0.14347727  0.75824679  0.70780729  1
  O  O59  1  0.13681142  0.58301115  0.60734242  1
  O  O60  1  0.16888111  0.98488389  0.26723320  1
  O  O61  1  0.15721578  0.12336044  0.87615127  1
  O  O62  1  0.13232308  0.74026625  0.90525315  1
  O  O63  1  0.18998404  0.07411081  0.13365984  1
  O  O64  1  0.18157679  0.03037053  0.76991624  1
  O  O65  1  0.18457676  0.06217297  0.63453632  1
  O  O66  1  0.22335539  0.07763419  0.49390278  1
  O  O67  1  0.24208876  0.77833597  0.33155884  1
  O  O68  1  0.20019861  0.40382179  0.30904201  1
  O  O69  1  0.22351149  0.36025805  0.43713671  1
  O  O70  1  0.22180091  0.07738981  0.99437752  1
  O  O71  1  0.23152493  0.77000349  0.82987062  1
  O  O72  1  0.27181644  0.34939013  0.04281004  1
  O  O73  1  0.24033110  0.37285850  0.80591320  1
  O  O74  1  0.22271176  0.35657080  0.93700709  1
  O  O75  1  0.29854788  0.38981797  0.16974585  1
  O  O76  1  0.27261576  0.34542778  0.54307621  1
  O  O77  1  0.28704211  0.39093840  0.67179941  1
  O  O78  1  0.45120347  0.69548418  0.02427110  1
  O  O79  1  0.45166025  0.68269173  0.26564547  1
  O  O80  1  0.44228324  0.99090414  0.43439540  1
  O  O81  1  0.44977780  0.69433080  0.52442830  1
  O  O82  1  0.44762906  0.69960236  0.76533326  1
  O  O83  1  0.47814615  0.69810971  0.13911883  1
  O  O84  1  0.47260758  0.99085561  0.19349158  1
  O  O85  1  0.44188131  0.98826826  0.93503553  1
  O  O86  1  0.50034891  0.37480120  0.10482037  1
  O  O87  1  0.50271311  0.62929317  0.39399084  1
  O  O88  1  0.52644249  0.00918207  0.30462800  1
  O  O89  1  0.48374328  0.69266961  0.64088110  1
  O  O90  1  0.51625672  0.30733039  0.35911890  1
  O  O91  1  0.47355751  0.99081793  0.69537200  1
  O  O92  1  0.49728689  0.37070683  0.60600916  1
  O  O93  1  0.49965109  0.62519880  0.89517963  1
  O  O94  1  0.55811869  0.01173174  0.06496447  1
  O  O95  1  0.52739242  0.00914439  0.80650842  1
  O  O96  1  0.52185385  0.30189029  0.86088117  1
  O  O97  1  0.55237094  0.30039764  0.23466674  1
  O  O98  1  0.55022220  0.30566920  0.47557170  1
  O  O99  1  0.55771676  0.00909586  0.56560460  1
  O  O100  1  0.54833975  0.31730827  0.73435453  1
  O  O101  1  0.54879653  0.30451582  0.97572890  1
  O  O102  1  0.71295789  0.60906160  0.32820059  1
  O  O103  1  0.72738424  0.65457222  0.45692379  1
  O  O104  1  0.70145212  0.61018203  0.83025415  1
  O  O105  1  0.77728824  0.64342920  0.06299291  1
  O  O106  1  0.75966890  0.62714150  0.19408680  1
  O  O107  1  0.72818356  0.65060987  0.95718996  1
  O  O108  1  0.76847507  0.22999651  0.17012938  1
  O  O109  1  0.77819909  0.92261019  0.00562248  1
  O  O110  1  0.77648851  0.63974195  0.56286329  1
  O  O111  1  0.79980139  0.59617821  0.69095799  1
  O  O112  1  0.75791124  0.22166403  0.66844116  1
  O  O113  1  0.77664461  0.92236581  0.50609722  1
  O  O114  1  0.81542324  0.93782703  0.36546368  1
  O  O115  1  0.81842321  0.96962947  0.23008376  1
  O  O116  1  0.81001596  0.92588919  0.86634016  1
  O  O117  1  0.86767692  0.25973375  0.09474685  1
  O  O118  1  0.84278422  0.87663956  0.12384873  1
  O  O119  1  0.83111889  0.01511611  0.73276680  1
  O  O120  1  0.86318858  0.41698885  0.39265758  1
  O  O121  1  0.85652273  0.24175321  0.29219271  1
  O  O122  1  0.87183277  0.25724618  0.59418032  1
  O  O123  1  0.84012625  0.87378427  0.62298053  1
  O  O124  1  0.91815994  0.63320612  0.26551018  1
  O  O125  1  0.86796395  0.41897851  0.89297585  1
  O  O126  1  0.87286033  0.21628733  0.79893706  1
  O  O127  1  0.91464575  0.30760986  0.01588821  1
  O  O128  1  0.91052750  0.01554886  0.43710186  1
  O  O129  1  0.87558053  0.62659800  0.76525093  1
  O  O130  1  0.91522250  0.30665356  0.51583220  1
  O  O131  1  0.91218806  0.01217716  0.93664202  1
