# generated using pymatgen
data_Zn2Ni11O13
_symmetry_space_group_name_H-M   'P 1'
_cell_length_a   3.00033943
_cell_length_b   19.67506714
_cell_length_c   4.23952417
_cell_angle_alpha   96.18553983
_cell_angle_beta   90.00014586
_cell_angle_gamma   85.62703970
_symmetry_Int_Tables_number   1
_chemical_formula_structural   Zn2Ni11O13
_chemical_formula_sum   'Zn2 Ni11 O13'
_cell_volume   248.07723370
_cell_formula_units_Z   1
loop_
 _symmetry_equiv_pos_site_id
 _symmetry_equiv_pos_as_xyz
  1  'x, y, z'
loop_
 _atom_site_type_symbol
 _atom_site_label
 _atom_site_symmetry_multiplicity
 _atom_site_fract_x
 _atom_site_fract_y
 _atom_site_fract_z
 _atom_site_occupancy
  Zn  Zn0  1  0.69227762  0.61543101  0.30770272  1
  Zn  Zn1  1  0.00002076  0.99995245  0.99997736  1
  Ni  Ni2  1  0.53860920  0.92272106  0.46134025  1
  Ni  Ni3  1  0.61498726  0.77003725  0.38502219  1
  Ni  Ni4  1  0.76966450  0.46067506  0.23033896  1
  Ni  Ni5  1  0.84613303  0.30769010  0.15387555  1
  Ni  Ni6  1  0.92264461  0.15471031  0.07737233  1
  Ni  Ni7  1  0.07732782  0.84534362  0.92265574  1
  Ni  Ni8  1  0.23098481  0.53806222  0.76902282  1
  Ni  Ni9  1  0.15368244  0.69267745  0.84631783  1
  Ni  Ni10  1  0.38457937  0.23083371  0.61541937  1
  Ni  Ni11  1  0.46137171  0.07731231  0.53867728  1
  Ni  Ni12  1  0.30773434  0.38454157  0.69225742  1
  O  O13  1  0.30791193  0.38415798  0.19208957  1
  O  O14  1  0.07671015  0.84656842  0.42328477  1
  O  O15  1  0.46051081  0.07900433  0.03951876  1
  O  O16  1  0.15287630  0.69425977  0.34713881  1
  O  O17  1  0.38437473  0.23122463  0.11560688  1
  O  O18  1  0.23181109  0.53638043  0.26818706  1
  O  O19  1  0.53942310  0.92112706  0.96054782  1
  O  O20  1  0.84614240  0.30769449  0.65384569  1
  O  O21  1  0.99995374  0.00009210  0.50004770  1
  O  O22  1  0.61560194  0.76881678  0.88441715  1
  O  O23  1  0.92300698  0.15399580  0.57699726  1
  O  O24  1  0.69236009  0.61529501  0.80763645  1
  O  O25  1  0.76929825  0.46139607  0.73070328  1
