# generated using pymatgen
data_Ca5Mg
_symmetry_space_group_name_H-M   'P 1'
_cell_length_a   6.14665485
_cell_length_b   3.83616067
_cell_length_c   19.64476381
_cell_angle_alpha   90.00000000
_cell_angle_beta   90.00000000
_cell_angle_gamma   90.00000000
_symmetry_Int_Tables_number   1
_chemical_formula_structural   Ca5Mg
_chemical_formula_sum   'Ca10 Mg2'
_cell_volume   463.21480026
_cell_formula_units_Z   2
loop_
 _symmetry_equiv_pos_site_id
 _symmetry_equiv_pos_as_xyz
  1  'x, y, z'
loop_
 _atom_site_type_symbol
 _atom_site_label
 _atom_site_symmetry_multiplicity
 _atom_site_fract_x
 _atom_site_fract_y
 _atom_site_fract_z
 _atom_site_occupancy
  Ca  Ca0  1  0.00000000  0.00000000  0.99922353  1
  Ca  Ca1  1  0.00000000  0.00000000  0.67118301  1
  Ca  Ca2  1  0.00000000  0.50000000  0.83000666  1
  Ca  Ca3  1  0.50000000  0.00000000  0.87881150  1
  Ca  Ca4  1  0.50000000  -0.00000000  0.56517786  1
  Ca  Ca5  1  0.00000000  0.50000000  0.49922353  1
  Ca  Ca6  1  0.00000000  0.50000000  0.17118301  1
  Ca  Ca7  1  0.00000000  0.00000000  0.33000666  1
  Ca  Ca8  1  0.50000000  0.50000000  0.37881150  1
  Ca  Ca9  1  0.50000000  0.50000000  0.06517786  1
  Mg  Mg10  1  0.50000000  0.50000000  0.72226444  1
  Mg  Mg11  1  0.50000000  0.00000000  0.22226444  1
