# generated using pymatgen
data_Ca2Sn3S8
_symmetry_space_group_name_H-M   'P 1'
_cell_length_a   6.53273266
_cell_length_b   7.59762794
_cell_length_c   7.93814607
_cell_angle_alpha   61.40914055
_cell_angle_beta   73.07089368
_cell_angle_gamma   90.00000000
_symmetry_Int_Tables_number   1
_chemical_formula_structural   Ca2Sn3S8
_chemical_formula_sum   'Ca2 Sn3 S8'
_cell_volume   326.37478208
_cell_formula_units_Z   1
loop_
 _symmetry_equiv_pos_site_id
 _symmetry_equiv_pos_as_xyz
  1  'x, y, z'
loop_
 _atom_site_type_symbol
 _atom_site_label
 _atom_site_symmetry_multiplicity
 _atom_site_fract_x
 _atom_site_fract_y
 _atom_site_fract_z
 _atom_site_occupancy
  Ca  Ca0  1  0.65869984  0.72932733  0.54134535  1
  Ca  Ca1  1  0.34130016  0.27067267  0.45865465  1
  Sn  Sn2  1  0.50000000  -0.00000000  -0.00000000  1
  Sn  Sn3  1  0.00000000  0.73939049  -0.00000000  1
  Sn  Sn4  1  0.00000000  0.26060951  -0.00000000  1
  S  S5  1  0.40181402  0.88513498  0.77376152  1
  S  S6  1  0.40181402  0.34110351  0.77376152  1
  S  S7  1  0.59818598  0.11486502  0.22623848  1
  S  S8  1  0.59818598  0.65889649  0.22623848  1
  S  S9  1  0.91383944  0.10868269  0.78263461  1
  S  S10  1  0.08616056  0.89131731  0.21736539  1
  S  S11  1  0.95762961  0.61928640  0.76142719  1
  S  S12  1  0.04237039  0.38071360  0.23857281  1
