# generated using pymatgen
data_Ba4Sr4CoCu7O24
_symmetry_space_group_name_H-M   'P 1'
_cell_length_a   7.91666215
_cell_length_b   7.92090196
_cell_length_c   7.91666215
_cell_angle_alpha   89.93417925
_cell_angle_beta   90.00985647
_cell_angle_gamma   89.93417925
_symmetry_Int_Tables_number   1
_chemical_formula_structural   Ba4Sr4CoCu7O24
_chemical_formula_sum   'Ba4 Sr4 Co1 Cu7 O24'
_cell_volume   496.43029969
_cell_formula_units_Z   1
loop_
 _symmetry_equiv_pos_site_id
 _symmetry_equiv_pos_as_xyz
  1  'x, y, z'
loop_
 _atom_site_type_symbol
 _atom_site_label
 _atom_site_symmetry_multiplicity
 _atom_site_fract_x
 _atom_site_fract_y
 _atom_site_fract_z
 _atom_site_occupancy
  Ba  Ba0  1  0.25104352  0.75128485  0.24913118  1
  Ba  Ba1  1  0.25113585  0.75151560  0.75113585  1
  Ba  Ba2  1  0.74887143  0.24879216  0.24887143  1
  Ba  Ba3  1  0.74913118  0.75128485  0.75104352  1
  Sr  Sr4  1  0.25204712  0.24788284  0.24759366  1
  Sr  Sr5  1  0.25222709  0.24806799  0.75222709  1
  Sr  Sr6  1  0.74759366  0.24788284  0.75204712  1
  Sr  Sr7  1  0.74794912  0.75201549  0.24794912  1
  Co  Co8  1  0.00004947  0.49702447  0.50004947  1
  Cu  Cu9  1  0.99991769  0.00037716  0.00006955  1
  Cu  Cu10  1  0.99991466  0.99989028  0.49991466  1
  Cu  Cu11  1  0.99997179  0.49935055  0.00015951  1
  Cu  Cu12  1  0.49999117  0.00045086  -0.00000883  1
  Cu  Cu13  1  0.50006955  0.00037716  0.49991769  1
  Cu  Cu14  1  0.50004694  0.49979455  0.00004694  1
  Cu  Cu15  1  0.50015951  0.49935055  0.49997179  1
  O  O16  1  0.24999087  0.01219469  0.00007181  1
  O  O17  1  0.24901203  0.01236610  0.49978574  1
  O  O18  1  0.24913512  0.48773063  0.00015745  1
  O  O19  1  0.24368573  0.49099133  0.49989645  1
  O  O20  1  0.75001873  0.00162576  0.99975752  1
  O  O21  1  0.75093918  0.00143228  0.50026608  1
  O  O22  1  0.75089548  0.49844034  0.99978200  1
  O  O23  1  0.75640376  0.49846465  0.50012420  1
  O  O24  1  0.00515613  0.25083439  0.99464609  1
  O  O25  1  0.00356338  0.25563272  0.50356338  1
  O  O26  1  0.99436211  0.74905742  0.00576699  1
  O  O27  1  0.99597396  0.74276268  0.49597396  1
  O  O28  1  0.49484707  0.24995511  0.99484707  1
  O  O29  1  0.49464609  0.25083439  0.50515613  1
  O  O30  1  0.50564234  0.75003210  0.00564234  1
  O  O31  1  0.50576699  0.74905742  0.49436211  1
  O  O32  1  0.00026608  0.00143228  0.25093918  1
  O  O33  1  0.99978574  0.01236610  0.74901203  1
  O  O34  1  0.00012420  0.49846465  0.25640376  1
  O  O35  1  0.99989645  0.49099133  0.74368573  1
  O  O36  1  0.49975752  0.00162576  0.25001873  1
  O  O37  1  0.50007181  0.01219469  0.74999087  1
  O  O38  1  0.49978200  0.49844034  0.25089548  1
  O  O39  1  0.50015745  0.48773063  0.74913512  1
