# generated using pymatgen
data_Zn3Mo3O8
_symmetry_space_group_name_H-M   'P 1'
_cell_length_a   10.70259694
_cell_length_b   10.70259743
_cell_length_c   21.22761301
_cell_angle_alpha   34.42933322
_cell_angle_beta   34.42932897
_cell_angle_gamma   34.62771554
_symmetry_Int_Tables_number   1
_chemical_formula_structural   Zn3Mo3O8
_chemical_formula_sum   'Zn12 Mo12 O32'
_cell_volume   695.74003571
_cell_formula_units_Z   4
loop_
 _symmetry_equiv_pos_site_id
 _symmetry_equiv_pos_as_xyz
  1  'x, y, z'
loop_
 _atom_site_type_symbol
 _atom_site_label
 _atom_site_symmetry_multiplicity
 _atom_site_fract_x
 _atom_site_fract_y
 _atom_site_fract_z
 _atom_site_occupancy
  Zn  Zn0  1  -0.00000000  0.00000000  -0.00000000  1
  Zn  Zn1  1  0.19571596  0.19571596  0.08980244  1
  Zn  Zn2  1  0.30386417  0.30386417  0.16035996  1
  Zn  Zn3  1  -0.00000000  0.00000000  0.50000000  1
  Zn  Zn4  1  0.49993690  0.49993690  0.24954756  1
  Zn  Zn5  1  0.19613993  0.19613993  0.58971883  1
  Zn  Zn6  1  0.30461695  0.30461695  0.66002271  1
  Zn  Zn7  1  0.69538305  0.69538305  0.33997729  1
  Zn  Zn8  1  0.80386007  0.80386007  0.41028117  1
  Zn  Zn9  1  0.50006310  0.50006310  0.75045244  1
  Zn  Zn10  1  0.69613583  0.69613583  0.83964004  1
  Zn  Zn11  1  0.80428404  0.80428404  0.91019756  1
  Mo  Mo12  1  0.24964362  0.24964362  0.37512938  1
  Mo  Mo13  1  0.24985714  0.74968238  0.12489216  1
  Mo  Mo14  1  0.74968238  0.24985714  0.12489216  1
  Mo  Mo15  1  0.24990261  0.74997152  0.37481863  1
  Mo  Mo16  1  0.74997152  0.24990261  0.37481863  1
  Mo  Mo17  1  0.74984950  0.74984950  0.12498005  1
  Mo  Mo18  1  0.25015050  0.25015050  0.87501995  1
  Mo  Mo19  1  0.25002848  0.75009739  0.62518137  1
  Mo  Mo20  1  0.75009739  0.25002848  0.62518137  1
  Mo  Mo21  1  0.25031762  0.75014286  0.87510784  1
  Mo  Mo22  1  0.75014286  0.25031762  0.87510784  1
  Mo  Mo23  1  0.75035638  0.75035638  0.62487062  1
  O  O24  1  0.12580758  0.12580758  0.05587223  1
  O  O25  1  0.10961404  0.10961404  0.32629161  1
  O  O26  1  0.10342029  0.63666077  0.06371646  1
  O  O27  1  0.63666077  0.10342029  0.06371646  1
  O  O28  1  0.37357597  0.37357597  0.19430863  1
  O  O29  1  0.12624335  0.12624335  0.55567151  1
  O  O30  1  0.13610279  0.60383505  0.31325030  1
  O  O31  1  0.60383505  0.13610279  0.31325030  1
  O  O32  1  0.60976863  0.60976863  0.07584007  1
  O  O33  1  0.39040565  0.39040565  0.42314407  1
  O  O34  1  0.39610522  0.86271314  0.18648477  1
  O  O35  1  0.86271314  0.39610522  0.18648477  1
  O  O36  1  0.11014681  0.11014681  0.82624547  1
  O  O37  1  0.10468742  0.63702961  0.56294894  1
  O  O38  1  0.63702961  0.10468742  0.56294894  1
  O  O39  1  0.62591687  0.62591687  0.30567332  1
  O  O40  1  0.37408313  0.37408313  0.69432668  1
  O  O41  1  0.36297039  0.89531258  0.43705106  1
  O  O42  1  0.89531258  0.36297039  0.43705106  1
  O  O43  1  0.88985319  0.88985319  0.17375453  1
  O  O44  1  0.13728686  0.60389478  0.81351523  1
  O  O45  1  0.60389478  0.13728686  0.81351523  1
  O  O46  1  0.60959435  0.60959435  0.57685593  1
  O  O47  1  0.39023137  0.39023137  0.92415993  1
  O  O48  1  0.39616495  0.86389721  0.68674970  1
  O  O49  1  0.86389721  0.39616495  0.68674970  1
  O  O50  1  0.87375665  0.87375665  0.44432849  1
  O  O51  1  0.62642403  0.62642403  0.80569137  1
  O  O52  1  0.36333923  0.89657971  0.93628354  1
  O  O53  1  0.89657971  0.36333923  0.93628354  1
  O  O54  1  0.89038596  0.89038596  0.67370839  1
  O  O55  1  0.87419242  0.87419242  0.94412777  1
