# generated using pymatgen
data_FeBi4S7
_symmetry_space_group_name_H-M   'P 1'
_cell_length_a   3.90150885
_cell_length_b   6.57386781
_cell_length_c   11.92052716
_cell_angle_alpha   103.92359312
_cell_angle_beta   90.00000000
_cell_angle_gamma   107.26213199
_symmetry_Int_Tables_number   1
_chemical_formula_structural   FeBi4S7
_chemical_formula_sum   'Fe1 Bi4 S7'
_cell_volume   282.54556214
_cell_formula_units_Z   1
loop_
 _symmetry_equiv_pos_site_id
 _symmetry_equiv_pos_as_xyz
  1  'x, y, z'
loop_
 _atom_site_type_symbol
 _atom_site_label
 _atom_site_symmetry_multiplicity
 _atom_site_fract_x
 _atom_site_fract_y
 _atom_site_fract_z
 _atom_site_occupancy
  Fe  Fe0  1  0.00000000  0.00000000  0.50000000  1
  Bi  Bi1  1  0.11887373  0.23774747  0.91725526  1
  Bi  Bi2  1  0.88112627  0.76225253  0.08274474  1
  Bi  Bi3  1  0.31797009  0.63594018  0.66264732  1
  Bi  Bi4  1  0.68202991  0.36405982  0.33735268  1
  S  S5  1  0.97105908  0.94211816  0.68025953  1
  S  S6  1  0.02894092  0.05788184  0.31974047  1
  S  S7  1  0.25104803  0.50209605  0.14333545  1
  S  S8  1  0.74895197  0.49790395  0.85666455  1
  S  S9  1  0.37480242  0.74960484  0.46123117  1
  S  S10  1  0.62519758  0.25039516  0.53876883  1
  S  S11  1  0.50000000  0.00000000  0.00000000  1
