# generated using pymatgen
data_Ti3Fe2Sn(PO4)6
_symmetry_space_group_name_H-M   'P 1'
_cell_length_a   8.63161373
_cell_length_b   8.63161402
_cell_length_c   8.63161426
_cell_angle_alpha   60.74485437
_cell_angle_beta   60.74485101
_cell_angle_gamma   60.74484876
_symmetry_Int_Tables_number   1
_chemical_formula_structural   Ti3Fe2Sn(PO4)6
_chemical_formula_sum   'Ti3 Fe2 Sn1 P6 O24'
_cell_volume   462.38029280
_cell_formula_units_Z   1
loop_
 _symmetry_equiv_pos_site_id
 _symmetry_equiv_pos_as_xyz
  1  'x, y, z'
loop_
 _atom_site_type_symbol
 _atom_site_label
 _atom_site_symmetry_multiplicity
 _atom_site_fract_x
 _atom_site_fract_y
 _atom_site_fract_z
 _atom_site_occupancy
  Ti  Ti0  1  0.14406207  0.14406207  0.14406207  1
  Ti  Ti1  1  0.35560553  0.35560553  0.35560553  1
  Ti  Ti2  1  0.64308145  0.64308145  0.64308145  1
  Fe  Fe3  1  0.00381579  0.00381579  0.00381579  1
  Fe  Fe4  1  0.49921676  0.49921676  0.49921676  1
  Sn  Sn5  1  0.85638567  0.85638567  0.85638567  1
  P  P6  1  0.25179992  0.54172885  0.95586257  1
  P  P7  1  0.54172885  0.95586257  0.25179992  1
  P  P8  1  0.95586257  0.25179992  0.54172885  1
  P  P9  1  0.04581619  0.74784313  0.45340386  1
  P  P10  1  0.45340386  0.04581619  0.74784313  1
  P  P11  1  0.74784313  0.45340386  0.04581619  1
  O  O12  1  0.11363155  0.31463841  0.50227547  1
  O  O13  1  0.31463841  0.50227547  0.11363155  1
  O  O14  1  0.05964483  0.91003943  0.26097543  1
  O  O15  1  0.50227547  0.11363155  0.31463841  1
  O  O16  1  0.01381810  0.81138680  0.60842173  1
  O  O17  1  0.23982980  0.58855433  0.43744295  1
  O  O18  1  0.26097543  0.05964483  0.91003943  1
  O  O19  1  0.43744295  0.23982980  0.58855433  1
  O  O20  1  0.18378661  0.38687652  0.99745173  1
  O  O21  1  0.58855433  0.43744295  0.23982980  1
  O  O22  1  0.09082234  0.73916440  0.94333469  1
  O  O23  1  0.38687652  0.99745173  0.18378661  1
  O  O24  1  0.60842173  0.01381810  0.81138680  1
  O  O25  1  0.91003943  0.26097543  0.05964483  1
  O  O26  1  0.40949410  0.55865481  0.76120689  1
  O  O27  1  0.81138680  0.60842173  0.01381810  1
  O  O28  1  0.55865481  0.76120689  0.40949410  1
  O  O29  1  0.73916440  0.94333469  0.09082234  1
  O  O30  1  0.76120689  0.40949410  0.55865481  1
  O  O31  1  0.99745173  0.18378661  0.38687652  1
  O  O32  1  0.49824367  0.88560896  0.68607267  1
  O  O33  1  0.94333469  0.09082234  0.73916440  1
  O  O34  1  0.68607267  0.49824367  0.88560896  1
  O  O35  1  0.88560896  0.68607267  0.49824367  1
