# generated using pymatgen
data_V4CoCuO12
_symmetry_space_group_name_H-M   'P 1'
_cell_length_a   6.58614313
_cell_length_b   6.58614275
_cell_length_c   6.00305660
_cell_angle_alpha   76.58154940
_cell_angle_beta   103.41845698
_cell_angle_gamma   95.83296684
_symmetry_Int_Tables_number   1
_chemical_formula_structural   V4CoCuO12
_chemical_formula_sum   'V4 Co1 Cu1 O12'
_cell_volume   246.05899302
_cell_formula_units_Z   1
loop_
 _symmetry_equiv_pos_site_id
 _symmetry_equiv_pos_as_xyz
  1  'x, y, z'
loop_
 _atom_site_type_symbol
 _atom_site_label
 _atom_site_symmetry_multiplicity
 _atom_site_fract_x
 _atom_site_fract_y
 _atom_site_fract_z
 _atom_site_occupancy
  V  V0  1  0.20534650  0.61456275  0.75705845  1
  V  V1  1  0.39047152  0.78681137  0.26791132  1
  V  V2  1  0.61456275  0.20534650  0.74294155  1
  V  V3  1  0.78681137  0.39047152  0.23208868  1
  Co  Co4  1  0.91883252  0.91883252  0.25000000  1
  Cu  Cu5  1  0.08441262  0.08441262  0.75000000  1
  O  O6  1  0.03450808  0.81515246  0.64194230  1
  O  O7  1  0.07913054  0.37636853  0.76638100  1
  O  O8  1  0.20224280  0.96459358  0.18280995  1
  O  O9  1  0.37424242  0.63833043  0.55716722  1
  O  O10  1  0.37636853  0.07913054  0.73361900  1
  O  O11  1  0.34355027  0.63205820  0.04693668  1
  O  O12  1  0.63833043  0.37424242  0.94283278  1
  O  O13  1  0.62949798  0.90988744  0.28011573  1
  O  O14  1  0.63205820  0.34355027  0.45306332  1
  O  O15  1  0.81515246  0.03450808  0.85805770  1
  O  O16  1  0.90988744  0.62949798  0.21988427  1
  O  O17  1  0.96459358  0.20224280  0.31719005  1
