# generated using pymatgen
data_VF4
_symmetry_space_group_name_H-M   'P 1'
_cell_length_a   4.96053057
_cell_length_b   6.08088118
_cell_length_c   9.78535356
_cell_angle_alpha   90.00000000
_cell_angle_beta   88.99800272
_cell_angle_gamma   90.00000000
_symmetry_Int_Tables_number   1
_chemical_formula_structural   VF4
_chemical_formula_sum   'V4 F16'
_cell_volume   295.12415396
_cell_formula_units_Z   4
loop_
 _symmetry_equiv_pos_site_id
 _symmetry_equiv_pos_as_xyz
  1  'x, y, z'
loop_
 _atom_site_type_symbol
 _atom_site_label
 _atom_site_symmetry_multiplicity
 _atom_site_fract_x
 _atom_site_fract_y
 _atom_site_fract_z
 _atom_site_occupancy
  V  V0  1  0.24999746  0.83707456  0.50212125  1
  V  V1  1  0.25000254  0.33707456  0.99787875  1
  V  V2  1  0.74999746  0.66292544  0.00212125  1
  V  V3  1  0.75000254  0.16292544  0.49787875  1
  F  F4  1  0.07336840  0.08575661  0.39583967  1
  F  F5  1  0.12198442  0.63372357  0.39212753  1
  F  F6  1  0.11869026  0.14551520  0.88080087  1
  F  F7  1  0.07376072  0.59252369  0.89829804  1
  F  F8  1  0.37801558  0.13372357  0.10787247  1
  F  F9  1  0.42663160  0.58575661  0.10416033  1
  F  F10  1  0.42623928  0.09252369  0.60170196  1
  F  F11  1  0.38130974  0.64551520  0.61919913  1
  F  F12  1  0.61869026  0.35448480  0.38080087  1
  F  F13  1  0.57376072  0.90747631  0.39829804  1
  F  F14  1  0.57336840  0.41424339  0.89583967  1
  F  F15  1  0.62198442  0.86627643  0.89212753  1
  F  F16  1  0.92623928  0.40747631  0.10170196  1
  F  F17  1  0.88130974  0.85448480  0.11919913  1
  F  F18  1  0.87801558  0.36627643  0.60787247  1
  F  F19  1  0.92663160  0.91424339  0.60416033  1
