# generated using pymatgen
data_WN2
_symmetry_space_group_name_H-M   'P 1'
_cell_length_a   5.82279905
_cell_length_b   5.95845444
_cell_length_c   5.82279905
_cell_angle_alpha   60.75030725
_cell_angle_beta   90.00000000
_cell_angle_gamma   119.24969275
_symmetry_Int_Tables_number   1
_chemical_formula_structural   WN2
_chemical_formula_sum   'W2 N4'
_cell_volume   146.03050225
_cell_formula_units_Z   2
loop_
 _symmetry_equiv_pos_site_id
 _symmetry_equiv_pos_as_xyz
  1  'x, y, z'
loop_
 _atom_site_type_symbol
 _atom_site_label
 _atom_site_symmetry_multiplicity
 _atom_site_fract_x
 _atom_site_fract_y
 _atom_site_fract_z
 _atom_site_occupancy
  W  W0  1  0.50000000  0.00000000  0.50000000  1
  W  W1  1  0.25000000  0.50000000  0.25000000  1
  N  N2  1  0.87446981  0.24964010  0.30017277  1
  N  N3  1  0.30017277  0.75035990  0.37517029  1
  N  N4  1  0.37517029  0.24964010  0.45018813  1
  N  N5  1  0.45018813  0.75035990  0.87446981  1
