# generated using pymatgen
data_Ti3MnCr2(PO4)6
_symmetry_space_group_name_H-M   'P 1'
_cell_length_a   8.67600844
_cell_length_b   8.67600849
_cell_length_c   8.67600863
_cell_angle_alpha   60.09288157
_cell_angle_beta   60.09288361
_cell_angle_gamma   60.09288220
_symmetry_Int_Tables_number   1
_chemical_formula_structural   Ti3MnCr2(PO4)6
_chemical_formula_sum   'Ti3 Mn1 Cr2 P6 O24'
_cell_volume   462.76231560
_cell_formula_units_Z   1
loop_
 _symmetry_equiv_pos_site_id
 _symmetry_equiv_pos_as_xyz
  1  'x, y, z'
loop_
 _atom_site_type_symbol
 _atom_site_label
 _atom_site_symmetry_multiplicity
 _atom_site_fract_x
 _atom_site_fract_y
 _atom_site_fract_z
 _atom_site_occupancy
  Ti  Ti0  1  0.14573384  0.14573384  0.14573384  1
  Ti  Ti1  1  0.35428378  0.35428378  0.35428378  1
  Ti  Ti2  1  0.64663333  0.64663333  0.64663333  1
  Mn  Mn3  1  0.85378105  0.85378105  0.85378105  1
  Cr  Cr4  1  0.99864915  0.99864915  0.99864915  1
  Cr  Cr5  1  0.49888942  0.49888942  0.49888942  1
  P  P6  1  0.04609977  0.75173215  0.45148954  1
  P  P7  1  0.45148954  0.04609977  0.75173215  1
  P  P8  1  0.25373942  0.54287773  0.95721246  1
  P  P9  1  0.54287773  0.95721246  0.25373942  1
  P  P10  1  0.95721246  0.25373942  0.54287773  1
  P  P11  1  0.75173215  0.45148954  0.04609977  1
  O  O12  1  0.11654241  0.32341549  0.48615864  1
  O  O13  1  0.32341549  0.48615864  0.11654241  1
  O  O14  1  0.05930077  0.91389041  0.25449940  1
  O  O15  1  0.48615864  0.11654241  0.32341549  1
  O  O16  1  0.01994461  0.81088654  0.59996601  1
  O  O17  1  0.23756697  0.58535114  0.42667950  1
  O  O18  1  0.25449940  0.05930077  0.91389041  1
  O  O19  1  0.42667950  0.23756697  0.58535114  1
  O  O20  1  0.19112145  0.37996261  0.00210562  1
  O  O21  1  0.58535114  0.42667950  0.23756697  1
  O  O22  1  0.09708224  0.73438274  0.95006791  1
  O  O23  1  0.37996261  0.00210562  0.19112145  1
  O  O24  1  0.59996601  0.01994461  0.81088654  1
  O  O25  1  0.91389041  0.25449940  0.05930077  1
  O  O26  1  0.41801412  0.55393113  0.76506395  1
  O  O27  1  0.81088654  0.59996601  0.01994461  1
  O  O28  1  0.55393113  0.76506395  0.41801412  1
  O  O29  1  0.73438274  0.95006791  0.09708224  1
  O  O30  1  0.76506395  0.41801412  0.55393113  1
  O  O31  1  0.00210562  0.19112145  0.37996261  1
  O  O32  1  0.50067467  0.87804555  0.69422350  1
  O  O33  1  0.95006791  0.09708224  0.73438274  1
  O  O34  1  0.69422350  0.50067467  0.87804555  1
  O  O35  1  0.87804555  0.69422350  0.50067467  1
