# generated using pymatgen
data_VF5
_symmetry_space_group_name_H-M   'P 1'
_cell_length_a   7.38122184
_cell_length_b   5.17534065
_cell_length_c   10.19727669
_cell_angle_alpha   90.00000000
_cell_angle_beta   110.72385579
_cell_angle_gamma   90.00000000
_symmetry_Int_Tables_number   1
_chemical_formula_structural   VF5
_chemical_formula_sum   'V4 F20'
_cell_volume   364.33495479
_cell_formula_units_Z   4
loop_
 _symmetry_equiv_pos_site_id
 _symmetry_equiv_pos_as_xyz
  1  'x, y, z'
loop_
 _atom_site_type_symbol
 _atom_site_label
 _atom_site_symmetry_multiplicity
 _atom_site_fract_x
 _atom_site_fract_y
 _atom_site_fract_z
 _atom_site_occupancy
  V  V0  1  0.00000000  0.50000000  0.50000000  1
  V  V1  1  0.00000000  -0.00000000  -0.00000000  1
  V  V2  1  0.50000000  0.50000000  0.50000000  1
  V  V3  1  0.50000000  0.00000000  -0.00000000  1
  F  F4  1  0.04087994  0.35588361  0.66512569  1
  F  F5  1  0.11546479  0.78637782  0.58394802  1
  F  F6  1  0.38120322  0.72491919  0.90473967  1
  F  F7  1  0.04087994  0.14411639  0.16512569  1
  F  F8  1  0.25087229  0.36794086  0.50191967  1
  F  F9  1  0.46307791  0.16637526  0.84123366  1
  F  F10  1  0.11546479  0.71362218  0.08394802  1
  F  F11  1  0.38120322  0.77508081  0.40473967  1
  F  F12  1  0.53692209  0.66637526  0.65876634  1
  F  F13  1  0.25087229  0.13205914  0.00191967  1
  F  F14  1  0.74912771  0.86794086  0.99808033  1
  F  F15  1  0.46307791  0.33362474  0.34123366  1
  F  F16  1  0.61879678  0.22491919  0.59526033  1
  F  F17  1  0.88453521  0.28637782  0.91605198  1
  F  F18  1  0.53692209  0.83362474  0.15876634  1
  F  F19  1  0.74912771  0.63205914  0.49808033  1
  F  F20  1  0.95912006  0.85588361  0.83487431  1
  F  F21  1  0.61879678  0.27508081  0.09526033  1
  F  F22  1  0.88453521  0.21362218  0.41605198  1
  F  F23  1  0.95912006  0.64411639  0.33487431  1
