# generated using pymatgen
data_NbV2Fe3(PO4)6
_symmetry_space_group_name_H-M   'P 1'
_cell_length_a   8.67653523
_cell_length_b   8.69218778
_cell_length_c   8.69218806
_cell_angle_alpha   60.00000060
_cell_angle_beta   59.94030454
_cell_angle_gamma   59.94031395
_symmetry_Int_Tables_number   1
_chemical_formula_structural   NbV2Fe3(PO4)6
_chemical_formula_sum   'Nb1 V2 Fe3 P6 O24'
_cell_volume   463.12383331
_cell_formula_units_Z   1
loop_
 _symmetry_equiv_pos_site_id
 _symmetry_equiv_pos_as_xyz
  1  'x, y, z'
loop_
 _atom_site_type_symbol
 _atom_site_label
 _atom_site_symmetry_multiplicity
 _atom_site_fract_x
 _atom_site_fract_y
 _atom_site_fract_z
 _atom_site_occupancy
  Nb  Nb0  1  0.56854666  0.14381811  0.14381811  1
  V  V1  1  0.00832463  0.99722479  0.99722479  1
  V  V2  1  0.50166716  0.49944395  0.49944395  1
  Fe  Fe3  1  0.06484048  0.64505351  0.64505351  1
  Fe  Fe4  1  0.44031723  0.85322792  0.85322792  1
  Fe  Fe5  1  0.93513455  0.35495515  0.35495515  1
  P  P6  1  0.24268836  0.25239055  0.55049562  1
  P  P7  1  0.24268836  0.95442547  0.25239055  1
  P  P8  1  0.24268836  0.55049562  0.95442547  1
  P  P9  1  0.75128528  0.46199137  0.04285759  1
  P  P10  1  0.75128528  0.04285759  0.74386575  1
  P  P11  1  0.75128528  0.74386575  0.46199137  1
  O  O12  1  0.06980541  0.11335000  0.31185382  1
  O  O13  1  0.06980541  0.50499077  0.11335000  1
  O  O14  1  0.06980541  0.31185382  0.50499077  1
  O  O15  1  0.23452916  0.08671719  0.73893050  1
  O  O16  1  0.42407719  0.18743562  0.38443751  1
  O  O17  1  0.26999908  0.41171271  0.55612597  1
  O  O18  1  0.23452916  0.93982314  0.08671719  1
  O  O19  1  0.26999908  0.76216224  0.41171271  1
  O  O20  1  0.57098023  0.61245773  0.00382012  1
  O  O21  1  0.26999908  0.55612597  0.76216224  1
  O  O22  1  0.76473977  0.26281012  0.06162060  1
  O  O23  1  0.57098023  0.00382012  0.81274193  1
  O  O24  1  0.42407719  0.00404869  0.18743562  1
  O  O25  1  0.23452916  0.73893050  0.93982314  1
  O  O26  1  0.73435461  0.44089681  0.23816188  1
  O  O27  1  0.42407719  0.38443751  0.00404869  1
  O  O28  1  0.73435461  0.23816188  0.58658570  1
  O  O29  1  0.76473977  0.06162060  0.91083051  1
  O  O30  1  0.73435461  0.58658570  0.44089681  1
  O  O31  1  0.57098023  0.81274193  0.61245773  1
  O  O32  1  0.76473977  0.91083051  0.26281012  1
  O  O33  1  0.93126134  0.68975577  0.49390698  1
  O  O34  1  0.93126134  0.49390698  0.88507591  1
  O  O35  1  0.93126134  0.88507591  0.68975577  1
