# generated using pymatgen
data_LiNi(PO3)4
_symmetry_space_group_name_H-M   'P 1'
_cell_length_a   5.14880062
_cell_length_b   10.44951100
_cell_length_c   10.44951075
_cell_angle_alpha   70.22670430
_cell_angle_beta   98.62882134
_cell_angle_gamma   98.62882276
_symmetry_Int_Tables_number   1
_chemical_formula_structural   LiNi(PO3)4
_chemical_formula_sum   'Li2 Ni2 P8 O24'
_cell_volume   520.08581934
_cell_formula_units_Z   2
loop_
 _symmetry_equiv_pos_site_id
 _symmetry_equiv_pos_as_xyz
  1  'x, y, z'
loop_
 _atom_site_type_symbol
 _atom_site_label
 _atom_site_symmetry_multiplicity
 _atom_site_fract_x
 _atom_site_fract_y
 _atom_site_fract_z
 _atom_site_occupancy
  Li  Li0  1  0.62230723  0.57400352  0.57400352  1
  Li  Li1  1  0.37769277  0.42599648  0.42599648  1
  Ni  Ni2  1  0.00000000  -0.00000000  0.50000000  1
  Ni  Ni3  1  0.00000000  0.50000000  0.00000000  1
  P  P4  1  0.47301081  0.30798828  0.06355825  1
  P  P5  1  0.52698919  0.69201172  0.93644175  1
  P  P6  1  0.52698919  0.93644175  0.69201172  1
  P  P7  1  0.47301081  0.06355825  0.30798828  1
  P  P8  1  0.82526193  0.63244634  0.21460606  1
  P  P9  1  0.17473807  0.78539394  0.36755366  1
  P  P10  1  0.82526193  0.21460606  0.63244634  1
  P  P11  1  0.17473807  0.36755366  0.78539394  1
  O  O12  1  0.99899705  0.54830853  0.17942084  1
  O  O13  1  0.67618062  0.33712458  0.56329016  1
  O  O14  1  0.77070004  0.08028107  0.32949377  1
  O  O15  1  0.99899705  0.17942084  0.54830853  1
  O  O16  1  0.67618062  0.56329016  0.33712458  1
  O  O17  1  0.62446518  0.70336486  0.08558772  1
  O  O18  1  0.32381938  0.43670984  0.66287542  1
  O  O19  1  0.39017838  0.15182542  0.15182542  1
  O  O20  1  0.37553482  0.29663514  0.91441228  1
  O  O21  1  0.00100295  0.45169147  0.82057916  1
  O  O22  1  0.00000000  0.23047556  0.76952444  1
  O  O23  1  0.62446518  0.08558772  0.70336486  1
  O  O24  1  0.60982162  0.84817458  0.84817458  1
  O  O25  1  0.22929996  0.91971893  0.67050623  1
  O  O26  1  0.77070004  0.32949377  0.08028107  1
  O  O27  1  0.67603772  0.59747607  0.90220164  1
  O  O28  1  0.32396228  0.40252393  0.09779836  1
  O  O29  1  0.37553482  0.91441228  0.29663514  1
  O  O30  1  0.22929996  0.67050623  0.91971893  1
  O  O31  1  1.00000000  0.76952444  0.23047556  1
  O  O32  1  0.32381938  0.66287542  0.43670984  1
  O  O33  1  0.00100295  0.82057916  0.45169147  1
  O  O34  1  0.32396228  0.09779836  0.40252393  1
  O  O35  1  0.67603772  0.90220164  0.59747607  1
