# generated using pymatgen
data_Sb3O4F
_symmetry_space_group_name_H-M   'P 1'
_cell_length_a   5.43490498
_cell_length_b   9.87067477
_cell_length_c   5.67525760
_cell_angle_alpha   67.68836337
_cell_angle_beta   89.99999999
_cell_angle_gamma   105.98022616
_symmetry_Int_Tables_number   1
_chemical_formula_structural   Sb3O4F
_chemical_formula_sum   'Sb6 O8 F2'
_cell_volume   268.90146906
_cell_formula_units_Z   2
loop_
 _symmetry_equiv_pos_site_id
 _symmetry_equiv_pos_as_xyz
  1  'x, y, z'
loop_
 _atom_site_type_symbol
 _atom_site_label
 _atom_site_symmetry_multiplicity
 _atom_site_fract_x
 _atom_site_fract_y
 _atom_site_fract_z
 _atom_site_occupancy
  Sb  Sb0  1  0.36322100  0.31945001  0.96641841  1
  Sb  Sb1  1  0.68718791  0.00000000  0.25000000  1
  Sb  Sb2  1  0.95622900  0.31945001  0.46641841  1
  Sb  Sb3  1  0.31281209  1.00000000  0.75000000  1
  Sb  Sb4  1  0.04377100  0.68054999  0.53358159  1
  Sb  Sb5  1  0.63677900  0.68054999  0.03358159  1
  O  O6  1  0.48072852  0.13098030  0.99882928  1
  O  O7  1  0.16566644  0.22391586  0.32695406  1
  O  O8  1  0.94175058  0.77608414  0.17304594  1
  O  O9  1  0.65025179  0.13098030  0.49882928  1
  O  O10  1  0.34974821  0.86901970  0.50117072  1
  O  O11  1  0.05824942  0.22391586  0.82695406  1
  O  O12  1  0.83433356  0.77608414  0.67304594  1
  O  O13  1  0.51927148  0.86901970  0.00117072  1
  F  F14  1  -0.00000000  0.50000000  -0.00000000  1
  F  F15  1  0.50000000  0.50000000  0.50000000  1
