# generated using pymatgen
data_PRuSe
_symmetry_space_group_name_H-M   'P 1'
_cell_length_a   5.98080606
_cell_length_b   5.96711860
_cell_length_c   6.05615752
_cell_angle_alpha   112.08327750
_cell_angle_beta   90.00000000
_cell_angle_gamma   90.00000000
_symmetry_Int_Tables_number   1
_chemical_formula_structural   PRuSe
_chemical_formula_sum   'P4 Ru4 Se4'
_cell_volume   200.27735351
_cell_formula_units_Z   4
loop_
 _symmetry_equiv_pos_site_id
 _symmetry_equiv_pos_as_xyz
  1  'x, y, z'
loop_
 _atom_site_type_symbol
 _atom_site_label
 _atom_site_symmetry_multiplicity
 _atom_site_fract_x
 _atom_site_fract_y
 _atom_site_fract_z
 _atom_site_occupancy
  P  P0  1  0.12871223  0.85613277  0.11873543  1
  P  P1  1  0.62871223  0.14386723  0.38126457  1
  P  P2  1  0.87128777  0.14386723  0.88126457  1
  P  P3  1  0.37128777  0.85613277  0.61873543  1
  Ru  Ru4  1  0.48908356  0.73595897  0.20971139  1
  Ru  Ru5  1  0.98908356  0.26404103  0.29028861  1
  Ru  Ru6  1  0.51091644  0.26404103  0.79028861  1
  Ru  Ru7  1  0.01091644  0.73595897  0.70971139  1
  Se  Se8  1  0.87543061  0.66609348  0.30737443  1
  Se  Se9  1  0.37543061  0.33390652  0.19262557  1
  Se  Se10  1  0.12456939  0.33390652  0.69262557  1
  Se  Se11  1  0.62456939  0.66609348  0.80737443  1
