# generated using pymatgen
data_V4Ni2O9
_symmetry_space_group_name_H-M   'P 1'
_cell_length_a   5.08801274
_cell_length_b   5.49007441
_cell_length_c   12.60625304
_cell_angle_alpha   93.77528378
_cell_angle_beta   90.00000011
_cell_angle_gamma   117.60560618
_symmetry_Int_Tables_number   1
_chemical_formula_structural   V4Ni2O9
_chemical_formula_sum   'V8 Ni4 O18'
_cell_volume   311.18709114
_cell_formula_units_Z   2
loop_
 _symmetry_equiv_pos_site_id
 _symmetry_equiv_pos_as_xyz
  1  'x, y, z'
loop_
 _atom_site_type_symbol
 _atom_site_label
 _atom_site_symmetry_multiplicity
 _atom_site_fract_x
 _atom_site_fract_y
 _atom_site_fract_z
 _atom_site_occupancy
  V  V0  1  0.86484457  0.73295367  0.78443673  1
  V  V1  1  0.53600386  0.06326948  0.61066707  1
  V  V2  1  0.86810910  0.73295367  0.28443673  1
  V  V3  1  0.52726562  0.06326948  0.11066707  1
  V  V4  1  0.20024436  0.40450603  0.94939378  1
  V  V5  1  0.13285033  0.26895508  0.71541405  1
  V  V6  1  0.20426167  0.40450603  0.44939378  1
  V  V7  1  0.13610475  0.26895508  0.21541405  1
  Ni  Ni8  1  0.80651976  0.60581523  0.54931252  1
  Ni  Ni9  1  0.79929547  0.60581523  0.04931252  1
  Ni  Ni10  1  0.47329827  0.94244999  0.88123273  1
  Ni  Ni11  1  0.46915172  0.94244999  0.38123273  1
  O  O12  1  0.91091028  0.09169873  0.34959155  1
  O  O13  1  0.96772033  0.32290047  0.58260109  1
  O  O14  1  0.69141543  0.99513369  0.74307662  1
  O  O15  1  0.78214989  0.23430609  0.98764593  1
  O  O16  1  0.85982523  0.44045491  0.19328737  1
  O  O17  1  0.58062968  0.44045491  0.69328737  1
  O  O18  1  0.45215620  0.23430609  0.48764593  1
  O  O19  1  0.78537261  0.90462436  0.15084966  1
  O  O20  1  0.63548484  0.65807456  0.90955721  1
  O  O21  1  0.30371726  0.99513369  0.24307662  1
  O  O22  1  0.35517914  0.32290047  0.08260109  1
  O  O23  1  0.18078844  0.09169873  0.84959155  1
  O  O24  1  0.52822072  0.77671130  0.52757511  1
  O  O25  1  0.44960451  0.55814842  0.31535958  1
  O  O26  1  0.10854391  0.55814842  0.81535958  1
  O  O27  1  0.24849159  0.77671130  0.02757511  1
  O  O28  1  0.02258972  0.65807456  0.40955721  1
  O  O29  1  0.11925074  0.90462436  0.65084966  1
