# generated using pymatgen
data_PbO2
_symmetry_space_group_name_H-M   'P 1'
_cell_length_a   3.54970478
_cell_length_b   8.28469502
_cell_length_c   5.74503203
_cell_angle_alpha   90.00000000
_cell_angle_beta   90.00000000
_cell_angle_gamma   90.00000000
_symmetry_Int_Tables_number   1
_chemical_formula_structural   PbO2
_chemical_formula_sum   'Pb4 O8'
_cell_volume   168.95117454
_cell_formula_units_Z   4
loop_
 _symmetry_equiv_pos_site_id
 _symmetry_equiv_pos_as_xyz
  1  'x, y, z'
loop_
 _atom_site_type_symbol
 _atom_site_label
 _atom_site_symmetry_multiplicity
 _atom_site_fract_x
 _atom_site_fract_y
 _atom_site_fract_z
 _atom_site_occupancy
  Pb  Pb0  1  0.25000000  0.66605499  0.36391542  1
  Pb  Pb1  1  0.25000000  0.16605499  0.13608458  1
  Pb  Pb2  1  0.75000000  0.33394501  0.63608458  1
  Pb  Pb3  1  0.75000000  0.83394501  0.86391542  1
  O  O4  1  0.25000000  0.89159091  0.11253172  1
  O  O5  1  0.25000000  0.39159091  0.38746828  1
  O  O6  1  0.75000000  0.10840909  0.88746828  1
  O  O7  1  0.75000000  0.60840909  0.61253172  1
  O  O8  1  0.75000000  0.63866459  0.13082186  1
  O  O9  1  0.75000000  0.13866459  0.36917814  1
  O  O10  1  0.25000000  0.36133541  0.86917814  1
  O  O11  1  0.25000000  0.86133541  0.63082186  1
