# generated using pymatgen
data_Sr3TaHO6
_symmetry_space_group_name_H-M   'P 1'
_cell_length_a   6.05399555
_cell_length_b   6.05399555
_cell_length_c   6.25969628
_cell_angle_alpha   117.08200589
_cell_angle_beta   117.08200589
_cell_angle_gamma   91.16456070
_symmetry_Int_Tables_number   1
_chemical_formula_structural   Sr3TaHO6
_chemical_formula_sum   'Sr3 Ta1 H1 O6'
_cell_volume   174.21505436
_cell_formula_units_Z   1
loop_
 _symmetry_equiv_pos_site_id
 _symmetry_equiv_pos_as_xyz
  1  'x, y, z'
loop_
 _atom_site_type_symbol
 _atom_site_label
 _atom_site_symmetry_multiplicity
 _atom_site_fract_x
 _atom_site_fract_y
 _atom_site_fract_z
 _atom_site_occupancy
  Sr  Sr0  1  0.34067895  0.78303405  0.62510347  1
  Sr  Sr1  1  0.78303405  0.34067895  0.62510347  1
  Sr  Sr2  1  0.00620914  0.00620914  0.98639756  1
  Ta  Ta3  1  0.49783483  0.49783483  0.01724237  1
  H  H4  1  0.21230210  0.21230210  0.53356935  1
  O  O5  1  0.18575780  0.18575780  0.79996691  1
  O  O6  1  0.63001692  0.63001692  0.40510169  1
  O  O7  1  0.71915113  0.71915113  0.99682669  1
  O  O8  1  0.29824157  0.29824157  0.47725184  1
  O  O9  1  0.67656363  0.23025989  0.91674332  1
  O  O10  1  0.23025989  0.67656363  0.91674332  1
