# generated using pymatgen
data_C
_symmetry_space_group_name_H-M   'P 1'
_cell_length_a   7.49673508
_cell_length_b   14.84825183
_cell_length_c   14.77673724
_cell_angle_alpha   120.15816756
_cell_angle_beta   90.00988461
_cell_angle_gamma   90.00026848
_symmetry_Int_Tables_number   1
_chemical_formula_structural   C
_chemical_formula_sum   C71
_cell_volume   1422.20524038
_cell_formula_units_Z   71
loop_
 _symmetry_equiv_pos_site_id
 _symmetry_equiv_pos_as_xyz
  1  'x, y, z'
loop_
 _atom_site_type_symbol
 _atom_site_label
 _atom_site_symmetry_multiplicity
 _atom_site_fract_x
 _atom_site_fract_y
 _atom_site_fract_z
 _atom_site_occupancy
  C  C0  1  0.50578624  0.05621089  0.27751561  1
  C  C1  1  0.50404058  0.22217665  0.94475647  1
  C  C2  1  0.50369331  0.72189448  0.77655511  1
  C  C3  1  0.50578503  0.22130273  0.27751417  1
  C  C4  1  0.50403857  0.72257905  0.94476443  1
  C  C5  1  0.50370008  0.05466537  0.77655971  1
  C  C6  1  0.50825426  0.00017501  0.16618987  1
  C  C7  1  0.50699334  0.16597683  0.99945372  1
  C  C8  1  0.50633047  0.83287970  0.83184668  1
  C  C9  1  0.50825217  0.16600949  0.16618802  1
  C  C10  1  0.50699148  0.83347517  0.99945867  1
  C  C11  1  0.50633306  0.99896658  0.83184810  1
  C  C12  1  0.50512304  0.50030362  0.66727139  1
  C  C13  1  0.50575625  0.16717147  0.50059158  1
  C  C14  1  0.50529141  0.33431551  0.83510346  1
  C  C15  1  0.50512408  0.16697313  0.66727316  1
  C  C16  1  0.50575621  0.33342610  0.50059107  1
  C  C17  1  0.50529117  0.50079010  0.83510372  1
  C  C18  1  0.49967436  0.05666509  0.44464691  1
  C  C19  1  0.49947597  0.38979237  0.94641748  1
  C  C20  1  0.49943114  0.55547049  0.61160828  1
  C  C21  1  0.49967333  0.38798749  0.44464285  1
  C  C22  1  0.49947550  0.55662675  0.94641986  1
  C  C23  1  0.49943546  0.05614871  0.61161559  1
  C  C24  1  0.49895119  0.00184362  0.33359167  1
  C  C25  1  0.49837303  0.33361636  0.00113580  1
  C  C26  1  0.49824673  0.66612261  0.66492359  1
  C  C27  1  0.49895132  0.33174170  0.33358812  1
  C  C28  1  0.49837155  0.66751864  0.00115025  1
  C  C29  1  0.49825620  0.99881177  0.66493283  1
  C  C30  1  0.49191016  0.89147305  0.27745350  1
  C  C31  1  0.49206138  0.38898339  0.11276384  1
  C  C32  1  0.49290762  0.72128796  0.60790217  1
  C  C33  1  0.49190987  0.38596855  0.27744619  1
  C  C34  1  0.49205405  0.72377795  0.11278657  1
  C  C35  1  0.49291285  0.88663299  0.60791866  1
  C  C36  1  0.48452533  0.83683609  0.33369051  1
  C  C37  1  0.48473803  0.50182269  0.17072532  1
  C  C38  1  0.48691087  0.66478195  0.49460068  1
  C  C39  1  0.48452263  0.49684025  0.33367810  1
  C  C40  1  0.48473438  0.66889683  0.17076202  1
  C  C41  1  0.48691587  0.82985792  0.49462945  1
  C  C42  1  0.50440691  0.88932682  0.11055043  1
  C  C43  1  0.50440679  0.22121765  0.11054763  1
  C  C44  1  0.50343415  0.88799093  0.77598387  1
  C  C45  1  0.49539471  0.83453900  0.16674084  1
  C  C46  1  0.49539623  0.33218801  0.16673108  1
  C  C47  1  0.49592526  0.83192829  0.66385299  1
  C  C48  1  0.48005869  0.72990590  0.27968879  1
  C  C49  1  0.48005004  0.54971682  0.27962513  1
  C  C50  1  0.48416076  0.71955350  0.43904687  1
  C  C51  1  0.50517390  0.66672387  0.83306593  1
  C  C52  1  0.50733798  0.16677634  0.33355709  1
  C  C53  1  0.50517720  0.16634013  0.83306396  1
  C  C54  1  0.50587669  0.55607234  0.77877193  1
  C  C55  1  0.50712072  0.22239577  0.44478683  1
  C  C56  1  0.50587766  0.22270374  0.77877384  1
  C  C57  1  0.50739479  0.38918652  0.61199853  1
  C  C58  1  0.50739461  0.22281752  0.61199912  1
  C  C59  1  0.50737928  0.38970969  0.77941636  1
  C  C60  1  0.50902037  0.33389901  0.66779515  1
  C  C61  1  0.49495140  0.00054991  0.50004279  1
  C  C62  1  0.49488164  0.50170110  0.00340164  1
  C  C63  1  0.49495078  0.49950097  0.50003428  1
  C  C64  1  0.48744284  0.89135283  0.44478368  1
  C  C65  1  0.48665633  0.55702705  0.11406214  1
  C  C66  1  0.48743673  0.55343983  0.44476664  1
  C  C67  1  0.51017723  0.05479704  0.94334511  1
  C  C68  1  0.51017494  0.88854703  0.94334538  1
  C  C69  1  0.51160442  0.05517614  0.11035519  1
  C  C70  1  0.51209840  0.99945119  0.99890654  1
