# generated using pymatgen
data_V2CuS4
_symmetry_space_group_name_H-M   'P 1'
_cell_length_a   6.96446218
_cell_length_b   6.96446218
_cell_length_c   6.96446218
_cell_angle_alpha   90.30842469
_cell_angle_beta   119.45152166
_cell_angle_gamma   120.19403926
_symmetry_Int_Tables_number   1
_chemical_formula_structural   V2CuS4
_chemical_formula_sum   'V4 Cu2 S8'
_cell_volume   239.48596943
_cell_formula_units_Z   2
loop_
 _symmetry_equiv_pos_site_id
 _symmetry_equiv_pos_as_xyz
  1  'x, y, z'
loop_
 _atom_site_type_symbol
 _atom_site_label
 _atom_site_symmetry_multiplicity
 _atom_site_fract_x
 _atom_site_fract_y
 _atom_site_fract_z
 _atom_site_occupancy
  V  V0  1  0.73105868  0.47836491  0.74730623  1
  V  V1  1  0.26894132  0.01624756  0.74730623  1
  V  V2  1  0.26311473  0.50626908  0.76938381  1
  V  V3  1  0.73688527  0.50626908  0.24315435  1
  Cu  Cu4  1  -0.00000000  0.12572927  0.12572927  1
  Cu  Cu5  1  0.50000000  0.87412756  0.37412756  1
  S  S6  1  0.74017595  0.73425964  0.99408369  1
  S  S7  1  0.25982405  0.25390774  0.99408369  1
  S  S8  1  0.76657896  0.27312824  0.50654928  1
  S  S9  1  0.23342104  0.73997033  0.50654928  1
  S  S10  1  0.23181719  0.74548940  0.97730659  1
  S  S11  1  0.76818281  0.74548940  0.51367221  1
  S  S12  1  0.74286564  0.25637389  0.99923953  1
  S  S13  1  0.25713436  0.25637389  0.51350826  1
