# generated using pymatgen
data_Li
_symmetry_space_group_name_H-M   'P 1'
_cell_length_a   8.51582050
_cell_length_b   8.51582050
_cell_length_c   5.40685931
_cell_angle_alpha   90.00000000
_cell_angle_beta   90.00000000
_cell_angle_gamma   141.78363217
_symmetry_Int_Tables_number   1
_chemical_formula_structural   Li
_chemical_formula_sum   Li12
_cell_volume   242.56663127
_cell_formula_units_Z   12
loop_
 _symmetry_equiv_pos_site_id
 _symmetry_equiv_pos_as_xyz
  1  'x, y, z'
loop_
 _atom_site_type_symbol
 _atom_site_label
 _atom_site_symmetry_multiplicity
 _atom_site_fract_x
 _atom_site_fract_y
 _atom_site_fract_z
 _atom_site_occupancy
  Li  Li0  1  0.75595322  0.75595322  0.59780879  1
  Li  Li1  1  0.24404678  0.24404678  0.40219121  1
  Li  Li2  1  0.74404678  0.74404678  0.09780879  1
  Li  Li3  1  0.25595322  0.25595322  0.90219121  1
  Li  Li4  1  0.78195870  0.45482133  0.75387145  1
  Li  Li5  1  0.54517867  0.21804130  0.24612855  1
  Li  Li6  1  0.04517867  0.71804130  0.25387145  1
  Li  Li7  1  0.28195870  0.95482133  0.74612855  1
  Li  Li8  1  0.21804130  0.54517867  0.24612855  1
  Li  Li9  1  0.45482133  0.78195870  0.75387145  1
  Li  Li10  1  0.95482133  0.28195870  0.74612855  1
  Li  Li11  1  0.71804130  0.04517867  0.25387145  1
