# generated using pymatgen
data_Fe3P4O15
_symmetry_space_group_name_H-M   'P 1'
_cell_length_a   17.59203231
_cell_length_b   6.42794586
_cell_length_c   11.00014500
_cell_angle_alpha   90.00000000
_cell_angle_beta   90.00000000
_cell_angle_gamma   90.00000000
_symmetry_Int_Tables_number   1
_chemical_formula_structural   Fe3P4O15
_chemical_formula_sum   'Fe12 P16 O60'
_cell_volume   1243.90334051
_cell_formula_units_Z   4
loop_
 _symmetry_equiv_pos_site_id
 _symmetry_equiv_pos_as_xyz
  1  'x, y, z'
loop_
 _atom_site_type_symbol
 _atom_site_label
 _atom_site_symmetry_multiplicity
 _atom_site_fract_x
 _atom_site_fract_y
 _atom_site_fract_z
 _atom_site_occupancy
  Fe  Fe0  1  0.13235056  0.57757333  0.49162920  1
  Fe  Fe1  1  0.14171479  0.59280115  0.01758585  1
  Fe  Fe2  1  0.24795212  0.31614731  0.74087204  1
  Fe  Fe3  1  0.25204788  0.81614731  0.24087204  1
  Fe  Fe4  1  0.35828521  0.09280115  0.51758585  1
  Fe  Fe5  1  0.36764944  0.07757333  0.99162920  1
  Fe  Fe6  1  0.63235056  0.57757333  0.00837080  1
  Fe  Fe7  1  0.64171479  0.59280115  0.48241415  1
  Fe  Fe8  1  0.74795212  0.31614731  0.75912796  1
  Fe  Fe9  1  0.75204788  0.81614731  0.25912796  1
  Fe  Fe10  1  0.85828521  0.09280115  0.98241415  1
  Fe  Fe11  1  0.86764944  0.07757333  0.50837080  1
  P  P12  1  0.06421051  0.67597983  0.23378540  1
  P  P13  1  0.07720397  0.45494101  0.75612148  1
  P  P14  1  0.18696369  0.07567748  0.47627781  1
  P  P15  1  0.20498576  0.08480423  0.99855655  1
  P  P16  1  0.29501424  0.58480423  0.49855655  1
  P  P17  1  0.31303631  0.57567748  0.97627781  1
  P  P18  1  0.42279703  0.95494101  0.25612148  1
  P  P19  1  0.43578949  0.17597983  0.73378540  1
  P  P20  1  0.56421051  0.67597983  0.26621460  1
  P  P21  1  0.57720297  0.45494101  0.74387852  1
  P  P22  1  0.68696369  0.07567748  0.02372219  1
  P  P23  1  0.70498576  0.08480423  0.50144345  1
  P  P24  1  0.79501424  0.58480423  0.00144345  1
  P  P25  1  0.81303631  0.57567748  0.52372219  1
  P  P26  1  0.92279703  0.95494101  0.24387852  1
  P  P27  1  0.93578949  0.17597983  0.76621460  1
  O  O28  1  0.00486601  0.86023022  0.21901095  1
  O  O29  1  0.05254335  0.53272034  0.12374550  1
  O  O30  1  0.05664992  0.58295512  0.35960274  1
  O  O31  1  0.07028525  0.57193070  0.63598693  1
  O  O32  1  0.08985191  0.59843976  0.86385644  1
  O  O33  1  0.13669138  0.88670350  0.50260556  1
  O  O34  1  0.13766572  0.27096242  0.46632574  1
  O  O35  1  0.13746028  0.28168768  0.75046104  1
  O  O36  1  0.14303630  0.77531494  0.21114613  1
  O  O37  1  0.15142263  0.90208356  0.97841823  1
  O  O38  1  0.15988464  0.28372514  0.02189767  1
  O  O39  1  0.23625795  0.53988631  0.60362420  1
  O  O40  1  0.24717734  0.10826352  0.58286665  1
  O  O41  1  0.23841722  0.61158384  0.38746456  1
  O  O42  1  0.23710573  0.04353662  0.36158975  1
  O  O43  1  0.26289427  0.54353662  0.86158975  1
  O  O44  1  0.26158278  0.11158384  0.88746456  1
  O  O45  1  0.25282266  0.60826352  0.08286665  1
  O  O46  1  0.26374205  0.03988631  0.10362420  1
  O  O47  1  0.34011536  0.78372514  0.52189767  1
  O  O48  1  0.34857737  0.40208356  0.47841823  1
  O  O49  1  0.35696370  0.27531494  0.71114613  1
  O  O50  1  0.36253972  0.78168768  0.25046104  1
  O  O51  1  0.36233428  0.77096242  0.96632574  1
  O  O52  1  0.36330862  0.38670350  0.00260556  1
  O  O53  1  0.41014809  0.09843876  0.36385644  1
  O  O54  1  0.42971475  0.07193070  0.13598693  1
  O  O55  1  0.44335008  0.08295512  0.85960374  1
  O  O56  1  0.44745665  0.03272034  0.62374550  1
  O  O57  1  0.49513399  0.36023022  0.71901095  1
  O  O58  1  0.50486601  0.86023022  0.28098905  1
  O  O59  1  0.55254335  0.53272034  0.37625450  1
  O  O60  1  0.55664992  0.58295512  0.14039726  1
  O  O61  1  0.57028525  0.57193070  0.86401307  1
  O  O62  1  0.58985191  0.59843976  0.63614356  1
  O  O63  1  0.63669138  0.88670350  0.99739444  1
  O  O64  1  0.63766572  0.27096242  0.03367426  1
  O  O65  1  0.63746028  0.28168768  0.74953896  1
  O  O66  1  0.64303630  0.77531494  0.28885387  1
  O  O67  1  0.65142263  0.90208356  0.52158177  1
  O  O68  1  0.65988464  0.28372514  0.47810233  1
  O  O69  1  0.73625795  0.53988631  0.89637580  1
  O  O70  1  0.74717734  0.10826352  0.91713335  1
  O  O71  1  0.73841722  0.61158384  0.11253544  1
  O  O72  1  0.73710573  0.04353662  0.13841025  1
  O  O73  1  0.76289427  0.54353662  0.63841025  1
  O  O74  1  0.76158278  0.11158384  0.61253544  1
  O  O75  1  0.75282266  0.60826352  0.41713335  1
  O  O76  1  0.76374205  0.03988631  0.39637580  1
  O  O77  1  0.84011536  0.78372514  0.97810233  1
  O  O78  1  0.84857737  0.40208356  0.02158177  1
  O  O79  1  0.85696370  0.27531494  0.78885387  1
  O  O80  1  0.86253972  0.78168768  0.24953896  1
  O  O81  1  0.86233428  0.77096242  0.53367426  1
  O  O82  1  0.86330862  0.38670350  0.49739444  1
  O  O83  1  0.91014809  0.09843876  0.13614356  1
  O  O84  1  0.92971475  0.07193070  0.36401307  1
  O  O85  1  0.94335008  0.08295512  0.64039626  1
  O  O86  1  0.94745665  0.03272034  0.87625450  1
  O  O87  1  0.99513399  0.36023022  0.78098905  1
