# generated using pymatgen
data_Al2(WO4)3
_symmetry_space_group_name_H-M   'P 1'
_cell_length_a   4.63013760
_cell_length_b   16.42690584
_cell_length_c   5.49562553
_cell_angle_alpha   67.51945228
_cell_angle_beta   88.21938851
_cell_angle_gamma   87.72804447
_symmetry_Int_Tables_number   1
_chemical_formula_structural   Al2(WO4)3
_chemical_formula_sum   'Al4 W6 O24'
_cell_volume   385.86655505
_cell_formula_units_Z   2
loop_
 _symmetry_equiv_pos_site_id
 _symmetry_equiv_pos_as_xyz
  1  'x, y, z'
loop_
 _atom_site_type_symbol
 _atom_site_label
 _atom_site_symmetry_multiplicity
 _atom_site_fract_x
 _atom_site_fract_y
 _atom_site_fract_z
 _atom_site_occupancy
  Al  Al0  1  0.49737190  0.41405282  0.26465843  1
  Al  Al1  1  0.50188758  0.75220464  0.23493939  1
  Al  Al2  1  0.50262810  0.25261418  0.73534157  1
  Al  Al3  1  0.49811242  0.91446136  0.76506061  1
  W  W4  1  0.00181522  0.24380157  0.23563134  1
  W  W5  1  0.00153715  0.58346287  0.25111262  1
  W  W6  1  0.99867008  0.92281723  0.26455819  1
  W  W7  1  0.99846285  0.08320413  0.74888738  1
  W  W8  1  0.99818478  0.42286443  0.76436866  1
  W  W9  1  0.00132992  0.74384977  0.73544181  1
  O  O10  1  0.21079945  0.19942250  0.58066076  1
  O  O11  1  0.16298194  0.53493545  0.61084821  1
  O  O12  1  0.19809575  0.86531237  0.60313712  1
  O  O13  1  0.83701806  0.13173155  0.38915179  1
  O  O14  1  0.78920055  0.46724350  0.41933924  1
  O  O15  1  0.80190425  0.80135463  0.39686288  1
  O  O16  1  0.80124134  0.30161348  0.89685358  1
  O  O17  1  0.83840451  0.63179346  0.89134686  1
  O  O18  1  0.78770346  0.96716096  0.91840802  1
  O  O19  1  0.16159549  0.03487254  0.10865314  1
  O  O20  1  0.19875866  0.36505352  0.10314642  1
  O  O21  1  0.21229654  0.69950604  0.08159198  1
  O  O22  1  0.70962319  0.14712927  0.84475198  1
  O  O23  1  0.70364373  0.45270294  0.94539097  1
  O  O24  1  0.69843648  0.80139553  0.89649913  1
  O  O25  1  0.28950146  0.01979661  0.65310784  1
  O  O26  1  0.30181437  0.36526796  0.60366741  1
  O  O27  1  0.29718128  0.71419372  0.55528131  1
  O  O28  1  0.29635627  0.21396406  0.05460903  1
  O  O29  1  0.29037681  0.51953673  0.15524802  1
  O  O30  1  0.30156352  0.86527147  0.10350087  1
  O  O31  1  0.69818563  0.30139904  0.39633259  1
  O  O32  1  0.71049854  0.64687039  0.34689216  1
  O  O33  1  0.70281872  0.95247228  0.44471869  1
