# generated using pymatgen
data_K2LiCeBr6
_symmetry_space_group_name_H-M   'P 1'
_cell_length_a   7.93335694
_cell_length_b   7.93451955
_cell_length_c   7.93451386
_cell_angle_alpha   60.01237358
_cell_angle_beta   60.00745318
_cell_angle_gamma   60.00748787
_symmetry_Int_Tables_number   1
_chemical_formula_structural   K2LiCeBr6
_chemical_formula_sum   'K2 Li1 Ce1 Br6'
_cell_volume   353.24220718
_cell_formula_units_Z   1
loop_
 _symmetry_equiv_pos_site_id
 _symmetry_equiv_pos_as_xyz
  1  'x, y, z'
loop_
 _atom_site_type_symbol
 _atom_site_label
 _atom_site_symmetry_multiplicity
 _atom_site_fract_x
 _atom_site_fract_y
 _atom_site_fract_z
 _atom_site_occupancy
  K  K0  1  0.25000082  0.24999967  0.24999969  1
  K  K1  1  0.74999918  0.75000033  0.75000031  1
  Li  Li2  1  0.50000000  0.50000000  0.50000000  1
  Ce  Ce3  1  1.00000000  1.00000000  1.00000000  1
  Br  Br4  1  0.25720329  0.74280123  0.25719786  1
  Br  Br5  1  0.74279667  0.74280218  0.25719879  1
  Br  Br6  1  0.74279671  0.25719877  0.74280214  1
  Br  Br7  1  0.74280024  0.25719894  0.25719902  1
  Br  Br8  1  0.25719976  0.74280107  0.74280098  1
  Br  Br9  1  0.25720334  0.25719782  0.74280121  1
