# generated using pymatgen
data_CrFeCoNi
_symmetry_space_group_name_H-M   'P 1'
_cell_length_a   9.98964842
_cell_length_b   10.00915659
_cell_length_c   9.98709376
_cell_angle_alpha   60.03010541
_cell_angle_beta   59.96849649
_cell_angle_gamma   59.98299518
_symmetry_Int_Tables_number   1
_chemical_formula_structural   CrFeCoNi
_chemical_formula_sum   'Cr16 Fe16 Co16 Ni16'
_cell_volume   706.01045700
_cell_formula_units_Z   16
loop_
 _symmetry_equiv_pos_site_id
 _symmetry_equiv_pos_as_xyz
  1  'x, y, z'
loop_
 _atom_site_type_symbol
 _atom_site_label
 _atom_site_symmetry_multiplicity
 _atom_site_fract_x
 _atom_site_fract_y
 _atom_site_fract_z
 _atom_site_occupancy
  Cr  Cr0  1  0.99695640  0.00353435  0.25032037  1
  Cr  Cr1  1  0.99273576  0.00796997  0.74905362  1
  Cr  Cr2  1  0.99916216  0.25181298  0.99731679  1
  Cr  Cr3  1  0.99779439  0.50573837  0.74639590  1
  Cr  Cr4  1  0.99728650  0.74939612  0.00177948  1
  Cr  Cr5  1  0.99946198  0.75000665  0.50199225  1
  Cr  Cr6  1  0.25102790  0.00051831  0.49865101  1
  Cr  Cr7  1  0.50941495  0.99675649  0.74488004  1
  Cr  Cr8  1  0.49537335  0.25483561  0.75377986  1
  Cr  Cr9  1  0.49931395  0.50192671  0.00008629  1
  Cr  Cr10  1  0.75428465  0.99415940  0.75284800  1
  Cr  Cr11  1  0.75421437  0.24120569  0.99923465  1
  Cr  Cr12  1  0.75881768  0.23909461  0.49563070  1
  Cr  Cr13  1  0.75147846  0.50133235  0.49943084  1
  Cr  Cr14  1  0.75262335  0.50017957  0.74822804  1
  Cr  Cr15  1  0.74951450  0.74610458  0.75320507  1
  Fe  Fe16  1  0.99570087  0.25637256  0.49696891  1
  Fe  Fe17  1  0.99646377  0.25278704  0.75081577  1
  Fe  Fe18  1  0.00007487  0.49854674  0.00311953  1
  Fe  Fe19  1  0.00050798  0.50016243  0.49929182  1
  Fe  Fe20  1  0.25119121  0.00134702  0.00087209  1
  Fe  Fe21  1  0.24625556  0.25022336  0.24893400  1
  Fe  Fe22  1  0.24771828  0.49924828  0.25092186  1
  Fe  Fe23  1  0.25055806  0.75036578  0.99878317  1
  Fe  Fe24  1  0.50252092  0.99756508  0.24992275  1
  Fe  Fe25  1  0.50178787  0.25053827  0.00026464  1
  Fe  Fe26  1  0.49832531  0.50257109  0.24926600  1
  Fe  Fe27  1  0.49977111  0.50041914  0.50029935  1
  Fe  Fe28  1  0.49892693  0.49921396  0.75236565  1
  Fe  Fe29  1  0.75018368  0.24668902  0.25100670  1
  Fe  Fe30  1  0.75099867  0.24951376  0.74966755  1
  Fe  Fe31  1  0.75203574  0.49821269  0.25371859  1
  Co  Co32  1  0.99900818  0.00078524  0.49939952  1
  Co  Co33  1  0.00078631  0.24700236  0.25111689  1
  Co  Co34  1  0.99992196  0.50124002  0.24977134  1
  Co  Co35  1  0.99925016  0.75051925  0.25037243  1
  Co  Co36  1  0.99908615  0.75449177  0.74839757  1
  Co  Co37  1  0.24640211  0.00041878  0.25038762  1
  Co  Co38  1  0.25078361  0.24680565  0.99912654  1
  Co  Co39  1  0.25071925  0.24912671  0.49842085  1
  Co  Co40  1  0.25176779  0.49811371  0.49965230  1
  Co  Co41  1  0.24689195  0.75043538  0.25438945  1
  Co  Co42  1  0.50073357  0.00249718  0.49871967  1
  Co  Co43  1  0.49903833  0.75281445  0.99826178  1
  Co  Co44  1  0.75143257  0.99872973  0.99947724  1
  Co  Co45  1  0.75155809  0.00133062  0.25015881  1
  Co  Co46  1  0.75089470  0.00113369  0.49950212  1
  Co  Co47  1  0.75278144  0.74989977  0.24922940  1
  Ni  Ni48  1  0.99968173  0.00021942  0.00132873  1
  Ni  Ni49  1  0.24986937  0.00123008  0.75013284  1
  Ni  Ni50  1  0.25003403  0.24885893  0.74914904  1
  Ni  Ni51  1  0.24893397  0.49884305  0.00080078  1
  Ni  Ni52  1  0.24791594  0.49947095  0.75066955  1
  Ni  Ni53  1  0.24934452  0.74932542  0.49975930  1
  Ni  Ni54  1  0.24915558  0.74961530  0.75054969  1
  Ni  Ni55  1  0.50027747  0.00151883  0.99959657  1
  Ni  Ni56  1  0.49980569  0.24930884  0.25193994  1
  Ni  Ni57  1  0.50094500  0.24874123  0.49981592  1
  Ni  Ni58  1  0.49957593  0.75062173  0.24922278  1
  Ni  Ni59  1  0.50085257  0.74898927  0.50107990  1
  Ni  Ni60  1  0.49815808  0.75233259  0.74890400  1
  Ni  Ni61  1  0.75016511  0.49829539  0.00239386  1
  Ni  Ni62  1  0.75033792  0.74847867  0.00023375  1
  Ni  Ni63  1  0.75140972  0.75045800  0.49898858  1
