# generated using pymatgen
data_TlV4FeS8
_symmetry_space_group_name_H-M   'P 1'
_cell_length_a   3.30342337
_cell_length_b   8.46590901
_cell_length_c   8.86147251
_cell_angle_alpha   105.15332130
_cell_angle_beta   100.74232688
_cell_angle_gamma   90.00000000
_symmetry_Int_Tables_number   1
_chemical_formula_structural   TlV4FeS8
_chemical_formula_sum   'Tl1 V4 Fe1 S8'
_cell_volume   234.70488321
_cell_formula_units_Z   1
loop_
 _symmetry_equiv_pos_site_id
 _symmetry_equiv_pos_as_xyz
  1  'x, y, z'
loop_
 _atom_site_type_symbol
 _atom_site_label
 _atom_site_symmetry_multiplicity
 _atom_site_fract_x
 _atom_site_fract_y
 _atom_site_fract_z
 _atom_site_occupancy
  Tl  Tl0  1  0.50000000  -0.00000000  -0.00000000  1
  V  V1  1  0.71091983  0.85880637  0.42183965  1
  V  V2  1  0.28908017  0.14119363  0.57816035  1
  V  V3  1  0.64665035  0.49828919  0.29330069  1
  V  V4  1  0.35334965  0.50171081  0.70669931  1
  Fe  Fe5  1  -0.00000000  0.50000000  -0.00000000  1
  S  S6  1  0.84119374  0.00480828  0.68238749  1
  S  S7  1  0.15880626  0.99519172  0.31761251  1
  S  S8  1  0.75895894  0.33838655  0.51791788  1
  S  S9  1  0.24104106  0.66161345  0.48208212  1
  S  S10  1  0.91890227  0.67709273  0.83780453  1
  S  S11  1  0.08109773  0.32290727  0.16219547  1
  S  S12  1  0.56935207  0.66945200  0.13870414  1
  S  S13  1  0.43064793  0.33054800  0.86129586  1
