# generated using pymatgen
data_Th5Pb3
_symmetry_space_group_name_H-M   'P 1'
_cell_length_a   6.57866711
_cell_length_b   9.53661150
_cell_length_c   9.53697790
_cell_angle_alpha   119.99873576
_cell_angle_beta   90.00000000
_cell_angle_gamma   90.00000000
_symmetry_Int_Tables_number   1
_chemical_formula_structural   Th5Pb3
_chemical_formula_sum   'Th10 Pb6'
_cell_volume   518.17796627
_cell_formula_units_Z   2
loop_
 _symmetry_equiv_pos_site_id
 _symmetry_equiv_pos_as_xyz
  1  'x, y, z'
loop_
 _atom_site_type_symbol
 _atom_site_label
 _atom_site_symmetry_multiplicity
 _atom_site_fract_x
 _atom_site_fract_y
 _atom_site_fract_z
 _atom_site_occupancy
  Th  Th0  1  0.49999906  0.33335557  0.66673562  1
  Th  Th1  1  0.49999906  0.66661996  0.33326438  1
  Th  Th2  1  0.99999906  0.66664443  0.33326438  1
  Th  Th3  1  0.99999906  0.33338004  0.66673562  1
  Th  Th4  1  0.74999566  0.25241483  0.00000000  1
  Th  Th5  1  0.75000267  0.74762648  0.74765878  1
  Th  Th6  1  0.75000267  0.99996770  0.25234122  1
  Th  Th7  1  0.24999566  0.74758517  1.00000000  1
  Th  Th8  1  0.25000267  0.25237352  0.25234122  1
  Th  Th9  1  0.25000267  0.00003230  0.74765878  1
  Pb  Pb10  1  0.74999494  0.61216904  0.00000000  1
  Pb  Pb11  1  0.75000297  0.38782752  0.38783504  1
  Pb  Pb12  1  0.75000297  0.99999248  0.61216496  1
  Pb  Pb13  1  0.24999494  0.38783096  1.00000000  1
  Pb  Pb14  1  0.25000297  0.61217248  0.61216496  1
  Pb  Pb15  1  0.25000297  0.00000752  0.38783504  1
