# generated using pymatgen
data_VPO5
_symmetry_space_group_name_H-M   'P 1'
_cell_length_a   5.23373740
_cell_length_b   5.23373740
_cell_length_c   7.31210681
_cell_angle_alpha   108.48254689
_cell_angle_beta   108.48254689
_cell_angle_gamma   101.19144255
_symmetry_Int_Tables_number   1
_chemical_formula_structural   VPO5
_chemical_formula_sum   'V2 P2 O10'
_cell_volume   170.22815748
_cell_formula_units_Z   2
loop_
 _symmetry_equiv_pos_site_id
 _symmetry_equiv_pos_as_xyz
  1  'x, y, z'
loop_
 _atom_site_type_symbol
 _atom_site_label
 _atom_site_symmetry_multiplicity
 _atom_site_fract_x
 _atom_site_fract_y
 _atom_site_fract_z
 _atom_site_occupancy
  V  V0  1  -0.00000000  0.50000000  0.50000000  1
  V  V1  1  0.50000000  0.00000000  -0.00000000  1
  P  P2  1  0.07869552  0.92130448  0.25000000  1
  P  P3  1  0.92130448  0.07869552  0.75000000  1
  O  O4  1  0.14608960  0.76579873  0.39765187  1
  O  O5  1  0.23420127  0.85391040  0.10234813  1
  O  O6  1  0.85391040  0.23420127  0.60234813  1
  O  O7  1  0.76579873  0.14608960  0.89765187  1
  O  O8  1  0.75241883  0.81410784  0.11501310  1
  O  O9  1  0.18589216  0.24758117  0.38498690  1
  O  O10  1  0.24758117  0.18589216  0.88498690  1
  O  O11  1  0.81410784  0.75241883  0.61501310  1
  O  O12  1  0.68614595  0.31385405  0.25000000  1
  O  O13  1  0.31385405  0.68614595  0.75000000  1
