# generated using pymatgen
data_Rb2PrAgF6
_symmetry_space_group_name_H-M   'P 1'
_cell_length_a   6.72627371
_cell_length_b   6.72627393
_cell_length_c   6.72627618
_cell_angle_alpha   59.99957909
_cell_angle_beta   59.99958437
_cell_angle_gamma   59.99962052
_symmetry_Int_Tables_number   1
_chemical_formula_structural   Rb2PrAgF6
_chemical_formula_sum   'Rb2 Pr1 Ag1 F6'
_cell_volume   215.18143159
_cell_formula_units_Z   1
loop_
 _symmetry_equiv_pos_site_id
 _symmetry_equiv_pos_as_xyz
  1  'x, y, z'
loop_
 _atom_site_type_symbol
 _atom_site_label
 _atom_site_symmetry_multiplicity
 _atom_site_fract_x
 _atom_site_fract_y
 _atom_site_fract_z
 _atom_site_occupancy
  Rb  Rb0  1  0.25000006  0.25000011  0.25000012  1
  Rb  Rb1  1  0.74999988  0.74999990  0.74999993  1
  Pr  Pr2  1  0.50000009  0.49999990  0.50000003  1
  Ag  Ag3  1  -0.00000003  0.00000003  -0.00000002  1
  F  F4  1  0.25891023  0.74109008  0.25891018  1
  F  F5  1  0.74108987  0.74108989  0.25890983  1
  F  F6  1  0.74108977  0.25890994  0.74108981  1
  F  F7  1  0.74109001  0.25891026  0.25891025  1
  F  F8  1  0.25890999  0.74108976  0.74108971  1
  F  F9  1  0.25891012  0.25891012  0.74109016  1
