# generated using pymatgen
data_FeCuS2
_symmetry_space_group_name_H-M   'P 1'
_cell_length_a   3.40984367
_cell_length_b   3.40984324
_cell_length_c   6.24215494
_cell_angle_alpha   74.14937711
_cell_angle_beta   74.14937645
_cell_angle_gamma   60.00000421
_symmetry_Int_Tables_number   1
_chemical_formula_structural   FeCuS2
_chemical_formula_sum   'Fe1 Cu1 S2'
_cell_volume   59.64635661
_cell_formula_units_Z   1
loop_
 _symmetry_equiv_pos_site_id
 _symmetry_equiv_pos_as_xyz
  1  'x, y, z'
loop_
 _atom_site_type_symbol
 _atom_site_label
 _atom_site_symmetry_multiplicity
 _atom_site_fract_x
 _atom_site_fract_y
 _atom_site_fract_z
 _atom_site_occupancy
  Fe  Fe0  1  0.00063428  0.00063428  0.99809715  1
  Cu  Cu1  1  0.85397936  0.85397936  0.43806192  1
  S  S2  1  0.73064358  0.73064358  0.80806927  1
  S  S3  1  0.26174278  0.26174278  0.21477166  1
