# generated using pymatgen
data_K2YCuBr6
_symmetry_space_group_name_H-M   'P 1'
_cell_length_a   7.73426136
_cell_length_b   7.73426286
_cell_length_c   7.73425987
_cell_angle_alpha   59.99871768
_cell_angle_beta   59.99872967
_cell_angle_gamma   59.99870229
_symmetry_Int_Tables_number   1
_chemical_formula_structural   K2YCuBr6
_chemical_formula_sum   'K2 Y1 Cu1 Br6'
_cell_volume   327.13641989
_cell_formula_units_Z   1
loop_
 _symmetry_equiv_pos_site_id
 _symmetry_equiv_pos_as_xyz
  1  'x, y, z'
loop_
 _atom_site_type_symbol
 _atom_site_label
 _atom_site_symmetry_multiplicity
 _atom_site_fract_x
 _atom_site_fract_y
 _atom_site_fract_z
 _atom_site_occupancy
  K  K0  1  0.25000023  0.25000033  0.25000022  1
  K  K1  1  0.74999973  0.74999977  0.74999972  1
  Y  Y2  1  0.50000002  0.49999999  0.49999998  1
  Cu  Cu3  1  -0.00000001  -0.00000001  0.00000007  1
  Br  Br4  1  0.24478374  0.75521554  0.24478371  1
  Br  Br5  1  0.75521622  0.75521618  0.24478453  1
  Br  Br6  1  0.75521627  0.24478443  0.75521626  1
  Br  Br7  1  0.75521558  0.24478370  0.24478374  1
  Br  Br8  1  0.24478444  0.75521626  0.75521626  1
  Br  Br9  1  0.24478378  0.24478380  0.75521550  1
