# generated using pymatgen
data_Rb2AlInCl6
_symmetry_space_group_name_H-M   'P 1'
_cell_length_a   7.60974981
_cell_length_b   7.60975011
_cell_length_c   7.60975010
_cell_angle_alpha   59.99999896
_cell_angle_beta   59.99999845
_cell_angle_gamma   59.99999857
_symmetry_Int_Tables_number   1
_chemical_formula_structural   Rb2AlInCl6
_chemical_formula_sum   'Rb2 Al1 In1 Cl6'
_cell_volume   311.59907378
_cell_formula_units_Z   1
loop_
 _symmetry_equiv_pos_site_id
 _symmetry_equiv_pos_as_xyz
  1  'x, y, z'
loop_
 _atom_site_type_symbol
 _atom_site_label
 _atom_site_symmetry_multiplicity
 _atom_site_fract_x
 _atom_site_fract_y
 _atom_site_fract_z
 _atom_site_occupancy
  Rb  Rb0  1  0.25000000  0.25000000  0.25000000  1
  Rb  Rb1  1  0.75000000  0.75000000  0.75000000  1
  Al  Al2  1  0.00000000  -0.00000000  -0.00000000  1
  In  In3  1  0.50000000  0.50000000  0.50000000  1
  Cl  Cl4  1  0.21872232  0.78127768  0.21872232  1
  Cl  Cl5  1  0.78127768  0.78127768  0.21872232  1
  Cl  Cl6  1  0.78127768  0.21872232  0.78127768  1
  Cl  Cl7  1  0.78127768  0.21872232  0.21872232  1
  Cl  Cl8  1  0.21872232  0.78127768  0.78127768  1
  Cl  Cl9  1  0.21872232  0.21872232  0.78127768  1
