# generated using pymatgen
data_H4C7
_symmetry_space_group_name_H-M   'P 1'
_cell_length_a   8.91431685
_cell_length_b   11.45338330
_cell_length_c   15.32341398
_cell_angle_alpha   90.00000000
_cell_angle_beta   92.52156488
_cell_angle_gamma   90.00000000
_symmetry_Int_Tables_number   1
_chemical_formula_structural   H4C7
_chemical_formula_sum   'H48 C84'
_cell_volume   1562.99172883
_cell_formula_units_Z   12
loop_
 _symmetry_equiv_pos_site_id
 _symmetry_equiv_pos_as_xyz
  1  'x, y, z'
loop_
 _atom_site_type_symbol
 _atom_site_label
 _atom_site_symmetry_multiplicity
 _atom_site_fract_x
 _atom_site_fract_y
 _atom_site_fract_z
 _atom_site_occupancy
  H  H0  1  0.88181578  0.28698101  0.39266485  1
  H  H1  1  0.11818422  0.78698101  0.60733515  1
  H  H2  1  0.73882010  0.13173169  0.46428190  1
  H  H3  1  0.26117990  0.63173169  0.53571810  1
  H  H4  1  0.82388457  0.92434212  0.45585175  1
  H  H5  1  0.17611543  0.42434212  0.54414825  1
  H  H6  1  0.97872226  0.78372897  0.40580103  1
  H  H7  1  0.02127774  0.28372897  0.59419897  1
  H  H8  1  0.20255237  0.71849362  0.32443954  1
  H  H9  1  0.79744763  0.21849362  0.67556046  1
  H  H10  1  0.35213213  0.86498894  0.24759837  1
  H  H11  1  0.64786787  0.36498894  0.75240163  1
  H  H12  1  0.94923007  0.29940341  0.20392156  1
  H  H13  1  0.05076993  0.79940341  0.79607844  1
  H  H14  1  0.06522938  0.46710398  0.13362515  1
  H  H15  1  0.93477062  0.96710398  0.86637485  1
  H  H16  1  0.28727963  0.59785238  0.11733183  1
  H  H17  1  0.71272037  0.09785238  0.88266817  1
  H  H18  1  0.53747804  0.66660644  0.17122440  1
  H  H19  1  0.46252196  0.16660644  0.82877560  1
  H  H20  1  0.74881804  0.65960911  0.28108571  1
  H  H21  1  0.25118196  0.15960911  0.71891429  1
  H  H22  1  0.86312842  0.57864078  0.41962900  1
  H  H23  1  0.13687158  0.07864078  0.58037100  1
  H  H24  1  0.73003843  0.42688820  0.50208564  1
  H  H25  1  0.26996157  0.92688820  0.49791436  1
  H  H26  1  0.51602754  0.29379716  0.51501731  1
  H  H27  1  0.48397246  0.79379716  0.48498269  1
  H  H28  1  0.27801503  0.20914832  0.45441483  1
  H  H29  1  0.72198497  0.70914832  0.54558517  1
  H  H30  1  0.50189587  0.07971299  0.32435900  1
  H  H31  1  0.49810413  0.57971299  0.67564100  1
  H  H32  1  0.67000021  0.20685831  0.24525277  1
  H  H33  1  0.32999979  0.70685831  0.75474723  1
  H  H34  1  0.71534890  0.34004175  0.11984891  1
  H  H35  1  0.28465110  0.84004175  0.88015109  1
  H  H36  1  0.62661525  0.43280934  0.98177023  1
  H  H37  1  0.37338475  0.93280934  0.01822977  1
  H  H38  1  0.42583995  0.46031495  0.86596277  1
  H  H39  1  0.57416005  0.96031495  0.13403723  1
  H  H40  1  0.17522088  0.40913597  0.80003770  1
  H  H41  1  0.82477912  0.90913597  0.19996230  1
  H  H42  1  0.01313475  0.26423689  0.87309840  1
  H  H43  1  0.98686525  0.76423689  0.12690160  1
  H  H44  1  0.96990344  0.13331889  0.99547961  1
  H  H45  1  0.03009656  0.63331889  0.00452039  1
  H  H46  1  0.05131318  0.04709013  0.13772541  1
  H  H47  1  0.94868682  0.54709013  0.86227459  1
  C  C48  1  0.04809321  0.17317462  0.34162717  1
  C  C49  1  0.95190679  0.67317462  0.65837283  1
  C  C50  1  0.91982208  0.19672451  0.38741611  1
  C  C51  1  0.08017792  0.69672451  0.61258389  1
  C  C52  1  0.83737491  0.10873157  0.42829136  1
  C  C53  1  0.16262509  0.60873157  0.57170864  1
  C  C54  1  0.88299604  0.99464219  0.42357858  1
  C  C55  1  0.11700396  0.49464219  0.57642142  1
  C  C56  1  0.00964770  0.96492914  0.37542978  1
  C  C57  1  0.99035230  0.46492914  0.62457022  1
  C  C58  1  0.04915077  0.84532620  0.37169140  1
  C  C59  1  0.95084923  0.34532620  0.62830860  1
  C  C60  1  0.17148218  0.81048352  0.32704969  1
  C  C61  1  0.82851782  0.31048352  0.67295031  1
  C  C62  1  0.25550415  0.89466717  0.28291798  1
  C  C63  1  0.74449585  0.39466717  0.71708202  1
  C  C64  1  0.21933904  0.01314334  0.28199841  1
  C  C65  1  0.78066096  0.51314334  0.71800159  1
  C  C66  1  0.09504829  0.05321592  0.33166425  1
  C  C67  1  0.90495171  0.55321592  0.66833575  1
  C  C68  1  0.12493028  0.27712046  0.30409384  1
  C  C69  1  0.87506972  0.77712046  0.69590616  1
  C  C70  1  0.05535414  0.33350417  0.23165731  1
  C  C71  1  0.94464586  0.83350417  0.76834269  1
  C  C72  1  0.12082102  0.42859469  0.19165225  1
  C  C73  1  0.87917898  0.92859469  0.80834775  1
  C  C74  1  0.26065984  0.47227921  0.22233908  1
  C  C75  1  0.73934016  0.97227921  0.77766092  1
  C  C76  1  0.32954791  0.42196612  0.29956320  1
  C  C77  1  0.67045209  0.92196612  0.70043680  1
  C  C78  1  0.33878764  0.56238745  0.17768608  1
  C  C79  1  0.66121236  0.06238745  0.82231392  1
  C  C80  1  0.47667493  0.60079828  0.20724711  1
  C  C81  1  0.52332507  0.10079828  0.79275289  1
  C  C82  1  0.54684561  0.55533551  0.28595682  1
  C  C83  1  0.45315439  0.05533551  0.71404318  1
  C  C84  1  0.47049520  0.46634849  0.33246737  1
  C  C85  1  0.52950480  0.96634849  0.66753263  1
  C  C86  1  0.68892177  0.59401630  0.31791938  1
  C  C87  1  0.31107823  0.09401630  0.68208062  1
  C  C88  1  0.75297017  0.54821059  0.39533134  1
  C  C89  1  0.24702983  0.04821059  0.60466866  1
  C  C90  1  0.67885202  0.46273540  0.44177742  1
  C  C91  1  0.32114798  0.96273540  0.55822258  1
  C  C92  1  0.53868518  0.41936702  0.41093647  1
  C  C93  1  0.46131482  0.91936702  0.58906353  1
  C  C94  1  0.46292932  0.32730810  0.45439781  1
  C  C95  1  0.53707068  0.82730810  0.54560219  1
  C  C96  1  0.33130680  0.28109580  0.42081300  1
  C  C97  1  0.66869320  0.78109580  0.57918700  1
  C  C98  1  0.25983266  0.32524693  0.34166798  1
  C  C99  1  0.74016734  0.82524693  0.65833202  1
  C  C100  1  0.31628323  0.09068409  0.22923775  1
  C  C101  1  0.68371677  0.59068409  0.77076225  1
  C  C102  1  0.46294983  0.11533609  0.26126652  1
  C  C103  1  0.53705017  0.61533609  0.73873348  1
  C  C104  1  0.55868708  0.18752165  0.21630720  1
  C  C105  1  0.44131292  0.68752165  0.78369280  1
  C  C106  1  0.51216762  0.23880334  0.13637237  1
  C  C107  1  0.48783238  0.73880334  0.86362763  1
  C  C108  1  0.36587611  0.21131883  0.10014795  1
  C  C109  1  0.63412389  0.71131883  0.89985205  1
  C  C110  1  0.60466619  0.31893285  0.09095288  1
  C  C111  1  0.39533381  0.81893285  0.90904712  1
  C  C112  1  0.55561909  0.37036401  0.01453078  1
  C  C113  1  0.44438091  0.87036401  0.98546922  1
  C  C114  1  0.41003104  0.34419223  0.97604689  1
  C  C115  1  0.58996896  0.84419223  0.02395311  1
  C  C116  1  0.31659275  0.26261716  0.01910041  1
  C  C117  1  0.68340725  0.76261716  0.98089959  1
  C  C118  1  0.35583792  0.39641635  0.89779937  1
  C  C119  1  0.64416208  0.89641635  0.10220063  1
  C  C120  1  0.21447991  0.36773795  0.86097868  1
  C  C121  1  0.78552009  0.86773795  0.13902132  1
  C  C122  1  0.12367911  0.28695001  0.90171411  1
  C  C123  1  0.87632089  0.78695001  0.09828589  1
  C  C124  1  0.17194576  0.23453166  0.98103382  1
  C  C125  1  0.82805424  0.73453166  0.01896618  1
  C  C126  1  0.07969125  0.15422575  0.02598020  1
  C  C127  1  0.92030875  0.65422575  0.97401980  1
  C  C128  1  0.12491733  0.10724903  0.10484494  1
  C  C129  1  0.87508267  0.60724903  0.89515506  1
  C  C130  1  0.26849504  0.13503096  0.14590750  1
  C  C131  1  0.73150496  0.63503096  0.85409250  1
