# generated using pymatgen
data_Li2FePO4F
_symmetry_space_group_name_H-M   'P 1'
_cell_length_a   5.37179321
_cell_length_b   5.42605920
_cell_length_c   7.51009016
_cell_angle_alpha   72.93725706
_cell_angle_beta   72.07532471
_cell_angle_gamma   94.82419731
_symmetry_Int_Tables_number   1
_chemical_formula_structural   Li2FePO4F
_chemical_formula_sum   'Li4 Fe2 P2 O8 F2'
_cell_volume   195.41475005
_cell_formula_units_Z   2
loop_
 _symmetry_equiv_pos_site_id
 _symmetry_equiv_pos_as_xyz
  1  'x, y, z'
loop_
 _atom_site_type_symbol
 _atom_site_label
 _atom_site_symmetry_multiplicity
 _atom_site_fract_x
 _atom_site_fract_y
 _atom_site_fract_z
 _atom_site_occupancy
  Li  Li0  1  0.76616881  0.41790719  0.15153436  1
  Li  Li1  1  0.53490088  0.86941642  0.84985448  1
  Li  Li2  1  0.50078425  0.00566688  0.47978114  1
  Li  Li3  1  0.19572834  0.55319789  0.82738799  1
  Fe  Fe4  1  0.00125311  0.99831280  0.00818191  1
  Fe  Fe5  1  0.01605313  0.01286221  0.49155257  1
  P  P6  1  0.34103794  0.62950605  0.24130907  1
  P  P7  1  0.66271393  0.37484528  0.76725241  1
  O  O8  1  0.73959532  0.21277977  0.62591394  1
  O  O9  1  0.26238813  0.77473341  0.39154388  1
  O  O10  1  0.66849212  0.67091141  0.66423902  1
  O  O11  1  0.85211163  0.34917748  0.89091625  1
  O  O12  1  0.16029612  0.65606721  0.10953164  1
  O  O13  1  0.63293150  0.75233439  0.08819009  1
  O  O14  1  0.34523402  0.33760475  0.34444608  1
  O  O15  1  0.36979215  0.25212758  0.90700852  1
  F  F16  1  0.18282670  0.91210363  0.73020630  1
  F  F17  1  0.83980991  0.08881267  0.27256035  1
