# generated using pymatgen
data_Rb2CeCuBr6
_symmetry_space_group_name_H-M   'P 1'
_cell_length_a   7.90451391
_cell_length_b   7.90470579
_cell_length_c   7.90183888
_cell_angle_alpha   59.98983716
_cell_angle_beta   60.00533308
_cell_angle_gamma   59.99411001
_symmetry_Int_Tables_number   1
_chemical_formula_structural   Rb2CeCuBr6
_chemical_formula_sum   'Rb2 Ce1 Cu1 Br6'
_cell_volume   349.09115681
_cell_formula_units_Z   1
loop_
 _symmetry_equiv_pos_site_id
 _symmetry_equiv_pos_as_xyz
  1  'x, y, z'
loop_
 _atom_site_type_symbol
 _atom_site_label
 _atom_site_symmetry_multiplicity
 _atom_site_fract_x
 _atom_site_fract_y
 _atom_site_fract_z
 _atom_site_occupancy
  Rb  Rb0  1  0.24999501  0.25000821  0.25001204  1
  Rb  Rb1  1  0.75000497  0.74999181  0.74998796  1
  Ce  Ce2  1  0.50000000  0.50000000  0.50000000  1
  Cu  Cu3  1  0.00000008  -0.00000006  -0.00000000  1
  Br  Br4  1  0.24040999  0.75957406  0.24043058  1
  Br  Br5  1  0.75946369  0.75948833  0.24050969  1
  Br  Br6  1  0.75958999  0.24042595  0.75956942  1
  Br  Br7  1  0.75949621  0.24049524  0.24049433  1
  Br  Br8  1  0.24050377  0.75950477  0.75950567  1
  Br  Br9  1  0.24053629  0.24051168  0.75949031  1
