# generated using pymatgen
data_Li2VPO4F
_symmetry_space_group_name_H-M   'P 1'
_cell_length_a   5.43843596
_cell_length_b   5.42330392
_cell_length_c   7.44815042
_cell_angle_alpha   73.24080976
_cell_angle_beta   73.06125685
_cell_angle_gamma   95.27448263
_symmetry_Int_Tables_number   1
_chemical_formula_structural   Li2VPO4F
_chemical_formula_sum   'Li4 V2 P2 O8 F2'
_cell_volume   197.47490134
_cell_formula_units_Z   2
loop_
 _symmetry_equiv_pos_site_id
 _symmetry_equiv_pos_as_xyz
  1  'x, y, z'
loop_
 _atom_site_type_symbol
 _atom_site_label
 _atom_site_symmetry_multiplicity
 _atom_site_fract_x
 _atom_site_fract_y
 _atom_site_fract_z
 _atom_site_occupancy
  Li  Li0  1  0.76294305  0.41727470  0.15202851  1
  Li  Li1  1  0.53895374  0.87151359  0.84907157  1
  Li  Li2  1  0.50313246  0.00989885  0.47605413  1
  Li  Li3  1  0.19116237  0.55149014  0.83403747  1
  V  V4  1  0.00329276  0.99908310  0.00574888  1
  V  V5  1  0.01158164  0.00711878  0.49652238  1
  P  P6  1  0.34388302  0.62564577  0.24206610  1
  P  P7  1  0.66031883  0.37817257  0.76566855  1
  O  O8  1  0.72595884  0.21383484  0.62440778  1
  O  O9  1  0.27304317  0.77144439  0.39298014  1
  O  O10  1  0.67222535  0.67627304  0.66214088  1
  O  O11  1  0.85519036  0.35029257  0.88647413  1
  O  O12  1  0.16113057  0.65527648  0.11083250  1
  O  O13  1  0.62971021  0.74428926  0.08961005  1
  O  O14  1  0.34487999  0.33192071  0.34342013  1
  O  O15  1  0.37509949  0.26303710  0.90743184  1
  F  F16  1  0.17749046  0.91397429  0.73178494  1
  F  F17  1  0.84212170  0.08782681  0.27113003  1
