# generated using pymatgen
data_NdNb3O9
_symmetry_space_group_name_H-M   'P 1'
_cell_length_a   5.59083437
_cell_length_b   9.73218949
_cell_length_c   13.73884417
_cell_angle_alpha   89.78424236
_cell_angle_beta   89.47195233
_cell_angle_gamma   90.31544300
_symmetry_Int_Tables_number   1
_chemical_formula_structural   NdNb3O9
_chemical_formula_sum   'Nd4 Nb12 O36'
_cell_volume   747.49654826
_cell_formula_units_Z   4
loop_
 _symmetry_equiv_pos_site_id
 _symmetry_equiv_pos_as_xyz
  1  'x, y, z'
loop_
 _atom_site_type_symbol
 _atom_site_label
 _atom_site_symmetry_multiplicity
 _atom_site_fract_x
 _atom_site_fract_y
 _atom_site_fract_z
 _atom_site_occupancy
  Nd  Nd0  1  0.25322379  0.25021341  0.74749575  1
  Nd  Nd1  1  0.26089217  0.91035396  0.08934006  1
  Nd  Nd2  1  0.73910783  0.75631204  0.24399394  1
  Nd  Nd3  1  0.74677621  0.41645359  0.58583725  1
  Nb  Nb4  1  0.74755437  0.07091688  0.66523074  1
  Nb  Nb5  1  0.74788477  0.74564964  0.99073252  1
  Nb  Nb6  1  0.75155658  0.42315397  0.33262842  1
  Nb  Nb7  1  0.24387996  0.91169231  0.83221553  1
  Nb  Nb8  1  0.25013136  0.56837351  0.16234332  1
  Nb  Nb9  1  0.25243756  0.25263250  0.49147344  1
  Nb  Nb10  1  0.75612004  0.75497369  0.50111847  1
  Nb  Nb11  1  0.74756244  0.41403450  0.84185956  1
  Nb  Nb12  1  0.74986864  0.09829349  0.17098968  1
  Nb  Nb13  1  0.25244563  0.59575012  0.66810226  1
  Nb  Nb14  1  0.24844342  0.24351203  0.00070558  1
  Nb  Nb15  1  0.25211523  0.92101736  0.34260048  1
  O  O16  1  0.49918887  0.98445167  0.74127787  1
  O  O17  1  0.50061320  0.65114770  0.07502946  1
  O  O18  1  0.50222446  0.31135992  0.40722707  1
  O  O19  1  0.50081113  0.68221533  0.59205513  1
  O  O20  1  0.49777554  0.35530608  0.92610693  1
  O  O21  1  0.49938680  0.01551930  0.25830354  1
  O  O22  1  0.01457731  0.86536625  0.93933845  1
  O  O23  1  0.98696580  0.53984601  0.26204630  1
  O  O24  1  0.99832059  0.20856349  0.60598889  1
  O  O25  1  0.00167941  0.45810351  0.72734411  1
  O  O26  1  0.01303420  0.12682099  0.07128670  1
  O  O27  1  0.98542269  0.80129975  0.39399555  1
  O  O28  1  0.79091950  0.92660561  0.56986781  1
  O  O29  1  0.78813516  0.59935789  0.90162809  1
  O  O30  1  0.79312775  0.26226538  0.24050478  1
  O  O31  1  0.20908050  0.74006039  0.76346619  1
  O  O32  1  0.20687225  0.40440162  0.09282822  1
  O  O33  1  0.21186484  0.06730911  0.43170491  1
  O  O34  1  0.71508931  0.56243322  0.43448544  1
  O  O35  1  0.69562505  0.24468481  0.75825750  1
  O  O36  1  0.68822639  0.89816082  0.10201822  1
  O  O37  1  0.30437495  0.42198119  0.57507650  1
  O  O38  1  0.28491069  0.10423378  0.89884756  1
  O  O39  1  0.31177361  0.76850618  0.23131478  1
  O  O40  1  0.00032946  0.69365396  0.09627746  1
  O  O41  1  0.98366984  0.33741326  0.42847617  1
  O  O42  1  0.01590907  0.01931142  0.75146091  1
  O  O43  1  0.49404171  0.15190442  0.08063909  1
  O  O44  1  0.50786305  0.82047275  0.40700208  1
  O  O45  1  0.49795186  0.48607451  0.74120267  1
  O  O46  1  0.01633016  0.32925274  0.90485783  1
  O  O47  1  0.99967054  0.97301304  0.23705554  1
  O  O48  1  0.98409093  0.64735558  0.58187209  1
  O  O49  1  0.50595829  0.51476258  0.25269391  1
  O  O50  1  0.50204814  0.18059249  0.59213033  1
  O  O51  1  0.49213695  0.84619325  0.92633192  1
