# generated using pymatgen
data_Li3MnCoO5
_symmetry_space_group_name_H-M   'P 1'
_cell_length_a   4.97698264
_cell_length_b   5.10497682
_cell_length_c   7.83985490
_cell_angle_alpha   84.08984685
_cell_angle_beta   108.44893673
_cell_angle_gamma   108.65696086
_symmetry_Int_Tables_number   1
_chemical_formula_structural   Li3MnCoO5
_chemical_formula_sum   'Li6 Mn2 Co2 O10'
_cell_volume   179.02336020
_cell_formula_units_Z   2
loop_
 _symmetry_equiv_pos_site_id
 _symmetry_equiv_pos_as_xyz
  1  'x, y, z'
loop_
 _atom_site_type_symbol
 _atom_site_label
 _atom_site_symmetry_multiplicity
 _atom_site_fract_x
 _atom_site_fract_y
 _atom_site_fract_z
 _atom_site_occupancy
  Li  Li0  1  0.10254343  0.50164115  0.20394305  1
  Li  Li1  1  0.71160220  0.50203905  0.41575684  1
  Li  Li2  1  0.30000000  0.50000000  0.60000000  1
  Li  Li3  1  0.88839780  0.49796095  0.78424316  1
  Li  Li4  1  0.49745657  0.49835885  0.99605695  1
  Li  Li5  1  0.80000000  -0.00000000  0.60000000  1
  Mn  Mn6  1  0.99949466  0.00044403  0.99921875  1
  Mn  Mn7  1  0.60050534  -0.00044403  0.20078125  1
  Co  Co8  1  0.20747547  0.00108912  0.41151141  1
  Co  Co9  1  0.39252453  0.99891088  0.78848859  1
  O  O10  1  0.75744805  0.22268297  0.01032206  1
  O  O11  1  0.34740421  0.22181328  0.18996273  1
  O  O12  1  0.93604971  0.22067266  0.38097356  1
  O  O13  1  0.52577191  0.24435683  0.60006905  1
  O  O14  1  0.15519340  0.22232466  0.81931223  1
  O  O15  1  0.44480660  0.77767534  0.38068777  1
  O  O16  1  0.07422809  0.75564317  0.59993095  1
  O  O17  1  0.66395029  0.77932734  0.81902644  1
  O  O18  1  0.25259579  0.77818672  0.01003727  1
  O  O19  1  0.84255195  0.77731703  0.18967794  1
