# generated using pymatgen
data_Li7Co5O12
_symmetry_space_group_name_H-M   'P 1'
_cell_length_a   5.02214757
_cell_length_b   5.07196414
_cell_length_c   8.68296986
_cell_angle_alpha   89.64540713
_cell_angle_beta   89.29280149
_cell_angle_gamma   109.02567966
_symmetry_Int_Tables_number   1
_chemical_formula_structural   Li7Co5O12
_chemical_formula_sum   'Li7 Co5 O12'
_cell_volume   209.06363783
_cell_formula_units_Z   1
loop_
 _symmetry_equiv_pos_site_id
 _symmetry_equiv_pos_as_xyz
  1  'x, y, z'
loop_
 _atom_site_type_symbol
 _atom_site_label
 _atom_site_symmetry_multiplicity
 _atom_site_fract_x
 _atom_site_fract_y
 _atom_site_fract_z
 _atom_site_occupancy
  Li  Li0  1  -0.00000000  0.50000000  0.16666700  1
  Li  Li1  1  0.50113206  0.50117870  0.33024005  1
  Li  Li2  1  0.99903859  0.49867743  0.49864383  1
  Li  Li3  1  0.50000000  0.50000000  0.66666700  1
  Li  Li4  1  0.00096141  0.50132257  0.83468917  1
  Li  Li5  1  0.49886794  0.49882130  0.00309295  1
  Li  Li6  1  0.50000000  -0.00000000  0.16666700  1
  Co  Co7  1  0.99402320  0.99939608  0.00491192  1
  Co  Co8  1  0.00597680  0.00060392  0.32842108  1
  Co  Co9  1  0.50179774  0.00252408  0.49161826  1
  Co  Co10  1  -0.00000000  -0.00000000  0.66666700  1
  Co  Co11  1  0.49820226  0.99747592  0.84171474  1
  O  O12  1  0.76612306  0.22347277  0.99438047  1
  O  O13  1  0.21350746  0.21992483  0.16862483  1
  O  O14  1  0.75935602  0.22260712  0.34045095  1
  O  O15  1  0.23683536  0.23019661  0.48858560  1
  O  O16  1  0.74671739  0.23112004  0.66970155  1
  O  O17  1  0.23133292  0.22704092  0.84425512  1
  O  O18  1  0.23387694  0.77652723  0.33895353  1
  O  O19  1  0.76866708  0.77295908  0.48907788  1
  O  O20  1  0.25328261  0.76887996  0.66363145  1
  O  O21  1  0.76316464  0.76980339  0.84474840  1
  O  O22  1  0.24064398  0.77739288  0.99288205  1
  O  O23  1  0.78649254  0.78007517  0.16470817  1
