# generated using pymatgen
data_Li3MnCoO5
_symmetry_space_group_name_H-M   'P 1'
_cell_length_a   5.03679564
_cell_length_b   5.09947463
_cell_length_c   7.70364421
_cell_angle_alpha   83.62530516
_cell_angle_beta   108.51739462
_cell_angle_gamma   109.01884264
_symmetry_Int_Tables_number   1
_chemical_formula_structural   Li3MnCoO5
_chemical_formula_sum   'Li6 Mn2 Co2 O10'
_cell_volume   177.37563134
_cell_formula_units_Z   2
loop_
 _symmetry_equiv_pos_site_id
 _symmetry_equiv_pos_as_xyz
  1  'x, y, z'
loop_
 _atom_site_type_symbol
 _atom_site_label
 _atom_site_symmetry_multiplicity
 _atom_site_fract_x
 _atom_site_fract_y
 _atom_site_fract_z
 _atom_site_occupancy
  Li  Li0  1  0.09161853  0.49479859  0.19290058  1
  Li  Li1  1  0.69710876  0.50250502  0.39333017  1
  Li  Li2  1  0.29459305  0.49794596  0.59827770  1
  Li  Li3  1  0.90333471  0.50153223  0.80306922  1
  Li  Li4  1  0.51143222  0.49975123  0.01098401  1
  Li  Li5  1  0.60024007  0.00206406  0.19758648  1
  Mn  Mn6  1  0.00248410  0.00492743  0.00387299  1
  Mn  Mn7  1  0.79826522  0.99744696  0.59852366  1
  Co  Co8  1  0.19490705  0.99683913  0.39289296  1
  Co  Co9  1  0.40375316  -0.00034591  0.80930948  1
  O  O10  1  0.75975280  0.22994334  0.99430309  1
  O  O11  1  0.31897734  0.23405925  0.18782605  1
  O  O12  1  0.95566816  0.22195648  0.41782057  1
  O  O13  1  0.55148930  0.21961078  0.60434196  1
  O  O14  1  0.12854051  0.22474324  0.79771579  1
  O  O15  1  0.46093887  0.77712804  0.41944743  1
  O  O16  1  0.03479853  0.76965647  0.59720975  1
  O  O17  1  0.67439509  0.77815015  0.80415316  1
  O  O18  1  0.24489447  0.78001895  0.98748027  1
  O  O19  1  0.87280805  0.76726861  0.18895468  1
