# generated using pymatgen
data_Li3MnCoO5
_symmetry_space_group_name_H-M   'P 1'
_cell_length_a   5.04870331
_cell_length_b   5.87715628
_cell_length_c   6.62028801
_cell_angle_alpha   76.57804170
_cell_angle_beta   82.24575086
_cell_angle_gamma   106.86765077
_symmetry_Int_Tables_number   1
_chemical_formula_structural   Li3MnCoO5
_chemical_formula_sum   'Li6 Mn2 Co2 O10'
_cell_volume   178.48212247
_cell_formula_units_Z   2
loop_
 _symmetry_equiv_pos_site_id
 _symmetry_equiv_pos_as_xyz
  1  'x, y, z'
loop_
 _atom_site_type_symbol
 _atom_site_label
 _atom_site_symmetry_multiplicity
 _atom_site_fract_x
 _atom_site_fract_y
 _atom_site_fract_z
 _atom_site_occupancy
  Li  Li0  1  0.79080297  0.09942942  0.39063352  1
  Li  Li1  1  0.00227778  0.50278544  0.00144534  1
  Li  Li2  1  0.59748799  0.69963258  0.80652885  1
  Li  Li3  1  0.40342371  0.29684297  0.20282090  1
  Li  Li4  1  0.20547825  0.89817136  0.59602126  1
  Li  Li5  1  0.40153834  0.80307808  0.19922895  1
  Mn  Mn6  1  0.99542669  0.99881470  0.00550892  1
  Mn  Mn7  1  0.20192423  0.40079884  0.59707731  1
  Co  Co8  1  0.59376605  0.18951120  0.80924905  1
  Co  Co9  1  0.80308213  0.60594773  0.39178559  1
  O  O10  1  0.71968442  0.14505937  0.08540501  1
  O  O11  1  0.90626401  0.52783584  0.69176404  1
  O  O12  1  0.49563431  0.71560534  0.50832947  1
  O  O13  1  0.28565535  0.33735315  0.88869119  1
  O  O14  1  0.08377970  0.95145695  0.27921924  1
  O  O15  1  0.91571443  0.06323711  0.71493975  1
  O  O16  1  0.08643738  0.45017141  0.33088729  1
  O  O17  1  0.72822556  0.67220206  0.09590513  1
  O  O18  1  0.48361725  0.26281930  0.50580533  1
  O  O19  1  0.29977946  0.87924714  0.89875387  1
