# generated using pymatgen
data_Li3MnCoO5
_symmetry_space_group_name_H-M   'P 1'
_cell_length_a   5.05009118
_cell_length_b   7.74568101
_cell_length_c   5.13643755
_cell_angle_alpha   109.12651725
_cell_angle_beta   80.14631300
_cell_angle_gamma   77.22454626
_symmetry_Int_Tables_number   1
_chemical_formula_structural   Li3MnCoO5
_chemical_formula_sum   'Li6 Mn2 Co2 O10'
_cell_volume   178.54200029
_cell_formula_units_Z   2
loop_
 _symmetry_equiv_pos_site_id
 _symmetry_equiv_pos_as_xyz
  1  'x, y, z'
loop_
 _atom_site_type_symbol
 _atom_site_label
 _atom_site_symmetry_multiplicity
 _atom_site_fract_x
 _atom_site_fract_y
 _atom_site_fract_z
 _atom_site_occupancy
  Li  Li0  1  0.30601716  0.89735615  0.40077038  1
  Li  Li1  1  0.69118535  0.09206179  0.59908817  1
  Li  Li2  1  0.10839135  0.29942006  0.79917205  1
  Li  Li3  1  0.49828692  0.50749978  0.99857543  1
  Li  Li4  1  0.89034609  0.70557894  0.20684431  1
  Li  Li5  1  0.59812498  0.80215015  0.80031115  1
  Mn  Mn6  1  0.00476744  0.99669790  0.99323519  1
  Mn  Mn7  1  0.79941998  0.40080909  0.40234493  1
  Co  Co8  1  0.40617613  0.19075124  0.19120842  1
  Co  Co9  1  0.19621325  0.60760313  0.60956308  1
  O  O10  1  0.22365210  0.76390680  0.99678249  1
  O  O11  1  0.65465247  0.96673033  0.19187461  1
  O  O12  1  0.04132821  0.15317867  0.37163963  1
  O  O13  1  0.47075285  0.35601662  0.58765934  1
  O  O14  1  0.87049615  0.53611160  0.75702893  1
  O  O15  1  0.32743588  0.05197153  0.82012046  1
  O  O16  1  0.75957795  0.24597340  0.02499966  1
  O  O17  1  0.14039783  0.43989943  0.21783932  1
  O  O18  1  0.55133728  0.62711741  0.40141138  1
  O  O19  1  0.96144062  0.85916599  0.62953108  1
