# generated using pymatgen
data_Li7Co5O12
_symmetry_space_group_name_H-M   'P 1'
_cell_length_a   5.02004159
_cell_length_b   5.82694272
_cell_length_c   7.71897127
_cell_angle_alpha   101.59979101
_cell_angle_beta   101.83080218
_cell_angle_gamma   73.18857298
_symmetry_Int_Tables_number   1
_chemical_formula_structural   Li7Co5O12
_chemical_formula_sum   'Li7 Co5 O12'
_cell_volume   209.11402195
_cell_formula_units_Z   1
loop_
 _symmetry_equiv_pos_site_id
 _symmetry_equiv_pos_as_xyz
  1  'x, y, z'
loop_
 _atom_site_type_symbol
 _atom_site_label
 _atom_site_symmetry_multiplicity
 _atom_site_fract_x
 _atom_site_fract_y
 _atom_site_fract_z
 _atom_site_occupancy
  Li  Li0  1  0.50000000  0.66666700  0.16666700  1
  Li  Li1  1  0.00000000  0.16666700  0.66666700  1
  Li  Li2  1  0.99051950  0.83823107  0.33119080  1
  Li  Li3  1  0.50206257  0.33039000  0.83646096  1
  Li  Li4  1  0.49793743  0.00294300  0.49687204  1
  Li  Li5  1  0.00948050  0.49510193  0.00214220  1
  Li  Li6  1  0.50000000  0.16666700  0.16666700  1
  Co  Co7  1  0.99466869  0.00494211  0.00498278  1
  Co  Co8  1  0.00533131  0.32839089  0.32835022  1
  Co  Co9  1  0.50105372  0.49098192  0.49271821  1
  Co  Co10  1  0.00000000  0.66666700  0.66666700  1
  Co  Co11  1  0.49894628  0.84235108  0.84061479  1
  O  O12  1  0.23394353  0.69061279  0.92131225  1
  O  O13  1  0.75950311  0.19154118  0.41543918  1
  O  O14  1  0.76630211  0.84421084  0.06870983  1
  O  O15  1  0.23616064  0.33599654  0.56506349  1
  O  O16  1  0.21289241  0.02365931  0.24151699  1
  O  O17  1  0.74684254  0.51729101  0.74612718  1
  O  O18  1  0.76605647  0.64272121  0.41202175  1
  O  O19  1  0.24049689  0.14179282  0.91789482  1
  O  O20  1  0.25315746  0.81604199  0.58720582  1
  O  O21  1  0.78710759  0.30967369  0.09181601  1
  O  O22  1  0.76383936  0.99733646  0.76826951  1
  O  O23  1  0.23369789  0.48912216  0.26462317  1
