# generated using pymatgen
data_Li3Mn2O5
_symmetry_space_group_name_H-M   'P 1'
_cell_length_a   2.97797916
_cell_length_b   7.89795521
_cell_length_c   8.13564273
_cell_angle_alpha   75.33230054
_cell_angle_beta   90.00000000
_cell_angle_gamma   100.86692108
_symmetry_Int_Tables_number   1
_chemical_formula_structural   Li3Mn2O5
_chemical_formula_sum   'Li6 Mn4 O10'
_cell_volume   181.56475768
_cell_formula_units_Z   2
loop_
 _symmetry_equiv_pos_site_id
 _symmetry_equiv_pos_as_xyz
  1  'x, y, z'
loop_
 _atom_site_type_symbol
 _atom_site_label
 _atom_site_symmetry_multiplicity
 _atom_site_fract_x
 _atom_site_fract_y
 _atom_site_fract_z
 _atom_site_occupancy
  Li  Li0  1  0.59110956  0.18221913  0.70234925  1
  Li  Li1  1  0.40000000  0.80000000  0.30000000  1
  Li  Li2  1  0.20889044  0.41778087  0.89765075  1
  Li  Li3  1  0.99902575  0.99805149  0.51515726  1
  Li  Li4  1  0.80097425  0.60194851  0.08484274  1
  Li  Li5  1  0.40000000  0.80000000  0.80000000  1
  Mn  Mn6  1  0.99621572  0.99243144  0.99420764  1
  Mn  Mn7  1  0.80378428  0.60756856  0.60579236  1
  Mn  Mn8  1  0.59667601  0.19335201  0.20376045  1
  Mn  Mn9  1  0.20332399  0.40664799  0.39623955  1
  O  O10  1  0.41252154  0.82504308  0.04178340  1
  O  O11  1  0.21196681  0.42393363  0.63165684  1
  O  O12  1  0.00158906  0.00317812  0.23751888  1
  O  O13  1  0.79630200  0.59260400  0.83407093  1
  O  O14  1  0.60130220  0.20260440  0.43781780  1
  O  O15  1  0.79841094  0.59682188  0.36248112  1
  O  O16  1  0.58803319  0.17606637  0.96834316  1
  O  O17  1  0.38747846  0.77495692  0.55821660  1
  O  O18  1  0.19869780  0.39739560  0.16218220  1
  O  O19  1  0.00369800  0.00739600  0.76592907  1
