# generated using pymatgen
data_Li4MnCo3O8
_symmetry_space_group_name_H-M   'P 1'
_cell_length_a   5.16790990
_cell_length_b   5.89733984
_cell_length_c   5.02530813
_cell_angle_alpha   88.79063220
_cell_angle_beta   99.64603535
_cell_angle_gamma   107.04143232
_symmetry_Int_Tables_number   1
_chemical_formula_structural   Li4MnCo3O8
_chemical_formula_sum   'Li4 Mn1 Co3 O8'
_cell_volume   144.29731940
_cell_formula_units_Z   1
loop_
 _symmetry_equiv_pos_site_id
 _symmetry_equiv_pos_as_xyz
  1  'x, y, z'
loop_
 _atom_site_type_symbol
 _atom_site_label
 _atom_site_symmetry_multiplicity
 _atom_site_fract_x
 _atom_site_fract_y
 _atom_site_fract_z
 _atom_site_occupancy
  Li  Li0  1  0.50291529  0.37456800  0.24814044  1
  Li  Li1  1  0.49757803  0.62330806  0.74936132  1
  Li  Li2  1  0.50242197  0.87669194  0.25063868  1
  Li  Li3  1  0.49708471  0.12543200  0.75185956  1
  Mn  Mn4  1  0.00000000  0.75000000  0.50000000  1
  Co  Co5  1  0.00298065  0.00708385  0.98909796  1
  Co  Co6  1  0.00000000  0.25000000  0.50000000  1
  Co  Co7  1  0.99701935  0.49291615  0.01090204  1
  O  O8  1  0.22750678  0.57619357  0.37409509  1
  O  O9  1  0.22374810  0.80241620  0.85477603  1
  O  O10  1  0.22667176  0.04442914  0.37476340  1
  O  O11  1  0.23767060  0.30793205  0.88394793  1
  O  O12  1  0.76232940  0.19206795  0.11605207  1
  O  O13  1  0.77332824  0.45557086  0.62523660  1
  O  O14  1  0.77625190  0.69758380  0.14522397  1
  O  O15  1  0.77249322  0.92380643  0.62590491  1
