# generated using pymatgen
data_Li3MnCoO5
_symmetry_space_group_name_H-M   'P 1'
_cell_length_a   5.14208741
_cell_length_b   7.67066392
_cell_length_c   5.09498238
_cell_angle_alpha   109.39678661
_cell_angle_beta   69.24329283
_cell_angle_gamma   96.75934260
_symmetry_Int_Tables_number   1
_chemical_formula_structural   Li3MnCoO5
_chemical_formula_sum   'Li6 Mn2 Co2 O10'
_cell_volume   177.25277468
_cell_formula_units_Z   2
loop_
 _symmetry_equiv_pos_site_id
 _symmetry_equiv_pos_as_xyz
  1  'x, y, z'
loop_
 _atom_site_type_symbol
 _atom_site_label
 _atom_site_symmetry_multiplicity
 _atom_site_fract_x
 _atom_site_fract_y
 _atom_site_fract_z
 _atom_site_occupancy
  Li  Li0  1  0.50000000  0.19661360  0.09830680  1
  Li  Li1  1  0.50000000  0.40116561  0.70058281  1
  Li  Li2  1  0.50000000  0.60838716  0.30419358  1
  Li  Li3  1  0.50000000  0.79749721  0.89874861  1
  Li  Li4  1  0.50000000  0.99418071  0.49709035  1
  Li  Li5  1  0.00000000  0.79967082  0.39983541  1
  Mn  Mn6  1  0.00000000  0.00121379  0.00060690  1
  Mn  Mn7  1  1.00000000  0.40317567  0.20158784  1
  Co  Co8  1  0.00000000  0.19586641  0.59793321  1
  Co  Co9  1  1.00000000  0.60858753  0.80429377  1
  O  O10  1  0.23253282  0.19867303  0.87282998  1
  O  O11  1  0.21192637  0.39593286  0.44871263  1
  O  O12  1  0.23271113  0.58173123  0.04927358  1
  O  O13  1  0.23576541  0.80849726  0.68376528  1
  O  O14  1  0.21332606  0.01198636  0.25419381  1
  O  O15  1  0.76746718  0.19867303  0.32584305  1
  O  O16  1  0.78807363  0.39593286  0.94722023  1
  O  O17  1  0.76728887  0.58173123  0.53245765  1
  O  O18  1  0.76423459  0.80849726  0.12473198  1
  O  O19  1  0.78667394  0.01198636  0.75779255  1
