# generated using pymatgen
data_Li7Mn2(CoO4)3
_symmetry_space_group_name_H-M   'P 1'
_cell_length_a   5.02522217
_cell_length_b   5.02522211
_cell_length_c   9.79976016
_cell_angle_alpha   85.16048772
_cell_angle_beta   94.83951224
_cell_angle_gamma   60.45645395
_symmetry_Int_Tables_number   1
_chemical_formula_structural   Li7Mn2(CoO4)3
_chemical_formula_sum   'Li7 Mn2 Co3 O12'
_cell_volume   212.25150268
_cell_formula_units_Z   1
loop_
 _symmetry_equiv_pos_site_id
 _symmetry_equiv_pos_as_xyz
  1  'x, y, z'
loop_
 _atom_site_type_symbol
 _atom_site_label
 _atom_site_symmetry_multiplicity
 _atom_site_fract_x
 _atom_site_fract_y
 _atom_site_fract_z
 _atom_site_occupancy
  Li  Li0  1  0.24420855  0.75710352  0.74651392  1
  Li  Li1  1  0.41667642  0.92239631  0.25321886  1
  Li  Li2  1  0.75710352  0.24420855  0.25348608  1
  Li  Li3  1  0.92239631  0.41667642  0.74678114  1
  Li  Li4  1  0.07867900  0.58008785  0.25290452  1
  Li  Li5  1  0.58008785  0.07867900  0.74709548  1
  Li  Li6  1  0.16741714  0.16741714  0.50000000  1
  Mn  Mn7  1  -0.00001148  -0.00001148  0.00000000  1
  Mn  Mn8  1  0.49960768  0.49960768  0.50000000  1
  Co  Co9  1  0.33505273  0.33505273  0.00000000  1
  Co  Co10  1  0.66227095  0.66227095  1.00000000  1
  Co  Co11  1  0.83493191  0.83493191  0.50000000  1
  O  O12  1  0.35914677  0.65498019  0.11566217  1
  O  O13  1  0.56688075  0.76996889  0.61022020  1
  O  O14  1  0.84367457  0.12433399  0.60872773  1
  O  O15  1  0.03226749  0.27970366  0.11765587  1
  O  O16  1  0.20306942  0.48887557  0.61188884  1
  O  O17  1  0.72632321  0.95235490  0.11431703  1
  O  O18  1  0.12433399  0.84367457  0.39127227  1
  O  O19  1  0.27970366  0.03226749  0.88234413  1
  O  O20  1  0.65498019  0.35914677  0.88433783  1
  O  O21  1  0.76996889  0.56688075  0.38977980  1
  O  O22  1  0.95235490  0.72632321  0.88568297  1
  O  O23  1  0.48887557  0.20306942  0.38811116  1
