# generated using pymatgen
data_Li7Mn4CoO12
_symmetry_space_group_name_H-M   'P 1'
_cell_length_a   2.96679115
_cell_length_b   12.15182387
_cell_length_c   6.50654298
_cell_angle_alpha   105.16572270
_cell_angle_beta   76.61285629
_cell_angle_gamma   86.51615681
_symmetry_Int_Tables_number   1
_chemical_formula_structural   Li7Mn4CoO12
_chemical_formula_sum   'Li7 Mn4 Co1 O12'
_cell_volume   218.40523921
_cell_formula_units_Z   1
loop_
 _symmetry_equiv_pos_site_id
 _symmetry_equiv_pos_as_xyz
  1  'x, y, z'
loop_
 _atom_site_type_symbol
 _atom_site_label
 _atom_site_symmetry_multiplicity
 _atom_site_fract_x
 _atom_site_fract_y
 _atom_site_fract_z
 _atom_site_occupancy
  Li  Li0  1  0.74789299  0.25309922  0.23612986  1
  Li  Li1  1  0.74212724  0.58587292  0.92622061  1
  Li  Li2  1  0.26420281  0.40788958  0.07564699  1
  Li  Li3  1  0.25787276  0.74746008  0.74044639  1
  Li  Li4  1  0.73579719  0.92544442  0.59101901  1
  Li  Li5  1  0.25210701  0.08023378  0.43053714  1
  Li  Li6  1  0.50000000  0.16666700  0.83333300  1
  Mn  Mn7  1  0.99493865  0.00539345  0.99369392  1
  Mn  Mn8  1  0.00506135  0.32793955  0.67297308  1
  Mn  Mn9  1  0.51108964  0.49962418  0.49603008  1
  Mn  Mn10  1  0.48891036  0.83370882  0.17063692  1
  Co  Co11  1  0.00000000  0.66666700  0.33333300  1
  O  O12  1  0.40615659  0.10870598  0.11038728  1
  O  O13  1  0.42044687  0.44547601  0.76682390  1
  O  O14  1  0.87498938  0.29806841  0.93947658  1
  O  O15  1  0.85177294  0.62379724  0.61127380  1
  O  O16  1  0.35336995  0.78482385  0.44200965  1
  O  O17  1  0.84398640  0.95628724  0.27545114  1
  O  O18  1  0.15601360  0.37704576  0.39121586  1
  O  O19  1  0.14822706  0.70953576  0.05539320  1
  O  O20  1  0.64663005  0.54851015  0.22465635  1
  O  O21  1  0.57955313  0.88785699  0.89984310  1
  O  O22  1  0.12501062  0.03526559  0.72718942  1
  O  O23  1  0.59384341  0.22462702  0.55627972  1
