# generated using pymatgen
data_Li7Mn4CoO12
_symmetry_space_group_name_H-M   'P 1'
_cell_length_a   2.97033173
_cell_length_b   12.15344766
_cell_length_c   6.49735795
_cell_angle_alpha   105.03860987
_cell_angle_beta   76.72484551
_cell_angle_gamma   86.51806681
_symmetry_Int_Tables_number   1
_chemical_formula_structural   Li7Mn4CoO12
_chemical_formula_sum   'Li7 Mn4 Co1 O12'
_cell_volume   218.65343181
_cell_formula_units_Z   1
loop_
 _symmetry_equiv_pos_site_id
 _symmetry_equiv_pos_as_xyz
  1  'x, y, z'
loop_
 _atom_site_type_symbol
 _atom_site_label
 _atom_site_symmetry_multiplicity
 _atom_site_fract_x
 _atom_site_fract_y
 _atom_site_fract_z
 _atom_site_occupancy
  Li  Li0  1  0.74484064  0.25338409  0.23476962  1
  Li  Li1  1  0.74727428  0.58495531  0.91541804  1
  Li  Li2  1  0.26483061  0.40843612  0.08104130  1
  Li  Li3  1  0.25845781  0.74669972  0.74543621  1
  Li  Li4  1  0.73334379  0.92534495  0.59090338  1
  Li  Li5  1  0.25281196  0.08097334  0.43134824  1
  Li  Li6  1  0.50004490  0.16755023  0.83236343  1
  Mn  Mn7  1  0.99281135  0.00674904  0.99425697  1
  Mn  Mn8  1  0.00620539  0.32890439  0.67125659  1
  Mn  Mn9  1  0.00165890  0.66352839  0.33415731  1
  Mn  Mn10  1  0.48553445  0.83621967  0.17164278  1
  Co  Co11  1  0.51866294  0.49627340  0.49659735  1
  O  O12  1  0.40567285  0.10950053  0.11005517  1
  O  O13  1  0.42065343  0.44566662  0.76295321  1
  O  O14  1  0.87660882  0.29820744  0.93868476  1
  O  O15  1  0.85827279  0.61815942  0.61269406  1
  O  O16  1  0.34484885  0.78740940  0.44511425  1
  O  O17  1  0.84275594  0.95706727  0.27526197  1
  O  O18  1  0.14967823  0.38065351  0.39514285  1
  O  O19  1  0.14786506  0.71015300  0.05310896  1
  O  O20  1  0.64994971  0.54254531  0.22655855  1
  O  O21  1  0.57947488  0.88878616  0.90023470  1
  O  O22  1  0.12403173  0.03667982  0.72668130  1
  O  O23  1  0.59371070  0.22615288  0.55431899  1
