# generated using pymatgen
data_Li7Mn4CoO12
_symmetry_space_group_name_H-M   'P 1'
_cell_length_a   2.86803924
_cell_length_b   13.32619528
_cell_length_c   5.83241060
_cell_angle_alpha   77.86569374
_cell_angle_beta   90.00000000
_cell_angle_gamma   90.00000000
_symmetry_Int_Tables_number   1
_chemical_formula_structural   Li7Mn4CoO12
_chemical_formula_sum   'Li7 Mn4 Co1 O12'
_cell_volume   217.93456264
_cell_formula_units_Z   1
loop_
 _symmetry_equiv_pos_site_id
 _symmetry_equiv_pos_as_xyz
  1  'x, y, z'
loop_
 _atom_site_type_symbol
 _atom_site_label
 _atom_site_symmetry_multiplicity
 _atom_site_fract_x
 _atom_site_fract_y
 _atom_site_fract_z
 _atom_site_occupancy
  Li  Li0  1  0.50000000  0.16708983  0.16664328  1
  Li  Li1  1  0.50000000  0.49537691  0.50098963  1
  Li  Li2  1  0.50000000  0.83786218  0.83182601  1
  Li  Li3  1  0.00000000  0.32600124  0.83342392  1
  Li  Li4  1  0.00000000  0.66443750  0.16597184  1
  Li  Li5  1  0.00000000  0.00974576  0.50026600  1
  Li  Li6  1  0.50000000  0.16780427  0.66509979  1
  Mn  Mn7  1  0.00000000  0.01380310  0.98778672  1
  Mn  Mn8  1  0.00000000  0.32276326  0.34194891  1
  Mn  Mn9  1  0.00000000  0.66338289  0.67120609  1
  Mn  Mn10  1  0.50000000  0.83806930  0.33010084  1
  Co  Co11  1  0.50000000  0.49320765  0.00485525  1
  O  O12  1  0.50000000  0.00464357  0.22155234  1
  O  O13  1  0.50000000  0.33631216  0.55705884  1
  O  O14  1  0.50000000  0.66671234  0.90023683  1
  O  O15  1  0.00000000  0.15163876  0.92134233  1
  O  O16  1  0.00000000  0.48949212  0.23120869  1
  O  O17  1  -0.00000000  0.83717592  0.55882302  1
  O  O18  1  0.50000000  0.33218991  0.10814738  1
  O  O19  1  0.50000000  0.66149402  0.43979753  1
  O  O20  1  0.50000000  0.99944027  0.77364867  1
  O  O21  1  0.00000000  0.49494773  0.78207997  1
  O  O22  1  0.00000000  0.84169761  0.09740947  1
  O  O23  1  0.00000000  0.18471169  0.40857662  1
