# generated using pymatgen
data_Li7Mn4CoO12
_symmetry_space_group_name_H-M   'P 1'
_cell_length_a   2.87466638
_cell_length_b   11.75907285
_cell_length_c   6.78212695
_cell_angle_alpha   77.98061622
_cell_angle_beta   77.76453888
_cell_angle_gamma   89.99999816
_symmetry_Int_Tables_number   1
_chemical_formula_structural   Li7Mn4CoO12
_chemical_formula_sum   'Li7 Mn4 Co1 O12'
_cell_volume   218.90585810
_cell_formula_units_Z   1
loop_
 _symmetry_equiv_pos_site_id
 _symmetry_equiv_pos_as_xyz
  1  'x, y, z'
loop_
 _atom_site_type_symbol
 _atom_site_label
 _atom_site_symmetry_multiplicity
 _atom_site_fract_x
 _atom_site_fract_y
 _atom_site_fract_z
 _atom_site_occupancy
  Li  Li0  1  0.33687577  0.07729817  0.32624747  1
  Li  Li1  1  0.99833214  0.24966367  0.00333573  1
  Li  Li2  1  0.66684291  0.41802758  0.66631519  1
  Li  Li3  1  0.67027164  0.91425541  0.65945773  1
  Li  Li4  1  0.99626780  0.75139395  0.00746440  1
  Li  Li5  1  0.33145651  0.58888293  0.33708599  1
  Li  Li6  1  0.33230071  0.83218999  0.33539759  1
  Mn  Mn7  1  0.98841296  0.99345125  0.02317408  1
  Mn  Mn8  1  0.67548713  0.67076048  0.64902674  1
  Mn  Mn9  1  0.66374601  0.16459170  0.67250898  1
  Mn  Mn10  1  0.33644936  0.33626804  0.32710028  1
  Co  Co11  1  0.00508545  0.50348963  0.98982910  1
  O  O12  1  0.49568154  0.10940017  0.00863592  1
  O  O13  1  0.16060447  0.27804584  0.67879106  1
  O  O14  1  0.83448974  0.44914056  0.33102152  1
  O  O15  1  0.84766418  0.96208865  0.30467264  1
  O  O16  1  0.16377450  0.77795867  0.67245100  1
  O  O17  1  0.51126577  0.61652266  0.97746747  1
  O  O18  1  0.15658662  0.04750502  0.68682576  1
  O  O19  1  0.83669827  0.22176531  0.32660347  1
  O  O20  1  0.50646128  0.39290815  0.98707843  1
  O  O21  1  0.50067810  0.88650850  0.99864479  1
  O  O22  1  0.81664630  0.70292710  0.36670740  1
  O  O23  1  0.16792087  0.55495659  0.66415726  1
