# generated using pymatgen
data_Li7Mn4CoO12
_symmetry_space_group_name_H-M   'P 1'
_cell_length_a   2.97646951
_cell_length_b   15.06526095
_cell_length_c   5.09860559
_cell_angle_alpha   96.26771813
_cell_angle_beta   76.24691743
_cell_angle_gamma   86.26537207
_symmetry_Int_Tables_number   1
_chemical_formula_structural   Li7Mn4CoO12
_chemical_formula_sum   'Li7 Mn4 Co1 O12'
_cell_volume   219.76112728
_cell_formula_units_Z   1
loop_
 _symmetry_equiv_pos_site_id
 _symmetry_equiv_pos_as_xyz
  1  'x, y, z'
loop_
 _atom_site_type_symbol
 _atom_site_label
 _atom_site_symmetry_multiplicity
 _atom_site_fract_x
 _atom_site_fract_y
 _atom_site_fract_z
 _atom_site_occupancy
  Li  Li0  1  0.63341505  0.09385415  0.59344044  1
  Li  Li1  1  0.03325195  0.23947885  0.73989256  1
  Li  Li2  1  0.31964355  0.41637620  0.93108433  1
  Li  Li3  1  0.66877304  0.58423677  0.07661747  1
  Li  Li4  1  0.99789396  0.74909623  0.25671553  1
  Li  Li5  1  0.34702245  0.91695780  0.40224967  1
  Li  Li6  1  0.33333300  0.16666700  0.16666700  1
  Mn  Mn7  1  0.98905480  0.00599500  -0.00024883  1
  Mn  Mn8  1  0.67761220  0.32733800  0.33358183  1
  Mn  Mn9  1  0.00843852  0.50074362  0.49661472  1
  Mn  Mn10  1  0.65822848  0.83258938  0.83671828  1
  Co  Co11  1  0.33333300  0.66666700  0.66666700  1
  O  O12  1  0.37567294  0.03606542  0.24813658  1
  O  O13  1  0.65824133  0.21922757  0.46188317  1
  O  O14  1  0.04521923  0.37571921  0.58966375  1
  O  O15  1  0.30891387  0.54655072  0.77898011  1
  O  O16  1  0.65908583  0.70951738  0.93510380  1
  O  O17  1  0.96868756  0.87886123  0.11071543  1
  O  O18  1  0.00842567  0.11410543  0.87144983  1
  O  O19  1  0.29099406  0.29726758  0.08519642  1
  O  O20  1  0.69797844  0.45447277  0.22261857  1
  O  O21  1  0.00758117  0.62381562  0.39822920  1
  O  O22  1  0.35775313  0.78678228  0.55435289  1
  O  O23  1  0.62144677  0.95761479  0.74367025  1
