# generated using pymatgen
data_Li7Mn2(CoO4)3
_symmetry_space_group_name_H-M   'P 1'
_cell_length_a   5.03345845
_cell_length_b   5.03345839
_cell_length_c   9.79320764
_cell_angle_alpha   84.94274762
_cell_angle_beta   95.05725236
_cell_angle_gamma   59.62130487
_symmetry_Int_Tables_number   1
_chemical_formula_structural   Li7Mn2(CoO4)3
_chemical_formula_sum   'Li7 Mn2 Co3 O12'
_cell_volume   210.65971733
_cell_formula_units_Z   1
loop_
 _symmetry_equiv_pos_site_id
 _symmetry_equiv_pos_as_xyz
  1  'x, y, z'
loop_
 _atom_site_type_symbol
 _atom_site_label
 _atom_site_symmetry_multiplicity
 _atom_site_fract_x
 _atom_site_fract_y
 _atom_site_fract_z
 _atom_site_occupancy
  Li  Li0  1  0.25186039  0.74412959  0.74662818  1
  Li  Li1  1  0.42182314  0.90921229  0.25357777  1
  Li  Li2  1  0.74412959  0.25186039  0.25337182  1
  Li  Li3  1  0.90921229  0.42182314  0.74642223  1
  Li  Li4  1  0.08691262  0.58557385  0.25357639  1
  Li  Li5  1  0.58557385  0.08691262  0.74642361  1
  Li  Li6  1  0.50080388  0.50080388  0.50000000  1
  Mn  Mn7  1  0.00080601  0.00080601  0.00000000  1
  Mn  Mn8  1  0.16614398  0.16614398  0.50000000  1
  Co  Co9  1  0.32959367  0.32959367  1.00000000  1
  Co  Co10  1  0.66723189  0.66723189  1.00000000  1
  Co  Co11  1  0.83522062  0.83522062  0.50000000  1
  O  O12  1  0.35179149  0.64173688  0.11742313  1
  O  O13  1  0.53915313  0.82135396  0.61183003  1
  O  O14  1  0.89529038  0.10085207  0.60959984  1
  O  O15  1  0.04922185  0.26945160  0.11636976  1
  O  O16  1  0.17240252  0.46807085  0.60959238  1
  O  O17  1  0.71443820  0.97692513  0.11426288  1
  O  O18  1  0.10085207  0.89529038  0.39040016  1
  O  O19  1  0.26945160  0.04922185  0.88363024  1
  O  O20  1  0.64173688  0.35179149  0.88257687  1
  O  O21  1  0.82135396  0.53915313  0.38816997  1
  O  O22  1  0.97692513  0.71443820  0.88573712  1
  O  O23  1  0.46807085  0.17240252  0.39040762  1
