# generated using pymatgen
data_Li7Mn4CoO12
_symmetry_space_group_name_H-M   'P 1'
_cell_length_a   2.88319738
_cell_length_b   5.12231948
_cell_length_c   15.69487731
_cell_angle_alpha   98.50196104
_cell_angle_beta   89.99999954
_cell_angle_gamma   106.34586036
_symmetry_Int_Tables_number   1
_chemical_formula_structural   Li7Mn4CoO12
_chemical_formula_sum   'Li7 Mn4 Co1 O12'
_cell_volume   219.76753591
_cell_formula_units_Z   1
loop_
 _symmetry_equiv_pos_site_id
 _symmetry_equiv_pos_as_xyz
  1  'x, y, z'
loop_
 _atom_site_type_symbol
 _atom_site_label
 _atom_site_symmetry_multiplicity
 _atom_site_fract_x
 _atom_site_fract_y
 _atom_site_fract_z
 _atom_site_occupancy
  Li  Li0  1  0.74096555  0.48193110  0.07529739  1
  Li  Li1  1  0.25020107  0.50040214  0.25078923  1
  Li  Li2  1  0.75304316  0.50608632  0.42356514  1
  Li  Li3  1  0.25820878  0.51641756  0.58665661  1
  Li  Li4  1  0.75362123  0.50724246  0.75760075  1
  Li  Li5  1  0.24654880  0.49309759  0.90712472  1
  Li  Li6  1  0.49951920  0.99903841  0.83155471  1
  Mn  Mn7  1  0.98688696  0.97377392  0.98736362  1
  Mn  Mn8  1  0.00746789  0.01493578  0.67493402  1
  Mn  Mn9  1  0.49159825  0.98319649  0.16211176  1
  Mn  Mn10  1  0.00522870  0.01045739  0.33808744  1
  Co  Co11  1  0.50841201  0.01682403  0.50632167  1
  O  O12  1  0.60391619  0.20783238  0.96166622  1
  O  O13  1  0.10136083  0.20272166  0.11931703  1
  O  O14  1  0.61586574  0.23173148  0.29676756  1
  O  O15  1  0.12710777  0.25421554  0.46733960  1
  O  O16  1  0.61373993  0.22747986  0.63026860  1
  O  O17  1  0.11903513  0.23807026  0.77995268  1
  O  O18  1  0.87928476  0.75856952  0.20009537  1
  O  O19  1  0.39217977  0.78435953  0.37662812  1
  O  O20  1  0.89366437  0.78732875  0.55004167  1
  O  O21  1  0.39309309  0.78618617  0.70413583  1
  O  O22  1  0.87992942  0.75985884  0.88212255  1
  O  O23  1  0.37912140  0.75824280  0.03025770  1
