# generated using pymatgen
data_Li7Mn4CoO12
_symmetry_space_group_name_H-M   'P 1'
_cell_length_a   2.95802327
_cell_length_b   8.16952527
_cell_length_c   9.86793078
_cell_angle_alpha   65.72685990
_cell_angle_beta   93.72625721
_cell_angle_gamma   90.99891372
_symmetry_Int_Tables_number   1
_chemical_formula_structural   Li7Mn4CoO12
_chemical_formula_sum   'Li7 Mn4 Co1 O12'
_cell_volume   216.91283239
_cell_formula_units_Z   1
loop_
 _symmetry_equiv_pos_site_id
 _symmetry_equiv_pos_as_xyz
  1  'x, y, z'
loop_
 _atom_site_type_symbol
 _atom_site_label
 _atom_site_symmetry_multiplicity
 _atom_site_fract_x
 _atom_site_fract_y
 _atom_site_fract_z
 _atom_site_occupancy
  Li  Li0  1  0.99767910  0.82942326  0.33545526  1
  Li  Li1  1  0.50255193  0.33252129  0.83312044  1
  Li  Li2  1  0.48929182  0.99581936  0.51112815  1
  Li  Li3  1  0.99427261  0.51817137  0.99874411  1
  Li  Li4  1  0.00566918  0.15291926  0.66626483  1
  Li  Li5  1  0.50912071  0.67101785  0.15494691  1
  Li  Li6  1  0.50002303  0.83296568  0.83198692  1
  Mn  Mn7  1  0.00771157  0.99236071  0.99461400  1
  Mn  Mn8  1  0.99268263  0.67231430  0.66983293  1
  Mn  Mn9  1  0.50919215  0.17141630  0.16228783  1
  Mn  Mn10  1  -0.00000062  0.33495103  0.33629207  1
  Co  Co11  1  0.48543609  0.49669558  0.50608075  1
  O  O12  1  0.52875294  0.93334439  0.14758897  1
  O  O13  1  0.96034651  0.43176776  0.65746965  1
  O  O14  1  0.96929034  0.09546956  0.32567330  1
  O  O15  1  0.51850288  0.59313926  0.81009460  1
  O  O16  1  0.46586943  0.26171006  0.49870439  1
  O  O17  1  0.99337453  0.76503104  0.00386481  1
  O  O18  1  0.47294813  0.72978603  0.51834768  1
  O  O19  1  0.04112913  0.23639365  0.00353908  1
  O  O20  1  0.00592781  0.90002791  0.66185681  1
  O  O21  1  0.53899898  0.40962491  0.17037070  1
  O  O22  1  0.48205295  0.07126675  0.85494923  1
  O  O23  1  0.02917618  0.57186270  0.34678657  1
