# generated using pymatgen
data_Li7Mn2(CoO4)3
_symmetry_space_group_name_H-M   'P 1'
_cell_length_a   4.99600997
_cell_length_b   5.09638421
_cell_length_c   8.76589981
_cell_angle_alpha   89.69862288
_cell_angle_beta   89.49403353
_cell_angle_gamma   108.71135130
_symmetry_Int_Tables_number   1
_chemical_formula_structural   Li7Mn2(CoO4)3
_chemical_formula_sum   'Li7 Mn2 Co3 O12'
_cell_volume   211.38123958
_cell_formula_units_Z   1
loop_
 _symmetry_equiv_pos_site_id
 _symmetry_equiv_pos_as_xyz
  1  'x, y, z'
loop_
 _atom_site_type_symbol
 _atom_site_label
 _atom_site_symmetry_multiplicity
 _atom_site_fract_x
 _atom_site_fract_y
 _atom_site_fract_z
 _atom_site_occupancy
  Li  Li0  1  0.00003640  0.50005808  0.16704126  1
  Li  Li1  1  0.49432679  0.50086830  0.32343443  1
  Li  Li2  1  0.99917884  0.49912750  0.49584439  1
  Li  Li3  1  0.50180731  0.49999477  0.66593025  1
  Li  Li4  1  0.00094242  0.50059769  0.83857919  1
  Li  Li5  1  0.50101654  0.49729573  0.00976902  1
  Li  Li6  1  0.49663556  0.99696450  0.16308157  1
  Mn  Mn7  1  0.99798818  0.99891844  0.00341423  1
  Mn  Mn8  1  0.00250691  0.00334816  0.66790577  1
  Co  Co9  1  0.00550251  0.99055099  0.32655432  1
  Co  Co10  1  0.50855674  0.00661430  0.49099479  1
  Co  Co11  1  0.50144921  0.00129157  0.83554591  1
  O  O12  1  0.74753479  0.21841159  0.98829585  1
  O  O13  1  0.21991384  0.23291010  0.15612380  1
  O  O14  1  0.74456316  0.22894508  0.34421483  1
  O  O15  1  0.23536877  0.23236108  0.51029105  1
  O  O16  1  0.75315641  0.22394438  0.67520488  1
  O  O17  1  0.24244750  0.21821587  0.83241618  1
  O  O18  1  0.24200293  0.76489895  0.34048067  1
  O  O19  1  0.76532104  0.77023048  0.51511407  1
  O  O20  1  0.26094770  0.78900399  0.67102524  1
  O  O21  1  0.76056443  0.78402513  0.83338832  1
  O  O22  1  0.24655665  0.77789292  0.98726931  1
  O  O23  1  0.77167538  0.76353040  0.15808068  1
