# generated using pymatgen
data_Li9Co7O16
_symmetry_space_group_name_H-M   'P 1'
_cell_length_a   5.00331167
_cell_length_b   7.74054713
_cell_length_c   7.67176833
_cell_angle_alpha   82.34691477
_cell_angle_beta   103.05466344
_cell_angle_gamma   78.35250577
_symmetry_Int_Tables_number   1
_chemical_formula_structural   Li9Co7O16
_chemical_formula_sum   'Li9 Co7 O16'
_cell_volume   278.45511085
_cell_formula_units_Z   1
loop_
 _symmetry_equiv_pos_site_id
 _symmetry_equiv_pos_as_xyz
  1  'x, y, z'
loop_
 _atom_site_type_symbol
 _atom_site_label
 _atom_site_symmetry_multiplicity
 _atom_site_fract_x
 _atom_site_fract_y
 _atom_site_fract_z
 _atom_site_occupancy
  Li  Li0  1  0.50282362  0.24706380  0.75675062  1
  Li  Li1  1  0.99351161  0.88262415  0.36834908  1
  Li  Li2  1  0.50236241  0.49484243  0.00067185  1
  Li  Li3  1  0.01073718  0.36917199  0.88042415  1
  Li  Li4  1  0.49497906  0.00169616  0.49184806  1
  Li  Li5  1  -0.00248956  0.62457156  0.12629837  1
  Li  Li6  1  0.00290497  0.12486776  0.62428241  1
  Li  Li7  1  0.49515013  0.75856307  0.24891839  1
  Li  Li8  1  0.50024798  0.12169266  0.12641128  1
  Co  Co9  1  0.00201759  0.00143565  0.00167499  1
  Co  Co10  1  0.99658054  0.24355912  0.24495835  1
  Co  Co11  1  0.49674039  0.62675666  0.62669239  1
  Co  Co12  1  0.49828946  0.88341925  0.88057018  1
  Co  Co13  1  0.00055212  0.49657964  0.49943049  1
  Co  Co14  1  -0.00302478  0.75359728  0.74870246  1
  Co  Co15  1  0.50059863  0.36755143  0.36745316  1
  O  O16  1  0.74742940  0.99219716  0.76816912  1
  O  O17  1  0.25535918  0.61850062  0.39670000  1
  O  O18  1  0.79031642  0.23439780  0.01630950  1
  O  O19  1  0.25816912  0.09862739  0.88125646  1
  O  O20  1  0.75054793  0.74438159  0.50960644  1
  O  O21  1  0.24242520  0.37043841  0.14245972  1
  O  O22  1  0.26288557  0.86842259  0.64801658  1
  O  O23  1  0.76458992  0.47973201  0.25157271  1
  O  O24  1  0.25036158  0.50735523  0.74669881  1
  O  O25  1  0.76818081  0.13850542  0.36653230  1
  O  O26  1  0.24395667  0.77163196  0.99007771  1
  O  O27  1  0.72410192  0.64790112  0.85826230  1
  O  O28  1  0.23340150  0.25418599  0.48164866  1
  O  O29  1  0.74894248  0.87849142  0.09867882  1
  O  O30  1  0.74584587  0.38345910  0.61207520  1
  O  O31  1  0.22150510  0.01378061  0.23849642  1
