# generated using pymatgen
data_MnFe3Sb2(PO4)6
_symmetry_space_group_name_H-M   'P 1'
_cell_length_a   8.86655806
_cell_length_b   8.86655818
_cell_length_c   8.86655901
_cell_angle_alpha   58.80728608
_cell_angle_beta   58.80728247
_cell_angle_gamma   58.80728458
_symmetry_Int_Tables_number   1
_chemical_formula_structural   MnFe3Sb2(PO4)6
_chemical_formula_sum   'Mn1 Fe3 Sb2 P6 O24'
_cell_volume   479.46551137
_cell_formula_units_Z   1
loop_
 _symmetry_equiv_pos_site_id
 _symmetry_equiv_pos_as_xyz
  1  'x, y, z'
loop_
 _atom_site_type_symbol
 _atom_site_label
 _atom_site_symmetry_multiplicity
 _atom_site_fract_x
 _atom_site_fract_y
 _atom_site_fract_z
 _atom_site_occupancy
  Mn  Mn0  1  0.85177035  0.85177035  0.85177035  1
  Fe  Fe1  1  0.14907853  0.14907853  0.14907853  1
  Fe  Fe2  1  0.35107626  0.35107626  0.35107626  1
  Fe  Fe3  1  0.64911251  0.64911251  0.64911251  1
  Sb  Sb4  1  0.00082101  0.00082101  0.00082101  1
  Sb  Sb5  1  0.50012542  0.50012542  0.50012542  1
  P  P6  1  0.25079301  0.53953156  0.95957221  1
  P  P7  1  0.53953156  0.95957221  0.25079301  1
  P  P8  1  0.95957221  0.25079301  0.53953156  1
  P  P9  1  0.04104807  0.74932014  0.45885664  1
  P  P10  1  0.45885664  0.04104807  0.74932014  1
  P  P11  1  0.74932014  0.45885664  0.04104807  1
  O  O12  1  0.11672576  0.30300914  0.50580442  1
  O  O13  1  0.30300914  0.50580442  0.11672576  1
  O  O14  1  0.06004607  0.91660050  0.26600966  1
  O  O15  1  0.50580442  0.11672576  0.30300914  1
  O  O16  1  0.01302366  0.80086299  0.61322113  1
  O  O17  1  0.23321603  0.58230050  0.43787369  1
  O  O18  1  0.26600966  0.06004607  0.91660050  1
  O  O19  1  0.43787369  0.23321603  0.58230050  1
  O  O20  1  0.19814920  0.38284578  0.99306843  1
  O  O21  1  0.58230050  0.43787369  0.23321603  1
  O  O22  1  0.08489990  0.73183681  0.94165896  1
  O  O23  1  0.38284578  0.99306843  0.19814920  1
  O  O24  1  0.61322113  0.01302366  0.80086299  1
  O  O25  1  0.91660050  0.26600966  0.06004607  1
  O  O26  1  0.41776837  0.55884991  0.76715919  1
  O  O27  1  0.80086299  0.61322113  0.01302366  1
  O  O28  1  0.55884991  0.76715919  0.41776837  1
  O  O29  1  0.73183681  0.94165896  0.08489990  1
  O  O30  1  0.76715919  0.41776837  0.55884991  1
  O  O31  1  0.99306843  0.19814920  0.38284578  1
  O  O32  1  0.49296347  0.88308053  0.69791921  1
  O  O33  1  0.94165896  0.08489990  0.73183681  1
  O  O34  1  0.69791921  0.49296347  0.88308053  1
  O  O35  1  0.88308053  0.69791921  0.49296347  1
