# generated using pymatgen
data_Li9Co7O16
_symmetry_space_group_name_H-M   'P 1'
_cell_length_a   5.08293635
_cell_length_b   5.01669976
_cell_length_c   11.09432486
_cell_angle_alpha   94.02468067
_cell_angle_beta   80.52600561
_cell_angle_gamma   99.18651161
_symmetry_Int_Tables_number   1
_chemical_formula_structural   Li9Co7O16
_chemical_formula_sum   'Li9 Co7 O16'
_cell_volume   275.18258471
_cell_formula_units_Z   1
loop_
 _symmetry_equiv_pos_site_id
 _symmetry_equiv_pos_as_xyz
  1  'x, y, z'
loop_
 _atom_site_type_symbol
 _atom_site_label
 _atom_site_symmetry_multiplicity
 _atom_site_fract_x
 _atom_site_fract_y
 _atom_site_fract_z
 _atom_site_occupancy
  Li  Li0  1  0.57071689  0.25415492  0.94398561  1
  Li  Li1  1  0.43455522  0.75408937  0.06656783  1
  Li  Li2  1  0.68603258  0.74705010  0.81400434  1
  Li  Li3  1  0.81462850  0.25052370  0.68891837  1
  Li  Li4  1  0.93537150  0.74947630  0.56108163  1
  Li  Li5  1  0.06396742  0.25294990  0.43599566  1
  Li  Li6  1  0.17928311  0.74584508  0.30601439  1
  Li  Li7  1  0.31544478  0.24591063  0.18343217  1
  Li  Li8  1  0.87500000  0.50000000  0.12500000  1
  Co  Co9  1  0.00018317  0.00018655  0.00081824  1
  Co  Co10  1  0.74981683  0.99981345  0.24918176  1
  Co  Co11  1  0.63042353  0.49965996  0.36912432  1
  Co  Co12  1  0.50296976  -0.00129792  0.49756095  1
  Co  Co13  1  0.37500000  0.50000000  0.62500000  1
  Co  Co14  1  0.24703024  0.00129792  0.75243905  1
  Co  Co15  1  0.11957647  0.50034004  0.88087568  1
  O  O16  1  0.31627336  0.85671369  0.90501655  1
  O  O17  1  0.20307562  0.36137548  0.01670556  1
  O  O18  1  0.44339755  0.37839592  0.78290936  1
  O  O19  1  0.58526505  0.87976178  0.65450341  1
  O  O20  1  0.70336056  0.38052109  0.52476681  1
  O  O21  1  0.82380262  0.85537073  0.39885779  1
  O  O22  1  0.92679380  0.35946628  0.28764246  1
  O  O23  1  0.06980328  0.89501949  0.15358845  1
  O  O24  1  0.82320620  0.64053372  0.96235754  1
  O  O25  1  0.68019672  0.10498051  0.09641155  1
  O  O26  1  0.92619738  0.14462927  0.85114221  1
  O  O27  1  0.04663944  0.61947891  0.72523319  1
  O  O28  1  0.16473495  0.12023822  0.59549659  1
  O  O29  1  0.30660245  0.62160408  0.46709064  1
  O  O30  1  0.43372664  0.14328631  0.34498345  1
  O  O31  1  0.54692438  0.63862452  0.23329444  1
