# generated using pymatgen
data_LiV3OF11
_symmetry_space_group_name_H-M   'P 1'
_cell_length_a   5.24875931
_cell_length_b   5.39098007
_cell_length_c   15.68979164
_cell_angle_alpha   100.04673604
_cell_angle_beta   89.96556613
_cell_angle_gamma   91.30794534
_symmetry_Int_Tables_number   1
_chemical_formula_structural   LiV3OF11
_chemical_formula_sum   'Li2 V6 O2 F22'
_cell_volume   437.03344771
_cell_formula_units_Z   2
loop_
 _symmetry_equiv_pos_site_id
 _symmetry_equiv_pos_as_xyz
  1  'x, y, z'
loop_
 _atom_site_type_symbol
 _atom_site_label
 _atom_site_symmetry_multiplicity
 _atom_site_fract_x
 _atom_site_fract_y
 _atom_site_fract_z
 _atom_site_occupancy
  Li  Li0  1  0.75961977  0.81204867  0.15309318  1
  Li  Li1  1  0.23995774  0.18799775  0.84670910  1
  V  V2  1  0.00192938  0.66876095  0.33746253  1
  V  V3  1  0.49993726  0.49977423  -0.00014702  1
  V  V4  1  0.50239325  0.82973992  0.66307984  1
  V  V5  1  -0.00004205  0.99985917  -0.00013863  1
  V  V6  1  0.99758657  0.33027643  0.66236347  1
  V  V7  1  0.49732950  0.16985181  0.33703498  1
  O  O8  1  0.75807969  0.72927042  0.01205035  1
  O  O9  1  0.24201344  0.27081738  0.98790869  1
  F  F10  1  0.19384501  0.96189443  0.30719002  1
  F  F11  1  0.68748330  0.87767989  0.35611773  1
  F  F12  1  0.09365480  0.75329692  0.44786326  1
  F  F13  1  0.43850753  0.59120639  0.11616640  1
  F  F14  1  0.40763392  0.90868424  0.77713744  1
  F  F15  1  0.93914714  0.96928081  0.88482838  1
  F  F16  1  0.59098099  0.76361821  0.55397638  1
  F  F17  1  0.90956945  0.59729380  0.22112497  1
  F  F18  1  0.19308286  0.62876286  0.64001941  1
  F  F19  1  0.31122577  0.45520874  0.31138234  1
  F  F20  1  0.27398405  0.75892309  0.97315546  1
  F  F21  1  0.72598951  0.24107969  0.02681674  1
  F  F22  1  0.68929870  0.54396524  0.68879985  1
  F  F23  1  0.80705786  0.37151983  0.35981739  1
  F  F24  1  0.09177110  0.40382679  0.77974025  1
  F  F25  1  0.40914854  0.23668037  0.44592775  1
  F  F26  1  0.06094060  0.03077376  0.11527195  1
  F  F27  1  0.59246494  0.09139081  0.22285243  1
  F  F28  1  0.56148419  0.40891084  0.88392272  1
  F  F29  1  0.90631446  0.24762250  0.55152465  1
  F  F30  1  0.31165588  0.12295051  0.64410863  1
  F  F31  1  0.80594285  0.03703354  0.69283837  1
