# generated using pymatgen
data_LiV3OF11
_symmetry_space_group_name_H-M   'P 1'
_cell_length_a   5.28264583
_cell_length_b   5.46504237
_cell_length_c   15.57370059
_cell_angle_alpha   80.35778942
_cell_angle_beta   90.17585840
_cell_angle_gamma   89.69272188
_symmetry_Int_Tables_number   1
_chemical_formula_structural   LiV3OF11
_chemical_formula_sum   'Li2 V6 O2 F22'
_cell_volume   443.24925938
_cell_formula_units_Z   2
loop_
 _symmetry_equiv_pos_site_id
 _symmetry_equiv_pos_as_xyz
  1  'x, y, z'
loop_
 _atom_site_type_symbol
 _atom_site_label
 _atom_site_symmetry_multiplicity
 _atom_site_fract_x
 _atom_site_fract_y
 _atom_site_fract_z
 _atom_site_occupancy
  Li  Li0  1  0.18819315  0.63377462  0.17495310  1
  Li  Li1  1  0.54988354  0.14166009  0.89464054  1
  V  V2  1  0.48503553  0.54264491  0.99432250  1
  V  V3  1  0.50265940  0.83190725  0.33712212  1
  V  V4  1  0.99867824  0.66626405  0.66705185  1
  V  V5  1  0.99920225  0.32626751  0.34073502  1
  V  V6  1  0.49913855  0.16726909  0.66351887  1
  V  V7  1  0.00640504  0.00773524  0.00838133  1
  O  O8  1  0.31352298  0.80563569  0.97206385  1
  O  O9  1  0.08206280  0.94751725  0.11289544  1
  F  F10  1  0.20133722  0.97371704  0.64395466  1
  F  F11  1  0.69977015  0.86104811  0.68906227  1
  F  F12  1  0.40772309  0.78880511  0.44736680  1
  F  F13  1  0.08571405  0.62522384  0.77770927  1
  F  F14  1  0.56940801  0.85812253  0.22370640  1
  F  F15  1  0.91780096  0.70777688  0.55536851  1
  F  F16  1  0.59248978  0.51126178  0.88391101  1
  F  F17  1  0.20484563  0.63981143  0.30971467  1
  F  F18  1  0.29895635  0.47172143  0.64318157  1
  F  F19  1  0.21821940  0.30778028  0.96910053  1
  F  F20  1  0.79404053  0.68140152  0.02475769  1
  F  F21  1  0.69616736  0.52103353  0.36017801  1
  F  F22  1  0.79546024  0.36033517  0.68830658  1
  F  F23  1  0.08904696  0.29484682  0.45258415  1
  F  F24  1  0.41794008  0.12730574  0.77761765  1
  F  F25  1  0.40395242  0.46080662  0.11131198  1
  F  F26  1  0.93405509  0.39089002  0.22258642  1
  F  F27  1  0.58389738  0.20282653  0.55327982  1
  F  F28  1  0.88005952  0.02481890  0.89088225  1
  F  F29  1  0.30295835  0.13740956  0.31419874  1
  F  F30  1  0.69025792  0.19903626  0.02028901  1
  F  F31  1  0.80024901  0.01656219  0.35738839  1
