# generated using pymatgen
data_LiV2OF5
_symmetry_space_group_name_H-M   'P 1'
_cell_length_a   5.16912056
_cell_length_b   5.22578692
_cell_length_c   13.82690542
_cell_angle_alpha   89.57268927
_cell_angle_beta   90.12514765
_cell_angle_gamma   119.06954254
_symmetry_Int_Tables_number   1
_chemical_formula_structural   LiV2OF5
_chemical_formula_sum   'Li3 V6 O3 F15'
_cell_volume   326.44298074
_cell_formula_units_Z   3
loop_
 _symmetry_equiv_pos_site_id
 _symmetry_equiv_pos_as_xyz
  1  'x, y, z'
loop_
 _atom_site_type_symbol
 _atom_site_label
 _atom_site_symmetry_multiplicity
 _atom_site_fract_x
 _atom_site_fract_y
 _atom_site_fract_z
 _atom_site_occupancy
  Li  Li0  1  0.99752184  0.01656156  0.23790713  1
  Li  Li1  1  0.64991466  0.30981283  0.60936384  1
  Li  Li2  1  0.30117167  0.64539526  0.89597098  1
  V  V3  1  0.98539369  0.01305250  0.99729831  1
  V  V4  1  0.68769683  0.33688688  0.33029483  1
  V  V5  1  0.67534259  0.32932506  0.83964959  1
  V  V6  1  0.33313135  0.68207273  0.65959555  1
  V  V7  1  0.30813084  0.64958143  0.17134351  1
  V  V8  1  0.02084332  0.99547906  0.50182092  1
  O  O9  1  0.94171770  0.28087003  0.91836543  1
  O  O10  1  0.28738986  0.95041126  0.58275797  1
  O  O11  1  0.99825265  0.38395532  0.24909928  1
  F  F12  1  0.73196558  0.04791872  0.41769062  1
  F  F13  1  0.95181019  0.66651625  0.41582780  1
  F  F14  1  0.62345127  0.02674546  0.74348204  1
  F  F15  1  0.36079457  0.01079077  0.25128922  1
  F  F16  1  0.67064095  0.65661465  0.91612765  1
  F  F17  1  0.66533400  0.67967036  0.58430097  1
  F  F18  1  0.63960170  0.65060360  0.25003694  1
  F  F19  1  0.31284099  0.01296034  0.91496417  1
  F  F20  1  0.34676473  0.28514728  0.41493697  1
  F  F21  1  0.40488805  0.40551973  0.74931566  1
  F  F22  1  0.66753197  0.93980680  0.08995246  1
  F  F23  1  0.27999273  0.32352365  0.08586223  1
  F  F24  1  0.01995166  0.32116386  0.58354338  1
  F  F25  1  0.05905770  0.72835840  0.07928214  1
  F  F26  1  0.02281092  0.62105323  0.75674140  1
