# generated using pymatgen
data_Li7Mn5O12
_symmetry_space_group_name_H-M   'P 1'
_cell_length_a   2.99474157
_cell_length_b   6.46069967
_cell_length_c   12.10964528
_cell_angle_alpha   76.16011069
_cell_angle_beta   90.00000005
_cell_angle_gamma   103.40106287
_symmetry_Int_Tables_number   1
_chemical_formula_structural   Li7Mn5O12
_chemical_formula_sum   'Li7 Mn5 O12'
_cell_volume   220.92083784
_cell_formula_units_Z   1
loop_
 _symmetry_equiv_pos_site_id
 _symmetry_equiv_pos_as_xyz
  1  'x, y, z'
loop_
 _atom_site_type_symbol
 _atom_site_label
 _atom_site_symmetry_multiplicity
 _atom_site_fract_x
 _atom_site_fract_y
 _atom_site_fract_z
 _atom_site_occupancy
  Li  Li0  1  0.33444917  0.66889934  0.40468161  1
  Li  Li1  1  0.66726613  0.33453126  0.58692540  1
  Li  Li2  1  0.99940087  0.99880174  0.74640760  1
  Li  Li3  1  0.33221683  0.66443466  0.92865239  1
  Li  Li4  1  0.67629395  0.35258689  0.08034325  1
  Li  Li5  1  0.99037305  0.98074611  0.25298975  1
  Li  Li6  1  0.33333300  0.66666700  0.16666700  1
  Mn  Mn7  1  0.99578794  0.99157588  0.00723722  1
  Mn  Mn8  1  0.67087906  0.34175712  0.32609578  1
  Mn  Mn9  1  0.99791286  0.99582572  0.49513569  1
  Mn  Mn10  1  0.33333300  0.66666700  0.66666700  1
  Mn  Mn11  1  0.66875414  0.33750728  0.83819731  1
  O  O12  1  0.49276315  0.98552531  0.62393759  1
  O  O13  1  0.82608742  0.65217483  0.79054858  1
  O  O14  1  0.16066687  0.32133473  0.95840348  1
  O  O15  1  0.50175606  0.00351111  0.10855588  1
  O  O16  1  0.82037049  0.64074098  0.29627657  1
  O  O17  1  0.15772675  0.31545451  0.44446517  1
  O  O18  1  0.16491094  0.32982189  0.22477712  1
  O  O19  1  0.50599913  0.01199927  0.37493052  1
  O  O20  1  0.84057958  0.68115817  0.54278442  1
  O  O21  1  0.17390385  0.34780769  0.70939541  1
  O  O22  1  0.50893925  0.01787949  0.88886883  1
  O  O23  1  0.84629651  0.69259202  0.03705643  1
