# generated using pymatgen
data_Li7Mn4CoO12
_symmetry_space_group_name_H-M   'P 1'
_cell_length_a   2.88868549
_cell_length_b   7.81267415
_cell_length_c   10.49449304
_cell_angle_alpha   107.01923072
_cell_angle_beta   90.00000000
_cell_angle_gamma   100.65365522
_symmetry_Int_Tables_number   1
_chemical_formula_structural   Li7Mn4CoO12
_chemical_formula_sum   'Li7 Mn4 Co1 O12'
_cell_volume   222.19824819
_cell_formula_units_Z   1
loop_
 _symmetry_equiv_pos_site_id
 _symmetry_equiv_pos_as_xyz
  1  'x, y, z'
loop_
 _atom_site_type_symbol
 _atom_site_label
 _atom_site_symmetry_multiplicity
 _atom_site_fract_x
 _atom_site_fract_y
 _atom_site_fract_z
 _atom_site_occupancy
  Li  Li0  1  0.50118450  0.00236901  0.25463509  1
  Li  Li1  1  0.50237825  0.00475650  0.74722443  1
  Li  Li2  1  0.17424059  0.34848018  0.44096866  1
  Li  Li3  1  0.16864500  0.33728900  0.90038328  1
  Li  Li4  1  0.82709739  0.65419578  0.06497388  1
  Li  Li5  1  0.83128138  0.66256376  0.58556438  1
  Li  Li6  1  0.66486153  0.32972206  0.66880640  1
  Mn  Mn7  1  0.99451048  0.98902095  0.99453283  1
  Mn  Mn8  1  0.00825991  0.01651982  0.51388079  1
  Mn  Mn9  1  0.66660245  0.33320391  0.16210817  1
  Mn  Mn10  1  0.33666845  0.67333791  0.33965988  1
  Co  Co11  1  0.31659790  0.63319680  0.80761401  1
  O  O12  1  0.42776546  0.85553093  0.04722009  1
  O  O13  1  0.42970577  0.85941153  0.54391878  1
  O  O14  1  0.08432992  0.16865884  0.18631253  1
  O  O15  1  0.07650167  0.15300235  0.68810311  1
  O  O16  1  0.75265072  0.50530243  0.87381888  1
  O  O17  1  0.75875877  0.51751855  0.37420278  1
  O  O18  1  0.57542013  0.15084025  0.45998046  1
  O  O19  1  0.56858970  0.13717941  0.95577745  1
  O  O20  1  0.25817635  0.51635170  0.63313982  1
  O  O21  1  0.24279190  0.48558280  0.12742350  1
  O  O22  1  0.91692872  0.83385844  0.31227247  1
  O  O23  1  0.91605304  0.83210709  0.81747833  1
