# generated using pymatgen
data_Li6MnV3(PO4)6
_symmetry_space_group_name_H-M   'P 1'
_cell_length_a   9.86500476
_cell_length_b   9.83908982
_cell_length_c   9.83062437
_cell_angle_alpha   87.19375634
_cell_angle_beta   93.15734666
_cell_angle_gamma   95.17859447
_symmetry_Int_Tables_number   1
_chemical_formula_structural   Li6MnV3(PO4)6
_chemical_formula_sum   'Li12 Mn2 V6 P12 O48'
_cell_volume   947.92055333
_cell_formula_units_Z   2
loop_
 _symmetry_equiv_pos_site_id
 _symmetry_equiv_pos_as_xyz
  1  'x, y, z'
loop_
 _atom_site_type_symbol
 _atom_site_label
 _atom_site_symmetry_multiplicity
 _atom_site_fract_x
 _atom_site_fract_y
 _atom_site_fract_z
 _atom_site_occupancy
  Li  Li0  1  0.01555045  0.50919381  0.23893647  1
  Li  Li1  1  0.99043818  0.25675298  0.38672513  1
  Li  Li2  1  0.21454045  0.57000990  0.46047717  1
  Li  Li3  1  0.22577853  0.73322025  0.17469347  1
  Li  Li4  1  0.25073413  0.97927958  0.61725428  1
  Li  Li5  1  0.37563852  0.74413681  0.82189312  1
  Li  Li6  1  0.50447086  0.01253979  0.75566384  1
  Li  Li7  1  0.56399355  0.22065536  0.53896224  1
  Li  Li8  1  0.69945294  0.92265489  0.97698561  1
  Li  Li9  1  0.73695442  0.22840528  0.82391484  1
  Li  Li10  1  0.75419048  0.37942859  0.17915985  1
  Li  Li11  1  0.92380523  0.69525786  0.01461144  1
  Mn  Mn12  1  0.03020604  0.26281179  0.78169677  1
  Mn  Mn13  1  0.97881419  0.74546627  0.72247992  1
  V  V14  1  0.24990307  0.24328031  0.99941279  1
  V  V15  1  0.25226396  0.02901967  0.21805509  1
  V  V16  1  0.46739049  0.46279407  0.00243253  1
  V  V17  1  0.53031801  0.53414568  0.50093482  1
  V  V18  1  0.74917853  0.96778260  0.28165114  1
  V  V19  1  0.74848961  0.74960095  0.50733767  1
  P  P20  1  0.04861778  0.82281878  0.40029563  1
  P  P21  1  0.17500540  0.94226890  0.90794468  1
  P  P22  1  0.15974021  0.54706586  0.92744343  1
  P  P23  1  0.31707910  0.34336777  0.30132971  1
  P  P24  1  0.34334744  0.31612942  0.69962603  1
  P  P25  1  0.44449077  0.83881014  0.42985317  1
  P  P26  1  0.55348766  0.15330361  0.07179087  1
  P  P27  1  0.64823832  0.68196494  0.80717409  1
  P  P28  1  0.68352785  0.65262945  0.19882347  1
  P  P29  1  0.83182227  0.44405193  0.57203938  1
  P  P30  1  0.81966642  0.05990173  0.59153668  1
  P  P31  1  0.94859568  0.17388850  0.09439847  1
  O  O32  1  0.03205203  0.87134772  0.88242680  1
  O  O33  1  0.08823380  0.82860527  0.55331553  1
  O  O34  1  0.11120603  0.60444987  0.78926873  1
  O  O35  1  0.10409857  0.95747793  0.32835051  1
  O  O36  1  0.09434533  0.69559899  0.33638231  1
  O  O37  1  0.12640703  0.38443390  0.92445338  1
  O  O38  1  0.09395262  0.59649440  0.05248582  1
  O  O39  1  0.10748898  0.16237288  0.12335990  1
  O  O40  1  0.17032514  0.10150566  0.87845223  1
  O  O41  1  0.18659835  0.30800492  0.66898006  1
  O  O42  1  0.21651987  0.90646371  0.06113334  1
  O  O43  1  0.19159026  0.40694329  0.34658502  1
  O  O44  1  0.28220608  0.90304962  0.81242541  1
  O  O45  1  0.31805011  0.58368825  0.94357446  1
  O  O46  1  0.31132042  0.18674050  0.33084659  1
  O  O47  1  0.32589895  0.37595080  0.14021812  1
  O  O48  1  0.37420298  0.88056494  0.29256714  1
  O  O49  1  0.40926237  0.91283523  0.55266137  1
  O  O50  1  0.37932843  0.32313835  0.86064417  1
  O  O51  1  0.39953155  0.45432213  0.63421231  1
  O  O52  1  0.40696212  0.67929934  0.44735055  1
  O  O53  1  0.40732833  0.19151023  0.65330980  1
  O  O54  1  0.39464019  0.12261814  0.07861309  1
  O  O55  1  0.45375590  0.40312006  0.36637927  1
  O  O56  1  0.57362169  0.80403657  0.84604222  1
  O  O57  1  0.54674294  0.59321898  0.13958881  1
  O  O58  1  0.58501172  0.54315486  0.86117808  1
  O  O59  1  0.60764099  0.86722823  0.41798279  1
  O  O60  1  0.62112085  0.67469730  0.64290092  1
  O  O61  1  0.60314297  0.09558955  0.94249964  1
  O  O62  1  0.59088622  0.31218748  0.07105234  1
  O  O63  1  0.61491580  0.08910895  0.20495159  1
  O  O64  1  0.67256244  0.63041794  0.36218857  1
  O  O65  1  0.70412851  0.80837149  0.15891297  1
  O  O66  1  0.67325350  0.40863755  0.54931697  1
  O  O67  1  0.69559173  0.11169701  0.65332672  1
  O  O68  1  0.80077339  0.70089927  0.84602887  1
  O  O69  1  0.81149938  0.89775452  0.61852133  1
  O  O70  1  0.80613915  0.57992563  0.16013594  1
  O  O71  1  0.82239369  0.08973851  0.43340700  1
  O  O72  1  0.86091317  0.60827187  0.57482635  1
  O  O73  1  0.88542809  0.82534169  0.37616553  1
  O  O74  1  0.87099332  0.38283725  0.71357493  1
  O  O75  1  0.91135161  0.20302001  0.93935535  1
  O  O76  1  0.90833890  0.40306710  0.45354006  1
  O  O77  1  0.87305561  0.03415665  0.13114992  1
  O  O78  1  0.91499921  0.28829930  0.18460088  1
  O  O79  1  0.95726017  0.11797374  0.65522555  1
