# generated using pymatgen
data_LiFe5O5F
_symmetry_space_group_name_H-M   'P 1'
_cell_length_a   3.56673122
_cell_length_b   3.57049588
_cell_length_c   13.41339864
_cell_angle_alpha   90.00000220
_cell_angle_beta   89.95098943
_cell_angle_gamma   120.03491871
_symmetry_Int_Tables_number   1
_chemical_formula_structural   LiFe5O5F
_chemical_formula_sum   'Li1 Fe5 O5 F1'
_cell_volume   147.88197829
_cell_formula_units_Z   1
loop_
 _symmetry_equiv_pos_site_id
 _symmetry_equiv_pos_as_xyz
  1  'x, y, z'
loop_
 _atom_site_type_symbol
 _atom_site_label
 _atom_site_symmetry_multiplicity
 _atom_site_fract_x
 _atom_site_fract_y
 _atom_site_fract_z
 _atom_site_occupancy
  Li  Li0  1  0.33973385  0.66991693  0.98404099  1
  Fe  Fe1  1  0.33092632  0.66551316  0.31188690  1
  Fe  Fe2  1  0.33454636  0.66732368  0.64935945  1
  Fe  Fe3  1  0.68434583  0.34222292  0.48028626  1
  Fe  Fe4  1  0.65817330  0.32913665  0.14618196  1
  Fe  Fe5  1  0.68778111  0.34394055  0.81454224  1
  O  O6  1  0.32962365  0.66486183  0.47922596  1
  O  O7  1  0.33264820  0.66637360  0.81899952  1
  O  O8  1  0.34695208  0.67352654  0.13956775  1
  O  O9  1  0.64316187  0.32163144  0.31186948  1
  O  O10  1  0.64430813  0.32220406  0.64682584  1
  F  F11  1  0.66779930  0.33394965  0.98024566  1
