# generated using pymatgen
data_Li6MnV3(PO4)6
_symmetry_space_group_name_H-M   'P 1'
_cell_length_a   8.45886555
_cell_length_b   8.81164370
_cell_length_c   12.49078364
_cell_angle_alpha   90.69535179
_cell_angle_beta   87.62962026
_cell_angle_gamma   89.99717234
_symmetry_Int_Tables_number   1
_chemical_formula_structural   Li6MnV3(PO4)6
_chemical_formula_sum   'Li12 Mn2 V6 P12 O48'
_cell_volume   930.15413478
_cell_formula_units_Z   2
loop_
 _symmetry_equiv_pos_site_id
 _symmetry_equiv_pos_as_xyz
  1  'x, y, z'
loop_
 _atom_site_type_symbol
 _atom_site_label
 _atom_site_symmetry_multiplicity
 _atom_site_fract_x
 _atom_site_fract_y
 _atom_site_fract_z
 _atom_site_occupancy
  Li  Li0  1  0.99863367  0.00030662  0.00220339  1
  Li  Li1  1  0.99890273  0.09912455  0.24917979  1
  Li  Li2  1  0.99478954  0.00476477  0.49777173  1
  Li  Li3  1  0.99207280  0.89979278  0.75146675  1
  Li  Li4  1  0.29168255  0.80515258  0.04787530  1
  Li  Li5  1  0.29338412  0.19094465  0.54421447  1
  Li  Li6  1  0.50976572  0.50333695  0.00374129  1
  Li  Li7  1  0.50050136  0.40274013  0.25039253  1
  Li  Li8  1  0.50115659  0.50091120  0.49732422  1
  Li  Li9  1  0.50637392  0.60035783  0.75064681  1
  Li  Li10  1  0.70553502  0.81340422  0.45086465  1
  Li  Li11  1  0.70946449  0.19356789  0.95378584  1
  Mn  Mn12  1  0.71584836  0.00127896  0.64345681  1
  Mn  Mn13  1  0.78749279  0.49683594  0.85353201  1
  V  V14  1  0.21233681  0.49853751  0.14354706  1
  V  V15  1  0.21352282  0.50212023  0.64448858  1
  V  V16  1  0.28448503  0.99789188  0.35856999  1
  V  V17  1  0.28546336  0.00231021  0.85869218  1
  V  V18  1  0.71616009  0.99611676  0.14238827  1
  V  V19  1  0.78599594  0.50106625  0.35536786  1
  P  P20  1  0.00074028  0.79704432  0.24988742  1
  P  P21  1  0.00091231  0.20198622  0.74995104  1
  P  P22  1  0.15721509  0.35678122  0.39588302  1
  P  P23  1  0.15132844  0.64263424  0.89500710  1
  P  P24  1  0.34809059  0.14558468  0.10374434  1
  P  P25  1  0.35214391  0.85435406  0.60259836  1
  P  P26  1  0.49928740  0.70600294  0.24989266  1
  P  P27  1  0.50441664  0.29093517  0.74763290  1
  P  P28  1  0.65236038  0.14761058  0.39479240  1
  P  P29  1  0.65295968  0.84954627  0.89913393  1
  P  P30  1  0.84117918  0.35431764  0.10601355  1
  P  P31  1  0.83794812  0.64822271  0.60453850  1
  O  O32  1  0.00861652  0.41818456  0.10375811  1
  O  O33  1  0.00828367  0.59324866  0.60730201  1
  O  O34  1  0.06735301  0.90806389  0.33630755  1
  O  O35  1  0.07068582  0.09193653  0.83366207  1
  O  O36  1  0.12939296  0.70313398  0.18939380  1
  O  O37  1  0.12509254  0.29807962  0.69042070  1
  O  O38  1  0.14530005  0.17977097  0.41086167  1
  O  O39  1  0.14091258  0.81998513  0.90736573  1
  O  O40  1  0.25222680  0.40352400  0.29374739  1
  O  O41  1  0.24929439  0.06056815  0.01824339  1
  O  O42  1  0.25437026  0.41037242  0.49387366  1
  O  O43  1  0.24434364  0.59397089  0.79076331  1
  O  O44  1  0.25342143  0.94004826  0.51987648  1
  O  O45  1  0.27275046  0.09527168  0.21200812  1
  O  O46  1  0.24910821  0.59027391  0.99042161  1
  O  O47  1  0.28033071  0.90470345  0.71314117  1
  O  O48  1  0.34289453  0.32083896  0.08991283  1
  O  O49  1  0.34780188  0.67944935  0.58906258  1
  O  O50  1  0.37924466  0.80391867  0.31295718  1
  O  O51  1  0.38630021  0.19506181  0.81219487  1
  O  O52  1  0.42935828  0.59816110  0.16268343  1
  O  O53  1  0.43254088  0.40061974  0.66541145  1
  O  O54  1  0.47429881  0.10594200  0.40934350  1
  O  O55  1  0.47549307  0.89417294  0.90982713  1
  O  O56  1  0.52554402  0.10655251  0.09046559  1
  O  O57  1  0.53086442  0.89401403  0.58860406  1
  O  O58  1  0.56876449  0.59828237  0.33491027  1
  O  O59  1  0.58011981  0.39697407  0.83455500  1
  O  O60  1  0.62045693  0.80369314  0.18925836  1
  O  O61  1  0.62313248  0.19258331  0.68204350  1
  O  O62  1  0.65341219  0.32304287  0.41136205  1
  O  O63  1  0.64818496  0.67302074  0.91167368  1
  O  O64  1  0.72211851  0.10272408  0.28226979  1
  O  O65  1  0.73758080  0.40298411  0.01291886  1
  O  O66  1  0.73509811  0.89905086  0.79371483  1
  O  O67  1  0.75431004  0.05890357  0.47265638  1
  O  O68  1  0.75024555  0.40174782  0.21083434  1
  O  O69  1  0.74557478  0.59872843  0.50467943  1
  O  O70  1  0.74888300  0.93285290  0.98648599  1
  O  O71  1  0.73867295  0.60151953  0.70394741  1
  O  O72  1  0.86109786  0.17714312  0.09204773  1
  O  O73  1  0.85297488  0.82757960  0.59291650  1
  O  O74  1  0.87324769  0.70271141  0.30896033  1
  O  O75  1  0.87279400  0.29308308  0.81371665  1
  O  O76  1  0.93395005  0.90645156  0.16503702  1
  O  O77  1  0.93209264  0.09104733  0.66397530  1
  O  O78  1  0.98859939  0.41505786  0.39626136  1
  O  O79  1  0.98071434  0.58536609  0.89558010  1
