# generated using pymatgen
data_La5Sm3VCr7O24
_symmetry_space_group_name_H-M   'P 1'
_cell_length_a   7.82960234
_cell_length_b   7.82645173
_cell_length_c   7.82645173
_cell_angle_alpha   90.08797937
_cell_angle_beta   89.88070599
_cell_angle_gamma   90.11929401
_symmetry_Int_Tables_number   1
_chemical_formula_structural   La5Sm3VCr7O24
_chemical_formula_sum   'La5 Sm3 V1 Cr7 O24'
_cell_volume   479.58670535
_cell_formula_units_Z   1
loop_
 _symmetry_equiv_pos_site_id
 _symmetry_equiv_pos_as_xyz
  1  'x, y, z'
loop_
 _atom_site_type_symbol
 _atom_site_label
 _atom_site_symmetry_multiplicity
 _atom_site_fract_x
 _atom_site_fract_y
 _atom_site_fract_z
 _atom_site_occupancy
  La  La0  1  0.25032216  0.24975830  0.25025742  1
  La  La1  1  0.24993511  0.25020193  0.74979807  1
  La  La2  1  0.25100838  0.74917093  0.25082907  1
  La  La3  1  0.25032216  0.74974258  0.75024170  1
  La  La4  1  0.75022798  0.74985238  0.25014762  1
  Sm  Sm5  1  0.74918034  0.25064765  0.25004955  1
  Sm  Sm6  1  0.74891372  0.25079295  0.74920705  1
  Sm  Sm7  1  0.74918034  0.74995045  0.74935235  1
  V  V8  1  0.99871008  0.00067232  0.99932768  1
  Cr  Cr9  1  0.99885938  0.00038145  0.50028107  1
  Cr  Cr10  1  0.99885938  0.49971893  0.99961855  1
  Cr  Cr11  1  0.99891588  0.49960843  0.50039157  1
  Cr  Cr12  1  0.50108427  0.00036570  0.99963430  1
  Cr  Cr13  1  0.50115099  0.00036349  0.50037401  1
  Cr  Cr14  1  0.50115099  0.49962599  0.99963651  1
  Cr  Cr15  1  0.50110655  0.49961280  0.50038720  1
  O  O16  1  0.25187323  0.99894116  0.00105884  1
  O  O17  1  0.25020108  0.00011179  0.50029527  1
  O  O18  1  0.25020108  0.49970473  0.99988821  1
  O  O19  1  0.25012373  0.49984357  0.50015643  1
  O  O20  1  0.74792232  0.00280204  0.99719796  1
  O  O21  1  0.74985317  0.00178546  0.50160727  1
  O  O22  1  0.74985317  0.49839273  0.99821454  1
  O  O23  1  0.74992215  0.49824380  0.50175620  1
  O  O24  1  0.99525700  0.25182259  0.99920554  1
  O  O25  1  0.99621695  0.25013336  0.50000173  1
  O  O26  1  0.99917665  0.74846019  0.99921476  1
  O  O27  1  0.99790014  0.74982891  0.50200656  1
  O  O28  1  0.50362867  0.25019864  0.99986196  1
  O  O29  1  0.50382564  0.25006855  0.50010321  1
  O  O30  1  0.50232888  0.74977447  0.99810716  1
  O  O31  1  0.50222724  0.74989468  0.50197204  1
  O  O32  1  0.99917665  0.00078524  0.25153981  1
  O  O33  1  0.99525700  0.00079446  0.74817741  1
  O  O34  1  0.99790014  0.49799344  0.25017109  1
  O  O35  1  0.99621695  0.49999827  0.74986664  1
  O  O36  1  0.50232888  0.00189284  0.25022553  1
  O  O37  1  0.50362867  0.00013804  0.74980136  1
  O  O38  1  0.50222724  0.49802796  0.25010532  1
  O  O39  1  0.50382564  0.49989679  0.74993145  1
