# generated using pymatgen
data_Li6MnV3(PO4)6
_symmetry_space_group_name_H-M   'P 1'
_cell_length_a   8.49177722
_cell_length_b   8.83966579
_cell_length_c   12.42245142
_cell_angle_alpha   90.00000000
_cell_angle_beta   87.82909223
_cell_angle_gamma   90.00000000
_symmetry_Int_Tables_number   1
_chemical_formula_structural   Li6MnV3(PO4)6
_chemical_formula_sum   'Li12 Mn2 V6 P12 O48'
_cell_volume   931.81550068
_cell_formula_units_Z   2
loop_
 _symmetry_equiv_pos_site_id
 _symmetry_equiv_pos_as_xyz
  1  'x, y, z'
loop_
 _atom_site_type_symbol
 _atom_site_label
 _atom_site_symmetry_multiplicity
 _atom_site_fract_x
 _atom_site_fract_y
 _atom_site_fract_z
 _atom_site_occupancy
  Li  Li0  1  0.00008646  0.99915232  0.99933966  1
  Li  Li1  1  -0.00000000  0.10032567  0.25000000  1
  Li  Li2  1  0.99991354  0.99915232  0.50066034  1
  Li  Li3  1  -0.00000000  0.89763487  0.75000000  1
  Li  Li4  1  0.29321232  0.80579608  0.04870660  1
  Li  Li5  1  0.29081336  0.19780151  0.55038493  1
  Li  Li6  1  0.50706557  0.50196191  0.99921259  1
  Li  Li7  1  0.50000000  0.40294580  0.25000000  1
  Li  Li8  1  0.49293443  0.50196191  0.50078741  1
  Li  Li9  1  0.50000000  0.60100832  0.75000000  1
  Li  Li10  1  0.70678768  0.80579608  0.45129340  1
  Li  Li11  1  0.70918664  0.19780151  0.94961507  1
  Mn  Mn12  1  0.20903539  0.49939474  0.64757457  1
  Mn  Mn13  1  0.79096461  0.49939474  0.85242543  1
  V  V14  1  0.21246670  0.49953113  0.14396035  1
  V  V15  1  0.28353582  0.99662512  0.35814583  1
  V  V16  1  0.28470962  0.00303929  0.85893645  1
  V  V17  1  0.71646418  0.99662512  0.14185417  1
  V  V18  1  0.71529038  0.00303929  0.64106355  1
  V  V19  1  0.78753330  0.49953113  0.35603965  1
  P  P20  1  -0.00000000  0.79601403  0.25000000  1
  P  P21  1  -0.00000000  0.19820217  0.75000000  1
  P  P22  1  0.15680336  0.35423030  0.39395162  1
  P  P23  1  0.15598437  0.64591705  0.89683129  1
  P  P24  1  0.35029517  0.14728092  0.10369387  1
  P  P25  1  0.35148503  0.85374796  0.60319998  1
  P  P26  1  0.50000000  0.70698829  0.25000000  1
  P  P27  1  0.50000000  0.29326147  0.75000000  1
  P  P28  1  0.64970483  0.14728092  0.39630613  1
  P  P29  1  0.64851497  0.85374796  0.89680002  1
  P  P30  1  0.84319664  0.35423030  0.10604838  1
  P  P31  1  0.84401563  0.64591705  0.60316871  1
  O  O32  1  0.01186273  0.41240537  0.10448660  1
  O  O33  1  0.01437549  0.59015877  0.60441549  1
  O  O34  1  0.06733953  0.90548535  0.33591102  1
  O  O35  1  0.06936598  0.08731070  0.83507339  1
  O  O36  1  0.12709032  0.70175955  0.19014704  1
  O  O37  1  0.12602097  0.28940222  0.68748529  1
  O  O38  1  0.14187547  0.17740026  0.40631032  1
  O  O39  1  0.14506634  0.82280527  0.91214784  1
  O  O40  1  0.24578152  0.40257721  0.28887439  1
  O  O41  1  0.25220361  0.06317177  0.01843660  1
  O  O42  1  0.25871560  0.40560491  0.48793988  1
  O  O43  1  0.25442822  0.60069866  0.79655311  1
  O  O44  1  0.25317567  0.93909424  0.51840396  1
  O  O45  1  0.27489194  0.09508050  0.21258626  1
  O  O46  1  0.24910119  0.59147057  0.99557252  1
  O  O47  1  0.27669646  0.90501243  0.71261063  1
  O  O48  1  0.34599698  0.32206869  0.09056092  1
  O  O49  1  0.35317519  0.67983834  0.59034092  1
  O  O50  1  0.38228931  0.80481022  0.31373897  1
  O  O51  1  0.38190557  0.19617547  0.81397881  1
  O  O52  1  0.42773785  0.59946053  0.16483160  1
  O  O53  1  0.42495712  0.39941817  0.66434601  1
  O  O54  1  0.47312171  0.10768686  0.40829272  1
  O  O55  1  0.47225417  0.89843434  0.90947584  1
  O  O56  1  0.52687829  0.10768686  0.09170728  1
  O  O57  1  0.52774583  0.89843434  0.59052416  1
  O  O58  1  0.57226215  0.59946053  0.33516740  1
  O  O59  1  0.57504288  0.39941817  0.83565399  1
  O  O60  1  0.61771069  0.80481022  0.18626103  1
  O  O61  1  0.61809443  0.19617547  0.68602119  1
  O  O62  1  0.65400302  0.32206869  0.40943908  1
  O  O63  1  0.64682481  0.67983834  0.90965908  1
  O  O64  1  0.72510806  0.09508050  0.28741374  1
  O  O65  1  0.74128440  0.40560491  0.01206012  1
  O  O66  1  0.72330354  0.90501243  0.78738937  1
  O  O67  1  0.74779639  0.06317177  0.48156340  1
  O  O68  1  0.75421848  0.40257721  0.21112561  1
  O  O69  1  0.75089881  0.59147057  0.50442748  1
  O  O70  1  0.74682433  0.93909424  0.98159604  1
  O  O71  1  0.74557178  0.60069866  0.70344689  1
  O  O72  1  0.85812453  0.17740026  0.09368968  1
  O  O73  1  0.85493366  0.82280527  0.58785216  1
  O  O74  1  0.87290968  0.70175955  0.30985296  1
  O  O75  1  0.87397903  0.28940222  0.81251471  1
  O  O76  1  0.93266047  0.90548535  0.16408898  1
  O  O77  1  0.93063402  0.08731070  0.66492661  1
  O  O78  1  0.98813727  0.41240537  0.39551340  1
  O  O79  1  0.98562451  0.59015877  0.89558451  1
