# generated using pymatgen
data_Li6MnV3(PO4)6
_symmetry_space_group_name_H-M   'P 1'
_cell_length_a   9.84791862
_cell_length_b   9.84121366
_cell_length_c   9.77308621
_cell_angle_alpha   87.31216804
_cell_angle_beta   93.48050759
_cell_angle_gamma   95.20839276
_symmetry_Int_Tables_number   1
_chemical_formula_structural   Li6MnV3(PO4)6
_chemical_formula_sum   'Li12 Mn2 V6 P12 O48'
_cell_volume   940.69643945
_cell_formula_units_Z   2
loop_
 _symmetry_equiv_pos_site_id
 _symmetry_equiv_pos_as_xyz
  1  'x, y, z'
loop_
 _atom_site_type_symbol
 _atom_site_label
 _atom_site_symmetry_multiplicity
 _atom_site_fract_x
 _atom_site_fract_y
 _atom_site_fract_z
 _atom_site_occupancy
  Li  Li0  1  0.01432512  0.51315223  0.24031498  1
  Li  Li1  1  -0.00006692  0.26382569  0.38523927  1
  Li  Li2  1  0.21912946  0.56702286  0.46546470  1
  Li  Li3  1  0.23005341  0.73436677  0.17708690  1
  Li  Li4  1  0.25439009  0.99027321  0.61204998  1
  Li  Li5  1  0.37601056  0.74560245  0.81397341  1
  Li  Li6  1  0.50811935  0.01309135  0.75366262  1
  Li  Li7  1  0.56356797  0.21965886  0.53581240  1
  Li  Li8  1  0.69874820  0.92539685  0.97350784  1
  Li  Li9  1  0.73537387  0.23230803  0.82127679  1
  Li  Li10  1  0.75140530  0.37836225  0.18883379  1
  Li  Li11  1  0.92130791  0.69128010  0.02400037  1
  Mn  Mn12  1  0.75084241  0.75701622  0.50103758  1
  Mn  Mn13  1  0.97093261  0.73608490  0.72223029  1
  V  V14  1  0.02976090  0.24919517  0.78246695  1
  V  V15  1  0.24887998  0.24611570  0.99964336  1
  V  V16  1  0.24769863  0.02832931  0.21751681  1
  V  V17  1  0.46926154  0.46592257  0.00189092  1
  V  V18  1  0.53243855  0.53356165  0.50175679  1
  V  V19  1  0.74359385  0.96798264  0.27988749  1
  P  P20  1  0.04823472  0.82157354  0.40477044  1
  P  P21  1  0.17313730  0.94449215  0.89880707  1
  P  P22  1  0.16063067  0.54927171  0.93018664  1
  P  P23  1  0.31956205  0.34168768  0.30186155  1
  P  P24  1  0.34150770  0.31888593  0.69791763  1
  P  P25  1  0.44078710  0.83835113  0.42460770  1
  P  P26  1  0.55098746  0.15534727  0.06964798  1
  P  P27  1  0.65193901  0.68243731  0.80230704  1
  P  P28  1  0.68498280  0.65209386  0.20200387  1
  P  P29  1  0.83981416  0.44384239  0.57705546  1
  P  P30  1  0.81512391  0.05228876  0.59351802  1
  P  P31  1  0.94631649  0.17333310  0.09662802  1
  O  O32  1  0.03193681  0.86793924  0.85919060  1
  O  O33  1  0.08198823  0.82091203  0.56172512  1
  O  O34  1  0.11112667  0.61045265  0.79136232  1
  O  O35  1  0.10983227  0.95943941  0.34240461  1
  O  O36  1  0.09645935  0.69718339  0.33816882  1
  O  O37  1  0.12625464  0.38906721  0.92594188  1
  O  O38  1  0.09576185  0.60126595  0.05523375  1
  O  O39  1  0.10598888  0.16313896  0.12407790  1
  O  O40  1  0.16106899  0.10291261  0.87268799  1
  O  O41  1  0.18391460  0.30958442  0.66959667  1
  O  O42  1  0.20199573  0.90874143  0.05437530  1
  O  O43  1  0.19418235  0.40439174  0.34938470  1
  O  O44  1  0.28662722  0.90993635  0.80982069  1
  O  O45  1  0.31947370  0.58791543  0.94327185  1
  O  O46  1  0.31194463  0.18444936  0.32840115  1
  O  O47  1  0.32726585  0.37706869  0.14058201  1
  O  O48  1  0.36422847  0.87615202  0.28635976  1
  O  O49  1  0.40236947  0.91017332  0.54882837  1
  O  O50  1  0.37834755  0.32499810  0.86022341  1
  O  O51  1  0.39591583  0.45767280  0.63402035  1
  O  O52  1  0.40739471  0.67816810  0.44420431  1
  O  O53  1  0.40408970  0.19391874  0.64934418  1
  O  O54  1  0.39127735  0.12180773  0.07434966  1
  O  O55  1  0.45796106  0.39678724  0.36856832  1
  O  O56  1  0.57949144  0.80526074  0.84348586  1
  O  O57  1  0.54679390  0.59133996  0.14343451  1
  O  O58  1  0.59101826  0.54489936  0.86265838  1
  O  O59  1  0.59856728  0.87407234  0.40881276  1
  O  O60  1  0.62684126  0.67157709  0.64067344  1
  O  O61  1  0.60153329  0.09700874  0.94056587  1
  O  O62  1  0.58966254  0.31383584  0.06929769  1
  O  O63  1  0.61253927  0.09333235  0.20485714  1
  O  O64  1  0.67574465  0.62851591  0.36462382  1
  O  O65  1  0.70438860  0.80698113  0.15731742  1
  O  O66  1  0.68001609  0.41138196  0.55804226  1
  O  O67  1  0.69213151  0.10606369  0.65674724  1
  O  O68  1  0.80722473  0.69915317  0.84517150  1
  O  O69  1  0.81454393  0.89326704  0.62657542  1
  O  O70  1  0.80731521  0.57915306  0.16133149  1
  O  O71  1  0.81648823  0.08542806  0.43565394  1
  O  O72  1  0.87694119  0.60449934  0.59291626  1
  O  O73  1  0.88755045  0.82817928  0.37334183  1
  O  O74  1  0.88062073  0.37061410  0.71475636  1
  O  O75  1  0.90957314  0.20707083  0.94155834  1
  O  O76  1  0.90949312  0.40527352  0.45199329  1
  O  O77  1  0.87170743  0.03248590  0.13016340  1
  O  O78  1  0.91278338  0.28648879  0.18869098  1
  O  O79  1  0.95362929  0.11068922  0.65824137  1
