# generated using pymatgen
data_Li6MnCo3(PO4)6
_symmetry_space_group_name_H-M   'P 1'
_cell_length_a   8.44118124
_cell_length_b   8.63443211
_cell_length_c   8.47251905
_cell_angle_alpha   62.56437648
_cell_angle_beta   62.43535405
_cell_angle_gamma   61.75591176
_symmetry_Int_Tables_number   1
_chemical_formula_structural   Li6MnCo3(PO4)6
_chemical_formula_sum   'Li6 Mn1 Co3 P6 O24'
_cell_volume   458.55525378
_cell_formula_units_Z   1
loop_
 _symmetry_equiv_pos_site_id
 _symmetry_equiv_pos_as_xyz
  1  'x, y, z'
loop_
 _atom_site_type_symbol
 _atom_site_label
 _atom_site_symmetry_multiplicity
 _atom_site_fract_x
 _atom_site_fract_y
 _atom_site_fract_z
 _atom_site_occupancy
  Li  Li0  1  0.02392793  0.01316789  0.99227050  1
  Li  Li1  1  0.75172574  0.14173934  0.35312898  1
  Li  Li2  1  0.47598972  0.50495115  0.49733722  1
  Li  Li3  1  0.25482194  0.84354257  0.65120099  1
  Li  Li4  1  0.65855252  0.26909991  0.83914291  1
  Li  Li5  1  0.84069968  0.64402333  0.25871300  1
  Mn  Mn6  1  0.85389159  0.85008974  0.85750688  1
  Co  Co7  1  0.14508305  0.14842944  0.13781035  1
  Co  Co8  1  0.35355264  0.36337836  0.35237290  1
  Co  Co9  1  0.64803791  0.64996159  0.64942097  1
  P  P10  1  0.04820014  0.75386396  0.44981874  1
  P  P11  1  0.45211517  0.04908064  0.74728911  1
  P  P12  1  0.74832169  0.44779796  0.05268368  1
  P  P13  1  0.24920593  0.54004098  0.95461096  1
  P  P14  1  0.54349201  0.95937741  0.24992354  1
  P  P15  1  0.95795663  0.25484120  0.53796863  1
  O  O16  1  0.13053670  0.30757217  0.48569026  1
  O  O17  1  0.30553206  0.51365307  0.11434920  1
  O  O18  1  0.04067454  0.92304930  0.27038273  1
  O  O19  1  0.53098595  0.11783720  0.29598106  1
  O  O20  1  0.23935214  0.59632344  0.42949226  1
  O  O21  1  0.01696444  0.80963219  0.61547392  1
  O  O22  1  0.26354517  0.06851636  0.90698847  1
  O  O23  1  0.45223782  0.22871136  0.57924389  1
  O  O24  1  0.58933243  0.42118375  0.24561801  1
  O  O25  1  0.19233300  0.38128262  0.98810812  1
  O  O26  1  0.08555780  0.73465273  0.93361705  1
  O  O27  1  0.37156097  0.00240954  0.19969838  1
  O  O28  1  0.62133037  0.01329786  0.80275732  1
  O  O29  1  0.90652450  0.25475252  0.06974039  1
  O  O30  1  0.80507197  0.60124389  0.03147837  1
  O  O31  1  0.40895934  0.56327703  0.76024599  1
  O  O32  1  0.55869786  0.77088191  0.41173911  1
  O  O33  1  0.73716060  0.92602269  0.08817489  1
  O  O34  1  0.97411811  0.19676597  0.38299754  1
  O  O35  1  0.76718607  0.42098380  0.55761735  1
  O  O36  1  0.48214592  0.88504735  0.69232073  1
  O  O37  1  0.94224591  0.10386881  0.73248160  1
  O  O38  1  0.68796174  0.48341522  0.88780084  1
  O  O39  1  0.88441132  0.69123276  0.48780018  1
