# generated using pymatgen
data_LiFe2OF3
_symmetry_space_group_name_H-M   'P 1'
_cell_length_a   6.11942757
_cell_length_b   6.21207782
_cell_length_c   5.18509582
_cell_angle_alpha   90.22825882
_cell_angle_beta   90.00000000
_cell_angle_gamma   60.49215449
_symmetry_Int_Tables_number   1
_chemical_formula_structural   LiFe2OF3
_chemical_formula_sum   'Li2 Fe4 O2 F6'
_cell_volume   171.53906854
_cell_formula_units_Z   2
loop_
 _symmetry_equiv_pos_site_id
 _symmetry_equiv_pos_as_xyz
  1  'x, y, z'
loop_
 _atom_site_type_symbol
 _atom_site_label
 _atom_site_symmetry_multiplicity
 _atom_site_fract_x
 _atom_site_fract_y
 _atom_site_fract_z
 _atom_site_occupancy
  Li  Li0  1  0.66997951  0.66004099  0.02466243  1
  Li  Li1  1  0.33002049  0.33995901  0.97533757  1
  Fe  Fe2  1  0.50000000  0.50000000  0.50000000  1
  Fe  Fe3  1  0.00000000  0.50000000  0.50000000  1
  Fe  Fe4  1  0.50000000  0.00000000  0.50000000  1
  Fe  Fe5  1  0.00000000  0.00000000  -0.00000000  1
  O  O6  1  0.67010305  0.65979389  0.66674889  1
  O  O7  1  0.32989695  0.34020611  0.33325111  1
  F  F8  1  0.34434708  0.83942706  0.21673354  1
  F  F9  1  0.81622486  0.83942706  0.21673354  1
  F  F10  1  0.17215929  0.65568243  0.78865089  1
  F  F11  1  0.82784071  0.34431757  0.21134911  1
  F  F12  1  0.65565292  0.16057294  0.78326646  1
  F  F13  1  0.18377514  0.16057294  0.78326646  1
