# generated using pymatgen
data_Li6MnV3(PO4)6
_symmetry_space_group_name_H-M   'P 1'
_cell_length_a   8.53359382
_cell_length_b   8.82572953
_cell_length_c   12.39380392
_cell_angle_alpha   89.73950170
_cell_angle_beta   87.36094802
_cell_angle_gamma   91.13866031
_symmetry_Int_Tables_number   1
_chemical_formula_structural   Li6MnV3(PO4)6
_chemical_formula_sum   'Li12 Mn2 V6 P12 O48'
_cell_volume   932.25365026
_cell_formula_units_Z   2
loop_
 _symmetry_equiv_pos_site_id
 _symmetry_equiv_pos_as_xyz
  1  'x, y, z'
loop_
 _atom_site_type_symbol
 _atom_site_label
 _atom_site_symmetry_multiplicity
 _atom_site_fract_x
 _atom_site_fract_y
 _atom_site_fract_z
 _atom_site_occupancy
  Li  Li0  1  0.99874759  0.99602263  0.00407625  1
  Li  Li1  1  0.99932963  0.09523097  0.24830406  1
  Li  Li2  1  -0.00002651  0.99855866  0.49936025  1
  Li  Li3  1  0.99865815  0.89959620  0.74974771  1
  Li  Li4  1  0.29163600  0.80556776  0.04879936  1
  Li  Li5  1  0.29145370  0.19420562  0.54697160  1
  Li  Li6  1  0.50712819  0.50250746  0.00116354  1
  Li  Li7  1  0.49928026  0.40444942  0.24906505  1
  Li  Li8  1  0.50107127  0.50090771  0.49992054  1
  Li  Li9  1  0.50683765  0.60001056  0.75189553  1
  Li  Li10  1  0.70890139  0.80531610  0.45070862  1
  Li  Li11  1  0.70427508  0.19138756  0.95239232  1
  Mn  Mn12  1  0.71273460  0.99955338  0.14337415  1
  Mn  Mn13  1  0.78881885  0.49678784  0.85214110  1
  V  V14  1  0.21222159  0.49864277  0.14423407  1
  V  V15  1  0.21310129  0.50066781  0.64410323  1
  V  V16  1  0.28378374  0.99728939  0.35772952  1
  V  V17  1  0.28483642  0.00398391  0.85911709  1
  V  V18  1  0.71756204  0.00302451  0.64197908  1
  V  V19  1  0.78739310  0.50090682  0.35578839  1
  P  P20  1  0.00493013  0.79634265  0.24802655  1
  P  P21  1  0.00092373  0.19945176  0.75146138  1
  P  P22  1  0.15430303  0.35525398  0.39596579  1
  P  P23  1  0.15159479  0.64301340  0.89512005  1
  P  P24  1  0.34841948  0.15008285  0.10082491  1
  P  P25  1  0.35084598  0.85425401  0.60381544  1
  P  P26  1  0.50152894  0.70953364  0.24936782  1
  P  P27  1  0.50386782  0.29417055  0.74772648  1
  P  P28  1  0.65078411  0.14659799  0.39711612  1
  P  P29  1  0.64607499  0.85396034  0.89838358  1
  P  P30  1  0.83970126  0.35289377  0.10679451  1
  P  P31  1  0.84383389  0.64650891  0.60326226  1
  O  O32  1  0.00908626  0.40881994  0.10354712  1
  O  O33  1  0.01017774  0.58873415  0.60662942  1
  O  O34  1  0.07032962  0.90289110  0.33779888  1
  O  O35  1  0.07096851  0.08789013  0.83443237  1
  O  O36  1  0.13177559  0.69898713  0.19240146  1
  O  O37  1  0.12777115  0.29756955  0.69083924  1
  O  O38  1  0.14356911  0.17784945  0.41119936  1
  O  O39  1  0.14385229  0.81964962  0.90822232  1
  O  O40  1  0.24938199  0.40410803  0.29212627  1
  O  O41  1  0.24693628  0.06363310  0.01778108  1
  O  O42  1  0.25306830  0.41014924  0.49245800  1
  O  O43  1  0.24530686  0.59376373  0.79221876  1
  O  O44  1  0.25389957  0.93865384  0.51946914  1
  O  O45  1  0.27561627  0.09744086  0.21200985  1
  O  O46  1  0.24618579  0.59064297  0.99256578  1
  O  O47  1  0.27759995  0.90352490  0.71390113  1
  O  O48  1  0.34095572  0.32546337  0.08814625  1
  O  O49  1  0.34517903  0.67918789  0.58958395  1
  O  O50  1  0.38536496  0.80734458  0.31241372  1
  O  O51  1  0.38131503  0.19900415  0.81250953  1
  O  O52  1  0.43056846  0.60253100  0.16298132  1
  O  O53  1  0.43348299  0.40514306  0.66498473  1
  O  O54  1  0.47386377  0.10614401  0.40840014  1
  O  O55  1  0.47107410  0.89883001  0.91010081  1
  O  O56  1  0.52315633  0.11529450  0.08469076  1
  O  O57  1  0.52776403  0.89432957  0.59129221  1
  O  O58  1  0.57213552  0.60205155  0.33467493  1
  O  O59  1  0.57926290  0.39774552  0.83617342  1
  O  O60  1  0.62381546  0.80771298  0.18432084  1
  O  O61  1  0.61941724  0.19598333  0.68482393  1
  O  O62  1  0.65480534  0.32166979  0.41097615  1
  O  O63  1  0.64221101  0.67954572  0.91166422  1
  O  O64  1  0.72844772  0.09371202  0.28899993  1
  O  O65  1  0.74090177  0.40078439  0.01109815  1
  O  O66  1  0.72397536  0.90413475  0.78797302  1
  O  O67  1  0.74702612  0.06349818  0.48262581  1
  O  O68  1  0.74953237  0.40195291  0.21086908  1
  O  O69  1  0.74819506  0.59153779  0.50569204  1
  O  O70  1  0.74549409  0.94224402  0.98145487  1
  O  O71  1  0.74425300  0.60175663  0.70545847  1
  O  O72  1  0.85260148  0.17345971  0.09703650  1
  O  O73  1  0.85729987  0.82362429  0.58693183  1
  O  O74  1  0.87278510  0.70257151  0.30666143  1
  O  O75  1  0.87399718  0.28655964  0.81397954  1
  O  O76  1  0.94710563  0.90708527  0.16151922  1
  O  O77  1  0.93492723  0.09039591  0.66377831  1
  O  O78  1  0.98777886  0.41142075  0.39574672  1
  O  O79  1  0.98123281  0.58628951  0.89610062  1
