# generated using pymatgen
data_LiFe2F5
_symmetry_space_group_name_H-M   'P 1'
_cell_length_a   5.21773493
_cell_length_b   6.07365035
_cell_length_c   7.94805512
_cell_angle_alpha   80.75359095
_cell_angle_beta   109.16197288
_cell_angle_gamma   64.56171058
_symmetry_Int_Tables_number   1
_chemical_formula_structural   LiFe2F5
_chemical_formula_sum   'Li2 Fe4 F10'
_cell_volume   200.97192102
_cell_formula_units_Z   2
loop_
 _symmetry_equiv_pos_site_id
 _symmetry_equiv_pos_as_xyz
  1  'x, y, z'
loop_
 _atom_site_type_symbol
 _atom_site_label
 _atom_site_symmetry_multiplicity
 _atom_site_fract_x
 _atom_site_fract_y
 _atom_site_fract_z
 _atom_site_occupancy
  Li  Li0  1  0.00000000  0.50000000  0.00000000  1
  Li  Li1  1  0.50000000  -0.00000000  0.50000000  1
  Fe  Fe2  1  0.80500772  0.00796773  0.12995991  1
  Fe  Fe3  1  0.31698546  0.50796773  0.62995991  1
  Fe  Fe4  1  0.68301454  0.49203227  0.37004009  1
  Fe  Fe5  1  0.19499228  0.99203227  0.87004009  1
  F  F6  1  0.44132898  0.75000000  0.75000000  1
  F  F7  1  0.84733087  0.71432042  0.52690092  1
  F  F8  1  0.26506896  0.75330518  0.36786696  1
  F  F9  1  0.96524963  0.21432042  0.02690092  1
  F  F10  1  0.34949283  0.25330518  0.86786696  1
  F  F11  1  0.65050717  0.74669482  0.13213304  1
  F  F12  1  0.03475037  0.78567958  0.97309908  1
  F  F13  1  0.73493104  0.24669482  0.63213304  1
  F  F14  1  0.15266913  0.28567958  0.47309908  1
  F  F15  1  0.55867102  0.25000000  0.25000000  1
