# generated using pymatgen
data_Li6MnV3(PO4)6
_symmetry_space_group_name_H-M   'P 1'
_cell_length_a   8.57405447
_cell_length_b   8.86595484
_cell_length_c   12.34469076
_cell_angle_alpha   90.00000000
_cell_angle_beta   87.59489739
_cell_angle_gamma   90.00000000
_symmetry_Int_Tables_number   1
_chemical_formula_structural   Li6MnV3(PO4)6
_chemical_formula_sum   'Li12 Mn2 V6 P12 O48'
_cell_volume   937.58192917
_cell_formula_units_Z   2
loop_
 _symmetry_equiv_pos_site_id
 _symmetry_equiv_pos_as_xyz
  1  'x, y, z'
loop_
 _atom_site_type_symbol
 _atom_site_label
 _atom_site_symmetry_multiplicity
 _atom_site_fract_x
 _atom_site_fract_y
 _atom_site_fract_z
 _atom_site_occupancy
  Li  Li0  1  0.99979949  0.00045350  0.00095160  1
  Li  Li1  1  0.99960313  0.10225872  0.24872858  1
  Li  Li2  1  0.99979949  0.99954650  0.50095160  1
  Li  Li3  1  0.99960313  0.89774128  0.74872858  1
  Li  Li4  1  0.29212093  0.80433346  0.04937066  1
  Li  Li5  1  0.29212093  0.19566654  0.54937066  1
  Li  Li6  1  0.50702964  0.50455350  0.99829488  1
  Li  Li7  1  0.50473395  0.40319947  0.25354916  1
  Li  Li8  1  0.50702964  0.49544650  0.49829488  1
  Li  Li9  1  0.50473395  0.59680053  0.75354916  1
  Li  Li10  1  0.71349662  0.80159519  0.44619989  1
  Li  Li11  1  0.71349662  0.19840481  0.94619989  1
  Mn  Mn12  1  0.79100923  0.49986536  0.35350579  1
  Mn  Mn13  1  0.79100923  0.50013464  0.85350579  1
  V  V14  1  0.21269543  0.50043844  0.14410770  1
  V  V15  1  0.21269543  0.49956156  0.64410770  1
  V  V16  1  0.28589153  0.99556386  0.35803415  1
  V  V17  1  0.28589153  0.00443614  0.85803415  1
  V  V18  1  0.71677369  0.99843344  0.14189240  1
  V  V19  1  0.71677369  0.00156656  0.64189240  1
  P  P20  1  0.00052939  0.80202397  0.24935194  1
  P  P21  1  0.00052939  0.19797603  0.74935194  1
  P  P22  1  0.15577784  0.35458405  0.39545925  1
  P  P23  1  0.15577784  0.64541595  0.89545925  1
  P  P24  1  0.35178163  0.14839435  0.10334367  1
  P  P25  1  0.35178163  0.85160565  0.60334367  1
  P  P26  1  0.50004613  0.70776648  0.24935867  1
  P  P27  1  0.50004613  0.29223352  0.74935867  1
  P  P28  1  0.64547935  0.14496658  0.39763178  1
  P  P29  1  0.64547935  0.85503342  0.89763178  1
  P  P30  1  0.84287976  0.35552626  0.10470985  1
  P  P31  1  0.84287976  0.64447374  0.60470985  1
  O  O32  1  0.01014407  0.41345818  0.10751327  1
  O  O33  1  0.01014407  0.58654182  0.60751327  1
  O  O34  1  0.07385538  0.91263120  0.33363534  1
  O  O35  1  0.07385538  0.08736880  0.83363534  1
  O  O36  1  0.12512649  0.70374107  0.18961912  1
  O  O37  1  0.12512649  0.29625893  0.68961912  1
  O  O38  1  0.15054610  0.17707226  0.40945872  1
  O  O39  1  0.15054610  0.82292774  0.90945872  1
  O  O40  1  0.24880436  0.40429396  0.29175314  1
  O  O41  1  0.25333890  0.06442831  0.01804412  1
  O  O42  1  0.25252492  0.40837068  0.49262765  1
  O  O43  1  0.24880436  0.59570604  0.79175314  1
  O  O44  1  0.25333890  0.93557169  0.51804412  1
  O  O45  1  0.27693030  0.09604227  0.21353522  1
  O  O46  1  0.25252492  0.59162932  0.99262765  1
  O  O47  1  0.27693030  0.90395773  0.71353522  1
  O  O48  1  0.34501961  0.32253672  0.08991656  1
  O  O49  1  0.34501961  0.67746328  0.58991656  1
  O  O50  1  0.37769853  0.80658280  0.31092139  1
  O  O51  1  0.37769853  0.19341720  0.81092139  1
  O  O52  1  0.42820790  0.60096096  0.16412786  1
  O  O53  1  0.42820790  0.39903904  0.66412786  1
  O  O54  1  0.47175114  0.09372818  0.40890085  1
  O  O55  1  0.47175114  0.90627182  0.90890085  1
  O  O56  1  0.52654784  0.10846455  0.09202740  1
  O  O57  1  0.52654784  0.89153545  0.59202740  1
  O  O58  1  0.57016888  0.60541815  0.33767979  1
  O  O59  1  0.57016888  0.39458185  0.83767979  1
  O  O60  1  0.61709829  0.80724928  0.18647880  1
  O  O61  1  0.61709829  0.19275072  0.68647880  1
  O  O62  1  0.63807869  0.31676408  0.41175809  1
  O  O63  1  0.63807869  0.68323592  0.91175809  1
  O  O64  1  0.72334073  0.09553712  0.28750885  1
  O  O65  1  0.74662039  0.40925929  0.00792910  1
  O  O66  1  0.72334073  0.90446288  0.78750885  1
  O  O67  1  0.74468665  0.06002437  0.48196995  1
  O  O68  1  0.74643524  0.40166845  0.20781018  1
  O  O69  1  0.74662039  0.59074071  0.50792910  1
  O  O70  1  0.74468665  0.93997563  0.98196995  1
  O  O71  1  0.74643524  0.59833155  0.70781018  1
  O  O72  1  0.85647113  0.17911067  0.09061110  1
  O  O73  1  0.85647113  0.82088933  0.59061110  1
  O  O74  1  0.87269456  0.71750047  0.31291563  1
  O  O75  1  0.87269456  0.28249953  0.81291563  1
  O  O76  1  0.93670859  0.91226131  0.16182137  1
  O  O77  1  0.93670859  0.08773869  0.66182137  1
  O  O78  1  0.98755556  0.40669806  0.39694457  1
  O  O79  1  0.98755556  0.59330194  0.89694457  1
