# generated using pymatgen
data_Li3MnV(PO4)3
_symmetry_space_group_name_H-M   'P 1'
_cell_length_a   8.66025859
_cell_length_b   8.67673434
_cell_length_c   12.63450751
_cell_angle_alpha   74.44377430
_cell_angle_beta   105.99559307
_cell_angle_gamma   84.38963060
_symmetry_Int_Tables_number   1
_chemical_formula_structural   Li3MnV(PO4)3
_chemical_formula_sum   'Li12 Mn4 V4 P12 O48'
_cell_volume   863.96474791
_cell_formula_units_Z   4
loop_
 _symmetry_equiv_pos_site_id
 _symmetry_equiv_pos_as_xyz
  1  'x, y, z'
loop_
 _atom_site_type_symbol
 _atom_site_label
 _atom_site_symmetry_multiplicity
 _atom_site_fract_x
 _atom_site_fract_y
 _atom_site_fract_z
 _atom_site_occupancy
  Li  Li0  1  0.00000823  0.99912377  0.87340870  1
  Li  Li1  1  0.99850240  0.99270781  0.37493415  1
  Li  Li2  1  0.28936283  0.29320068  0.62284566  1
  Li  Li3  1  0.49925351  0.50223173  0.74866379  1
  Li  Li4  1  0.28976356  0.29252333  0.12487802  1
  Li  Li5  1  0.50048026  0.49976713  0.50174968  1
  Li  Li6  1  0.71041730  0.71107884  0.87419064  1
  Li  Li7  1  0.50039628  0.49908350  0.24982400  1
  Li  Li8  1  0.50149622  0.49900168  0.99985877  1
  Li  Li9  1  0.71436622  0.70761442  0.37755418  1
  Li  Li10  1  0.99866778  -0.00021119  0.62454863  1
  Li  Li11  1  0.99712713  0.00566764  0.12687831  1
  Mn  Mn12  1  0.05798187  0.62995683  0.31597136  1
  Mn  Mn13  1  0.37335002  0.94403568  0.56416236  1
  Mn  Mn14  1  0.94270604  0.37661905  0.68484275  1
  Mn  Mn15  1  0.94202799  0.36884983  0.18648685  1
  V  V16  1  0.05676566  0.62355701  0.81908444  1
  V  V17  1  0.62092069  0.05492657  0.92925425  1
  V  V18  1  0.37974780  0.94341440  0.06876962  1
  V  V19  1  0.62190125  0.05693327  0.43108269  1
  P  P20  1  0.28709318  0.29021238  0.87449833  1
  P  P21  1  0.13532363  0.66510128  0.56570518  1
  P  P22  1  0.33839181  0.86097098  0.81602939  1
  P  P23  1  0.28606834  0.29035512  0.37545098  1
  P  P24  1  0.14073583  0.66665036  0.06964749  1
  P  P25  1  0.33625121  0.86824192  0.31774042  1
  P  P26  1  0.66784895  0.13382251  0.68356021  1
  P  P27  1  0.86055126  0.33836131  0.93255375  1
  P  P28  1  0.71177532  0.71317804  0.62477695  1
  P  P29  1  0.66290625  0.13075802  0.18226845  1
  P  P30  1  0.85833198  0.33451964  0.43276975  1
  P  P31  1  0.71613399  0.70840903  0.12537106  1
  O  O32  1  0.01458542  0.66080037  0.95662329  1
  O  O33  1  0.05060641  0.61118180  0.66121181  1
  O  O34  1  0.26037514  0.17518932  0.98239827  1
  O  O35  1  0.01186215  0.65673519  0.45087081  1
  O  O36  1  0.17354999  0.27011014  0.76094949  1
  O  O37  1  0.15563361  0.84290707  0.80304032  1
  O  O38  1  0.26498426  0.46467507  0.88565044  1
  O  O39  1  0.14517592  0.84956510  0.54475639  1
  O  O40  1  0.05515967  0.61538782  0.16547158  1
  O  O41  1  0.26451001  0.17431825  0.48647446  1
  O  O42  1  0.17328652  0.26627877  0.26328080  1
  O  O43  1  0.15235972  0.85985263  0.30298026  1
  O  O44  1  0.29729415  0.54926555  0.60102005  1
  O  O45  1  0.39809878  0.95208746  0.90915082  1
  O  O46  1  0.33461007  0.98381587  0.69904016  1
  O  O47  1  0.46263645  0.26284859  0.86533879  1
  O  O48  1  0.25889788  0.46340713  0.38788530  1
  O  O49  1  0.45677283  0.70190770  0.85155239  1
  O  O50  1  0.16005033  0.84983278  0.05000484  1
  O  O51  1  0.29954918  0.54622392  0.10436758  1
  O  O52  1  0.40174285  0.95559936  0.41328181  1
  O  O53  1  0.55150587  0.29501675  0.64992978  1
  O  O54  1  0.34119251  0.99029285  0.20376321  1
  O  O55  1  0.46084055  0.26638214  0.36505250  1
  O  O56  1  0.53440792  0.73960806  0.63200218  1
  O  O57  1  0.65779124  0.00884809  0.79550649  1
  O  O58  1  0.44925625  0.70565428  0.35226228  1
  O  O59  1  0.61154457  0.05133231  0.58680327  1
  O  O60  1  0.70095737  0.45624308  0.89655027  1
  O  O61  1  0.84248183  0.15619330  0.94607102  1
  O  O62  1  0.54977564  0.29352645  0.14831139  1
  O  O63  1  0.73725986  0.53576026  0.61743007  1
  O  O64  1  0.53869210  0.73423068  0.13161237  1
  O  O65  1  0.65949560  0.00857047  0.29665138  1
  O  O66  1  0.59802275  0.04589670  0.08633388  1
  O  O67  1  0.69905855  0.45453091  0.39671540  1
  O  O68  1  0.85292124  0.14462890  0.70522583  1
  O  O69  1  0.82384922  0.73900648  0.73541097  1
  O  O70  1  0.73857071  0.82316709  0.51488266  1
  O  O71  1  0.95248929  0.39836958  0.83955017  1
  O  O72  1  0.84009768  0.15152718  0.45030231  1
  O  O73  1  0.74233071  0.53356411  0.11503209  1
  O  O74  1  0.84703689  0.13979951  0.19709940  1
  O  O75  1  0.82568723  0.73134081  0.23893993  1
  O  O76  1  0.98208260  0.33736808  0.54827600  1
  O  O77  1  0.74228087  0.82433670  0.01749907  1
  O  O78  1  0.94737123  0.38479436  0.33869476  1
  O  O79  1  0.98460161  0.33735540  0.04938085  1
