# generated using pymatgen
data_La7SmTi2V6O24
_symmetry_space_group_name_H-M   'P 1'
_cell_length_a   7.89424354
_cell_length_b   7.93653124
_cell_length_c   7.93653124
_cell_angle_alpha   90.10979018
_cell_angle_beta   90.00000000
_cell_angle_gamma   90.00000000
_symmetry_Int_Tables_number   1
_chemical_formula_structural   La7SmTi2V6O24
_chemical_formula_sum   'La7 Sm1 Ti2 V6 O24'
_cell_volume   497.24586867
_cell_formula_units_Z   1
loop_
 _symmetry_equiv_pos_site_id
 _symmetry_equiv_pos_as_xyz
  1  'x, y, z'
loop_
 _atom_site_type_symbol
 _atom_site_label
 _atom_site_symmetry_multiplicity
 _atom_site_fract_x
 _atom_site_fract_y
 _atom_site_fract_z
 _atom_site_occupancy
  La  La0  1  0.25000000  0.25381363  0.25381363  1
  La  La1  1  0.25000000  0.25276829  0.74744340  1
  La  La2  1  0.25000000  0.74744340  0.25276829  1
  La  La3  1  0.25000000  0.74626452  0.74626452  1
  La  La4  1  0.75000000  0.25264565  0.74711781  1
  La  La5  1  0.75000000  0.74711781  0.25264565  1
  La  La6  1  0.75000000  0.74636452  0.74636452  1
  Sm  Sm7  1  0.75000000  0.25464436  0.25464436  1
  Ti  Ti8  1  0.99936077  0.00070774  0.00070774  1
  Ti  Ti9  1  0.50063923  0.00070774  0.00070774  1
  V  V10  1  0.99955950  0.00044372  0.49967118  1
  V  V11  1  0.99955950  0.49967118  0.00044372  1
  V  V12  1  0.99980046  0.49974951  0.49974951  1
  V  V13  1  0.50044050  0.00044372  0.49967118  1
  V  V14  1  0.50044050  0.49967118  0.00044372  1
  V  V15  1  0.50019954  0.49974951  0.49974951  1
  O  O16  1  0.25000000  0.00042630  0.00042630  1
  O  O17  1  0.25000000  0.00040522  0.50003713  1
  O  O18  1  0.25000000  0.50003713  0.00040522  1
  O  O19  1  0.25000000  0.49997348  0.49997348  1
  O  O20  1  0.75000000  0.00090235  0.00090235  1
  O  O21  1  0.75000000  0.00153105  0.49789285  1
  O  O22  1  0.75000000  0.49789285  0.00153105  1
  O  O23  1  0.75000000  0.49745506  0.49745506  1
  O  O24  1  0.99848352  0.24533178  0.00193386  1
  O  O25  1  0.99808024  0.24824279  0.49877563  1
  O  O26  1  0.99987562  0.75493971  0.99955623  1
  O  O27  1  0.99974637  0.75176470  0.49904036  1
  O  O28  1  0.50151648  0.24533178  0.00193386  1
  O  O29  1  0.50191976  0.24824279  0.49877563  1
  O  O30  1  0.50012438  0.75493971  0.99955623  1
  O  O31  1  0.50025363  0.75176470  0.49904036  1
  O  O32  1  0.99848352  0.00193386  0.24533178  1
  O  O33  1  0.99987562  0.99955623  0.75493971  1
  O  O34  1  0.99808024  0.49877563  0.24824279  1
  O  O35  1  0.99974637  0.49904036  0.75176470  1
  O  O36  1  0.50151648  0.00193386  0.24533178  1
  O  O37  1  0.50012438  0.99955623  0.75493971  1
  O  O38  1  0.50191976  0.49877563  0.24824279  1
  O  O39  1  0.50025363  0.49904036  0.75176470  1
