# generated using pymatgen
data_Li3V2H4(OF5)2
_symmetry_space_group_name_H-M   'P 1'
_cell_length_a   9.53570359
_cell_length_b   6.43554996
_cell_length_c   7.84452620
_cell_angle_alpha   89.99999945
_cell_angle_beta   94.40765816
_cell_angle_gamma   90.00000144
_symmetry_Int_Tables_number   1
_chemical_formula_structural   Li3V2H4(OF5)2
_chemical_formula_sum   'Li6 V4 H8 O4 F20'
_cell_volume   479.97519409
_cell_formula_units_Z   2
loop_
 _symmetry_equiv_pos_site_id
 _symmetry_equiv_pos_as_xyz
  1  'x, y, z'
loop_
 _atom_site_type_symbol
 _atom_site_label
 _atom_site_symmetry_multiplicity
 _atom_site_fract_x
 _atom_site_fract_y
 _atom_site_fract_z
 _atom_site_occupancy
  Li  Li0  1  0.22310299  0.52289949  0.50605669  1
  Li  Li1  1  0.22931090  0.51653296  0.99767190  1
  Li  Li2  1  0.27086230  0.97256839  0.49733892  1
  Li  Li3  1  0.72931090  0.98346704  0.49767190  1
  Li  Li4  1  0.77086230  0.52743161  0.99733892  1
  Li  Li5  1  0.72310299  0.97710051  0.00605669  1
  V  V6  1  0.99716027  0.23145148  0.25115796  1
  V  V7  1  0.99785357  0.76976985  0.74827271  1
  V  V8  1  0.49716027  0.26854852  0.75115796  1
  V  V9  1  0.49785357  0.73023015  0.24827271  1
  H  H10  1  0.03254186  0.17687218  0.66947844  1
  H  H11  1  0.04439232  0.83615932  0.14489508  1
  H  H12  1  0.46901333  0.32531689  0.34931825  1
  H  H13  1  0.53254186  0.32312782  0.16947844  1
  H  H14  1  0.47324279  0.66113521  0.83655450  1
  H  H15  1  0.54439232  0.66384068  0.64489508  1
  H  H16  1  0.96901333  0.17468311  0.84931825  1
  H  H17  1  0.97324279  0.83886479  0.33655450  1
  O  O18  1  0.00376691  0.08482321  0.76033888  1
  O  O19  1  0.01440498  0.92168231  0.24502860  1
  O  O20  1  0.50376691  0.41517679  0.26033888  1
  O  O21  1  0.51440498  0.57831769  0.74502860  1
  F  F22  1  0.01080187  0.47646185  0.74431628  1
  F  F23  1  0.11464463  0.23062546  0.46119295  1
  F  F24  1  0.98224739  0.51530942  0.26220822  1
  F  F25  1  0.15648860  0.25883290  0.13481528  1
  F  F26  1  0.33439372  0.31307057  0.85637774  1
  F  F27  1  0.09816368  0.74514037  0.98195128  1
  F  F28  1  0.38144812  0.26613256  0.53698618  1
  F  F29  1  0.17775064  0.77212150  0.63092200  1
  F  F30  1  0.51080187  0.02353815  0.24431628  1
  F  F31  1  0.31893279  0.72430181  0.36661079  1
  F  F32  1  0.61464463  0.26937454  0.96119295  1
  F  F33  1  0.39593036  0.69043032  0.02257634  1
  F  F34  1  0.65648860  0.24116710  0.63481528  1
  F  F35  1  0.48224739  0.98469058  0.76220822  1
  F  F36  1  0.83439372  0.18692943  0.35637774  1
  F  F37  1  0.59816368  0.75485963  0.48195128  1
  F  F38  1  0.88144812  0.23386744  0.03698618  1
  F  F39  1  0.67775064  0.72787850  0.13092200  1
  F  F40  1  0.81893279  0.77569819  0.86661079  1
  F  F41  1  0.89593036  0.80956968  0.52257634  1
