# generated using pymatgen
data_Li3MnV(PO4)3
_symmetry_space_group_name_H-M   'P 1'
_cell_length_a   8.63591198
_cell_length_b   8.70622849
_cell_length_c   6.32178008
_cell_angle_alpha   74.64057349
_cell_angle_beta   106.13104406
_cell_angle_gamma   84.42503535
_symmetry_Int_Tables_number   1
_chemical_formula_structural   Li3MnV(PO4)3
_chemical_formula_sum   'Li6 Mn2 V2 P6 O24'
_cell_volume   432.74520433
_cell_formula_units_Z   2
loop_
 _symmetry_equiv_pos_site_id
 _symmetry_equiv_pos_as_xyz
  1  'x, y, z'
loop_
 _atom_site_type_symbol
 _atom_site_label
 _atom_site_symmetry_multiplicity
 _atom_site_fract_x
 _atom_site_fract_y
 _atom_site_fract_z
 _atom_site_occupancy
  Li  Li0  1  0.00558469  0.00315296  0.74741760  1
  Li  Li1  1  0.28690196  0.29014539  0.24803411  1
  Li  Li2  1  0.50000000  0.50000000  0.50000000  1
  Li  Li3  1  0.50000000  0.50000000  -0.00000000  1
  Li  Li4  1  0.71309804  0.70985461  0.75196589  1
  Li  Li5  1  0.99441531  0.99684704  0.25258240  1
  Mn  Mn6  1  0.05903150  0.62945442  0.63165328  1
  Mn  Mn7  1  0.94096850  0.37054558  0.36834672  1
  V  V8  1  0.37973356  0.94374428  0.13854459  1
  V  V9  1  0.62026644  0.05625572  0.86145541  1
  P  P10  1  0.28324590  0.28949829  0.74948463  1
  P  P11  1  0.14075170  0.66439203  0.13615956  1
  P  P12  1  0.33783403  0.86736221  0.63485713  1
  P  P13  1  0.66216597  0.13263779  0.36514287  1
  P  P14  1  0.85924830  0.33560797  0.86384044  1
  P  P15  1  0.71675410  0.71050171  0.25051537  1
  O  O16  1  0.01509028  0.66108899  0.90523534  1
  O  O17  1  0.05339153  0.61240502  0.32574301  1
  O  O18  1  0.25713735  0.17427811  0.96496374  1
  O  O19  1  0.17163325  0.26549504  0.52360514  1
  O  O20  1  0.15395214  0.85687930  0.60545852  1
  O  O21  1  0.25895232  0.46341932  0.77175212  1
  O  O22  1  0.15939986  0.84659552  0.10158387  1
  O  O23  1  0.30021896  0.54553235  0.20570694  1
  O  O24  1  0.40259786  0.95244705  0.82657069  1
  O  O25  1  0.34111259  0.98923037  0.40711577  1
  O  O26  1  0.45957197  0.26353957  0.73178158  1
  O  O27  1  0.45275448  0.70578828  0.70318266  1
  O  O28  1  0.54724552  0.29421172  0.29681734  1
  O  O29  1  0.54042803  0.73646043  0.26821842  1
  O  O30  1  0.65888741  0.01076963  0.59288423  1
  O  O31  1  0.59740214  0.04755295  0.17342931  1
  O  O32  1  0.69978104  0.45446765  0.79429306  1
  O  O33  1  0.84060014  0.15340448  0.89841613  1
  O  O34  1  0.74104768  0.53658068  0.22824788  1
  O  O35  1  0.84604786  0.14312070  0.39454148  1
  O  O36  1  0.82836675  0.73450496  0.47639486  1
  O  O37  1  0.74286265  0.82572189  0.03503626  1
  O  O38  1  0.94660847  0.38759498  0.67425699  1
  O  O39  1  0.98490972  0.33891101  0.09476466  1
