# generated using pymatgen
data_Li6MnV3(PO4)6
_symmetry_space_group_name_H-M   'P 1'
_cell_length_a   8.51428590
_cell_length_b   8.79823128
_cell_length_c   12.42107949
_cell_angle_alpha   90.41519724
_cell_angle_beta   87.49530551
_cell_angle_gamma   89.87346617
_symmetry_Int_Tables_number   1
_chemical_formula_structural   Li6MnV3(PO4)6
_chemical_formula_sum   'Li12 Mn2 V6 P12 O48'
_cell_volume   929.55491095
_cell_formula_units_Z   2
loop_
 _symmetry_equiv_pos_site_id
 _symmetry_equiv_pos_as_xyz
  1  'x, y, z'
loop_
 _atom_site_type_symbol
 _atom_site_label
 _atom_site_symmetry_multiplicity
 _atom_site_fract_x
 _atom_site_fract_y
 _atom_site_fract_z
 _atom_site_occupancy
  Li  Li0  1  0.99994591  0.99872479  0.00131989  1
  Li  Li1  1  0.00093454  0.09929818  0.25077299  1
  Li  Li2  1  0.00018413  0.99390502  0.49622705  1
  Li  Li3  1  0.00142364  0.89525997  0.74901252  1
  Li  Li4  1  0.28803888  0.80727100  0.04992734  1
  Li  Li5  1  0.30173373  0.18478613  0.54417800  1
  Li  Li6  1  0.51036089  0.50491547  0.00196380  1
  Li  Li7  1  0.49945547  0.40242185  0.25012981  1
  Li  Li8  1  0.50262252  0.50101254  0.49939680  1
  Li  Li9  1  0.50609514  0.60261481  0.75117261  1
  Li  Li10  1  0.70943003  0.80944831  0.44932805  1
  Li  Li11  1  0.71420306  0.19302037  0.94863887  1
  Mn  Mn12  1  0.28552011  0.99851745  0.35584807  1
  Mn  Mn13  1  0.78891681  0.49753824  0.85299249  1
  V  V14  1  0.21184760  0.50060311  0.14319502  1
  V  V15  1  0.21460490  0.49936587  0.64358029  1
  V  V16  1  0.28496374  0.00420722  0.85750533  1
  V  V17  1  0.71612986  0.99882881  0.14298066  1
  V  V18  1  0.71887216  0.00164284  0.64149753  1
  V  V19  1  0.78647745  0.49913960  0.35581020  1
  P  P20  1  0.99640571  0.79675706  0.24970074  1
  P  P21  1  0.00194336  0.20112995  0.75042567  1
  P  P22  1  0.15983475  0.35393053  0.39403661  1
  P  P23  1  0.15098418  0.64355080  0.89416107  1
  P  P24  1  0.34819423  0.14678051  0.10316876  1
  P  P25  1  0.35112938  0.85319696  0.60141184  1
  P  P26  1  0.49668537  0.70947265  0.25128477  1
  P  P27  1  0.50374043  0.29509449  0.74935630  1
  P  P28  1  0.65147540  0.14851101  0.40043200  1
  P  P29  1  0.64927068  0.85424197  0.89669386  1
  P  P30  1  0.84188254  0.35563653  0.10639767  1
  P  P31  1  0.84305177  0.64415112  0.60389193  1
  O  O32  1  0.00836129  0.41782918  0.10585131  1
  O  O33  1  0.00920989  0.58288341  0.60769245  1
  O  O34  1  0.05586177  0.90675596  0.33751043  1
  O  O35  1  0.07098667  0.09119336  0.83540506  1
  O  O36  1  0.12742561  0.70432099  0.19032549  1
  O  O37  1  0.12693391  0.29780300  0.69136505  1
  O  O38  1  0.14846907  0.17367035  0.40479673  1
  O  O39  1  0.14022729  0.82123310  0.90780777  1
  O  O40  1  0.25347661  0.40366464  0.29171202  1
  O  O41  1  0.25228935  0.06109528  0.01718275  1
  O  O42  1  0.25568321  0.40313552  0.49238490  1
  O  O43  1  0.24548133  0.59537481  0.79100033  1
  O  O44  1  0.25241976  0.94156669  0.51952920  1
  O  O45  1  0.26811839  0.09511543  0.21063639  1
  O  O46  1  0.24670732  0.59024695  0.99097687  1
  O  O47  1  0.27798630  0.90270182  0.71257222  1
  O  O48  1  0.34350902  0.32232839  0.08890376  1
  O  O49  1  0.34413461  0.67774299  0.58630319  1
  O  O50  1  0.37510690  0.80703013  0.31614284  1
  O  O51  1  0.38301260  0.20025824  0.81304642  1
  O  O52  1  0.42592761  0.60390470  0.16349761  1
  O  O53  1  0.43376699  0.40559139  0.66619494  1
  O  O54  1  0.47587494  0.11154363  0.41614518  1
  O  O55  1  0.47338454  0.89824009  0.90838791  1
  O  O56  1  0.52465183  0.10725114  0.09384668  1
  O  O57  1  0.52831145  0.89118946  0.58937976  1
  O  O58  1  0.56589258  0.60082782  0.33640236  1
  O  O59  1  0.57910801  0.40023719  0.83735661  1
  O  O60  1  0.61501324  0.80872961  0.19000757  1
  O  O61  1  0.62118271  0.19549812  0.68598209  1
  O  O62  1  0.65875547  0.32409830  0.41501418  1
  O  O63  1  0.64804999  0.67885994  0.91014710  1
  O  O64  1  0.72376197  0.09746737  0.28937877  1
  O  O65  1  0.74050518  0.40688006  0.01262090  1
  O  O66  1  0.72620782  0.90324858  0.78717604  1
  O  O67  1  0.75245368  0.06129765  0.48249702  1
  O  O68  1  0.74908833  0.40125088  0.21169709  1
  O  O69  1  0.74881990  0.59212287  0.50489510  1
  O  O70  1  0.74639524  0.94093673  0.98131099  1
  O  O71  1  0.74274427  0.60071542  0.70460159  1
  O  O72  1  0.85948814  0.17822599  0.09267581  1
  O  O73  1  0.85905261  0.82118220  0.58895945  1
  O  O74  1  0.86839495  0.69872287  0.30539496  1
  O  O75  1  0.87275868  0.29055323  0.81395362  1
  O  O76  1  0.93075520  0.90425395  0.16163648  1
  O  O77  1  0.93574519  0.09042683  0.66430809  1
  O  O78  1  0.99103692  0.40874377  0.39522844  1
  O  O79  1  0.98111330  0.58707781  0.89371995  1
