# generated using pymatgen
data_Li5Co4(SiO4)4
_symmetry_space_group_name_H-M   'P 1'
_cell_length_a   8.31130327
_cell_length_b   8.31130327
_cell_length_c   10.49274509
_cell_angle_alpha   89.89784137
_cell_angle_beta   90.10215863
_cell_angle_gamma   104.59264085
_symmetry_Int_Tables_number   1
_chemical_formula_structural   Li5Co4(SiO4)4
_chemical_formula_sum   'Li10 Co8 Si8 O32'
_cell_volume   701.43213934
_cell_formula_units_Z   2
loop_
 _symmetry_equiv_pos_site_id
 _symmetry_equiv_pos_as_xyz
  1  'x, y, z'
loop_
 _atom_site_type_symbol
 _atom_site_label
 _atom_site_symmetry_multiplicity
 _atom_site_fract_x
 _atom_site_fract_y
 _atom_site_fract_z
 _atom_site_occupancy
  Li  Li0  1  0.96397635  0.85027973  0.15778352  1
  Li  Li1  1  0.46476775  0.35147728  0.15738685  1
  Li  Li2  1  0.46630579  0.85000212  0.33594795  1
  Li  Li3  1  0.96520891  0.34072935  0.33759599  1
  Li  Li4  1  0.05588954  0.68013026  0.42154301  1
  Li  Li5  1  0.89972027  0.78602365  0.65778352  1
  Li  Li6  1  0.39852272  0.28523225  0.65738685  1
  Li  Li7  1  0.89999788  0.28369421  0.83594795  1
  Li  Li8  1  0.40927065  0.78479109  0.83759599  1
  Li  Li9  1  0.06986974  0.69411046  0.92154301  1
  Co  Co10  1  0.22469339  0.59531883  0.16150167  1
  Co  Co11  1  0.71660792  0.09733362  0.15262200  1
  Co  Co12  1  0.70882656  0.59188332  0.34145556  1
  Co  Co13  1  0.22144037  0.10432966  0.33554065  1
  Co  Co14  1  0.65266638  0.03339208  0.65262200  1
  Co  Co15  1  0.15468117  0.52530661  0.66150167  1
  Co  Co16  1  0.15811668  0.04117344  0.84145556  1
  Co  Co17  1  0.64567034  0.52855963  0.83554065  1
  Si  Si18  1  0.34127163  0.97388721  0.09538697  1
  Si  Si19  1  0.83782736  0.47713173  0.09098682  1
  Si  Si20  1  0.84243751  0.96678897  0.40287402  1
  Si  Si21  1  0.33520034  0.47533261  0.41068248  1
  Si  Si22  1  0.27286827  0.91217264  0.59098682  1
  Si  Si23  1  0.77611279  0.40872837  0.59538697  1
  Si  Si24  1  0.78321103  0.90756249  0.90287402  1
  Si  Si25  1  0.27466739  0.41479966  0.91068248  1
  O  O26  1  0.81203174  0.95868144  0.05408989  1
  O  O27  1  0.31108233  0.44136967  0.06136671  1
  O  O28  1  0.00532159  0.63239420  0.09913568  1
  O  O29  1  0.50847717  0.13135951  0.11095482  1
  O  O30  1  0.38139762  0.81256213  0.16146501  1
  O  O31  1  0.86996255  0.30728328  0.15757454  1
  O  O32  1  0.68480705  0.52410335  0.17067614  1
  O  O33  1  0.18383324  0.02264609  0.16869080  1
  O  O34  1  0.68970149  0.00725946  0.31967952  1
  O  O35  1  0.17476027  0.52815657  0.34497259  1
  O  O36  1  0.88565292  0.79450502  0.34679971  1
  O  O37  1  0.36953643  0.31219060  0.33459533  1
  O  O38  1  0.00838116  0.12085085  0.38180070  1
  O  O39  1  0.50462941  0.62821520  0.38212374  1
  O  O40  1  0.30544180  0.95762206  0.43806161  1
  O  O41  1  0.81446947  0.46310750  0.44302974  1
  O  O42  1  0.79131856  0.93796826  0.55408989  1
  O  O43  1  0.30863033  0.43891767  0.56136671  1
  O  O44  1  0.11760580  0.74467841  0.59913568  1
  O  O45  1  0.61864049  0.24152283  0.61095482  1
  O  O46  1  0.44271672  0.88003745  0.65757454  1
  O  O47  1  0.93743787  0.36860238  0.66146501  1
  O  O48  1  0.72735391  0.56616676  0.66869080  1
  O  O49  1  0.22589665  0.06519295  0.67067614  1
  O  O50  1  0.74274054  0.06029851  0.81967952  1
  O  O51  1  0.22184343  0.57523973  0.84497259  1
  O  O52  1  0.95549498  0.86434708  0.84679971  1
  O  O53  1  0.43780940  0.38046357  0.83459533  1
  O  O54  1  0.62914915  0.74161884  0.88180070  1
  O  O55  1  0.12178480  0.24537059  0.88212374  1
  O  O56  1  0.28689250  0.93553053  0.94302974  1
  O  O57  1  0.79237794  0.44455820  0.93806161  1
