# generated using pymatgen
data_Li5Mn8(BO3)8
_symmetry_space_group_name_H-M   'P 1'
_cell_length_a   5.32217253
_cell_length_b   9.10645185
_cell_length_c   10.42225134
_cell_angle_alpha   89.90109010
_cell_angle_beta   92.55741587
_cell_angle_gamma   90.15995925
_symmetry_Int_Tables_number   1
_chemical_formula_structural   Li5Mn8(BO3)8
_chemical_formula_sum   'Li5 Mn8 B8 O24'
_cell_volume   504.62024127
_cell_formula_units_Z   1
loop_
 _symmetry_equiv_pos_site_id
 _symmetry_equiv_pos_as_xyz
  1  'x, y, z'
loop_
 _atom_site_type_symbol
 _atom_site_label
 _atom_site_symmetry_multiplicity
 _atom_site_fract_x
 _atom_site_fract_y
 _atom_site_fract_z
 _atom_site_occupancy
  Li  Li0  1  0.16196644  0.00213715  0.14748077  1
  Li  Li1  1  0.63449051  0.48226055  0.66715428  1
  Li  Li2  1  0.64518436  0.51122344  0.16472166  1
  Li  Li3  1  0.84428837  0.00111319  0.91231378  1
  Li  Li4  1  0.86483781  0.99262522  0.42022750  1
  Mn  Mn5  1  0.14855355  0.69168781  0.63391462  1
  Mn  Mn6  1  0.15270779  0.32503946  0.13531361  1
  Mn  Mn7  1  0.33209303  0.17104545  0.87239396  1
  Mn  Mn8  1  0.34593037  0.82884446  0.37737237  1
  Mn  Mn9  1  0.65451983  0.15242074  0.62882034  1
  Mn  Mn10  1  0.65402838  0.83730723  0.12475344  1
  Mn  Mn11  1  0.83759354  0.65468815  0.88005403  1
  Mn  Mn12  1  0.83654465  0.34438249  0.38554326  1
  B  B13  1  0.15956079  0.34653599  0.62866156  1
  B  B14  1  0.15804936  0.66065506  0.12519972  1
  B  B15  1  0.33197618  0.83889390  0.87694353  1
  B  B16  1  0.33706152  0.16556818  0.36389423  1
  B  B17  1  0.67794997  0.82004838  0.62624639  1
  B  B18  1  0.67099764  0.17228395  0.12926298  1
  B  B19  1  0.83324198  0.31568507  0.88037922  1
  B  B20  1  0.83594634  0.68591925  0.37464576  1
  O  O21  1  0.06434827  0.30584569  0.95141255  1
  O  O22  1  0.05873920  0.70318610  0.44908778  1
  O  O23  1  0.19438585  0.96124819  0.90010858  1
  O  O24  1  0.21621148  0.71429144  0.82025529  1
  O  O25  1  0.19789423  0.03854435  0.35126039  1
  O  O26  1  0.22492889  0.29950937  0.32134951  1
  O  O27  1  0.27883020  0.47893612  0.62692544  1
  O  O28  1  0.28727704  0.22117442  0.67290736  1
  O  O29  1  0.26932669  0.79364241  0.16616974  1
  O  O30  1  0.29164672  0.53328665  0.12792551  1
  O  O31  1  0.42757156  0.81585124  0.58483889  1
  O  O32  1  0.41282955  0.16842548  0.10013989  1
  O  O33  1  0.58852311  0.83204875  0.91567463  1
  O  O34  1  0.58298888  0.16571324  0.41702973  1
  O  O35  1  0.72302140  0.44553184  0.85056311  1
  O  O36  1  0.72541823  0.18237724  0.83740854  1
  O  O37  1  0.72630378  0.81771999  0.32840020  1
  O  O38  1  0.73429117  0.55398719  0.34402900  1
  O  O39  1  0.78488485  0.68703506  0.67405077  1
  O  O40  1  0.81537597  0.94465564  0.61202560  1
  O  O41  1  0.78080308  0.30510993  0.17217896  1
  O  O42  1  0.81247180  0.04875076  0.11071212  1
  O  O43  1  0.90387474  0.33185653  0.58572863  1
  O  O44  1  0.90283890  0.66321626  0.08080479  1
