# generated using pymatgen
data_Li3MnV(PO4)3
_symmetry_space_group_name_H-M   'P 1'
_cell_length_a   8.66279434
_cell_length_b   8.67159284
_cell_length_c   12.64493080
_cell_angle_alpha   74.14699568
_cell_angle_beta   105.75683369
_cell_angle_gamma   84.46646616
_symmetry_Int_Tables_number   1
_chemical_formula_structural   Li3MnV(PO4)3
_chemical_formula_sum   'Li12 Mn4 V4 P12 O48'
_cell_volume   864.36396819
_cell_formula_units_Z   4
loop_
 _symmetry_equiv_pos_site_id
 _symmetry_equiv_pos_as_xyz
  1  'x, y, z'
loop_
 _atom_site_type_symbol
 _atom_site_label
 _atom_site_symmetry_multiplicity
 _atom_site_fract_x
 _atom_site_fract_y
 _atom_site_fract_z
 _atom_site_occupancy
  Li  Li0  1  -0.00328459  0.00143076  0.87506613  1
  Li  Li1  1  -0.00318524  -0.00522975  0.37592457  1
  Li  Li2  1  0.29243785  0.28994966  0.62669782  1
  Li  Li3  1  0.49932884  0.50197061  0.74882803  1
  Li  Li4  1  0.28797304  0.29296076  0.12333796  1
  Li  Li5  1  0.50064487  0.50015028  0.50228528  1
  Li  Li6  1  0.70822813  0.71281616  0.87332324  1
  Li  Li7  1  0.49927245  0.50184282  0.24906139  1
  Li  Li8  1  0.49927197  0.49946595  0.99881965  1
  Li  Li9  1  0.71258731  0.70928178  0.37734364  1
  Li  Li10  1  0.00067204  0.99720513  0.62678033  1
  Li  Li11  1  0.00022978  0.00445225  0.12469634  1
  Mn  Mn12  1  0.37321083  0.94182545  0.56519729  1
  Mn  Mn13  1  0.62505398  0.05524445  0.93352661  1
  Mn  Mn14  1  0.94450557  0.37645905  0.68597608  1
  Mn  Mn15  1  0.94483081  0.37577148  0.18571329  1
  V  V16  1  0.05813198  0.62280190  0.82001464  1
  V  V17  1  0.05732654  0.62357747  0.32082312  1
  V  V18  1  0.37652644  0.94196175  0.06715340  1
  V  V19  1  0.62221131  0.05574906  0.43142087  1
  P  P20  1  0.28895053  0.28776272  0.87481760  1
  P  P21  1  0.13230827  0.66694686  0.56673285  1
  P  P22  1  0.33464710  0.85930428  0.81534956  1
  P  P23  1  0.28864673  0.28829922  0.37577206  1
  P  P24  1  0.13944259  0.66636998  0.06838587  1
  P  P25  1  0.33737383  0.86238823  0.31937685  1
  P  P26  1  0.66562830  0.13605107  0.68438443  1
  P  P27  1  0.86696637  0.33801578  0.93408736  1
  P  P28  1  0.71284804  0.71185877  0.62614504  1
  P  P29  1  0.66309693  0.13196435  0.18068106  1
  P  P30  1  0.86029257  0.33835387  0.43219512  1
  P  P31  1  0.71278472  0.71165685  0.12486769  1
  O  O32  1  0.01377895  0.66352797  0.95482610  1
  O  O33  1  0.05052771  0.61084189  0.66376432  1
  O  O34  1  0.26035449  0.17549277  0.98348053  1
  O  O35  1  0.00680309  0.65640097  0.45480661  1
  O  O36  1  0.17378431  0.26795726  0.76203688  1
  O  O37  1  0.15106976  0.84089098  0.79620724  1
  O  O38  1  0.26869635  0.46305545  0.88421230  1
  O  O39  1  0.14265037  0.85182622  0.54461898  1
  O  O40  1  0.05480372  0.61534980  0.16411087  1
  O  O41  1  0.26593988  0.17387035  0.48693275  1
  O  O42  1  0.17298068  0.26537484  0.26473301  1
  O  O43  1  0.15524462  0.84425901  0.30690514  1
  O  O44  1  0.29406916  0.55215475  0.60014457  1
  O  O45  1  0.38407840  0.94749922  0.90894427  1
  O  O46  1  0.33693714  0.98327869  0.69978278  1
  O  O47  1  0.46321632  0.25783850  0.86333750  1
  O  O48  1  0.26490821  0.46249982  0.38652454  1
  O  O49  1  0.45486420  0.70073818  0.85112399  1
  O  O50  1  0.15859559  0.84988714  0.04894173  1
  O  O51  1  0.29782339  0.54610421  0.10248225  1
  O  O52  1  0.39932961  0.95210660  0.41370740  1
  O  O53  1  0.54922520  0.29720902  0.64914196  1
  O  O54  1  0.33656873  0.98638626  0.20421552  1
  O  O55  1  0.46225441  0.26311259  0.36334777  1
  O  O56  1  0.53546063  0.73671415  0.63303209  1
  O  O57  1  0.65818932  0.01268441  0.79904485  1
  O  O58  1  0.45517293  0.70310330  0.35423309  1
  O  O59  1  0.61104970  0.05152367  0.58867872  1
  O  O60  1  0.70420012  0.45111157  0.89819278  1
  O  O61  1  0.85768066  0.15480548  0.94840626  1
  O  O62  1  0.54967693  0.29445517  0.14580628  1
  O  O63  1  0.73944823  0.53481508  0.61825216  1
  O  O64  1  0.53638885  0.73246319  0.13298064  1
  O  O65  1  0.65648678  0.00964665  0.29452340  1
  O  O66  1  0.59693250  0.04582754  0.08454894  1
  O  O67  1  0.70080345  0.45674074  0.39607273  1
  O  O68  1  0.85023537  0.14709279  0.70498094  1
  O  O69  1  0.82349282  0.73813270  0.73623227  1
  O  O70  1  0.73925485  0.82380202  0.51608208  1
  O  O71  1  0.95640362  0.40283231  0.83981079  1
  O  O72  1  0.84156297  0.15690110  0.44275874  1
  O  O73  1  0.74265075  0.53635536  0.11515728  1
  O  O74  1  0.84648094  0.14145893  0.19542925  1
  O  O75  1  0.82415792  0.74046793  0.23331309  1
  O  O76  1  0.98264374  0.33494297  0.54887758  1
  O  O77  1  0.73328600  0.82568535  0.01205901  1
  O  O78  1  0.95218702  0.39999061  0.33868350  1
  O  O79  1  0.98869271  0.34212349  0.04973135  1
