# generated using pymatgen
data_Li4V3OF11
_symmetry_space_group_name_H-M   'P 1'
_cell_length_a   5.25273075
_cell_length_b   5.46019719
_cell_length_c   16.18088942
_cell_angle_alpha   80.41128090
_cell_angle_beta   89.87235349
_cell_angle_gamma   88.64324247
_symmetry_Int_Tables_number   1
_chemical_formula_structural   Li4V3OF11
_chemical_formula_sum   'Li8 V6 O2 F22'
_cell_volume   457.47045224
_cell_formula_units_Z   2
loop_
 _symmetry_equiv_pos_site_id
 _symmetry_equiv_pos_as_xyz
  1  'x, y, z'
loop_
 _atom_site_type_symbol
 _atom_site_label
 _atom_site_symmetry_multiplicity
 _atom_site_fract_x
 _atom_site_fract_y
 _atom_site_fract_z
 _atom_site_occupancy
  Li  Li0  1  0.32464084  0.19595450  0.15725957  1
  Li  Li1  1  0.53429233  0.23214677  0.43238264  1
  Li  Li2  1  0.96762620  0.04182704  0.78511910  1
  Li  Li3  1  0.48564541  0.14560588  0.89238451  1
  Li  Li4  1  0.80229070  0.64355257  0.18090560  1
  Li  Li5  1  0.98868674  0.70366106  0.43626548  1
  Li  Li6  1  0.46177148  0.78512555  0.54949653  1
  Li  Li7  1  0.02139773  0.57839927  0.90372814  1
  V  V8  1  0.01409367  0.30007872  0.33652088  1
  V  V9  1  0.49496731  0.17074486  0.66437131  1
  V  V10  1  0.51548296  0.49954762  0.99903487  1
  V  V11  1  0.98424384  0.02058912  0.00131505  1
  V  V12  1  0.48125510  0.83775654  0.33298338  1
  V  V13  1  0.99521108  0.66005194  0.66823433  1
  O  O14  1  0.18726688  0.99388161  0.37132175  1
  O  O15  1  0.80492576  0.32403361  0.96560049  1
  F  F16  1  0.31302869  0.17916365  0.03516947  1
  F  F17  1  0.66819975  0.16254952  0.31401961  1
  F  F18  1  0.13627032  0.02936662  0.88406938  1
  F  F19  1  0.40903009  0.16268123  0.54979926  1
  F  F20  1  0.08412180  0.37354267  0.21754790  1
  F  F21  1  0.61991010  0.15181946  0.77714328  1
  F  F22  1  0.57892433  0.47130915  0.11875464  1
  F  F23  1  0.87295799  0.34416248  0.44580688  1
  F  F24  1  0.15830664  0.32656166  0.70042054  1
  F  F25  1  0.31461727  0.49945289  0.37396108  1
  F  F26  1  0.17719102  0.68323475  0.01296642  1
  F  F27  1  0.66026759  0.50130798  0.63472201  1
  F  F28  1  0.81089015  0.64967472  0.30620972  1
  F  F29  1  0.36661481  0.49448067  0.88608029  1
  F  F30  1  0.11994532  0.67535346  0.55535661  1
  F  F31  1  0.41238900  0.87348191  0.21562952  1
  F  F32  1  0.90380591  0.94342257  0.11679992  1
  F  F33  1  0.91036441  0.68150703  0.78225322  1
  F  F34  1  0.63891123  0.81548246  0.45038641  1
  F  F35  1  0.31758867  0.85093976  0.68948075  1
  F  F36  1  0.68433570  0.83709242  0.95637964  1
  F  F37  1  0.81872620  0.98424031  0.63934983  1
