# generated using pymatgen
data_Li4Cr3Co3(SnO8)2
_symmetry_space_group_name_H-M   'P 1'
_cell_length_a   5.90530003
_cell_length_b   5.95095593
_cell_length_c   9.70931564
_cell_angle_alpha   89.93937801
_cell_angle_beta   89.34790195
_cell_angle_gamma   120.22123877
_symmetry_Int_Tables_number   1
_chemical_formula_structural   Li4Cr3Co3(SnO8)2
_chemical_formula_sum   'Li4 Cr3 Co3 Sn2 O16'
_cell_volume   294.80436611
_cell_formula_units_Z   1
loop_
 _symmetry_equiv_pos_site_id
 _symmetry_equiv_pos_as_xyz
  1  'x, y, z'
loop_
 _atom_site_type_symbol
 _atom_site_label
 _atom_site_symmetry_multiplicity
 _atom_site_fract_x
 _atom_site_fract_y
 _atom_site_fract_z
 _atom_site_occupancy
  Li  Li0  1  0.33855955  0.66974225  0.89524641  1
  Li  Li1  1  0.99333312  0.99505809  0.99409457  1
  Li  Li2  1  0.99393839  0.99718997  0.49408754  1
  Li  Li3  1  0.67175211  0.33629493  0.39541701  1
  Cr  Cr4  1  0.16843388  0.83041471  0.21466367  1
  Cr  Cr5  1  0.16753136  0.33790871  0.21405667  1
  Cr  Cr6  1  0.34084091  0.17035356  0.71415800  1
  Co  Co7  1  0.66061718  0.82945323  0.21498300  1
  Co  Co8  1  0.82936312  0.66198681  0.71521243  1
  Co  Co9  1  0.83073640  0.16822821  0.71399595  1
  Sn  Sn10  1  0.33216292  0.66714519  0.49107836  1
  Sn  Sn11  1  0.66330655  0.33064231  0.99247000  1
  O  O12  1  0.16057159  0.84204161  0.59908835  1
  O  O13  1  0.03501653  0.51719099  0.34012267  1
  O  O14  1  0.34824732  0.67435040  0.11052725  1
  O  O15  1  0.98496565  0.99361950  0.30789130  1
  O  O16  1  0.99787097  0.99820660  0.80678767  1
  O  O17  1  0.16045032  0.31903049  0.59842321  1
  O  O18  1  0.49338558  0.96668888  0.33286995  1
  O  O19  1  0.49295407  0.52789480  0.33204074  1
  O  O20  1  0.31451573  0.15760126  0.09857346  1
  O  O21  1  0.67486078  0.83708577  0.60458873  1
  O  O22  1  0.51871400  0.48369152  0.83817231  1
  O  O23  1  0.52033474  0.03448162  0.83767380  1
  O  O24  1  0.67298610  0.33789986  0.60817708  1
  O  O25  1  0.83306611  0.67906476  0.10279376  1
  O  O26  1  0.96829240  0.48461010  0.83851558  1
  O  O27  1  0.83319064  0.15242084  0.10212955  1
