# generated using pymatgen
data_Li3MnV(PO4)3
_symmetry_space_group_name_H-M   'P 1'
_cell_length_a   8.66114051
_cell_length_b   8.69008806
_cell_length_c   12.64106095
_cell_angle_alpha   74.39534379
_cell_angle_beta   105.95923752
_cell_angle_gamma   84.26356620
_symmetry_Int_Tables_number   1
_chemical_formula_structural   Li3MnV(PO4)3
_chemical_formula_sum   'Li12 Mn4 V4 P12 O48'
_cell_volume   865.37642233
_cell_formula_units_Z   4
loop_
 _symmetry_equiv_pos_site_id
 _symmetry_equiv_pos_as_xyz
  1  'x, y, z'
loop_
 _atom_site_type_symbol
 _atom_site_label
 _atom_site_symmetry_multiplicity
 _atom_site_fract_x
 _atom_site_fract_y
 _atom_site_fract_z
 _atom_site_occupancy
  Li  Li0  1  0.99640412  0.00097365  0.87529389  1
  Li  Li1  1  0.00452893  0.99386994  0.37461262  1
  Li  Li2  1  0.28840603  0.29200954  0.62391824  1
  Li  Li3  1  0.50050225  0.50017880  0.74881940  1
  Li  Li4  1  0.28770977  0.29104601  0.12448953  1
  Li  Li5  1  0.49814759  0.50077606  0.50063165  1
  Li  Li6  1  0.70941166  0.71051342  0.87524256  1
  Li  Li7  1  0.49870310  0.50174512  0.25079157  1
  Li  Li8  1  0.49982436  0.49991823  0.99883820  1
  Li  Li9  1  0.71225105  0.70691449  0.37702322  1
  Li  Li10  1  0.99516282  0.00071476  0.62669050  1
  Li  Li11  1  0.00289978  0.00669401  0.12593880  1
  Mn  Mn12  1  0.05905158  0.63299903  0.31526022  1
  Mn  Mn13  1  0.62613414  0.05412300  0.93532529  1
  Mn  Mn14  1  0.94454250  0.37429991  0.68470659  1
  Mn  Mn15  1  0.94276276  0.37106204  0.18577282  1
  V  V16  1  0.05848917  0.62314565  0.81916401  1
  V  V17  1  0.37817910  0.94328674  0.56981513  1
  V  V18  1  0.37697435  0.94260881  0.06863620  1
  V  V19  1  0.61972640  0.05559750  0.43130557  1
  P  P20  1  0.28918234  0.28701857  0.87480793  1
  P  P21  1  0.14035423  0.66496923  0.56633673  1
  P  P22  1  0.33279235  0.86085523  0.81726241  1
  P  P23  1  0.28452612  0.29169630  0.37553498  1
  P  P24  1  0.14001555  0.66683982  0.06942230  1
  P  P25  1  0.33666323  0.87019386  0.31672540  1
  P  P26  1  0.66221313  0.13279709  0.68472475  1
  P  P27  1  0.86695641  0.33848816  0.93280893  1
  P  P28  1  0.71394830  0.70940336  0.62537941  1
  P  P29  1  0.66331247  0.13227944  0.18136878  1
  P  P30  1  0.85770080  0.33401338  0.43247801  1
  P  P31  1  0.71437373  0.70976844  0.12559565  1
  O  O32  1  0.01442611  0.66227915  0.95575114  1
  O  O33  1  0.05257009  0.61527262  0.66020221  1
  O  O34  1  0.25995682  0.17653726  0.98331443  1
  O  O35  1  0.01495853  0.66212562  0.45057526  1
  O  O36  1  0.17387412  0.26709254  0.76140837  1
  O  O37  1  0.14889710  0.84179978  0.79795006  1
  O  O38  1  0.26872296  0.46297282  0.88303024  1
  O  O39  1  0.15916345  0.84811601  0.54641916  1
  O  O40  1  0.05346247  0.61545202  0.16477871  1
  O  O41  1  0.25899997  0.17580851  0.48379230  1
  O  O42  1  0.17373692  0.26866495  0.26210351  1
  O  O43  1  0.15228589  0.86127393  0.30113432  1
  O  O44  1  0.29926751  0.54470316  0.60176881  1
  O  O45  1  0.38405879  0.94641352  0.91243936  1
  O  O46  1  0.33565993  0.98657744  0.70382571  1
  O  O47  1  0.46431106  0.25572943  0.86461781  1
  O  O48  1  0.25892176  0.46595403  0.38616232  1
  O  O49  1  0.45364407  0.70268373  0.85143236  1
  O  O50  1  0.15803364  0.84979968  0.05103461  1
  O  O51  1  0.29909645  0.54691663  0.10391482  1
  O  O52  1  0.40084196  0.95506007  0.41243423  1
  O  O53  1  0.54765447  0.29505552  0.64902195  1
  O  O54  1  0.34026257  0.99317386  0.20252411  1
  O  O55  1  0.46115091  0.26508680  0.36748583  1
  O  O56  1  0.53619140  0.73315016  0.63121430  1
  O  O57  1  0.65999688  0.01114274  0.80095689  1
  O  O58  1  0.44951192  0.70719595  0.35049270  1
  O  O59  1  0.59892295  0.04491827  0.59026662  1
  O  O60  1  0.70363068  0.45197509  0.89677141  1
  O  O61  1  0.85815213  0.15559202  0.94702496  1
  O  O62  1  0.54963291  0.29494569  0.14643470  1
  O  O63  1  0.74185969  0.53361237  0.61590769  1
  O  O64  1  0.53864322  0.73363533  0.13432930  1
  O  O65  1  0.65899171  0.01096012  0.29567799  1
  O  O66  1  0.59725472  0.04521920  0.08574216  1
  O  O67  1  0.69898432  0.45484937  0.39675046  1
  O  O68  1  0.84620842  0.14257857  0.70006336  1
  O  O69  1  0.82376729  0.73622696  0.73620519  1
  O  O70  1  0.73874097  0.82358813  0.51574381  1
  O  O71  1  0.95584359  0.40271835  0.83824390  1
  O  O72  1  0.83843995  0.15127489  0.45079575  1
  O  O73  1  0.74248173  0.53658930  0.11330346  1
  O  O74  1  0.84683200  0.14103826  0.19500779  1
  O  O75  1  0.82603477  0.73406332  0.23769227  1
  O  O76  1  0.98305067  0.33674259  0.54775634  1
  O  O77  1  0.73676683  0.82583642  0.01455383  1
  O  O78  1  0.94590304  0.38453993  0.33792792  1
  O  O79  1  0.98835166  0.34225831  0.04929527  1
