# generated using pymatgen
data_KBiPCO7
_symmetry_space_group_name_H-M   'P 1'
_cell_length_a   10.10706413
_cell_length_b   7.07782984
_cell_length_c   5.77053175
_cell_angle_alpha   90.00000000
_cell_angle_beta   90.59663462
_cell_angle_gamma   90.00000000
_symmetry_Int_Tables_number   1
_chemical_formula_structural   KBiPCO7
_chemical_formula_sum   'K2 Bi2 P2 C2 O14'
_cell_volume   412.77884065
_cell_formula_units_Z   2
loop_
 _symmetry_equiv_pos_site_id
 _symmetry_equiv_pos_as_xyz
  1  'x, y, z'
loop_
 _atom_site_type_symbol
 _atom_site_label
 _atom_site_symmetry_multiplicity
 _atom_site_fract_x
 _atom_site_fract_y
 _atom_site_fract_z
 _atom_site_occupancy
  K  K0  1  0.22729727  0.46046130  0.24206140  1
  K  K1  1  0.77270273  0.96046130  0.75793860  1
  Bi  Bi2  1  0.36472930  0.77551400  0.78275091  1
  Bi  Bi3  1  0.63527070  0.27551400  0.21724909  1
  P  P4  1  0.42732957  0.26519690  0.71974211  1
  P  P5  1  0.57267043  0.76519690  0.28025789  1
  C  C6  1  0.08900129  0.73397623  0.72112587  1
  C  C7  1  0.91099871  0.23397623  0.27887413  1
  O  O8  1  0.03563211  0.22117161  0.29936532  1
  O  O9  1  0.14328824  0.74193988  0.92747225  1
  O  O10  1  0.16583115  0.73969661  0.54316332  1
  O  O11  1  0.33792568  0.09535307  0.78893166  1
  O  O12  1  0.35020320  0.44307509  0.80130319  1
  O  O13  1  0.43278398  0.74936805  0.16424877  1
  O  O14  1  0.44626469  0.27209925  0.45272161  1
  O  O15  1  0.55373531  0.77209925  0.54727839  1
  O  O16  1  0.56721602  0.24936805  0.83575123  1
  O  O17  1  0.64979680  0.94307509  0.19869681  1
  O  O18  1  0.66207432  0.59535307  0.21106834  1
  O  O19  1  0.83416885  0.23969661  0.45683668  1
  O  O20  1  0.85671176  0.24193988  0.07252775  1
  O  O21  1  0.96436789  0.72117161  0.70063468  1
