# generated using pymatgen
data_Sr(H8O5)2
_symmetry_space_group_name_H-M   'P 1'
_cell_length_a   6.29798361
_cell_length_b   6.35955968
_cell_length_c   7.01353229
_cell_angle_alpha   90.17138633
_cell_angle_beta   89.17738446
_cell_angle_gamma   90.79033952
_symmetry_Int_Tables_number   1
_chemical_formula_structural   Sr(H8O5)2
_chemical_formula_sum   'Sr1 H16 O10'
_cell_volume   280.85204961
_cell_formula_units_Z   1
loop_
 _symmetry_equiv_pos_site_id
 _symmetry_equiv_pos_as_xyz
  1  'x, y, z'
loop_
 _atom_site_type_symbol
 _atom_site_label
 _atom_site_symmetry_multiplicity
 _atom_site_fract_x
 _atom_site_fract_y
 _atom_site_fract_z
 _atom_site_occupancy
  Sr  Sr0  1  0.01016392  0.00177020  0.98879425  1
  H  H1  1  0.33200157  0.33533325  0.79914567  1
  H  H2  1  0.27727075  0.14682247  0.65487393  1
  H  H3  1  0.66314432  0.67800989  0.80981981  1
  H  H4  1  0.71098823  0.90119744  0.70833214  1
  H  H5  1  0.89765982  0.28899647  0.70700498  1
  H  H6  1  0.67399683  0.33181152  0.81471146  1
  H  H7  1  0.32084779  0.66050374  0.80383559  1
  H  H8  1  0.10076908  0.70455316  0.69998952  1
  H  H9  1  0.71915016  0.90303405  0.28723699  1
  H  H10  1  0.66765665  0.67920064  0.18788249  1
  H  H11  1  0.33754546  0.32054794  0.19105436  1
  H  H12  1  0.28772630  0.09218856  0.28688345  1
  H  H13  1  0.32230871  0.66558388  0.18888096  1
  H  H14  1  0.09839704  0.72523368  0.29019162  1
  H  H15  1  0.68003374  0.33154369  0.18757523  1
  H  H16  1  0.90026902  0.27985068  0.29241690  1
  O  O17  1  0.50059708  0.49575512  0.89268931  1
  O  O18  1  0.49888066  0.49675299  0.10657172  1
  O  O19  1  0.21203012  0.24451120  0.74404682  1
  O  O20  1  0.77912333  0.77716179  0.76056268  1
  O  O21  1  0.77257751  0.21805231  0.76359749  1
  O  O22  1  0.22562942  0.77388218  0.75441988  1
  O  O23  1  0.78487804  0.77692748  0.23400338  1
  O  O24  1  0.22140816  0.22175427  0.24324562  1
  O  O25  1  0.22976593  0.78548017  0.23558488  1
  O  O26  1  0.77518036  0.21531723  0.23358388  1
