# generated using pymatgen
data_Tl2PO4
_symmetry_space_group_name_H-M   'P 1'
_cell_length_a   4.85966539
_cell_length_b   6.64287480
_cell_length_c   17.38266972
_cell_angle_alpha   90.00000000
_cell_angle_beta   97.08192583
_cell_angle_gamma   90.00000000
_symmetry_Int_Tables_number   1
_chemical_formula_structural   Tl2PO4
_chemical_formula_sum   'Tl8 P4 O16'
_cell_volume   556.86884942
_cell_formula_units_Z   4
loop_
 _symmetry_equiv_pos_site_id
 _symmetry_equiv_pos_as_xyz
  1  'x, y, z'
loop_
 _atom_site_type_symbol
 _atom_site_label
 _atom_site_symmetry_multiplicity
 _atom_site_fract_x
 _atom_site_fract_y
 _atom_site_fract_z
 _atom_site_occupancy
  Tl  Tl0  1  0.52236530  0.95358879  0.88600164  1
  Tl  Tl1  1  0.02236530  0.04641121  0.38600164  1
  Tl  Tl2  1  0.37654096  0.43064719  0.97783953  1
  Tl  Tl3  1  0.87654096  0.56935281  0.47783953  1
  Tl  Tl4  1  0.91373384  0.57271005  0.21729747  1
  Tl  Tl5  1  0.41373384  0.42728995  0.71729747  1
  Tl  Tl6  1  0.93709758  0.96762514  0.70408941  1
  Tl  Tl7  1  0.43709758  0.03237486  0.20408941  1
  P  P8  1  0.92576089  0.54519797  0.86264500  1
  P  P9  1  0.42576089  0.45480203  0.36264500  1
  P  P10  1  0.44466233  0.78081942  0.57716264  1
  P  P11  1  0.94466233  0.21918058  0.07716264  1
  O  O12  1  0.05702478  0.33031364  0.87652447  1
  O  O13  1  0.55702478  0.66968636  0.37652447  1
  O  O14  1  0.62162534  0.55299035  0.88612713  1
  O  O15  1  0.12162534  0.44700965  0.38612713  1
  O  O16  1  0.89770218  0.60542102  0.77640791  1
  O  O17  1  0.39770218  0.39457898  0.27640791  1
  O  O18  1  0.10829882  0.69712866  0.91679489  1
  O  O19  1  0.60829882  0.30287134  0.41679489  1
  O  O20  1  0.32671411  0.76488021  0.65622896  1
  O  O21  1  0.82671411  0.23511979  0.15622896  1
  O  O22  1  0.19701954  0.79905518  0.50892096  1
  O  O23  1  0.69701954  0.20094482  0.00892096  1
  O  O24  1  0.59734840  0.56992403  0.56890790  1
  O  O25  1  0.09734840  0.43007597  0.06890790  1
  O  O26  1  0.63993592  0.95780362  0.57232209  1
  O  O27  1  0.13993592  0.04219638  0.07232209  1
