# generated using pymatgen
data_Li17Fe4(CO3)16
_symmetry_space_group_name_H-M   'P 1'
_cell_length_a   11.27709184
_cell_length_b   9.72902785
_cell_length_c   8.50766149
_cell_angle_alpha   89.40521823
_cell_angle_beta   91.30233865
_cell_angle_gamma   89.83822537
_symmetry_Int_Tables_number   1
_chemical_formula_structural   Li17Fe4(CO3)16
_chemical_formula_sum   'Li17 Fe4 C16 O48'
_cell_volume   933.12350728
_cell_formula_units_Z   1
loop_
 _symmetry_equiv_pos_site_id
 _symmetry_equiv_pos_as_xyz
  1  'x, y, z'
loop_
 _atom_site_type_symbol
 _atom_site_label
 _atom_site_symmetry_multiplicity
 _atom_site_fract_x
 _atom_site_fract_y
 _atom_site_fract_z
 _atom_site_occupancy
  Li  Li0  1  0.07296937  0.62956758  0.56243327  1
  Li  Li1  1  0.15529854  0.14041365  0.55592835  1
  Li  Li2  1  0.15072288  0.35460515  0.04237706  1
  Li  Li3  1  0.23359045  0.89627039  0.69977946  1
  Li  Li4  1  0.22032717  0.60841944  0.19717878  1
  Li  Li5  1  0.32274099  0.65745939  0.53571800  1
  Li  Li6  1  0.31645233  0.83961244  0.04316801  1
  Li  Li7  1  0.42257151  0.41358100  0.08463200  1
  Li  Li8  1  0.57756642  0.90663596  0.41270646  1
  Li  Li9  1  0.67948011  0.16067623  0.95960401  1
  Li  Li10  1  0.66974831  0.34007757  0.46473676  1
  Li  Li11  1  0.77149275  0.39850841  0.80381373  1
  Li  Li12  1  0.77695863  0.10481264  0.29623022  1
  Li  Li13  1  0.84567455  0.64615668  0.95104932  1
  Li  Li14  1  0.85127937  0.85797186  0.44760741  1
  Li  Li15  1  0.94186712  0.12736775  0.94214882  1
  Li  Li16  1  0.92430170  0.36621749  0.45188558  1
  Fe  Fe17  1  0.29680289  0.38642256  0.71121428  1
  Fe  Fe18  1  0.29743871  0.10533499  0.21906550  1
  Fe  Fe19  1  0.70236783  0.89224441  0.78276470  1
  Fe  Fe20  1  0.70524409  0.60387058  0.27899190  1
  C  C21  1  0.03437179  0.37163769  0.74232080  1
  C  C22  1  0.03013715  0.13116554  0.25257494  1
  C  C23  1  0.21159825  0.63318036  0.86052265  1
  C  C24  1  0.20391473  0.86309103  0.37336987  1
  C  C25  1  0.28521874  0.13116891  0.87838897  1
  C  C26  1  0.28245964  0.36575137  0.36887512  1
  C  C27  1  0.49308032  0.85433484  0.70145696  1
  C  C28  1  0.49038104  0.64715259  0.21744978  1
  C  C29  1  0.50792192  0.35545822  0.79243151  1
  C  C30  1  0.51115995  0.15201038  0.28239493  1
  C  C31  1  0.71801707  0.63490542  0.62182238  1
  C  C32  1  0.71534418  0.86840934  0.12709796  1
  C  C33  1  0.79257432  0.13586077  0.63152036  1
  C  C34  1  0.79298147  0.36558509  0.13466792  1
  C  C35  1  0.96489346  0.88097029  0.75211403  1
  C  C36  1  0.96660130  0.61337438  0.26254700  1
  O  O37  1  0.99380660  0.81022122  0.63106788  1
  O  O38  1  0.99092363  0.65424654  0.12521081  1
  O  O39  1  0.01552340  0.99200990  0.78844929  1
  O  O40  1  0.02528979  0.51716961  0.33408107  1
  O  O41  1  0.12451486  0.32283186  0.66365801  1
  O  O42  1  0.11742679  0.16593374  0.16013392  1
  O  O43  1  0.21408242  0.76307615  0.87768169  1
  O  O44  1  0.19471510  0.73146258  0.39376626  1
  O  O45  1  0.19378247  0.54693393  0.97115814  1
  O  O46  1  0.18093115  0.94861938  0.48127099  1
  O  O47  1  0.22840449  0.58307149  0.71627604  1
  O  O48  1  0.23928141  0.91015994  0.23719725  1
  O  O49  1  0.26682081  0.08713930  0.74125399  1
  O  O50  1  0.27953235  0.26310657  0.90956947  1
  O  O51  1  0.26757379  0.41081322  0.22825301  1
  O  O52  1  0.27539519  0.23499153  0.40345476  1
  O  O53  1  0.31206598  0.04703767  0.99523613  1
  O  O54  1  0.30586211  0.45134928  0.48236881  1
  O  O55  1  0.39624472  0.81685151  0.63722723  1
  O  O56  1  0.39014337  0.67521714  0.15623631  1
  O  O57  1  0.44090936  0.45274922  0.85042922  1
  O  O58  1  0.45705232  0.03578538  0.31517384  1
  O  O59  1  0.46045446  0.29604696  0.66990511  1
  O  O60  1  0.45094976  0.23009974  0.18339963  1
  O  O61  1  0.54189100  0.79451614  0.82420099  1
  O  O62  1  0.54905752  0.72643046  0.31415706  1
  O  O63  1  0.55731973  0.95575768  0.64436690  1
  O  O64  1  0.54726230  0.53139487  0.18785422  1
  O  O65  1  0.60687695  0.32033629  0.85370897  1
  O  O66  1  0.61081375  0.18311356  0.34236064  1
  O  O67  1  0.69140510  0.54910490  0.50807417  1
  O  O68  1  0.69349877  0.95489678  0.01165953  1
  O  O69  1  0.72079098  0.76688656  0.58730914  1
  O  O70  1  0.73950358  0.59140440  0.75952825  1
  O  O71  1  0.72500785  0.73831898  0.09429857  1
  O  O72  1  0.72638252  0.91209076  0.26772491  1
  O  O73  1  0.76734142  0.09059831  0.77493305  1
  O  O74  1  0.77663862  0.40603790  0.28234018  1
  O  O75  1  0.80810180  0.04826556  0.52404435  1
  O  O76  1  0.80018634  0.45816817  0.02919779  1
  O  O77  1  0.79997876  0.26727134  0.60922355  1
  O  O78  1  0.80000850  0.23592935  0.10704133  1
  O  O79  1  0.87715039  0.83284166  0.83614182  1
  O  O80  1  0.87911197  0.67195991  0.33839970  1
  O  O81  1  0.97676980  0.47302322  0.68043801  1
  O  O82  1  0.95948039  0.03696297  0.20915835  1
  O  O83  1  0.00666431  0.31577296  0.87326665  1
  O  O84  1  0.01638924  0.19530403  0.38219917  1
