# generated using pymatgen
data_TeO3
_symmetry_space_group_name_H-M   'P 1'
_cell_length_a   8.09336561
_cell_length_b   9.72433188
_cell_length_c   5.14452348
_cell_angle_alpha   90.00000000
_cell_angle_beta   90.00000000
_cell_angle_gamma   90.00000000
_symmetry_Int_Tables_number   1
_chemical_formula_structural   TeO3
_chemical_formula_sum   'Te8 O24'
_cell_volume   404.88723586
_cell_formula_units_Z   8
loop_
 _symmetry_equiv_pos_site_id
 _symmetry_equiv_pos_as_xyz
  1  'x, y, z'
loop_
 _atom_site_type_symbol
 _atom_site_label
 _atom_site_symmetry_multiplicity
 _atom_site_fract_x
 _atom_site_fract_y
 _atom_site_fract_z
 _atom_site_occupancy
  Te  Te0  1  0.37952460  0.91038112  0.18797664  1
  Te  Te1  1  0.62047540  0.08961888  0.68797664  1
  Te  Te2  1  0.87952460  0.58961888  0.68797664  1
  Te  Te3  1  0.12047540  0.41038112  0.18797664  1
  Te  Te4  1  0.47195551  0.62525209  0.98270977  1
  Te  Te5  1  0.52804449  0.37474791  0.48270977  1
  Te  Te6  1  0.97195551  0.87474791  0.48270977  1
  Te  Te7  1  0.02804449  0.12525209  0.98270977  1
  O  O8  1  0.24866546  0.56799835  0.08874010  1
  O  O9  1  0.75133454  0.43200165  0.58874010  1
  O  O10  1  0.74866546  0.93200165  0.58874010  1
  O  O11  1  0.25133454  0.06799835  0.08874010  1
  O  O12  1  0.41954847  0.52508488  0.66262997  1
  O  O13  1  0.58045153  0.47491512  0.16262997  1
  O  O14  1  0.91954847  0.97491512  0.16262997  1
  O  O15  1  0.08045153  0.02508488  0.66262997  1
  O  O16  1  0.35843517  0.79257715  0.86678998  1
  O  O17  1  0.64156483  0.20742285  0.36678998  1
  O  O18  1  0.85843517  0.70742285  0.36678998  1
  O  O19  1  0.14156483  0.29257715  0.86678998  1
  O  O20  1  0.31395547  0.31941797  0.34603076  1
  O  O21  1  0.68604453  0.68058203  0.84603076  1
  O  O22  1  0.81395547  0.18058203  0.84603076  1
  O  O23  1  0.18604453  0.81941797  0.34603076  1
  O  O24  1  0.43057982  0.99910456  0.51894813  1
  O  O25  1  0.56942018  0.00089544  0.01894813  1
  O  O26  1  0.93057982  0.50089544  0.01894813  1
  O  O27  1  0.06942018  0.49910456  0.51894813  1
  O  O28  1  0.50566171  0.74604989  0.28941364  1
  O  O29  1  0.49433829  0.25395011  0.78941364  1
  O  O30  1  0.00566171  0.75395011  0.78941364  1
  O  O31  1  0.99433829  0.24604989  0.28941364  1
