# generated using pymatgen
data_FeOF
_symmetry_space_group_name_H-M   'P 1'
_cell_length_a   9.45187742
_cell_length_b   14.21210201
_cell_length_c   3.10769011
_cell_angle_alpha   90.00000000
_cell_angle_beta   90.00000000
_cell_angle_gamma   89.74624550
_symmetry_Int_Tables_number   1
_chemical_formula_structural   FeOF
_chemical_formula_sum   'Fe12 O12 F12'
_cell_volume   417.45516912
_cell_formula_units_Z   12
loop_
 _symmetry_equiv_pos_site_id
 _symmetry_equiv_pos_as_xyz
  1  'x, y, z'
loop_
 _atom_site_type_symbol
 _atom_site_label
 _atom_site_symmetry_multiplicity
 _atom_site_fract_x
 _atom_site_fract_y
 _atom_site_fract_z
 _atom_site_occupancy
  Fe  Fe0  1  0.01310042  0.99289110  -0.00000000  1
  Fe  Fe1  1  0.01794824  0.33007338  -0.00000000  1
  Fe  Fe2  1  0.01042004  0.66013713  0.00000000  1
  Fe  Fe3  1  0.25725546  0.18242392  0.50000000  1
  Fe  Fe4  1  0.22824808  0.49823492  0.50000000  1
  Fe  Fe5  1  0.22750863  0.82738362  0.50000000  1
  Fe  Fe6  1  0.50833734  0.32519162  -0.00000000  1
  Fe  Fe7  1  0.51786631  0.99648606  -0.00000000  1
  Fe  Fe8  1  0.51643589  0.66213745  -0.00000000  1
  Fe  Fe9  1  0.72911300  0.16549239  0.50000000  1
  Fe  Fe10  1  0.75686302  0.51623369  0.50000000  1
  Fe  Fe11  1  0.72736798  0.82840563  0.50000000  1
  O  O12  1  0.09229229  0.26376047  0.50000000  1
  O  O13  1  0.09980096  0.60265673  0.50000000  1
  O  O14  1  0.09803859  0.93764400  0.50000000  1
  O  O15  1  0.14591268  0.76896469  -0.00000000  1
  O  O16  1  0.15303650  0.43268132  -0.00000000  1
  O  O17  1  0.35171258  0.23337227  0.00000000  1
  O  O18  1  0.60506393  0.27431296  0.50000000  1
  O  O19  1  0.59697365  0.93503448  0.50000000  1
  O  O20  1  0.59155597  0.59907373  0.50000000  1
  O  O21  1  0.65174961  0.10154442  -0.00000000  1
  O  O22  1  0.64980434  0.76723811  -0.00000000  1
  O  O23  1  0.84979630  0.56826178  -0.00000000  1
  F  F24  1  0.15458710  0.10230002  -0.00000000  1
  F  F25  1  0.34601171  0.56615469  -0.00000000  1
  F  F26  1  0.34624826  0.89774682  -0.00000000  1
  F  F27  1  0.39564401  0.06236584  0.50000000  1
  F  F28  1  0.40871375  0.40376305  0.50000000  1
  F  F29  1  0.39998402  0.73226211  0.50000000  1
  F  F30  1  0.65392835  0.43657920  -0.00000000  1
  F  F31  1  0.84890406  0.22919785  0.00000000  1
  F  F32  1  0.84706371  0.90158930  -0.00000000  1
  F  F33  1  0.90652242  0.06629007  0.50000000  1
  F  F34  1  0.89602833  0.39481594  0.50000000  1
  F  F35  1  0.90016345  0.73730025  0.50000000  1
