# generated using pymatgen
data_Li2Ga3Te6(HO2)12
_symmetry_space_group_name_H-M   'P 1'
_cell_length_a   10.21930127
_cell_length_b   10.22119345
_cell_length_c   10.22857324
_cell_angle_alpha   54.67682051
_cell_angle_beta   54.66713675
_cell_angle_gamma   54.67648859
_symmetry_Int_Tables_number   1
_chemical_formula_structural   Li2Ga3Te6(HO2)12
_chemical_formula_sum   'Li2 Ga3 Te6 H12 O24'
_cell_volume   661.72853792
_cell_formula_units_Z   1
loop_
 _symmetry_equiv_pos_site_id
 _symmetry_equiv_pos_as_xyz
  1  'x, y, z'
loop_
 _atom_site_type_symbol
 _atom_site_label
 _atom_site_symmetry_multiplicity
 _atom_site_fract_x
 _atom_site_fract_y
 _atom_site_fract_z
 _atom_site_occupancy
  Li  Li0  1  0.69576417  0.69593286  0.69595181  1
  Li  Li1  1  0.30419164  0.30403528  0.30400008  1
  Ga  Ga2  1  0.80709981  0.80743480  0.80730754  1
  Ga  Ga3  1  0.19299036  0.19266988  0.19283012  1
  Ga  Ga4  1  -0.00000140  0.99992326  0.99995586  1
  Te  Te5  1  0.98095194  0.92203597  0.39204289  1
  Te  Te6  1  0.92197964  0.39198125  0.98124619  1
  Te  Te7  1  0.39194143  0.98145901  0.92181599  1
  Te  Te8  1  0.01838201  0.07893239  0.60818957  1
  Te  Te9  1  0.07899625  0.60818599  0.01811501  1
  Te  Te10  1  0.60821026  0.01794405  0.07910963  1
  H  H11  1  0.48514222  0.84137563  0.56075532  1
  H  H12  1  0.84141510  0.56053561  0.48524433  1
  H  H13  1  0.56056989  0.48508365  0.84151102  1
  H  H14  1  0.51487708  0.15848235  0.43927487  1
  H  H15  1  0.15846763  0.43951404  0.51471151  1
  H  H16  1  0.43948904  0.51491328  0.15832481  1
  H  H17  1  0.33322790  0.87429132  0.72579683  1
  H  H18  1  0.87412532  0.72585209  0.33329623  1
  H  H19  1  0.72580890  0.33318740  0.87423681  1
  H  H20  1  0.66675417  0.12569743  0.27413915  1
  H  H21  1  0.12588274  0.27412436  0.66666238  1
  H  H22  1  0.27415287  0.66677341  0.12575731  1
  O  O23  1  0.77047811  0.92533114  0.58497383  1
  O  O24  1  0.92511255  0.58487347  0.77086712  1
  O  O25  1  0.58474793  0.77085433  0.92520359  1
  O  O26  1  0.22899885  0.07479576  0.41525306  1
  O  O27  1  0.07500405  0.41530614  0.22865774  1
  O  O28  1  0.41541916  0.22870198  0.07494602  1
  O  O29  1  0.97657744  0.13903076  0.33581634  1
  O  O30  1  0.13896976  0.33615831  0.97660408  1
  O  O31  1  0.33617172  0.97659363  0.13874765  1
  O  O32  1  0.02295872  0.86189276  0.66352829  1
  O  O33  1  0.86190141  0.66322317  0.02296735  1
  O  O34  1  0.66321663  0.02298906  0.86213331  1
  O  O35  1  0.88215237  0.01634650  0.23059893  1
  O  O36  1  0.01657040  0.23047667  0.88232075  1
  O  O37  1  0.23047993  0.88222796  0.01651464  1
  O  O38  1  0.11794630  0.98333604  0.76949993  1
  O  O39  1  0.98320723  0.76957338  0.11774746  1
  O  O40  1  0.76961010  0.11780790  0.98325584  1
  O  O41  1  0.46075203  0.81491952  0.67863728  1
  O  O42  1  0.81507088  0.67888082  0.46059471  1
  O  O43  1  0.67879765  0.46057861  0.81502636  1
  O  O44  1  0.53929012  0.18523850  0.32128676  1
  O  O45  1  0.18509950  0.32105847  0.53942282  1
  O  O46  1  0.32114819  0.53943979  0.18512089  1
