# generated using pymatgen
data_K3NaFeCl6
_symmetry_space_group_name_H-M   'P 1'
_cell_length_a   11.69667091
_cell_length_b   15.29976799
_cell_length_c   8.74460540
_cell_angle_alpha   57.01622847
_cell_angle_beta   131.48352691
_cell_angle_gamma   144.88423502
_symmetry_Int_Tables_number   1
_chemical_formula_structural   K3NaFeCl6
_chemical_formula_sum   'K6 Na2 Fe2 Cl12'
_cell_volume   674.35415508
_cell_formula_units_Z   2
loop_
 _symmetry_equiv_pos_site_id
 _symmetry_equiv_pos_as_xyz
  1  'x, y, z'
loop_
 _atom_site_type_symbol
 _atom_site_label
 _atom_site_symmetry_multiplicity
 _atom_site_fract_x
 _atom_site_fract_y
 _atom_site_fract_z
 _atom_site_occupancy
  K  K0  1  0.49972333  -0.00024018  -0.00014370  1
  K  K1  1  0.49981003  -0.00009059  0.49992581  1
  K  K2  1  -0.00014220  -0.00018225  0.49989896  1
  K  K3  1  0.00014486  0.50018563  0.50009402  1
  K  K4  1  0.50018985  0.50009018  0.50006971  1
  K  K5  1  0.50027608  0.50024119  0.00013416  1
  Na  Na6  1  -0.00055221  0.49982057  -0.00014911  1
  Na  Na7  1  0.00054329  0.00017667  0.00013250  1
  Fe  Fe8  1  0.50000423  0.25000664  0.00005115  1
  Fe  Fe9  1  0.49999161  0.74998955  0.00001038  1
  Cl  Cl10  1  0.52931311  0.76115978  0.72968025  1
  Cl  Cl11  1  0.79833550  0.03373387  -0.00026369  1
  Cl  Cl12  1  0.79977026  0.76096889  0.27065727  1
  Cl  Cl13  1  0.47140315  0.23943186  0.27044358  1
  Cl  Cl14  1  0.20159514  0.96614431  -0.00000957  1
  Cl  Cl15  1  0.20071663  0.23923607  0.72958741  1
  Cl  Cl16  1  0.79840610  0.53385764  0.00000468  1
  Cl  Cl17  1  0.52859935  0.26057023  0.72955463  1
  Cl  Cl18  1  0.79928456  0.26076587  0.27040602  1
  Cl  Cl19  1  0.20166651  0.46626500  0.00025977  1
  Cl  Cl20  1  0.47068696  0.73883796  0.27031566  1
  Cl  Cl21  1  0.20023387  0.73903112  0.72934011  1
