# generated using pymatgen
data_Al2(WO4)3
_symmetry_space_group_name_H-M   'P 1'
_cell_length_a   9.21372898
_cell_length_b   9.31313641
_cell_length_c   12.90492789
_cell_angle_alpha   90.00000000
_cell_angle_beta   89.94044572
_cell_angle_gamma   90.00000000
_symmetry_Int_Tables_number   1
_chemical_formula_structural   Al2(WO4)3
_chemical_formula_sum   'Al8 W12 O48'
_cell_volume   1107.35467951
_cell_formula_units_Z   4
loop_
 _symmetry_equiv_pos_site_id
 _symmetry_equiv_pos_as_xyz
  1  'x, y, z'
loop_
 _atom_site_type_symbol
 _atom_site_label
 _atom_site_symmetry_multiplicity
 _atom_site_fract_x
 _atom_site_fract_y
 _atom_site_fract_z
 _atom_site_occupancy
  Al  Al0  1  0.00470643  0.46762969  0.13484256  1
  Al  Al1  1  0.49540917  0.46851281  0.87167415  1
  Al  Al2  1  0.50623732  0.53604095  0.37153306  1
  Al  Al3  1  0.99586427  0.52998983  0.63630910  1
  Al  Al4  1  0.50459083  0.96851281  0.12832585  1
  Al  Al5  1  0.00413573  0.02998983  0.36369090  1
  Al  Al6  1  0.49376268  0.03604095  0.62846694  1
  Al  Al7  1  0.99529357  0.96762969  0.86515744  1
  W  W8  1  0.14728433  0.37999635  0.39842988  1
  W  W9  1  0.64014668  0.38612124  0.60920188  1
  W  W10  1  0.85271567  0.87999635  0.60157012  1
  W  W11  1  0.22337078  0.25005493  0.75167776  1
  W  W12  1  0.64091801  0.11792232  0.88976909  1
  W  W13  1  0.14520566  0.11924914  0.10071976  1
  W  W14  1  0.77662922  0.75005493  0.24832224  1
  W  W15  1  0.85479434  0.61924914  0.89928024  1
  W  W16  1  0.35985332  0.88612124  0.39079812  1
  W  W17  1  0.27191450  0.75029196  0.75055673  1
  W  W18  1  0.72808550  0.25029196  0.24944327  1
  W  W19  1  0.35908199  0.61792232  0.11023091  1
  O  O20  1  0.33418016  0.34390244  0.84610240  1
  O  O21  1  0.56925758  0.49982809  0.50741241  1
  O  O22  1  0.44087130  0.93528882  0.26798085  1
  O  O23  1  0.43074242  0.99982809  0.49258759  1
  O  O24  1  0.15317858  0.83506547  0.84435985  1
  O  O25  1  0.10362573  0.37484463  0.68957632  1
  O  O26  1  0.39441875  0.80588033  0.08466185  1
  O  O27  1  0.55597598  0.07028938  0.76856122  1
  O  O28  1  0.84057554  0.15404817  0.34074434  1
  O  O29  1  0.37883393  0.88091286  0.67943200  1
  O  O30  1  0.55912870  0.43528882  0.73201915  1
  O  O31  1  0.16541502  0.90617482  0.38108163  1
  O  O32  1  0.33902921  0.08656591  0.10235361  1
  O  O33  1  0.88297910  0.61539459  0.18268010  1
  O  O34  1  0.05630338  0.01347662  0.00148282  1
  O  O35  1  0.93634340  0.98096654  0.49739279  1
  O  O36  1  0.43142457  0.50575123  0.00783140  1
  O  O37  1  0.66525237  0.66580626  0.34691917  1
  O  O38  1  0.88391296  0.68835661  0.58681637  1
  O  O39  1  0.60558125  0.30588033  0.91533815  1
  O  O40  1  0.06940439  0.06949110  0.22416169  1
  O  O41  1  0.84682142  0.33506547  0.15564015  1
  O  O42  1  0.83496971  0.09354804  0.87770786  1
  O  O43  1  0.89637427  0.87484463  0.31042368  1
  O  O44  1  0.65927479  0.91553371  0.60628313  1
  O  O45  1  0.88282973  0.81149436  0.91405268  1
  O  O46  1  0.16503029  0.59354804  0.12229214  1
  O  O47  1  0.39605138  0.69867335  0.41671747  1
  O  O48  1  0.93592935  0.93346679  0.72197464  1
  O  O49  1  0.11608704  0.18835661  0.41318363  1
  O  O50  1  0.56857543  0.00575123  0.99216860  1
  O  O51  1  0.83458498  0.40617482  0.61891837  1
  O  O52  1  0.11702090  0.11539459  0.81731990  1
  O  O53  1  0.94369662  0.51347662  0.99851718  1
  O  O54  1  0.93059561  0.56949110  0.77583831  1
  O  O55  1  0.15942446  0.65404817  0.65925566  1
  O  O56  1  0.44402402  0.57028938  0.23143878  1
  O  O57  1  0.11717027  0.31149436  0.08594732  1
  O  O58  1  0.66097079  0.58656591  0.89764639  1
  O  O59  1  0.06365660  0.48096654  0.50260721  1
  O  O60  1  0.62116607  0.38091286  0.32056800  1
  O  O61  1  0.06407065  0.43346679  0.27802536  1
  O  O62  1  0.33474763  0.16580626  0.65308083  1
  O  O63  1  0.34072521  0.41553371  0.39371687  1
  O  O64  1  0.61248434  0.12753065  0.17898160  1
  O  O65  1  0.38751566  0.62753065  0.82101840  1
  O  O66  1  0.60394862  0.19867335  0.58328253  1
  O  O67  1  0.66581984  0.84390244  0.15389760  1
