# generated using pymatgen
data_Ca(H8O5)2
_symmetry_space_group_name_H-M   'P 1'
_cell_length_a   6.36411203
_cell_length_b   6.35353250
_cell_length_c   11.91444240
_cell_angle_alpha   95.22344499
_cell_angle_beta   101.77910395
_cell_angle_gamma   87.67570238
_symmetry_Int_Tables_number   1
_chemical_formula_structural   Ca(H8O5)2
_chemical_formula_sum   'Ca2 H32 O20'
_cell_volume   469.53299162
_cell_formula_units_Z   2
loop_
 _symmetry_equiv_pos_site_id
 _symmetry_equiv_pos_as_xyz
  1  'x, y, z'
loop_
 _atom_site_type_symbol
 _atom_site_label
 _atom_site_symmetry_multiplicity
 _atom_site_fract_x
 _atom_site_fract_y
 _atom_site_fract_z
 _atom_site_occupancy
  Ca  Ca0  1  0.03609044  0.03772259  0.48375410  1
  Ca  Ca1  1  0.96566554  0.99111814  0.01436713  1
  H  H2  1  0.08092416  0.29113350  0.28635053  1
  H  H3  1  0.28411539  0.36852315  0.38868614  1
  H  H4  1  0.92608082  0.64404790  0.33751454  1
  H  H5  1  0.72285260  0.65651953  0.39978349  1
  H  H6  1  0.60433835  0.07496115  0.38114915  1
  H  H7  1  0.64315950  0.32226317  0.39965340  1
  H  H8  1  0.31799304  0.95632120  0.33593345  1
  H  H9  1  0.38258495  0.72354866  0.38950914  1
  H  H10  1  0.95844230  0.29993265  0.85238381  1
  H  H11  1  0.72105022  0.34213831  0.88779754  1
  H  H12  1  0.06661757  0.71468445  0.80167812  1
  H  H13  1  0.26765453  0.67082107  0.90400019  1
  H  H14  1  0.28039613  0.04294952  0.85814859  1
  H  H15  1  0.37172464  0.28355356  0.88714959  1
  H  H16  1  0.66556252  0.83442116  0.80918902  1
  H  H17  1  0.61408009  0.69336511  0.90531284  1
  H  H18  1  0.74185889  0.59311614  0.59879061  1
  H  H19  1  0.04143308  0.72531989  0.63973462  1
  H  H20  1  0.19210678  0.24001617  0.70896957  1
  H  H21  1  0.05609265  0.42740269  0.64449595  1
  H  H22  1  0.40099968  0.72635418  0.59386569  1
  H  H23  1  0.43827760  0.96908402  0.62391217  1
  H  H24  1  0.72773398  0.14915848  0.70990525  1
  H  H25  1  0.61814023  0.26130615  0.60122609  1
  H  H26  1  0.17126841  0.74221094  0.20706174  1
  H  H27  1  0.03081442  0.57116404  0.12570346  1
  H  H28  1  0.73475109  0.41272031  0.08528113  1
  H  H29  1  0.10939033  0.29765164  0.13610032  1
  H  H30  1  0.62620927  0.73637878  0.11142488  1
  H  H31  1  0.72951355  0.88133052  0.22080573  1
  H  H32  1  0.40891273  0.27258959  0.08699183  1
  H  H33  1  0.45533932  0.03983311  0.12015650  1
  O  O34  1  0.54218135  0.53829132  0.43506892  1
  O  O35  1  0.53626556  0.47809814  0.93697951  1
  O  O36  1  0.57896332  0.53476557  0.56215648  1
  O  O37  1  0.58297343  0.47822038  0.06423681  1
  O  O38  1  0.16849653  0.26442261  0.36601798  1
  O  O39  1  0.83264764  0.74481466  0.37230557  1
  O  O40  1  0.71228478  0.17797323  0.38040997  1
  O  O41  1  0.26219631  0.82235444  0.35103394  1
  O  O42  1  0.82648975  0.23289034  0.86073605  1
  O  O43  1  0.14996008  0.77274049  0.88021924  1
  O  O44  1  0.24914268  0.19288202  0.84479215  1
  O  O45  1  0.66629118  0.83672101  0.89115745  1
  O  O46  1  0.94292939  0.64158301  0.66939567  1
  O  O47  1  0.13583133  0.28614001  0.62996692  1
  O  O48  1  0.32096862  0.86164879  0.60929000  1
  O  O49  1  0.66085412  0.11803585  0.62721970  1
  O  O50  1  0.10328029  0.70860476  0.12506610  1
  O  O51  1  0.96152914  0.31673107  0.14882655  1
  O  O52  1  0.66776974  0.88636319  0.13838974  1
  O  O53  1  0.33388599  0.14587064  0.10026195  1
