# generated using pymatgen
data_BaV13O18
_symmetry_space_group_name_H-M   'P 1'
_cell_length_a   7.90597051
_cell_length_b   8.01072394
_cell_length_c   8.12071434
_cell_angle_alpha   112.59034249
_cell_angle_beta   109.51473377
_cell_angle_gamma   110.92714109
_symmetry_Int_Tables_number   1
_chemical_formula_structural   BaV13O18
_chemical_formula_sum   'Ba1 V13 O18'
_cell_volume   371.44181474
_cell_formula_units_Z   1
loop_
 _symmetry_equiv_pos_site_id
 _symmetry_equiv_pos_as_xyz
  1  'x, y, z'
loop_
 _atom_site_type_symbol
 _atom_site_label
 _atom_site_symmetry_multiplicity
 _atom_site_fract_x
 _atom_site_fract_y
 _atom_site_fract_z
 _atom_site_occupancy
  Ba  Ba0  1  0.99985760  0.99576579  0.99652551  1
  V  V1  1  0.35410457  0.76806416  0.39821999  1
  V  V2  1  0.75804109  0.39405803  0.34139114  1
  V  V3  1  0.40262048  0.34400300  0.76570485  1
  V  V4  1  0.64746051  0.23102081  0.60352839  1
  V  V5  1  0.23247674  0.60034974  0.65380861  1
  V  V6  1  0.59818521  0.65776680  0.23585430  1
  V  V7  1  0.11548876  0.43147913  0.92017097  1
  V  V8  1  0.43443397  0.92694268  0.12317813  1
  V  V9  1  0.92759154  0.12703553  0.43092950  1
  V  V10  1  0.88569502  0.57059075  0.08115262  1
  V  V11  1  0.56718269  0.07586672  0.87740312  1
  V  V12  1  0.07771483  0.87885216  0.57193910  1
  V  V13  1  0.49924157  0.49848367  0.49914291  1
  O  O14  1  0.05916303  0.60751286  0.38622872  1
  O  O15  1  0.60318971  0.38521445  0.05945995  1
  O  O16  1  0.38307514  0.05110904  0.60968386  1
  O  O17  1  0.93327651  0.39029871  0.61354259  1
  O  O18  1  0.39546414  0.62115607  0.94598663  1
  O  O19  1  0.62229903  0.94955973  0.39172572  1
  O  O20  1  0.17493846  0.73605134  0.11434101  1
  O  O21  1  0.72290480  0.09950629  0.15441902  1
  O  O22  1  0.10105771  0.16200259  0.72026300  1
  O  O23  1  0.82970908  0.26340461  0.88600524  1
  O  O24  1  0.27585069  0.90314160  0.84164190  1
  O  O25  1  0.89796925  0.84144166  0.28701602  1
  O  O26  1  0.77779648  0.68185214  0.51137428  1
  O  O27  1  0.68339565  0.51564287  0.77954789  1
  O  O28  1  0.47978499  0.21190214  0.32702977  1
  O  O29  1  0.32263752  0.48037312  0.21252281  1
  O  O30  1  0.21996079  0.31523169  0.48451179  1
  O  O31  1  0.51743344  0.78432010  0.67574965  1
