# generated using pymatgen
data_Fe3O4
_symmetry_space_group_name_H-M   'P 1'
_cell_length_a   6.05716223
_cell_length_b   6.11929902
_cell_length_c   8.56245754
_cell_angle_alpha   89.59256412
_cell_angle_beta   90.00000000
_cell_angle_gamma   90.00000000
_symmetry_Int_Tables_number   1
_chemical_formula_structural   Fe3O4
_chemical_formula_sum   'Fe12 O16'
_cell_volume   317.36448960
_cell_formula_units_Z   4
loop_
 _symmetry_equiv_pos_site_id
 _symmetry_equiv_pos_as_xyz
  1  'x, y, z'
loop_
 _atom_site_type_symbol
 _atom_site_label
 _atom_site_symmetry_multiplicity
 _atom_site_fract_x
 _atom_site_fract_y
 _atom_site_fract_z
 _atom_site_occupancy
  Fe  Fe0  1  0.24800426  0.75235896  0.74711606  1
  Fe  Fe1  1  0.24800426  0.24764104  0.25288394  1
  Fe  Fe2  1  0.75199574  0.24764104  0.25288394  1
  Fe  Fe3  1  0.75199574  0.75235896  0.74711606  1
  Fe  Fe4  1  0.00000000  0.50000000  0.50000000  1
  Fe  Fe5  1  0.50000000  0.50000000  -0.00000000  1
  Fe  Fe6  1  0.50000000  -0.00000000  -0.00000000  1
  Fe  Fe7  1  0.00000000  -0.00000000  0.50000000  1
  Fe  Fe8  1  0.50000000  0.74470649  0.37220791  1
  Fe  Fe9  1  0.50000000  0.25529351  0.62779209  1
  Fe  Fe10  1  0.00000000  0.75126088  0.12627597  1
  Fe  Fe11  1  0.00000000  0.24873912  0.87372403  1
  O  O12  1  0.26996936  0.74893542  -0.00396722  1
  O  O13  1  0.26996936  0.25106458  0.00396722  1
  O  O14  1  0.73003064  0.25106458  0.00396722  1
  O  O15  1  0.73003064  0.74893542  -0.00396722  1
  O  O16  1  0.23851635  0.74147441  0.50307140  1
  O  O17  1  0.23851635  0.25852559  0.49692860  1
  O  O18  1  0.76148365  0.25852559  0.49692860  1
  O  O19  1  0.76148365  0.74147441  0.50307140  1
  O  O20  1  0.50000000  0.00280309  0.24081733  1
  O  O21  1  0.50000000  0.99719691  0.75918267  1
  O  O22  1  0.50000000  0.51142515  0.76127354  1
  O  O23  1  0.50000000  0.48857485  0.23872646  1
  O  O24  1  0.00000000  0.49513972  0.25855063  1
  O  O25  1  0.00000000  0.50486028  0.74144937  1
  O  O26  1  0.00000000  0.98892902  0.75356249  1
  O  O27  1  0.00000000  0.01107098  0.24643751  1
