# generated using pymatgen
data_Li9Mn2Co5O16
_symmetry_space_group_name_H-M   'P 1'
_cell_length_a   2.86912789
_cell_length_b   19.56468649
_cell_length_c   5.22645734
_cell_angle_alpha   97.47185215
_cell_angle_beta   90.00000000
_cell_angle_gamma   90.00000000
_symmetry_Int_Tables_number   1
_chemical_formula_structural   Li9Mn2Co5O16
_chemical_formula_sum   'Li9 Mn2 Co5 O16'
_cell_volume   290.88867396
_cell_formula_units_Z   1
loop_
 _symmetry_equiv_pos_site_id
 _symmetry_equiv_pos_as_xyz
  1  'x, y, z'
loop_
 _atom_site_type_symbol
 _atom_site_label
 _atom_site_symmetry_multiplicity
 _atom_site_fract_x
 _atom_site_fract_y
 _atom_site_fract_z
 _atom_site_occupancy
  Li  Li0  1  0.50000000  0.00126199  0.50422153  1
  Li  Li1  1  -0.00000000  0.12896584  0.75345601  1
  Li  Li2  1  0.50000000  0.25359488  0.00583982  1
  Li  Li3  1  -0.00000000  0.37613608  0.25751107  1
  Li  Li4  1  0.50000000  0.49937397  0.49992793  1
  Li  Li5  1  -0.00000000  0.87379248  0.24614327  1
  Li  Li6  1  0.50000000  0.74582532  0.99044766  1
  Li  Li7  1  -0.00000000  0.62174278  0.73910058  1
  Li  Li8  1  -0.00000000  0.49882810  0.99649754  1
  Mn  Mn9  1  -0.00000000  0.00266258  0.00562842  1
  Mn  Mn10  1  0.50000000  0.87204631  0.74125480  1
  Co  Co11  1  0.50000000  0.12889883  0.26888316  1
  Co  Co12  1  0.00000000  0.25429067  0.51278200  1
  Co  Co13  1  0.50000000  0.38364736  0.77920797  1
  Co  Co14  1  0.50000000  0.61547707  0.21200731  1
  Co  Co15  1  -0.00000000  0.74579439  0.48477094  1
  O  O16  1  0.50000000  0.94383539  0.11712697  1
  O  O17  1  -0.00000000  0.07169809  0.36907272  1
  O  O18  1  0.50000000  0.19314383  0.62813122  1
  O  O19  1  -0.00000000  0.31688490  0.85436193  1
  O  O20  1  0.50000000  0.43117717  0.09470374  1
  O  O21  1  0.00000000  0.81643169  0.86331332  1
  O  O22  1  0.50000000  0.69227563  0.60132246  1
  O  O23  1  -0.00000000  0.56870546  0.36580473  1
  O  O24  1  0.50000000  0.05777758  0.88351017  1
  O  O25  1  -0.00000000  0.18463471  0.15806728  1
  O  O26  1  0.50000000  0.30899207  0.39260218  1
  O  O27  1  0.00000000  0.43206971  0.62908010  1
  O  O28  1  0.50000000  0.56754833  0.89839843  1
  O  O29  1  0.00000000  0.92923776  0.62586348  1
  O  O30  1  0.50000000  0.80255390  0.37969612  1
  O  O31  1  -0.00000000  0.68069511  0.14126515  1
