# generated using pymatgen
data_MnAlO3
_symmetry_space_group_name_H-M   'P 1'
_cell_length_a   4.87401429
_cell_length_b   4.95994248
_cell_length_c   8.30327849
_cell_angle_alpha   89.98858147
_cell_angle_beta   90.00935406
_cell_angle_gamma   89.99903715
_symmetry_Int_Tables_number   1
_chemical_formula_structural   MnAlO3
_chemical_formula_sum   'Mn4 Al4 O12'
_cell_volume   200.73034367
_cell_formula_units_Z   4
loop_
 _symmetry_equiv_pos_site_id
 _symmetry_equiv_pos_as_xyz
  1  'x, y, z'
loop_
 _atom_site_type_symbol
 _atom_site_label
 _atom_site_symmetry_multiplicity
 _atom_site_fract_x
 _atom_site_fract_y
 _atom_site_fract_z
 _atom_site_occupancy
  Mn  Mn0  1  0.00002154  0.50009133  0.50008238  1
  Mn  Mn1  1  0.50005642  0.00004806  0.49991531  1
  Mn  Mn2  1  0.49993908  0.99999497  0.00007461  1
  Mn  Mn3  1  0.00003373  0.49994547  0.00016446  1
  Al  Al4  1  0.98357528  0.00808340  0.75001128  1
  Al  Al5  1  0.48356670  0.49187012  0.25001604  1
  Al  Al6  1  0.51635441  0.50809275  0.75005874  1
  Al  Al7  1  0.01644243  0.99188074  0.24999098  1
  O  O8  1  0.66068170  0.32669201  0.41488532  1
  O  O9  1  0.16056339  0.17329541  0.58504708  1
  O  O10  1  0.83941586  0.82665751  0.08511840  1
  O  O11  1  0.33933659  0.67340527  0.91491093  1
  O  O12  1  0.33951831  0.67338587  0.58505720  1
  O  O13  1  0.83942926  0.82666266  0.41483378  1
  O  O14  1  0.16057902  0.17340686  0.91490696  1
  O  O15  1  0.66052155  0.32665039  0.08516521  1
  O  O16  1  0.14941975  0.33285607  0.24989466  1
  O  O17  1  0.64937243  0.16707225  0.74999016  1
  O  O18  1  0.35059503  0.83285223  0.24994982  1
  O  O19  1  0.85057753  0.66705661  0.74992667  1
