# generated using pymatgen
data_Li9Mn2Co5O16
_symmetry_space_group_name_H-M   'P 1'
_cell_length_a   2.88371321
_cell_length_b   5.21882051
_cell_length_c   19.56176124
_cell_angle_alpha   98.63517667
_cell_angle_beta   90.00000000
_cell_angle_gamma   90.00000000
_symmetry_Int_Tables_number   1
_chemical_formula_structural   Li9Mn2Co5O16
_chemical_formula_sum   'Li9 Mn2 Co5 O16'
_cell_volume   291.05916001
_cell_formula_units_Z   1
loop_
 _symmetry_equiv_pos_site_id
 _symmetry_equiv_pos_as_xyz
  1  'x, y, z'
loop_
 _atom_site_type_symbol
 _atom_site_label
 _atom_site_symmetry_multiplicity
 _atom_site_fract_x
 _atom_site_fract_y
 _atom_site_fract_z
 _atom_site_occupancy
  Li  Li0  1  0.50000000  0.26210964  0.13037523  1
  Li  Li1  1  0.50000000  0.74032729  0.37383319  1
  Li  Li2  1  0.50000000  0.25467233  0.62377542  1
  Li  Li3  1  0.50000000  0.74518673  0.87257382  1
  Li  Li4  1  -0.00000000  0.76499357  0.13154270  1
  Li  Li5  1  -0.00000000  0.24416296  0.37058995  1
  Li  Li6  1  -0.00000000  0.74357919  0.62507845  1
  Li  Li7  1  -0.00000000  0.24582512  0.87232973  1
  Li  Li8  1  -0.00000000  0.50080789  0.25106353  1
  Mn  Mn9  1  -0.00000000  0.00328596  0.00036685  1
  Mn  Mn10  1  0.50000000  0.50416945  0.00203551  1
  Co  Co11  1  -0.00000000  0.99830434  0.49963638  1
  Co  Co12  1  -0.00000000  0.49862604  0.74926639  1
  Co  Co13  1  0.50000000  0.99933714  0.25063493  1
  Co  Co14  1  0.50000000  0.49733571  0.49803785  1
  Co  Co15  1  0.50000000  0.99901592  0.74914399  1
  O  O16  1  0.50000000  0.90281940  0.05905244  1
  O  O17  1  0.50000000  0.31318394  0.30335017  1
  O  O18  1  0.50000000  0.87619445  0.55280934  1
  O  O19  1  0.50000000  0.37070142  0.80652755  1
  O  O20  1  0.00000000  0.40306115  0.06156978  1
  O  O21  1  -0.00000000  0.88732427  0.30559557  1
  O  O22  1  -0.00000000  0.38697483  0.55862885  1
  O  O23  1  -0.00000000  0.86945284  0.80783925  1
  O  O24  1  0.50000000  0.68495251  0.19764167  1
  O  O25  1  0.50000000  0.11797087  0.44612229  1
  O  O26  1  0.50000000  0.62809663  0.69265047  1
  O  O27  1  0.50000000  0.10540721  0.94190517  1
  O  O28  1  -0.00000000  0.11294973  0.19573896  1
  O  O29  1  -0.00000000  0.61040998  0.43684854  1
  O  O30  1  -0.00000000  0.12770224  0.69083261  1
  O  O31  1  -0.00000000  0.60105921  0.94260341  1
