# generated using pymatgen
data_Fe2NiB
_symmetry_space_group_name_H-M   'P 1'
_cell_length_a   6.37431744
_cell_length_b   6.37431744
_cell_length_c   6.37431744
_cell_angle_alpha   96.23032683
_cell_angle_beta   96.23032683
_cell_angle_gamma   141.53137298
_symmetry_Int_Tables_number   1
_chemical_formula_structural   Fe2NiB
_chemical_formula_sum   'Fe8 Ni4 B4'
_cell_volume   152.12687832
_cell_formula_units_Z   4
loop_
 _symmetry_equiv_pos_site_id
 _symmetry_equiv_pos_as_xyz
  1  'x, y, z'
loop_
 _atom_site_type_symbol
 _atom_site_label
 _atom_site_symmetry_multiplicity
 _atom_site_fract_x
 _atom_site_fract_y
 _atom_site_fract_z
 _atom_site_occupancy
  Fe  Fe0  1  0.01562924  0.35149031  0.38647629  1
  Fe  Fe1  1  0.96501303  0.62915195  0.61352471  1
  Fe  Fe2  1  0.64850969  0.03498597  0.66413992  1
  Fe  Fe3  1  0.37084705  0.98437076  0.33586108  1
  Fe  Fe4  1  0.35337898  0.33017185  0.19043586  1
  Fe  Fe5  1  0.13973499  0.16294312  0.80956314  1
  Fe  Fe6  1  0.66982915  0.86026501  0.02320713  1
  Fe  Fe7  1  0.83705688  0.64662002  0.97679087  1
  Ni  Ni8  1  0.95334168  0.91589977  0.39408334  1
  Ni  Ni9  1  0.52181643  0.55925835  0.60591766  1
  Ni  Ni10  1  0.08410123  0.47818457  0.03744191  1
  Ni  Ni11  1  0.44074165  0.04665932  0.96255809  1
  B  B12  1  0.52540713  0.78167357  0.32966080  1
  B  B13  1  0.45201177  0.19574433  0.67033820  1
  B  B14  1  0.21832543  0.54798623  0.74373056  1
  B  B15  1  0.80425567  0.47459387  0.25626644  1
