# generated using pymatgen
data_Mg16Al12Si
_symmetry_space_group_name_H-M   'P 1'
_cell_length_a   9.17088954
_cell_length_b   9.06850320
_cell_length_c   9.06850291
_cell_angle_alpha   109.24138372
_cell_angle_beta   109.70010023
_cell_angle_gamma   109.70009998
_symmetry_Int_Tables_number   1
_chemical_formula_structural   Mg16Al12Si
_chemical_formula_sum   'Mg16 Al12 Si1'
_cell_volume   578.93017038
_cell_formula_units_Z   1
loop_
 _symmetry_equiv_pos_site_id
 _symmetry_equiv_pos_as_xyz
  1  'x, y, z'
loop_
 _atom_site_type_symbol
 _atom_site_label
 _atom_site_symmetry_multiplicity
 _atom_site_fract_x
 _atom_site_fract_y
 _atom_site_fract_z
 _atom_site_occupancy
  Mg  Mg0  1  0.31743007  0.59836088  1.00000000  1
  Mg  Mg1  1  0.99568757  0.99999900  0.00000000  1
  Mg  Mg2  1  0.00285348  0.34821664  0.00000000  1
  Mg  Mg3  1  0.58564788  0.29015177  0.00000100  1
  Mg  Mg4  1  0.68331593  0.68061187  0.27907148  1
  Mg  Mg5  1  0.58564788  1.00000000  0.29015277  1
  Mg  Mg6  1  0.00270306  0.59845960  0.31938713  1
  Mg  Mg7  1  0.00285348  0.00000000  0.34821664  1
  Mg  Mg8  1  0.40424545  0.72092952  0.40154240  1
  Mg  Mg9  1  0.71906919  0.40163912  0.40163912  1
  Mg  Mg10  1  0.31742907  -0.00000000  0.59836188  1
  Mg  Mg11  1  0.00270306  0.31938713  0.59845960  1
  Mg  Mg12  1  0.65463484  0.65178236  0.65178236  1
  Mg  Mg13  1  0.68331593  0.27907148  0.68061187  1
  Mg  Mg14  1  0.29549711  0.70984823  0.70984923  1
  Mg  Mg15  1  0.40424545  0.40154140  0.72092952  1
  Al  Al16  1  0.64226957  0.81131887  1.00000000  1
  Al  Al17  1  0.81449603  0.62282577  0.00000000  1
  Al  Al18  1  0.36862632  0.36803885  0.18332913  1
  Al  Al19  1  0.18529620  0.81666887  0.18470773  1
  Al  Al20  1  0.83094870  0.18868013  0.18868013  1
  Al  Al21  1  0.36862632  0.18333013  0.36803885  1
  Al  Al22  1  0.19167026  0.37717523  0.37717523  1
  Al  Al23  1  0.81449503  0.00000100  0.62282577  1
  Al  Al24  1  0.00058747  0.81529127  0.63196115  1
  Al  Al25  1  0.64226957  1.00000000  0.81131987  1
  Al  Al26  1  0.00058747  0.63196215  0.81529127  1
  Al  Al27  1  0.18529520  0.18470773  0.81666887  1
  Si  Si28  1  0.29755339  0.00000100  1.00000000  1
