# generated using pymatgen
data_Mg16Al12Hg
_symmetry_space_group_name_H-M   'P 1'
_cell_length_a   9.29331742
_cell_length_b   9.10012281
_cell_length_c   9.10012319
_cell_angle_alpha   109.03717515
_cell_angle_beta   109.90185150
_cell_angle_gamma   109.90185258
_symmetry_Int_Tables_number   1
_chemical_formula_structural   Mg16Al12Hg
_chemical_formula_sum   'Mg16 Al12 Hg1'
_cell_volume   589.26097618
_cell_formula_units_Z   1
loop_
 _symmetry_equiv_pos_site_id
 _symmetry_equiv_pos_as_xyz
  1  'x, y, z'
loop_
 _atom_site_type_symbol
 _atom_site_label
 _atom_site_symmetry_multiplicity
 _atom_site_fract_x
 _atom_site_fract_y
 _atom_site_fract_z
 _atom_site_occupancy
  Mg  Mg0  1  0.00131868  0.34570355  0.99999900  1
  Mg  Mg1  1  0.31458508  0.60295585  0.00000000  1
  Mg  Mg2  1  0.00577434  -0.00000000  0.00000100  1
  Mg  Mg3  1  0.59687741  0.30215098  0.00000100  1
  Mg  Mg4  1  0.68033108  0.68069821  0.27890825  1
  Mg  Mg5  1  0.59687841  0.00000100  0.30214998  1
  Mg  Mg6  1  0.99963387  0.59821004  0.31930279  1
  Mg  Mg7  1  0.00131868  0.00000000  0.34570255  1
  Mg  Mg8  1  0.71162923  0.39704515  0.39704515  1
  Mg  Mg9  1  0.40142482  0.72109375  0.40179096  1
  Mg  Mg10  1  0.99963487  0.31930179  0.59821004  1
  Mg  Mg11  1  0.31458408  -0.00000000  0.60295585  1
  Mg  Mg12  1  0.65561513  0.65429645  0.65429645  1
  Mg  Mg13  1  0.68033208  0.27890825  0.68069821  1
  Mg  Mg14  1  0.29472743  0.69785002  0.69785002  1
  Mg  Mg15  1  0.40142482  0.40179096  0.72109375  1
  Al  Al16  1  0.81520893  0.62788159  0.99999900  1
  Al  Al17  1  0.64180303  0.81249847  0.00000100  1
  Al  Al18  1  0.36511820  0.37217737  0.18448189  1
  Al  Al19  1  0.82930256  0.18750153  0.18750053  1
  Al  Al20  1  0.18063431  0.81551611  0.18769347  1
  Al  Al21  1  0.18732734  0.37211941  0.37211841  1
  Al  Al22  1  0.36511820  0.18448189  0.37217637  1
  Al  Al23  1  0.99294183  0.81230653  0.62782363  1
  Al  Al24  1  0.81520793  1.00000000  0.62788259  1
  Al  Al25  1  0.99294183  0.62782363  0.81230653  1
  Al  Al26  1  0.64180303  -0.00000000  0.81249847  1
  Al  Al27  1  0.18063431  0.18769447  0.81551611  1
  Hg  Hg28  1  0.33587247  0.00000000  0.99999900  1
