# generated using pymatgen
data_Hf(Mg4Al3)4
_symmetry_space_group_name_H-M   'P 1'
_cell_length_a   8.81344683
_cell_length_b   9.16476325
_cell_length_c   9.16476447
_cell_angle_alpha   110.23467760
_cell_angle_beta   108.69652799
_cell_angle_gamma   108.69651753
_symmetry_Int_Tables_number   1
_chemical_formula_structural   Hf(Mg4Al3)4
_chemical_formula_sum   'Hf1 Mg16 Al12'
_cell_volume   575.21427836
_cell_formula_units_Z   1
loop_
 _symmetry_equiv_pos_site_id
 _symmetry_equiv_pos_as_xyz
  1  'x, y, z'
loop_
 _atom_site_type_symbol
 _atom_site_label
 _atom_site_symmetry_multiplicity
 _atom_site_fract_x
 _atom_site_fract_y
 _atom_site_fract_z
 _atom_site_occupancy
  Hf  Hf0  1  0.37132837  0.00000000  1.00000000  1
  Mg  Mg1  1  0.60439435  0.32584152  0.00000000  1
  Mg  Mg2  1  0.00311318  0.00000100  0.00000000  1
  Mg  Mg3  1  0.99539516  0.33950070  0.00000100  1
  Mg  Mg4  1  0.31552206  0.59540528  1.00000000  1
  Mg  Mg5  1  0.68865741  0.68723434  0.29464039  1
  Mg  Mg6  1  0.00142406  0.60740604  0.31276566  1
  Mg  Mg7  1  0.60439335  0.00000000  0.32584152  1
  Mg  Mg8  1  0.99539516  0.00000000  0.33950170  1
  Mg  Mg9  1  0.39401902  0.70535961  0.39259496  1
  Mg  Mg10  1  0.72011678  0.40459472  0.40459472  1
  Mg  Mg11  1  0.31552206  1.00000000  0.59540528  1
  Mg  Mg12  1  0.00142306  0.31276566  0.60740604  1
  Mg  Mg13  1  0.65589246  0.66049830  0.66049730  1
  Mg  Mg14  1  0.27855283  0.67415848  0.67415848  1
  Mg  Mg15  1  0.68865841  0.29464039  0.68723434  1
  Mg  Mg16  1  0.39401802  0.39259496  0.70535961  1
  Al  Al17  1  0.80920666  0.63544245  0.00000000  1
  Al  Al18  1  0.62371189  0.81868654  0.00000000  1
  Al  Al19  1  0.36626116  0.35801214  0.17698906  1
  Al  Al20  1  0.18927010  0.82300994  0.18102208  1
  Al  Al21  1  0.80502336  0.18131246  0.18131246  1
  Al  Al22  1  0.36626116  0.17698906  0.35801214  1
  Al  Al23  1  0.17376121  0.36455655  0.36455655  1
  Al  Al24  1  0.80920566  1.00000000  0.63544345  1
  Al  Al25  1  0.00824903  0.81897792  0.64198886  1
  Al  Al26  1  0.62371189  0.00000000  0.81868654  1
  Al  Al27  1  0.00824903  0.64198886  0.81897792  1
  Al  Al28  1  0.18927110  0.18102308  0.82301094  1
