# generated using pymatgen
data_Li9Mn2Co5O16
_symmetry_space_group_name_H-M   'P 1'
_cell_length_a   2.88578076
_cell_length_b   17.31525603
_cell_length_c   5.86546923
_cell_angle_alpha   89.63827708
_cell_angle_beta   90.00000000
_cell_angle_gamma   90.00000000
_symmetry_Int_Tables_number   1
_chemical_formula_structural   Li9Mn2Co5O16
_chemical_formula_sum   'Li9 Mn2 Co5 O16'
_cell_volume   293.08011753
_cell_formula_units_Z   1
loop_
 _symmetry_equiv_pos_site_id
 _symmetry_equiv_pos_as_xyz
  1  'x, y, z'
loop_
 _atom_site_type_symbol
 _atom_site_label
 _atom_site_symmetry_multiplicity
 _atom_site_fract_x
 _atom_site_fract_y
 _atom_site_fract_z
 _atom_site_occupancy
  Li  Li0  1  0.50000000  0.13468079  0.25342793  1
  Li  Li1  1  0.50000000  0.37700684  0.74913272  1
  Li  Li2  1  0.50000000  0.61750160  0.24840052  1
  Li  Li3  1  0.00000000  0.26556567  0.00488597  1
  Li  Li4  1  -0.00000000  0.49089056  0.49633161  1
  Li  Li5  1  -0.00000000  0.73790828  0.00436197  1
  Li  Li6  1  0.50000000  0.86980810  0.74816003  1
  Li  Li7  1  -0.00000000  0.00574627  0.49860409  1
  Li  Li8  1  0.50000000  0.37589599  0.24967063  1
  Mn  Mn9  1  0.00000000  0.00372657  0.99758099  1
  Mn  Mn10  1  0.50000000  0.87339393  0.25633449  1
  Co  Co11  1  -0.00000000  0.26641057  0.49108370  1
  Co  Co12  1  0.00000000  0.48620533  0.00780921  1
  Co  Co13  1  -0.00000000  0.74174701  0.50212940  1
  Co  Co14  1  0.50000000  0.61965036  0.76041302  1
  Co  Co15  1  0.50000000  0.13285732  0.73610083  1
  O  O16  1  0.50000000  0.00495353  0.21866530  1
  O  O17  1  0.50000000  0.24528953  0.73304680  1
  O  O18  1  0.50000000  0.49964708  0.22630584  1
  O  O19  1  0.00000000  0.11489110  0.97827712  1
  O  O20  1  0.00000000  0.36987556  0.50312067  1
  O  O21  1  -0.00000000  0.62300285  0.98267437  1
  O  O22  1  0.50000000  0.74862768  0.73452828  1
  O  O23  1  -0.00000000  0.87595985  0.48162919  1
  O  O24  1  0.50000000  0.25036831  0.26881923  1
  O  O25  1  0.50000000  0.50280542  0.77326813  1
  O  O26  1  0.50000000  0.74926417  0.26688706  1
  O  O27  1  0.00000000  0.38222663  0.99688827  1
  O  O28  1  -0.00000000  0.62643002  0.51768908  1
  O  O29  1  0.00000000  0.88657323  0.02496890  1
  O  O30  1  0.50000000  0.99877120  0.77584122  1
  O  O31  1  0.00000000  0.12231865  0.51296342  1
