# generated using pymatgen
data_Mg16ZrAl12
_symmetry_space_group_name_H-M   'P 1'
_cell_length_a   8.76310923
_cell_length_b   9.21027804
_cell_length_c   9.21027775
_cell_angle_alpha   110.43375427
_cell_angle_beta   108.49062665
_cell_angle_gamma   108.49062917
_symmetry_Int_Tables_number   1
_chemical_formula_structural   Mg16ZrAl12
_chemical_formula_sum   'Mg16 Zr1 Al12'
_cell_volume   579.02198073
_cell_formula_units_Z   1
loop_
 _symmetry_equiv_pos_site_id
 _symmetry_equiv_pos_as_xyz
  1  'x, y, z'
loop_
 _atom_site_type_symbol
 _atom_site_label
 _atom_site_symmetry_multiplicity
 _atom_site_fract_x
 _atom_site_fract_y
 _atom_site_fract_z
 _atom_site_occupancy
  Mg  Mg0  1  0.99506602  0.33972713  0.00000000  1
  Mg  Mg1  1  0.00311519  1.00000000  1.00000000  1
  Mg  Mg2  1  0.60487699  0.32626600  0.00000000  1
  Mg  Mg3  1  0.31482395  0.59480168  1.00000000  1
  Mg  Mg4  1  0.68913274  0.68775756  0.29498943  1
  Mg  Mg5  1  0.00137518  0.60723087  0.31224144  1
  Mg  Mg6  1  0.60487699  0.00000000  0.32626500  1
  Mg  Mg7  1  0.99506702  0.00000000  0.33972613  1
  Mg  Mg8  1  0.39414531  0.70501157  0.39277013  1
  Mg  Mg9  1  0.72002327  0.40519832  0.40519832  1
  Mg  Mg10  1  0.31482495  1.00000000  0.59480268  1
  Mg  Mg11  1  0.00137518  0.31224144  0.60723087  1
  Mg  Mg12  1  0.65533789  0.66027187  0.66027187  1
  Mg  Mg13  1  0.27861199  0.67373500  0.67373500  1
  Mg  Mg14  1  0.68913274  0.29498843  0.68775756  1
  Mg  Mg15  1  0.39414531  0.39277013  0.70501157  1
  Zr  Zr16  1  0.37115250  -0.00000000  -0.00000000  1
  Al  Al17  1  0.62570696  0.81972055  0.00000000  1
  Al  Al18  1  0.80920959  0.63446200  0.00000000  1
  Al  Al19  1  0.36583892  0.35838434  0.17795406  1
  Al  Al20  1  0.18788286  0.82204394  0.18042928  1
  Al  Al21  1  0.80598541  0.18027945  0.18027845  1
  Al  Al22  1  0.36583892  0.17795506  0.35838434  1
  Al  Al23  1  0.17474759  0.36554000  0.36553900  1
  Al  Al24  1  0.80920959  0.00000000  0.63446100  1
  Al  Al25  1  0.00745458  0.81957172  0.64161666  1
  Al  Al26  1  0.62570796  0.99999900  0.81972055  1
  Al  Al27  1  0.00745458  0.64161666  0.81957072  1
  Al  Al28  1  0.18788286  0.18042928  0.82204394  1
