# generated using pymatgen
data_ErMoC2
_symmetry_space_group_name_H-M   'P 1'
_cell_length_a   3.36321898
_cell_length_b   5.67741949
_cell_length_c   10.76234663
_cell_angle_alpha   90.00000000
_cell_angle_beta   90.00000000
_cell_angle_gamma   90.00000000
_symmetry_Int_Tables_number   1
_chemical_formula_structural   ErMoC2
_chemical_formula_sum   'Er4 Mo4 C8'
_cell_volume   205.50060515
_cell_formula_units_Z   4
loop_
 _symmetry_equiv_pos_site_id
 _symmetry_equiv_pos_as_xyz
  1  'x, y, z'
loop_
 _atom_site_type_symbol
 _atom_site_label
 _atom_site_symmetry_multiplicity
 _atom_site_fract_x
 _atom_site_fract_y
 _atom_site_fract_z
 _atom_site_occupancy
  Er  Er0  1  0.75000000  0.41474258  0.63745794  1
  Er  Er1  1  0.75000000  0.91474258  0.86254206  1
  Er  Er2  1  0.25000000  0.58525742  0.36254206  1
  Er  Er3  1  0.25000000  0.08525742  0.13745794  1
  Mo  Mo4  1  0.75000000  0.09883752  0.39072294  1
  Mo  Mo5  1  0.75000000  0.59883752  0.10927706  1
  Mo  Mo6  1  0.25000000  0.90116248  0.60927706  1
  Mo  Mo7  1  0.25000000  0.40116248  0.89072294  1
  C  C8  1  0.75000000  0.34083270  0.25308919  1
  C  C9  1  0.75000000  0.84083270  0.24691081  1
  C  C10  1  0.25000000  0.65916730  0.74691081  1
  C  C11  1  0.25000000  0.15916730  0.75308919  1
  C  C12  1  0.75000000  0.77236601  0.51349199  1
  C  C13  1  0.75000000  0.27236601  0.98650801  1
  C  C14  1  0.25000000  0.22763399  0.48650801  1
  C  C15  1  0.25000000  0.72763399  0.01349199  1
