# generated using pymatgen
data_Li9Mn2Co5O16
_symmetry_space_group_name_H-M   'P 1'
_cell_length_a   2.88690020
_cell_length_b   19.33236202
_cell_length_c   5.19868684
_cell_angle_alpha   90.97604718
_cell_angle_beta   89.99999989
_cell_angle_gamma   85.71802950
_symmetry_Int_Tables_number   1
_chemical_formula_structural   Li9Mn2Co5O16
_chemical_formula_sum   'Li9 Mn2 Co5 O16'
_cell_volume   289.28973477
_cell_formula_units_Z   1
loop_
 _symmetry_equiv_pos_site_id
 _symmetry_equiv_pos_as_xyz
  1  'x, y, z'
loop_
 _atom_site_type_symbol
 _atom_site_label
 _atom_site_symmetry_multiplicity
 _atom_site_fract_x
 _atom_site_fract_y
 _atom_site_fract_z
 _atom_site_occupancy
  Li  Li0  1  0.43404910  0.13190181  0.19751055  1
  Li  Li1  1  0.31418718  0.37162564  0.55669896  1
  Li  Li2  1  0.18881278  0.62237443  0.93611932  1
  Li  Li3  1  0.06179471  0.87641058  0.31412251  1
  Li  Li4  1  0.93426881  0.13146238  0.70017258  1
  Li  Li5  1  0.81511299  0.36977402  0.04934244  1
  Li  Li6  1  0.68814917  0.62370165  0.43691777  1
  Li  Li7  1  0.56316647  0.87366706  0.81302185  1
  Li  Li8  1  0.87461810  0.25076380  0.37554702  1
  Mn  Mn9  1  0.99958423  0.00083153  0.00329588  1
  Mn  Mn10  1  0.62519127  0.74961747  0.12441848  1
  Co  Co11  1  0.75065419  0.49869162  0.74753455  1
  Co  Co12  1  0.49889675  0.00220650  0.50409453  1
  Co  Co13  1  0.37482189  0.25035623  0.87450067  1
  Co  Co14  1  0.25089868  0.49820265  0.24780980  1
  Co  Co15  1  0.12527487  0.74945026  0.62394772  1
  O  O16  1  0.47101111  0.05797778  0.86762066  1
  O  O17  1  0.34825864  0.30348272  0.16241224  1
  O  O18  1  0.22173286  0.55653429  0.59203085  1
  O  O19  1  0.09591329  0.80817341  0.98866947  1
  O  O20  1  0.97084108  0.05831783  0.36875027  1
  O  O21  1  0.84713019  0.30573962  0.73039274  1
  O  O22  1  0.72186814  0.55626373  0.09401139  1
  O  O23  1  0.59656821  0.80686358  0.49596489  1
  O  O24  1  0.40165994  0.19668012  0.58497871  1
  O  O25  1  0.27875631  0.44248738  0.90115316  1
  O  O26  1  0.15417355  0.69165291  0.26003065  1
  O  O27  1  0.02769895  0.94460211  0.63395279  1
  O  O28  1  0.90268865  0.19462270  0.01864264  1
  O  O29  1  0.77977732  0.44044536  0.40246227  1
  O  O30  1  0.65357828  0.69284345  0.75364380  1
  O  O31  1  0.52886230  0.94227539  0.14022884  1
