# generated using pymatgen
data_LiV2O5
_symmetry_space_group_name_H-M   'P 1'
_cell_length_a   3.60719506
_cell_length_b   4.85049874
_cell_length_c   11.47473916
_cell_angle_alpha   90.00000000
_cell_angle_beta   90.00000000
_cell_angle_gamma   90.00000000
_symmetry_Int_Tables_number   1
_chemical_formula_structural   LiV2O5
_chemical_formula_sum   'Li2 V4 O10'
_cell_volume   200.77001236
_cell_formula_units_Z   2
loop_
 _symmetry_equiv_pos_site_id
 _symmetry_equiv_pos_as_xyz
  1  'x, y, z'
loop_
 _atom_site_type_symbol
 _atom_site_label
 _atom_site_symmetry_multiplicity
 _atom_site_fract_x
 _atom_site_fract_y
 _atom_site_fract_z
 _atom_site_occupancy
  Li  Li0  1  -0.00000000  0.70755454  0.71291299  1
  Li  Li1  1  0.50000000  0.29244546  0.21291299  1
  V  V2  1  0.00000000  0.87576873  0.09817531  1
  V  V3  1  0.50000000  0.12423127  0.59817531  1
  V  V4  1  0.50000000  0.09216908  0.89926613  1
  V  V5  1  0.00000000  0.90783092  0.39926613  1
  O  O6  1  0.00000000  0.53940078  0.12311415  1
  O  O7  1  0.50000000  0.46059922  0.62311415  1
  O  O8  1  0.50000000  0.42523361  0.88294140  1
  O  O9  1  -0.00000000  0.57476639  0.38294140  1
  O  O10  1  0.00000000  0.97878045  0.92790867  1
  O  O11  1  0.50000000  0.02121955  0.42790867  1
  O  O12  1  0.50000000  0.02380818  0.07313160  1
  O  O13  1  0.00000000  0.97619182  0.57313160  1
  O  O14  1  0.50000000  0.95719714  0.75384975  1
  O  O15  1  0.00000000  0.04280286  0.25384975  1
