# generated using pymatgen
data_LiFeSiO4
_symmetry_space_group_name_H-M   'P 1'
_cell_length_a   5.04471597
_cell_length_b   6.66985295
_cell_length_c   10.11922307
_cell_angle_alpha   90.67559506
_cell_angle_beta   90.00000000
_cell_angle_gamma   90.00000000
_symmetry_Int_Tables_number   1
_chemical_formula_structural   LiFeSiO4
_chemical_formula_sum   'Li4 Fe4 Si4 O16'
_cell_volume   340.46302713
_cell_formula_units_Z   4
loop_
 _symmetry_equiv_pos_site_id
 _symmetry_equiv_pos_as_xyz
  1  'x, y, z'
loop_
 _atom_site_type_symbol
 _atom_site_label
 _atom_site_symmetry_multiplicity
 _atom_site_fract_x
 _atom_site_fract_y
 _atom_site_fract_z
 _atom_site_occupancy
  Li  Li0  1  0.33673231  0.51128207  0.85095420  1
  Li  Li1  1  0.16326769  0.01128207  0.35095420  1
  Li  Li2  1  0.66326769  0.48871793  0.14904580  1
  Li  Li3  1  0.83673231  0.98871793  0.64904580  1
  Fe  Fe4  1  0.66547011  0.00277817  0.16790461  1
  Fe  Fe5  1  0.83452989  0.50277817  0.66790461  1
  Fe  Fe6  1  0.33452989  0.99722183  0.83209539  1
  Fe  Fe7  1  0.16547011  0.49722183  0.33209539  1
  Si  Si8  1  0.66140647  0.25572445  0.42235232  1
  Si  Si9  1  0.83859353  0.75572445  0.92235232  1
  Si  Si10  1  0.33859353  0.74427555  0.57764768  1
  Si  Si11  1  0.16140647  0.24427555  0.07764768  1
  O  O12  1  0.75116440  0.25626528  0.57935920  1
  O  O13  1  0.74883560  0.75626528  0.07935920  1
  O  O14  1  0.24883560  0.74373472  0.42064080  1
  O  O15  1  0.25116440  0.24373472  0.92064080  1
  O  O16  1  0.26518001  0.45496585  0.15021484  1
  O  O17  1  0.23481999  0.95496585  0.65021484  1
  O  O18  1  0.73481999  0.54503415  0.84978516  1
  O  O19  1  0.76518001  0.04503415  0.34978516  1
  O  O20  1  0.70546509  0.94871110  0.84388595  1
  O  O21  1  0.79453491  0.44871110  0.34388595  1
  O  O22  1  0.29453491  0.05128890  0.15611405  1
  O  O23  1  0.20546509  0.55128890  0.65611405  1
  O  O24  1  0.66316585  0.72713983  0.59144546  1
  O  O25  1  0.83683415  0.22713983  0.09144546  1
  O  O26  1  0.33683415  0.27286017  0.40855454  1
  O  O27  1  0.16316585  0.77286017  0.90855454  1
