# generated using pymatgen
data_CdH3Cl3O
_symmetry_space_group_name_H-M   'P 1'
_cell_length_a   4.07502562
_cell_length_b   8.49162227
_cell_length_c   15.74793846
_cell_angle_alpha   90.00000000
_cell_angle_beta   90.00000000
_cell_angle_gamma   90.00000000
_symmetry_Int_Tables_number   1
_chemical_formula_structural   CdH3Cl3O
_chemical_formula_sum   'Cd4 H12 Cl12 O4'
_cell_volume   544.93502165
_cell_formula_units_Z   4
loop_
 _symmetry_equiv_pos_site_id
 _symmetry_equiv_pos_as_xyz
  1  'x, y, z'
loop_
 _atom_site_type_symbol
 _atom_site_label
 _atom_site_symmetry_multiplicity
 _atom_site_fract_x
 _atom_site_fract_y
 _atom_site_fract_z
 _atom_site_occupancy
  Cd  Cd0  1  0.75000000  0.67434330  0.94722414  1
  Cd  Cd1  1  0.75000000  0.17434330  0.55277586  1
  Cd  Cd2  1  0.25000000  0.32565670  0.05277586  1
  Cd  Cd3  1  0.25000000  0.82565670  0.44722414  1
  H  H4  1  0.04686278  0.99029763  0.81184888  1
  H  H5  1  0.45313722  0.49029763  0.68815112  1
  H  H6  1  0.54686278  0.00970237  0.18815112  1
  H  H7  1  0.95313722  0.50970237  0.31184888  1
  H  H8  1  0.95313722  0.00970237  0.18815112  1
  H  H9  1  0.54686278  0.50970237  0.31184888  1
  H  H10  1  0.45313722  0.99029763  0.81184888  1
  H  H11  1  0.04686278  0.49029763  0.68815112  1
  H  H12  1  0.25000000  0.16661322  0.81839636  1
  H  H13  1  0.25000000  0.66661322  0.68160364  1
  H  H14  1  0.75000000  0.83338678  0.18160364  1
  H  H15  1  0.75000000  0.33338678  0.31839636  1
  Cl  Cl16  1  0.75000000  0.82268221  0.78930428  1
  Cl  Cl17  1  0.75000000  0.32268221  0.71069572  1
  Cl  Cl18  1  0.25000000  0.17731779  0.21069572  1
  Cl  Cl19  1  0.25000000  0.67731779  0.28930428  1
  Cl  Cl20  1  0.25000000  0.82956691  0.00410658  1
  Cl  Cl21  1  0.25000000  0.32956691  0.49589342  1
  Cl  Cl22  1  0.75000000  0.17043309  0.99589342  1
  Cl  Cl23  1  0.75000000  0.67043309  0.50410658  1
  Cl  Cl24  1  0.25000000  0.47813623  0.89592726  1
  Cl  Cl25  1  0.25000000  0.97813623  0.60407274  1
  Cl  Cl26  1  0.75000000  0.52186377  0.10407274  1
  Cl  Cl27  1  0.75000000  0.02186377  0.39592726  1
  O  O28  1  0.25000000  0.05339563  0.83244126  1
  O  O29  1  0.25000000  0.55339563  0.66755874  1
  O  O30  1  0.75000000  0.94660437  0.16755874  1
  O  O31  1  0.75000000  0.44660437  0.33244126  1
