# generated using pymatgen
data_Yb19Mg8
_symmetry_space_group_name_H-M   'P 1'
_cell_length_a   10.73056233
_cell_length_b   10.73056233
_cell_length_c   10.73056233
_cell_angle_alpha   109.47122063
_cell_angle_beta   109.47122063
_cell_angle_gamma   109.47122063
_symmetry_Int_Tables_number   1
_chemical_formula_structural   Yb19Mg8
_chemical_formula_sum   'Yb19 Mg8'
_cell_volume   951.14242605
_cell_formula_units_Z   1
loop_
 _symmetry_equiv_pos_site_id
 _symmetry_equiv_pos_as_xyz
  1  'x, y, z'
loop_
 _atom_site_type_symbol
 _atom_site_label
 _atom_site_symmetry_multiplicity
 _atom_site_fract_x
 _atom_site_fract_y
 _atom_site_fract_z
 _atom_site_occupancy
  Yb  Yb0  1  0.33488028  0.02762068  0.69274040  1
  Yb  Yb1  1  0.66511972  0.97237932  0.30725960  1
  Yb  Yb2  1  0.66511972  0.35786012  0.69274040  1
  Yb  Yb3  1  0.33488028  0.64213988  0.30725960  1
  Yb  Yb4  1  0.02762068  0.69274040  0.33488028  1
  Yb  Yb5  1  0.97237932  0.30725960  0.66511972  1
  Yb  Yb6  1  0.35786012  0.69274040  0.66511972  1
  Yb  Yb7  1  0.64213988  0.30725960  0.33488028  1
  Yb  Yb8  1  0.69274040  0.33488028  0.02762068  1
  Yb  Yb9  1  0.30725960  0.66511972  0.97237932  1
  Yb  Yb10  1  0.69274040  0.66511972  0.35786012  1
  Yb  Yb11  1  0.30725960  0.33488028  0.64213988  1
  Yb  Yb12  1  0.68022710  -0.00000000  0.68022710  1
  Yb  Yb13  1  0.31977290  -0.00000000  0.31977290  1
  Yb  Yb14  1  -0.00000000  0.68022710  0.68022710  1
  Yb  Yb15  1  -0.00000000  0.31977290  0.31977290  1
  Yb  Yb16  1  0.68022710  0.68022710  -0.00000000  1
  Yb  Yb17  1  0.31977290  0.31977290  -0.00000000  1
  Yb  Yb18  1  -0.00000000  -0.00000000  -0.00000000  1
  Mg  Mg19  1  -0.00000000  -0.00000000  0.66621489  1
  Mg  Mg20  1  0.66621489  0.00000000  0.00000000  1
  Mg  Mg21  1  -0.00000000  0.66621489  -0.00000000  1
  Mg  Mg22  1  0.33378511  0.33378511  0.33378511  1
  Mg  Mg23  1  0.00000000  0.00000000  0.33378511  1
  Mg  Mg24  1  0.33378511  -0.00000000  -0.00000000  1
  Mg  Mg25  1  0.00000000  0.33378511  0.00000000  1
  Mg  Mg26  1  0.66621489  0.66621489  0.66621489  1
