# generated using pymatgen
data_Li9Mn2Co5O16
_symmetry_space_group_name_H-M   'P 1'
_cell_length_a   2.88376170
_cell_length_b   19.32712684
_cell_length_c   5.19880124
_cell_angle_alpha   90.94857889
_cell_angle_beta   89.99999989
_cell_angle_gamma   85.72153256
_symmetry_Int_Tables_number   1
_chemical_formula_structural   Li9Mn2Co5O16
_chemical_formula_sum   'Li9 Mn2 Co5 O16'
_cell_volume   288.90699822
_cell_formula_units_Z   1
loop_
 _symmetry_equiv_pos_site_id
 _symmetry_equiv_pos_as_xyz
  1  'x, y, z'
loop_
 _atom_site_type_symbol
 _atom_site_label
 _atom_site_symmetry_multiplicity
 _atom_site_fract_x
 _atom_site_fract_y
 _atom_site_fract_z
 _atom_site_occupancy
  Li  Li0  1  0.43679601  0.12640799  0.18720695  1
  Li  Li1  1  0.30958797  0.38082406  0.56963630  1
  Li  Li2  1  0.18942037  0.62115926  0.93206910  1
  Li  Li3  1  0.06319135  0.87361729  0.31282813  1
  Li  Li4  1  0.93809953  0.12380093  0.68849789  1
  Li  Li5  1  0.80845835  0.38308330  0.07523023  1
  Li  Li6  1  0.69019643  0.61960714  0.42360807  1
  Li  Li7  1  0.56398998  0.87202003  0.81169840  1
  Li  Li8  1  0.74976878  0.50046243  0.75067659  1
  Mn  Mn9  1  0.00022270  0.99955459  0.99928671  1
  Mn  Mn10  1  0.37392849  0.25214302  0.87799724  1
  Co  Co11  1  0.87468247  0.25063506  0.37906690  1
  Co  Co12  1  0.62554201  0.74891598  0.12259916  1
  Co  Co13  1  0.50020603  0.99958795  0.49878773  1
  Co  Co14  1  0.24978670  0.50042660  0.25009614  1
  Co  Co15  1  0.12602658  0.74794684  0.62260351  1
  O  O16  1  0.47104351  0.05791298  0.86323390  1
  O  O17  1  0.34702764  0.30594473  0.24690001  1
  O  O18  1  0.22301148  0.55397704  0.54060510  1
  O  O19  1  0.09649762  0.80700476  0.96486708  1
  O  O20  1  0.97165466  0.05669069  0.36987977  1
  O  O21  1  0.84497293  0.31005415  0.74008590  1
  O  O22  1  0.72247513  0.55504973  0.10902571  1
  O  O23  1  0.59670312  0.80659376  0.46868039  1
  O  O24  1  0.40299953  0.19400095  0.50993079  1
  O  O25  1  0.27689613  0.44620774  0.95852033  1
  O  O26  1  0.15368198  0.69263605  0.27748632  1
  O  O27  1  0.02836681  0.94326639  0.62946061  1
  O  O28  1  0.90349443  0.19301114  0.01191245  1
  O  O29  1  0.77728973  0.44542053  0.39100451  1
  O  O30  1  0.65484645  0.69030709  0.77983960  1
  O  O31  1  0.52913510  0.94172980  0.13667845  1
