# generated using pymatgen
data_Ba4Fe3(Se3F2)2
_symmetry_space_group_name_H-M   'P 1'
_cell_length_a   6.49398791
_cell_length_b   13.23404464
_cell_length_c   19.49555181
_cell_angle_alpha   90.00000000
_cell_angle_beta   90.00000000
_cell_angle_gamma   90.00000000
_symmetry_Int_Tables_number   1
_chemical_formula_structural   Ba4Fe3(Se3F2)2
_chemical_formula_sum   'Ba16 Fe12 Se24 F16'
_cell_volume   1675.48136978
_cell_formula_units_Z   4
loop_
 _symmetry_equiv_pos_site_id
 _symmetry_equiv_pos_as_xyz
  1  'x, y, z'
loop_
 _atom_site_type_symbol
 _atom_site_label
 _atom_site_symmetry_multiplicity
 _atom_site_fract_x
 _atom_site_fract_y
 _atom_site_fract_z
 _atom_site_occupancy
  Ba  Ba0  1  0.26643188  0.74780868  0.57397995  1
  Ba  Ba1  1  0.23356812  0.24780868  0.92602005  1
  Ba  Ba2  1  0.73356812  0.25219132  0.07397995  1
  Ba  Ba3  1  0.76643188  0.75219132  0.42602005  1
  Ba  Ba4  1  0.73356812  0.25219132  0.42602005  1
  Ba  Ba5  1  0.76643188  0.75219132  0.07397995  1
  Ba  Ba6  1  0.26643188  0.74780868  0.92602005  1
  Ba  Ba7  1  0.23356812  0.24780868  0.57397995  1
  Ba  Ba8  1  0.75591696  0.50258857  0.57417321  1
  Ba  Ba9  1  0.74408304  0.00258857  0.92582679  1
  Ba  Ba10  1  0.24408304  0.49741143  0.07417321  1
  Ba  Ba11  1  0.25591696  0.99741143  0.42582679  1
  Ba  Ba12  1  0.24408304  0.49741143  0.42582679  1
  Ba  Ba13  1  0.25591696  0.99741143  0.07417321  1
  Ba  Ba14  1  0.75591696  0.50258857  0.92582679  1
  Ba  Ba15  1  0.74408304  0.00258857  0.57417321  1
  Fe  Fe16  1  0.64732166  0.70435899  0.75000000  1
  Fe  Fe17  1  0.85267834  0.20435899  0.75000000  1
  Fe  Fe18  1  0.35267834  0.29564101  0.25000000  1
  Fe  Fe19  1  0.14732166  0.79564101  0.25000000  1
  Fe  Fe20  1  0.50448440  0.62452556  0.25000000  1
  Fe  Fe21  1  0.99551560  0.12452556  0.25000000  1
  Fe  Fe22  1  0.49551560  0.37547444  0.75000000  1
  Fe  Fe23  1  0.00448440  0.87547444  0.75000000  1
  Fe  Fe24  1  0.14228257  0.54730428  0.75000000  1
  Fe  Fe25  1  0.35771743  0.04730428  0.75000000  1
  Fe  Fe26  1  0.85771743  0.45269572  0.25000000  1
  Fe  Fe27  1  0.64228257  0.95269572  0.25000000  1
  Se  Se28  1  0.26763831  0.72455399  0.75000000  1
  Se  Se29  1  0.23236169  0.22455399  0.75000000  1
  Se  Se30  1  0.73236169  0.27544601  0.25000000  1
  Se  Se31  1  0.76763831  0.77544601  0.25000000  1
  Se  Se32  1  0.76251653  0.52549828  0.75000000  1
  Se  Se33  1  0.73748347  0.02549828  0.75000000  1
  Se  Se34  1  0.23748347  0.47450172  0.25000000  1
  Se  Se35  1  0.26251653  0.97450172  0.25000000  1
  Se  Se36  1  0.78188939  0.77152924  0.85436407  1
  Se  Se37  1  0.71811061  0.27152924  0.64563593  1
  Se  Se38  1  0.21811061  0.22847076  0.35436407  1
  Se  Se39  1  0.28188939  0.72847076  0.14563593  1
  Se  Se40  1  0.21811061  0.22847076  0.14563593  1
  Se  Se41  1  0.28188939  0.72847076  0.35436407  1
  Se  Se42  1  0.78188939  0.77152924  0.64563593  1
  Se  Se43  1  0.71811061  0.27152924  0.85436407  1
  Se  Se44  1  0.27372561  0.47869547  0.64579410  1
  Se  Se45  1  0.22627439  0.97869547  0.85420590  1
  Se  Se46  1  0.72627439  0.52130453  0.14579410  1
  Se  Se47  1  0.77372561  0.02130453  0.35420590  1
  Se  Se48  1  0.72627439  0.52130453  0.35420590  1
  Se  Se49  1  0.77372561  0.02130453  0.14579410  1
  Se  Se50  1  0.27372561  0.47869547  0.85420590  1
  Se  Se51  1  0.22627439  0.97869547  0.64579410  1
  F  F52  1  0.51155817  0.62529407  0.50144750  1
  F  F53  1  0.98844183  0.12529407  0.99855250  1
  F  F54  1  0.48844183  0.37470593  0.00144750  1
  F  F55  1  0.01155817  0.87470593  0.49855250  1
  F  F56  1  0.48844183  0.37470593  0.49855250  1
  F  F57  1  0.01155817  0.87470593  0.00144750  1
  F  F58  1  0.51155817  0.62529407  0.99855250  1
  F  F59  1  0.98844183  0.12529407  0.50144750  1
  F  F60  1  0.51093059  0.87509976  0.49800805  1
  F  F61  1  0.98906941  0.37509976  0.00199195  1
  F  F62  1  0.48906941  0.12490024  0.99800805  1
  F  F63  1  0.01093059  0.62490024  0.50199195  1
  F  F64  1  0.48906941  0.12490024  0.50199195  1
  F  F65  1  0.01093059  0.62490024  0.99800805  1
  F  F66  1  0.51093059  0.87509976  0.00199195  1
  F  F67  1  0.98906941  0.37509976  0.49800805  1
