# generated using pymatgen
data_Yb5CuSn3
_symmetry_space_group_name_H-M   'P 1'
_cell_length_a   6.54214067
_cell_length_b   9.39245954
_cell_length_c   9.39227558
_cell_angle_alpha   120.00065187
_cell_angle_beta   90.00000000
_cell_angle_gamma   90.00000000
_symmetry_Int_Tables_number   1
_chemical_formula_structural   Yb5CuSn3
_chemical_formula_sum   'Yb10 Cu2 Sn6'
_cell_volume   499.80180129
_cell_formula_units_Z   2
loop_
 _symmetry_equiv_pos_site_id
 _symmetry_equiv_pos_as_xyz
  1  'x, y, z'
loop_
 _atom_site_type_symbol
 _atom_site_label
 _atom_site_symmetry_multiplicity
 _atom_site_fract_x
 _atom_site_fract_y
 _atom_site_fract_z
 _atom_site_occupancy
  Yb  Yb0  1  0.75000785  0.25586997  1.00000000  1
  Yb  Yb1  1  0.74999590  0.74405645  0.74397343  1
  Yb  Yb2  1  0.74999590  0.00008302  0.25602657  1
  Yb  Yb3  1  0.25000785  0.74413003  0.00000000  1
  Yb  Yb4  1  0.24999590  0.25594355  0.25602657  1
  Yb  Yb5  1  0.24999590  0.99991698  0.74397343  1
  Yb  Yb6  1  0.50000004  0.33327033  0.66656865  1
  Yb  Yb7  1  0.50000004  0.66670168  0.33343135  1
  Yb  Yb8  1  0.00000004  0.66672967  0.33343135  1
  Yb  Yb9  1  0.00000004  0.33329832  0.66656865  1
  Cu  Cu10  1  0.50000029  0.00000413  -0.00000000  1
  Cu  Cu11  1  0.00000029  0.99999587  0.00000000  1
  Sn  Sn12  1  0.74999465  0.59676762  0.00000000  1
  Sn  Sn13  1  0.75000266  0.40324801  0.40319136  1
  Sn  Sn14  1  0.75000266  0.00005665  0.59680864  1
  Sn  Sn15  1  0.24999465  0.40323238  1.00000000  1
  Sn  Sn16  1  0.25000266  0.59675199  0.59680864  1
  Sn  Sn17  1  0.25000266  0.99994335  0.40319136  1
