# generated using pymatgen
data_H16PtC4(NCl3)2
_symmetry_space_group_name_H-M   'P 1'
_cell_length_a   7.35765512
_cell_length_b   8.66949188
_cell_length_c   8.66949188
_cell_angle_alpha   73.89866747
_cell_angle_beta   64.89099306
_cell_angle_gamma   64.89099306
_symmetry_Int_Tables_number   1
_chemical_formula_structural   H16PtC4(NCl3)2
_chemical_formula_sum   'H16 Pt1 C4 N2 Cl6'
_cell_volume   450.22318921
_cell_formula_units_Z   1
loop_
 _symmetry_equiv_pos_site_id
 _symmetry_equiv_pos_as_xyz
  1  'x, y, z'
loop_
 _atom_site_type_symbol
 _atom_site_label
 _atom_site_symmetry_multiplicity
 _atom_site_fract_x
 _atom_site_fract_y
 _atom_site_fract_z
 _atom_site_occupancy
  H  H0  1  0.23135567  0.65642736  0.65642736  1
  H  H1  1  0.45578960  0.65642736  0.65642736  1
  H  H2  1  0.76864433  0.34357264  0.34357264  1
  H  H3  1  0.54421040  0.34357264  0.34357264  1
  H  H4  1  0.27872670  0.92383766  0.51870894  1
  H  H5  1  0.27872670  0.51870894  0.92383766  1
  H  H6  1  0.72127330  0.48129106  0.07616234  1
  H  H7  1  0.72127330  0.07616234  0.48129106  1
  H  H8  1  0.04592064  0.95410215  0.71017657  1
  H  H9  1  0.28980065  0.71017657  0.95410215  1
  H  H10  1  0.95407936  0.28982343  0.04589785  1
  H  H11  1  0.71019935  0.04589785  0.28982343  1
  H  H12  1  0.95407936  0.04589785  0.28982343  1
  H  H13  1  0.71019935  0.28982343  0.04589785  1
  H  H14  1  0.04592064  0.71017657  0.95410215  1
  H  H15  1  0.28980065  0.95410215  0.71017657  1
  Pt  Pt16  1  0.00000000  0.50000000  0.50000000  1
  C  C17  1  0.22122518  0.89889922  0.65865043  1
  C  C18  1  0.22122518  0.65865043  0.89889922  1
  C  C19  1  0.77877482  0.34134957  0.10110078  1
  C  C20  1  0.77877482  0.10110078  0.34134957  1
  N  N21  1  0.29009392  0.70990608  0.70990608  1
  N  N22  1  0.70990608  0.29009392  0.29009392  1
  Cl  Cl23  1  0.22973280  0.65685368  0.34314632  1
  Cl  Cl24  1  0.77026720  0.34314632  0.65685368  1
  Cl  Cl25  1  0.77026720  0.65685368  0.34314632  1
  Cl  Cl26  1  0.22973280  0.34314632  0.65685368  1
  Cl  Cl27  1  0.79952156  0.70047844  0.70047844  1
  Cl  Cl28  1  0.20047844  0.29952156  0.29952156  1
