# generated using pymatgen
data_GdCO4
_symmetry_space_group_name_H-M   'P 1'
_cell_length_a   4.93805366
_cell_length_b   7.28336585
_cell_length_c   8.36488010
_cell_angle_alpha   90.00000000
_cell_angle_beta   90.00000000
_cell_angle_gamma   90.00000000
_symmetry_Int_Tables_number   1
_chemical_formula_structural   GdCO4
_chemical_formula_sum   'Gd4 C4 O16'
_cell_volume   300.84836162
_cell_formula_units_Z   4
loop_
 _symmetry_equiv_pos_site_id
 _symmetry_equiv_pos_as_xyz
  1  'x, y, z'
loop_
 _atom_site_type_symbol
 _atom_site_label
 _atom_site_symmetry_multiplicity
 _atom_site_fract_x
 _atom_site_fract_y
 _atom_site_fract_z
 _atom_site_occupancy
  Gd  Gd0  1  0.25212142  0.14217478  0.58119622  1
  Gd  Gd1  1  0.74787858  0.35782522  0.08119622  1
  Gd  Gd2  1  0.24787858  0.64217478  0.41880378  1
  Gd  Gd3  1  0.75212142  0.85782522  0.91880378  1
  C  C4  1  0.25277543  0.19946810  0.92889131  1
  C  C5  1  0.74722457  0.30053190  0.42889131  1
  C  C6  1  0.24722457  0.69946810  0.07110869  1
  C  C7  1  0.75277543  0.80053190  0.57110869  1
  O  O8  1  0.22983021  0.94943414  0.37177919  1
  O  O9  1  0.77016979  0.55056586  0.87177919  1
  O  O10  1  0.27016979  0.44943414  0.62822081  1
  O  O11  1  0.72983021  0.05056586  0.12822081  1
  O  O12  1  0.75822443  0.19850539  0.55299308  1
  O  O13  1  0.24177557  0.30149461  0.05299308  1
  O  O14  1  0.74177557  0.69850539  0.44700692  1
  O  O15  1  0.25822443  0.80149461  0.94700692  1
  O  O16  1  0.98789307  0.84730193  0.62899042  1
  O  O17  1  0.01210693  0.65269807  0.12899042  1
  O  O18  1  0.51210693  0.34730193  0.37100958  1
  O  O19  1  0.48789307  0.15269807  0.87100958  1
  O  O20  1  0.53642454  0.84954141  0.64646993  1
  O  O21  1  0.46357546  0.65045859  0.14646993  1
  O  O22  1  0.96357546  0.34954141  0.35353007  1
  O  O23  1  0.03642454  0.15045859  0.85353007  1
