# generated using pymatgen
data_CeP2H2CO6
_symmetry_space_group_name_H-M   'P 1'
_cell_length_a   5.39028525
_cell_length_b   8.07249822
_cell_length_c   8.16454589
_cell_angle_alpha   114.24904219
_cell_angle_beta   101.81865623
_cell_angle_gamma   104.68081084
_symmetry_Int_Tables_number   1
_chemical_formula_structural   CeP2H2CO6
_chemical_formula_sum   'Ce2 P4 H4 C2 O12'
_cell_volume   293.49828737
_cell_formula_units_Z   2
loop_
 _symmetry_equiv_pos_site_id
 _symmetry_equiv_pos_as_xyz
  1  'x, y, z'
loop_
 _atom_site_type_symbol
 _atom_site_label
 _atom_site_symmetry_multiplicity
 _atom_site_fract_x
 _atom_site_fract_y
 _atom_site_fract_z
 _atom_site_occupancy
  Ce  Ce0  1  0.23508517  0.73508517  0.47017035  1
  Ce  Ce1  1  0.76491483  0.26491483  0.52982965  1
  P  P2  1  0.50811313  0.63882453  0.76977593  1
  P  P3  1  0.73833720  0.86904860  0.23022407  1
  P  P4  1  0.49188687  0.36117547  0.23022407  1
  P  P5  1  0.26166280  0.13095140  0.76977593  1
  H  H6  1  0.33903185  0.81846186  0.00000000  1
  H  H7  1  0.66096815  0.18153814  1.00000000  1
  H  H8  1  0.33391101  0.59766992  1.00000000  1
  H  H9  1  0.66608899  0.40233008  0.00000000  1
  C  C10  1  0.46190613  0.72786102  1.00000000  1
  C  C11  1  0.53809387  0.27213898  0.00000000  1
  O  O12  1  0.21272223  0.51018357  0.61689384  1
  O  O13  1  0.59582840  0.89328973  0.38310616  1
  O  O14  1  0.78727777  0.48981643  0.38310616  1
  O  O15  1  0.40417160  0.10671027  0.61689384  1
  O  O16  1  0.60159951  0.80772700  0.72504424  1
  O  O17  1  0.87655527  0.08268276  0.27495576  1
  O  O18  1  0.39840049  0.19227300  0.27495576  1
  O  O19  1  0.12344473  0.91731724  0.72504424  1
  O  O20  1  0.69460883  0.52120379  0.75755383  1
  O  O21  1  0.93705499  0.76364996  0.24244617  1
  O  O22  1  0.30539117  0.47879621  0.24244617  1
  O  O23  1  0.06294501  0.23635004  0.75755383  1
