# generated using pymatgen
data_Sr5Ni2BiO10
_symmetry_space_group_name_H-M   'P 1'
_cell_length_a   5.34475404
_cell_length_b   5.34475404
_cell_length_c   9.81936710
_cell_angle_alpha   105.79246670
_cell_angle_beta   105.79246670
_cell_angle_gamma   90.00000000
_symmetry_Int_Tables_number   1
_chemical_formula_structural   Sr5Ni2BiO10
_chemical_formula_sum   'Sr5 Ni2 Bi1 O10'
_cell_volume   258.89535243
_cell_formula_units_Z   1
loop_
 _symmetry_equiv_pos_site_id
 _symmetry_equiv_pos_as_xyz
  1  'x, y, z'
loop_
 _atom_site_type_symbol
 _atom_site_label
 _atom_site_symmetry_multiplicity
 _atom_site_fract_x
 _atom_site_fract_y
 _atom_site_fract_z
 _atom_site_occupancy
  Sr  Sr0  1  -0.00000000  0.00000000  -0.00000000  1
  Sr  Sr1  1  0.84946518  0.34946518  0.69893035  1
  Sr  Sr2  1  0.34946518  0.84946518  0.69893035  1
  Sr  Sr3  1  0.15053482  0.65053482  0.30106965  1
  Sr  Sr4  1  0.65053482  0.15053482  0.30106965  1
  Ni  Ni5  1  0.24379151  0.24379151  0.48758301  1
  Ni  Ni6  1  0.75620849  0.75620849  0.51241699  1
  Bi  Bi7  1  0.50000000  0.50000000  -0.00000000  1
  O  O8  1  -0.00000000  0.00000000  0.50000000  1
  O  O9  1  0.50000000  0.50000000  0.50000000  1
  O  O10  1  0.50000000  0.00000000  0.50000000  1
  O  O11  1  -0.00000000  0.50000000  0.50000000  1
  O  O12  1  0.86739749  0.86739749  0.73479498  1
  O  O13  1  0.13260251  0.13260251  0.26520502  1
  O  O14  1  0.37854141  0.37854141  0.75708282  1
  O  O15  1  0.62145859  0.62145859  0.24291718  1
  O  O16  1  0.50000000  0.00000000  -0.00000000  1
  O  O17  1  -0.00000000  0.50000000  -0.00000000  1
