# generated using pymatgen
data_CoP3H16N4O11
_symmetry_space_group_name_H-M   'P 1'
_cell_length_a   7.91232097
_cell_length_b   8.14537269
_cell_length_c   10.46248153
_cell_angle_alpha   90.00000000
_cell_angle_beta   90.00000000
_cell_angle_gamma   100.46865181
_symmetry_Int_Tables_number   1
_chemical_formula_structural   CoP3H16N4O11
_chemical_formula_sum   'Co2 P6 H32 N8 O22'
_cell_volume   663.07042234
_cell_formula_units_Z   2
loop_
 _symmetry_equiv_pos_site_id
 _symmetry_equiv_pos_as_xyz
  1  'x, y, z'
loop_
 _atom_site_type_symbol
 _atom_site_label
 _atom_site_symmetry_multiplicity
 _atom_site_fract_x
 _atom_site_fract_y
 _atom_site_fract_z
 _atom_site_occupancy
  Co  Co0  1  0.64136258  0.22312802  0.00127556  1
  Co  Co1  1  0.35863742  0.77687198  0.50127556  1
  P  P2  1  0.20700433  0.63661047  0.98931631  1
  P  P3  1  0.79299567  0.36338953  0.48931631  1
  P  P4  1  0.54551592  0.83303103  0.05243707  1
  P  P5  1  0.45448408  0.16696897  0.55243707  1
  P  P6  1  0.76850957  0.94881092  0.83364702  1
  P  P7  1  0.23149043  0.05118908  0.33364702  1
  H  H8  1  0.94873774  0.19976955  0.00611537  1
  H  H9  1  0.05126226  0.80023045  0.50611537  1
  H  H10  1  0.94231238  0.37288583  0.08725873  1
  H  H11  1  0.05768762  0.62711417  0.58725873  1
  H  H12  1  0.87830759  0.18912871  0.15320813  1
  H  H13  1  0.12169241  0.81087129  0.65320813  1
  H  H14  1  0.58632632  0.49578406  0.90858120  1
  H  H15  1  0.41367368  0.50421594  0.40858120  1
  H  H16  1  0.71217796  0.40747069  0.81409396  1
  H  H17  1  0.28782204  0.59252931  0.31409396  1
  H  H18  1  0.79418323  0.51809986  0.93879274  1
  H  H19  1  0.20581677  0.48190014  0.43879274  1
  H  H20  1  0.56056822  0.46066454  0.13480154  1
  H  H21  1  0.43943178  0.53933546  0.63480154  1
  H  H22  1  0.43546036  0.27487901  0.16833273  1
  H  H23  1  0.56453964  0.72512099  0.66833273  1
  H  H24  1  0.62997559  0.32610657  0.22889556  1
  H  H25  1  0.37002441  0.67389343  0.72889556  1
  H  H26  1  0.32060899  0.12713256  0.00590292  1
  H  H27  1  0.67939101  0.87286744  0.50590292  1
  H  H28  1  0.36676358  0.28112126  0.89929808  1
  H  H29  1  0.63323642  0.71887874  0.39929808  1
  H  H30  1  0.40130032  0.09170418  0.86250079  1
  H  H31  1  0.59869968  0.90829582  0.36250079  1
  H  H32  1  0.11981601  0.24794115  0.72240705  1
  H  H33  1  0.88018399  0.75205885  0.22240705  1
  H  H34  1  0.15344023  0.41036173  0.80862938  1
  H  H35  1  0.84655977  0.58963827  0.30862938  1
  H  H36  1  0.07254461  0.61008235  0.17722187  1
  H  H37  1  0.92745539  0.38991765  0.67722187  1
  H  H38  1  0.98778672  0.84965834  0.92021015  1
  H  H39  1  0.01221328  0.15034166  0.42021015  1
  N  N40  1  0.87708116  0.25432533  0.06969659  1
  N  N41  1  0.12291884  0.74567467  0.56969659  1
  N  N42  1  0.68879207  0.43438158  0.90765789  1
  N  N43  1  0.31120793  0.56561842  0.40765789  1
  N  N44  1  0.55970272  0.33448395  0.14770455  1
  N  N45  1  0.44029728  0.66551605  0.64770455  1
  N  N46  1  0.40481861  0.17640130  0.93501701  1
  N  N47  1  0.59518139  0.82359870  0.43501701  1
  O  O48  1  0.04906692  0.68592756  0.93027773  1
  O  O49  1  0.95093308  0.31407244  0.43027773  1
  O  O50  1  0.16411094  0.55936181  0.12721648  1
  O  O51  1  0.83588906  0.44063819  0.62721648  1
  O  O52  1  0.29499103  0.52032914  0.91104205  1
  O  O53  1  0.70500897  0.47967086  0.41104205  1
  O  O54  1  0.34376225  0.81016699  0.01428198  1
  O  O55  1  0.65623775  0.18983301  0.51428198  1
  O  O56  1  0.60031419  0.01243360  0.09795181  1
  O  O57  1  0.39968581  0.98756640  0.59795181  1
  O  O58  1  0.58102620  0.69981438  0.14085992  1
  O  O59  1  0.41897380  0.30018562  0.64085992  1
  O  O60  1  0.62906482  0.81087433  0.91377618  1
  O  O61  1  0.37093518  0.18912567  0.41377618  1
  O  O62  1  0.94156817  0.96024123  0.91177714  1
  O  O63  1  0.05843183  0.03975877  0.41177714  1
  O  O64  1  0.77426074  0.87905829  0.70214066  1
  O  O65  1  0.22573926  0.12094171  0.20214066  1
  O  O66  1  0.71090984  0.11707861  0.84699582  1
  O  O67  1  0.28909016  0.88292139  0.34699582  1
  O  O68  1  0.06375584  0.33454123  0.75797805  1
  O  O69  1  0.93624416  0.66545877  0.25797805  1
