# generated using pymatgen
data_ZnH20PdC4(NO3)4
_symmetry_space_group_name_H-M   'P 1'
_cell_length_a   7.29573595
_cell_length_b   7.61763474
_cell_length_c   9.20781922
_cell_angle_alpha   114.43434945
_cell_angle_beta   113.33900625
_cell_angle_gamma   90.00000000
_symmetry_Int_Tables_number   1
_chemical_formula_structural   ZnH20PdC4(NO3)4
_chemical_formula_sum   'Zn1 H20 Pd1 C4 N4 O12'
_cell_volume   419.48071232
_cell_formula_units_Z   1
loop_
 _symmetry_equiv_pos_site_id
 _symmetry_equiv_pos_as_xyz
  1  'x, y, z'
loop_
 _atom_site_type_symbol
 _atom_site_label
 _atom_site_symmetry_multiplicity
 _atom_site_fract_x
 _atom_site_fract_y
 _atom_site_fract_z
 _atom_site_occupancy
  Zn  Zn0  1  -0.00000000  0.50000000  -0.00000000  1
  H  H1  1  0.70939373  0.36416458  0.17897217  1
  H  H2  1  0.46957844  0.81480759  0.17897217  1
  H  H3  1  0.53042156  0.63583542  0.82102783  1
  H  H4  1  0.29060627  0.18519241  0.82102783  1
  H  H5  1  0.66495755  0.29796603  0.31392981  1
  H  H6  1  0.64897226  0.01596377  0.31392981  1
  H  H7  1  0.35102774  0.70203397  0.68607019  1
  H  H8  1  0.33504245  0.98403623  0.68607019  1
  H  H9  1  0.48506068  0.36906096  0.18302110  1
  H  H10  1  0.69796042  0.81396014  0.18302110  1
  H  H11  1  0.30203958  0.63093904  0.81697890  1
  H  H12  1  0.51493932  0.18603986  0.81697890  1
  H  H13  1  0.94493387  0.09006135  0.89220506  1
  H  H14  1  0.94727119  0.80214372  0.89220506  1
  H  H15  1  0.05272881  0.90993865  0.10779494  1
  H  H16  1  0.05506613  0.19785628  0.10779494  1
  H  H17  1  0.70265750  0.81154958  0.62216954  1
  H  H18  1  0.91951204  0.81061996  0.62216954  1
  H  H19  1  0.08048796  0.18845042  0.37783046  1
  H  H20  1  0.29734250  0.18938004  0.37783046  1
  Pd  Pd21  1  0.50000000  -0.00000000  -0.00000000  1
  C  C22  1  0.71013595  0.31708809  0.63614016  1
  C  C23  1  0.92600421  0.31905208  0.63614016  1
  C  C24  1  0.07399579  0.68291191  0.36385984  1
  C  C25  1  0.28986405  0.68094792  0.36385984  1
  N  N26  1  0.60039867  0.29109835  0.18953437  1
  N  N27  1  0.58913570  0.89843602  0.18953437  1
  N  N28  1  0.41086430  0.70890165  0.81046563  1
  N  N29  1  0.39960133  0.10156398  0.81046563  1
  O  O30  1  0.70642115  0.39120511  0.78763436  1
  O  O31  1  0.08121320  0.39642925  0.78763436  1
  O  O32  1  0.91878680  0.60879489  0.21236564  1
  O  O33  1  0.29357885  0.60357075  0.21236564  1
  O  O34  1  0.55896279  0.24328579  0.48778287  1
  O  O35  1  0.92882008  0.24449708  0.48778287  1
  O  O36  1  0.07117992  0.75671421  0.51221713  1
  O  O37  1  0.44103721  0.75550292  0.51221713  1
  O  O38  1  -0.00000000  0.21838260  -0.00000000  1
  O  O39  1  -0.00000000  0.78161740  -0.00000000  1
  O  O40  1  0.85117588  0.85117588  0.70235177  1
  O  O41  1  0.14882412  0.14882412  0.29764823  1
