# generated using pymatgen
data_BaTe3H15(CN)3
_symmetry_space_group_name_H-M   'P 1'
_cell_length_a   7.33999135
_cell_length_b   14.49796856
_cell_length_c   15.56665401
_cell_angle_alpha   64.05907557
_cell_angle_beta   76.36356985
_cell_angle_gamma   75.33668409
_symmetry_Int_Tables_number   1
_chemical_formula_structural   BaTe3H15(CN)3
_chemical_formula_sum   'Ba4 Te12 H60 C12 N12'
_cell_volume   1426.14571589
_cell_formula_units_Z   4
loop_
 _symmetry_equiv_pos_site_id
 _symmetry_equiv_pos_as_xyz
  1  'x, y, z'
loop_
 _atom_site_type_symbol
 _atom_site_label
 _atom_site_symmetry_multiplicity
 _atom_site_fract_x
 _atom_site_fract_y
 _atom_site_fract_z
 _atom_site_occupancy
  Ba  Ba0  1  0.06227187  0.78978679  0.58966959  1
  Ba  Ba1  1  0.44172825  0.71021321  0.91033041  1
  Ba  Ba2  1  0.93772813  0.21021321  0.41033041  1
  Ba  Ba3  1  0.55827175  0.28978679  0.08966959  1
  Te  Te4  1  0.26359215  0.00176350  0.58486810  1
  Te  Te5  1  0.85022376  0.49823650  0.91513190  1
  Te  Te6  1  0.73640785  0.99823650  0.41513190  1
  Te  Te7  1  0.14977624  0.50176350  0.08486810  1
  Te  Te8  1  0.01886217  0.94012342  0.76475938  1
  Te  Te9  1  0.72374497  0.55987658  0.73524062  1
  Te  Te10  1  0.98113783  0.05987658  0.23524062  1
  Te  Te11  1  0.27625503  0.44012342  0.26475938  1
  Te  Te12  1  0.97234967  0.72123195  0.84679711  1
  Te  Te13  1  0.54037872  0.77876805  0.65320289  1
  Te  Te14  1  0.02765033  0.27876805  0.15320289  1
  Te  Te15  1  0.45962128  0.22123195  0.34679711  1
  H  H16  1  0.14360820  0.54075651  0.71751327  1
  H  H17  1  0.40187798  0.95924349  0.78248673  1
  H  H18  1  0.85639180  0.45924349  0.28248673  1
  H  H19  1  0.59812202  0.04075651  0.21751327  1
  H  H20  1  0.34343325  0.57974410  0.70638915  1
  H  H21  1  0.62956651  0.92025590  0.79361085  1
  H  H22  1  0.65656675  0.42025590  0.29361085  1
  H  H23  1  0.37043349  0.07974410  0.20638915  1
  H  H24  1  0.45803311  0.55760653  0.55507321  1
  H  H25  1  0.57071285  0.94239347  0.94492679  1
  H  H26  1  0.54196689  0.44239347  0.44492679  1
  H  H27  1  0.42928715  0.05760653  0.05507321  1
  H  H28  1  0.42502062  0.43758836  0.65419829  1
  H  H29  1  0.51680727  0.06241164  0.84580171  1
  H  H30  1  0.57497938  0.56241164  0.34580171  1
  H  H31  1  0.48319273  0.93758836  0.15419829  1
  H  H32  1  0.24980394  0.50554378  0.57542400  1
  H  H33  1  0.33077171  0.99445622  0.92457600  1
  H  H34  1  0.75019606  0.49445622  0.42457600  1
  H  H35  1  0.66922829  0.00554378  0.07542400  1
  H  H36  1  0.40765995  0.89678139  0.42962615  1
  H  H37  1  0.73406748  0.60321861  0.07037385  1
  H  H38  1  0.59234005  0.10321861  0.57037385  1
  H  H39  1  0.26593252  0.39678139  0.92962615  1
  H  H40  1  0.25575373  0.91076968  0.36084893  1
  H  H41  1  0.52737234  0.58923032  0.13915107  1
  H  H42  1  0.74424627  0.08923032  0.63915107  1
  H  H43  1  0.47262766  0.41076968  0.86084893  1
  H  H44  1  0.39843748  0.75041591  0.34635124  1
  H  H45  1  0.49520463  0.74958409  0.15364876  1
  H  H46  1  0.60156252  0.24958409  0.65364876  1
  H  H47  1  0.50479537  0.25041591  0.84635124  1
  H  H48  1  0.58236661  0.82406766  0.31607742  1
  H  H49  1  0.72251170  0.67593234  0.18392258  1
  H  H50  1  0.41763339  0.17593234  0.68392258  1
  H  H51  1  0.27748830  0.32406766  0.81607742  1
  H  H52  1  0.54667291  0.72268725  0.43280085  1
  H  H53  1  0.70216101  0.77731275  0.06719915  1
  H  H54  1  0.45332709  0.27731275  0.56719915  1
  H  H55  1  0.29783899  0.22268725  0.93280085  1
  H  H56  1  0.82775720  0.75257258  0.46741403  1
  H  H57  1  0.04774381  0.74742742  0.03258597  1
  H  H58  1  0.17224280  0.24742742  0.53258597  1
  H  H59  1  0.95225619  0.25257258  0.96741403  1
  H  H60  1  0.92340275  0.63254660  0.52650476  1
  H  H61  1  0.08245411  0.86745340  0.97349524  1
  H  H62  1  0.07659725  0.36745340  0.47349524  1
  H  H63  1  0.91754589  0.13254660  0.02650476  1
  H  H64  1  0.15898430  0.63234592  0.38821655  1
  H  H65  1  0.17954676  0.86765408  0.11178345  1
  H  H66  1  0.84101570  0.36765408  0.61178345  1
  H  H67  1  0.82045324  0.13234592  0.88821655  1
  H  H68  1  0.92776407  0.66910733  0.35473444  1
  H  H69  1  0.95160583  0.83089267  0.14526556  1
  H  H70  1  0.07223593  0.33089267  0.64526556  1
  H  H71  1  0.04839417  0.16910733  0.85473444  1
  H  H72  1  0.06600237  0.76602412  0.32612609  1
  H  H73  1  0.15815257  0.73397588  0.17387391  1
  H  H74  1  0.93399763  0.23397588  0.67387391  1
  H  H75  1  0.84184743  0.26602412  0.82612609  1
  C  C76  1  0.35097300  0.51565457  0.61138140  1
  C  C77  1  0.47800897  0.98434543  0.88861860  1
  C  C78  1  0.64902700  0.48434543  0.38861860  1
  C  C79  1  0.52199103  0.01565457  0.11138140  1
  C  C80  1  0.47280032  0.78580854  0.37458426  1
  C  C81  1  0.63319313  0.71419146  0.12541574  1
  C  C82  1  0.52719968  0.21419146  0.62541574  1
  C  C83  1  0.36680687  0.28580854  0.87458426  1
  C  C84  1  0.02928646  0.69148250  0.38138692  1
  C  C85  1  0.10215589  0.80851750  0.11861308  1
  C  C86  1  0.97071354  0.30851750  0.61861308  1
  C  C87  1  0.89784411  0.19148250  0.88138692  1
  N  N88  1  0.25029357  0.57679122  0.66783544  1
  N  N89  1  0.49492023  0.92320878  0.83216456  1
  N  N90  1  0.74970643  0.42320878  0.33216456  1
  N  N91  1  0.50507977  0.07679122  0.16783544  1
  N  N92  1  0.33418439  0.85585978  0.41341294  1
  N  N93  1  0.60345711  0.64414022  0.08658706  1
  N  N94  1  0.66581561  0.14414022  0.58658706  1
  N  N95  1  0.39654289  0.35585978  0.91341294  1
  N  N96  1  0.95500633  0.70194291  0.47344538  1
  N  N97  1  0.13039462  0.79805709  0.02655462  1
  N  N98  1  0.04499367  0.29805709  0.52655462  1
  N  N99  1  0.86960538  0.20194291  0.97344538  1
