# generated using pymatgen
data_HoMnCu4P3
_symmetry_space_group_name_H-M   'P 1'
_cell_length_a   3.77181079
_cell_length_b   10.83910995
_cell_length_c   12.52432313
_cell_angle_alpha   90.00000000
_cell_angle_beta   90.00000000
_cell_angle_gamma   90.00000000
_symmetry_Int_Tables_number   1
_chemical_formula_structural   HoMnCu4P3
_chemical_formula_sum   'Ho4 Mn4 Cu16 P12'
_cell_volume   512.03280256
_cell_formula_units_Z   4
loop_
 _symmetry_equiv_pos_site_id
 _symmetry_equiv_pos_as_xyz
  1  'x, y, z'
loop_
 _atom_site_type_symbol
 _atom_site_label
 _atom_site_symmetry_multiplicity
 _atom_site_fract_x
 _atom_site_fract_y
 _atom_site_fract_z
 _atom_site_occupancy
  Ho  Ho0  1  0.25000000  0.58411886  0.79253733  1
  Ho  Ho1  1  0.25000000  0.91588114  0.29253733  1
  Ho  Ho2  1  0.75000000  0.41588114  0.20746267  1
  Ho  Ho3  1  0.75000000  0.08411886  0.70746267  1
  Mn  Mn4  1  0.25000000  0.71391571  0.52187123  1
  Mn  Mn5  1  0.25000000  0.78608429  0.02187123  1
  Mn  Mn6  1  0.75000000  0.28608429  0.47812877  1
  Mn  Mn7  1  0.75000000  0.21391571  0.97812877  1
  Cu  Cu8  1  0.25000000  0.08711702  0.50580219  1
  Cu  Cu9  1  0.25000000  0.41288298  0.00580219  1
  Cu  Cu10  1  0.75000000  0.91288298  0.49419781  1
  Cu  Cu11  1  0.75000000  0.58711702  0.99419781  1
  Cu  Cu12  1  0.25000000  0.46283852  0.56515234  1
  Cu  Cu13  1  0.25000000  0.03716148  0.06515234  1
  Cu  Cu14  1  0.75000000  0.53716148  0.43484766  1
  Cu  Cu15  1  0.75000000  0.96283852  0.93484766  1
  Cu  Cu16  1  0.25000000  0.87451002  0.80750088  1
  Cu  Cu17  1  0.25000000  0.62548998  0.30750088  1
  Cu  Cu18  1  0.75000000  0.12548998  0.19249912  1
  Cu  Cu19  1  0.75000000  0.37451002  0.69249912  1
  Cu  Cu20  1  0.25000000  0.28593879  0.81779442  1
  Cu  Cu21  1  0.25000000  0.21406121  0.31779442  1
  Cu  Cu22  1  0.75000000  0.71406121  0.18220558  1
  Cu  Cu23  1  0.75000000  0.78593879  0.68220558  1
  P  P24  1  0.25000000  0.90589877  0.61705730  1
  P  P25  1  0.25000000  0.59410123  0.11705730  1
  P  P26  1  0.75000000  0.09410123  0.38294270  1
  P  P27  1  0.75000000  0.40589877  0.88294270  1
  P  P28  1  0.25000000  0.25779463  0.62404890  1
  P  P29  1  0.25000000  0.24220537  0.12404890  1
  P  P30  1  0.75000000  0.74220537  0.37595110  1
  P  P31  1  0.75000000  0.75779463  0.87595110  1
  P  P32  1  0.25000000  0.08492369  0.87898365  1
  P  P33  1  0.25000000  0.41507631  0.37898365  1
  P  P34  1  0.75000000  0.91507631  0.12101635  1
  P  P35  1  0.75000000  0.58492369  0.62101635  1
