# generated using pymatgen
data_Li9Mn2Co5O16
_symmetry_space_group_name_H-M   'P 1'
_cell_length_a   2.88776743
_cell_length_b   15.27897735
_cell_length_c   6.80196235
_cell_angle_alpha   93.62230250
_cell_angle_beta   77.74430856
_cell_angle_gamma   90.00000065
_symmetry_Int_Tables_number   1
_chemical_formula_structural   Li9Mn2Co5O16
_chemical_formula_sum   'Li9 Mn2 Co5 O16'
_cell_volume   292.66384563
_cell_formula_units_Z   1
loop_
 _symmetry_equiv_pos_site_id
 _symmetry_equiv_pos_as_xyz
  1  'x, y, z'
loop_
 _atom_site_type_symbol
 _atom_site_label
 _atom_site_symmetry_multiplicity
 _atom_site_fract_x
 _atom_site_fract_y
 _atom_site_fract_z
 _atom_site_occupancy
  Li  Li0  1  0.31296264  0.06032127  0.37407472  1
  Li  Li1  1  0.93697338  0.18923732  0.12605325  1
  Li  Li2  1  0.55683737  0.31448980  0.88632526  1
  Li  Li3  1  0.68978975  0.93459019  0.62042051  1
  Li  Li4  1  0.06271134  0.80948560  0.87457732  1
  Li  Li5  1  0.43522501  0.68530126  0.12954998  1
  Li  Li6  1  0.19060740  0.44135760  0.61878520  1
  Li  Li7  1  0.81500779  0.56502883  0.36998443  1
  Li  Li8  1  0.49630487  0.49935520  0.00739026  1
  Mn  Mn9  1  0.99673576  0.99835767  0.00652848  1
  Mn  Mn10  1  0.62906202  0.12779437  0.74187597  1
  Co  Co11  1  0.25496862  0.25511837  0.49006276  1
  Co  Co12  1  0.88759816  0.38093827  0.22480368  1
  Co  Co13  1  0.10892173  0.61760066  0.78215653  1
  Co  Co14  1  0.75025861  0.74356635  0.49948278  1
  Co  Co15  1  0.36807605  0.87212962  0.26384789  1
  O  O16  1  0.47039405  0.08489613  0.05921189  1
  O  O17  1  0.09861837  0.21210504  0.80276326  1
  O  O18  1  0.72959800  0.33700198  0.54080399  1
  O  O19  1  0.84216429  0.96191248  0.31567143  1
  O  O20  1  0.22254065  0.83709828  0.55491870  1
  O  O21  1  0.60279344  0.70807272  0.79441313  1
  O  O22  1  0.34236940  0.45937154  0.31526121  1
  O  O23  1  0.97788549  0.59596618  0.04422902  1
  O  O24  1  0.15650269  0.04274014  0.68699463  1
  O  O25  1  0.78044145  0.17100817  0.43911709  1
  O  O26  1  0.40107507  0.29003634  0.19784985  1
  O  O27  1  0.52650615  0.91299710  0.94698769  1
  O  O28  1  0.90162021  0.78717055  0.19675959  1
  O  O29  1  0.28244501  0.66194802  0.43510997  1
  O  O30  1  0.01814027  0.40256791  0.96371945  1
  O  O31  1  0.65486496  0.54043504  0.69027009  1
