# generated using pymatgen
data_NiP2H21C7Cl
_symmetry_space_group_name_H-M   'P 1'
_cell_length_a   12.25935572
_cell_length_b   12.23158514
_cell_length_c   19.96918488
_cell_angle_alpha   90.00000000
_cell_angle_beta   90.00000000
_cell_angle_gamma   89.95768598
_symmetry_Int_Tables_number   1
_chemical_formula_structural   NiP2H21C7Cl
_chemical_formula_sum   'Ni8 P16 H168 C56 Cl8'
_cell_volume   2994.40547956
_cell_formula_units_Z   8
loop_
 _symmetry_equiv_pos_site_id
 _symmetry_equiv_pos_as_xyz
  1  'x, y, z'
loop_
 _atom_site_type_symbol
 _atom_site_label
 _atom_site_symmetry_multiplicity
 _atom_site_fract_x
 _atom_site_fract_y
 _atom_site_fract_z
 _atom_site_occupancy
  Ni  Ni0  1  0.21397180  0.54503035  0.62523076  1
  Ni  Ni1  1  0.78602820  0.95496965  0.12523076  1
  Ni  Ni2  1  0.78602820  0.45496965  0.37476924  1
  Ni  Ni3  1  0.21397180  0.04503035  0.87476924  1
  Ni  Ni4  1  0.71351210  0.95366321  0.62531141  1
  Ni  Ni5  1  0.28648790  0.54633679  0.12531141  1
  Ni  Ni6  1  0.28648790  0.04633679  0.37468859  1
  Ni  Ni7  1  0.71351210  0.45366321  0.87468859  1
  P  P8  1  0.17781032  0.43672583  0.70974208  1
  P  P9  1  0.82218968  0.06327417  0.20974208  1
  P  P10  1  0.82218968  0.56327417  0.29025792  1
  P  P11  1  0.17781032  0.93672583  0.79025792  1
  P  P12  1  0.23900327  0.64699277  0.53574502  1
  P  P13  1  0.76099673  0.85300723  0.03574502  1
  P  P14  1  0.76099673  0.35300723  0.46425498  1
  P  P15  1  0.23900327  0.14699277  0.96425498  1
  P  P16  1  0.67761257  0.06291218  0.70946405  1
  P  P17  1  0.32238743  0.43708782  0.20946405  1
  P  P18  1  0.32238743  0.93708782  0.29053595  1
  P  P19  1  0.67761257  0.56291218  0.79053595  1
  P  P20  1  0.73902346  0.85312653  0.53565159  1
  P  P21  1  0.26097654  0.64687347  0.03565159  1
  P  P22  1  0.26097654  0.14687347  0.46434841  1
  P  P23  1  0.73902346  0.35312653  0.96434841  1
  H  H24  1  0.38447999  0.46488222  0.57060116  1
  H  H25  1  0.61552001  0.03511778  0.07060116  1
  H  H26  1  0.61552001  0.53511778  0.42939884  1
  H  H27  1  0.38447999  0.96488222  0.92939884  1
  H  H28  1  0.41522460  0.56534858  0.63256249  1
  H  H29  1  0.58477540  0.93465142  0.13256249  1
  H  H30  1  0.58477540  0.43465142  0.36743751  1
  H  H31  1  0.41522460  0.06534858  0.86743751  1
  H  H32  1  0.38326855  0.42887799  0.65664538  1
  H  H33  1  0.61673145  0.07112201  0.15664538  1
  H  H34  1  0.61673145  0.57112201  0.34335462  1
  H  H35  1  0.38326855  0.92887799  0.84335462  1
  H  H36  1  0.23278892  0.28405173  0.77893580  1
  H  H37  1  0.76721108  0.21594827  0.27893580  1
  H  H38  1  0.76721108  0.71594827  0.22106420  1
  H  H39  1  0.23278892  0.78405173  0.72106420  1
  H  H40  1  0.27702609  0.26539313  0.69456823  1
  H  H41  1  0.72297391  0.23460687  0.19456823  1
  H  H42  1  0.72297391  0.73460687  0.30543177  1
  H  H43  1  0.27702609  0.76539313  0.80543177  1
  H  H44  1  0.34972669  0.35543993  0.74889659  1
  H  H45  1  0.65027331  0.14456007  0.24889659  1
  H  H46  1  0.65027331  0.64456007  0.25110341  1
  H  H47  1  0.34972669  0.85543993  0.75110341  1
  H  H48  1  0.24557788  0.54200945  0.80319998  1
  H  H49  1  0.75442212  0.95799055  0.30319998  1
  H  H50  1  0.75442212  0.45799055  0.19680002  1
  H  H51  1  0.24557788  0.04200945  0.69680002  1
  H  H52  1  0.10642523  0.57572372  0.78441572  1
  H  H53  1  0.89357477  0.92427628  0.28441572  1
  H  H54  1  0.89357477  0.42427628  0.21558428  1
  H  H55  1  0.10642523  0.07572372  0.71558428  1
  H  H56  1  0.13827556  0.45126850  0.82800907  1
  H  H57  1  0.86172444  0.04873150  0.32800907  1
  H  H58  1  0.86172444  0.54873150  0.17199093  1
  H  H59  1  0.13827556  0.95126850  0.67199093  1
  H  H60  1  0.98209556  0.42174985  0.69573415  1
  H  H61  1  0.01790444  0.07825015  0.19573415  1
  H  H62  1  0.01790444  0.57825015  0.30426585  1
  H  H63  1  0.98209556  0.92174985  0.80426585  1
  H  H64  1  0.05134806  0.30445045  0.66385721  1
  H  H65  1  0.94865194  0.19554955  0.16385721  1
  H  H66  1  0.94865194  0.69554955  0.33614279  1
  H  H67  1  0.05134806  0.80445045  0.83614279  1
  H  H68  1  0.03349703  0.31902645  0.75233611  1
  H  H69  1  0.96650297  0.18097355  0.25233611  1
  H  H70  1  0.96650297  0.68097355  0.24766389  1
  H  H71  1  0.03349703  0.81902645  0.74766389  1
  H  H72  1  0.15726308  0.81402711  0.57601374  1
  H  H73  1  0.84273692  0.68597289  0.07601374  1
  H  H74  1  0.84273692  0.18597289  0.42398626  1
  H  H75  1  0.15726308  0.31402711  0.92398626  1
  H  H76  1  0.30363917  0.82171570  0.57736370  1
  H  H77  1  0.69636083  0.67828430  0.07736370  1
  H  H78  1  0.69636083  0.17828430  0.42263630  1
  H  H79  1  0.30363917  0.32171570  0.92263630  1
  H  H80  1  0.23194867  0.83708581  0.49986891  1
  H  H81  1  0.76805133  0.66291419  0.99986891  1
  H  H82  1  0.76805133  0.16291419  0.50013109  1
  H  H83  1  0.23194867  0.33708581  0.00013109  1
  H  H84  1  0.43497381  0.66127415  0.51606053  1
  H  H85  1  0.56502619  0.83872585  0.01606053  1
  H  H86  1  0.56502619  0.33872585  0.48393947  1
  H  H87  1  0.43497381  0.16127415  0.98393947  1
  H  H88  1  0.37626213  0.55358346  0.46787763  1
  H  H89  1  0.62373787  0.94641654  0.96787763  1
  H  H90  1  0.62373787  0.44641654  0.53212237  1
  H  H91  1  0.37626213  0.05358346  0.03212237  1
  H  H92  1  0.35794620  0.69249419  0.44268608  1
  H  H93  1  0.64205380  0.80750581  0.94268608  1
  H  H94  1  0.64205380  0.30750581  0.55731392  1
  H  H95  1  0.35794620  0.19249419  0.05731392  1
  H  H96  1  0.14856215  0.68571883  0.43038284  1
  H  H97  1  0.85143785  0.81428117  0.93038284  1
  H  H98  1  0.85143785  0.31428117  0.56961716  1
  H  H99  1  0.14856215  0.18571883  0.06961716  1
  H  H100  1  0.13888716  0.54351619  0.45139547  1
  H  H101  1  0.86111284  0.95648381  0.95139547  1
  H  H102  1  0.86111284  0.45648381  0.54860453  1
  H  H103  1  0.13888716  0.04351619  0.04860453  1
  H  H104  1  0.05418595  0.64007381  0.49315825  1
  H  H105  1  0.94581405  0.85992619  0.99315825  1
  H  H106  1  0.94581405  0.35992619  0.50684175  1
  H  H107  1  0.05418595  0.14007381  0.00684175  1
  H  H108  1  0.89249646  0.02862105  0.67303709  1
  H  H109  1  0.10750354  0.47137895  0.17303709  1
  H  H110  1  0.10750354  0.97137895  0.32696291  1
  H  H111  1  0.89249646  0.52862105  0.82696291  1
  H  H112  1  0.91793879  0.93937303  0.60490901  1
  H  H113  1  0.08206121  0.56062697  0.10490901  1
  H  H114  1  0.08206121  0.06062697  0.39509099  1
  H  H115  1  0.91793879  0.43937303  0.89509099  1
  H  H116  1  0.87011056  0.07480220  0.58956927  1
  H  H117  1  0.12988944  0.42519780  0.08956927  1
  H  H118  1  0.12988944  0.92519780  0.41043073  1
  H  H119  1  0.87011056  0.57480220  0.91043073  1
  H  H120  1  0.84442026  0.14154275  0.75694091  1
  H  H121  1  0.15557974  0.35845725  0.25694091  1
  H  H122  1  0.15557974  0.85845725  0.24305909  1
  H  H123  1  0.84442026  0.64154275  0.74305909  1
  H  H124  1  0.79193931  0.22422440  0.69092755  1
  H  H125  1  0.20806069  0.27577560  0.19092755  1
  H  H126  1  0.20806069  0.77577560  0.30907245  1
  H  H127  1  0.79193931  0.72422440  0.80907245  1
  H  H128  1  0.72768865  0.22527270  0.77136833  1
  H  H129  1  0.27231135  0.27472730  0.27136833  1
  H  H130  1  0.27231135  0.77472730  0.22863167  1
  H  H131  1  0.72768865  0.72527270  0.72863167  1
  H  H132  1  0.63499752  0.04860619  0.82744283  1
  H  H133  1  0.36500248  0.45139381  0.32744283  1
  H  H134  1  0.36500248  0.95139381  0.17255717  1
  H  H135  1  0.63499752  0.54860619  0.67255717  1
  H  H136  1  0.60898817  0.92263817  0.78411788  1
  H  H137  1  0.39101183  0.57736183  0.28411788  1
  H  H138  1  0.39101183  0.07736183  0.21588212  1
  H  H139  1  0.60898817  0.42263817  0.71588212  1
  H  H140  1  0.74625039  0.96141764  0.80419180  1
  H  H141  1  0.25374961  0.53858236  0.30419180  1
  H  H142  1  0.25374961  0.03858236  0.19580820  1
  H  H143  1  0.74625039  0.46141764  0.69580820  1
  H  H144  1  0.53479859  0.18251483  0.75171160  1
  H  H145  1  0.46520141  0.31748517  0.25171160  1
  H  H146  1  0.46520141  0.81748517  0.24828840  1
  H  H147  1  0.53479859  0.68251483  0.74828840  1
  H  H148  1  0.54980785  0.19387381  0.66282230  1
  H  H149  1  0.45019215  0.30612619  0.16282230  1
  H  H150  1  0.45019215  0.80612619  0.33717770  1
  H  H151  1  0.54980785  0.69387381  0.83717770  1
  H  H152  1  0.48151226  0.07799103  0.69713115  1
  H  H153  1  0.51848774  0.42200897  0.19713115  1
  H  H154  1  0.51848774  0.92200897  0.30286885  1
  H  H155  1  0.48151226  0.57799103  0.80286885  1
  H  H156  1  0.73945655  0.66292661  0.50064502  1
  H  H157  1  0.26054345  0.83707339  0.00064502  1
  H  H158  1  0.26054345  0.33707339  0.49935498  1
  H  H159  1  0.73945655  0.16292661  0.99935498  1
  H  H160  1  0.80164255  0.68030816  0.58115022  1
  H  H161  1  0.19835745  0.81969184  0.08115022  1
  H  H162  1  0.19835745  0.31969184  0.41884978  1
  H  H163  1  0.80164255  0.18030816  0.91884978  1
  H  H164  1  0.65579022  0.68547645  0.57337261  1
  H  H165  1  0.34420978  0.81452355  0.07337261  1
  H  H166  1  0.34420978  0.31452355  0.42662739  1
  H  H167  1  0.65579022  0.18547645  0.92662739  1
  H  H168  1  0.85791801  0.80436884  0.44350592  1
  H  H169  1  0.14208199  0.69563116  0.94350592  1
  H  H170  1  0.14208199  0.19563116  0.55649408  1
  H  H171  1  0.85791801  0.30436884  0.05649408  1
  H  H172  1  0.87518840  0.94492466  0.46584860  1
  H  H173  1  0.12481160  0.55507534  0.96584860  1
  H  H174  1  0.12481160  0.05507534  0.53415140  1
  H  H175  1  0.87518840  0.44492466  0.03415140  1
  H  H176  1  0.93546827  0.83999987  0.51562869  1
  H  H177  1  0.06453173  0.66000013  0.01562869  1
  H  H178  1  0.06453173  0.16000013  0.48437131  1
  H  H179  1  0.93546827  0.33999987  0.98437131  1
  H  H180  1  0.55399769  0.86822259  0.49424116  1
  H  H181  1  0.44600231  0.63177741  0.99424116  1
  H  H182  1  0.44600231  0.13177741  0.50575884  1
  H  H183  1  0.55399769  0.36822259  0.00575884  1
  H  H184  1  0.64438926  0.95238247  0.44722595  1
  H  H185  1  0.35561074  0.54761753  0.94722595  1
  H  H186  1  0.35561074  0.04761753  0.55277405  1
  H  H187  1  0.64438926  0.45238247  0.05277405  1
  H  H188  1  0.64294703  0.80755368  0.43322122  1
  H  H189  1  0.35705297  0.69244632  0.93322122  1
  H  H190  1  0.35705297  0.19244632  0.56677878  1
  H  H191  1  0.64294703  0.30755368  0.06677878  1
  C  C192  1  0.36341137  0.49439891  0.62095185  1
  C  C193  1  0.63658863  0.00560109  0.12095185  1
  C  C194  1  0.63658863  0.50560109  0.37904815  1
  C  C195  1  0.36341137  0.99439891  0.87904815  1
  C  C196  1  0.26864399  0.32511501  0.73514489  1
  C  C197  1  0.73135601  0.17488499  0.23514489  1
  C  C198  1  0.73135601  0.67488499  0.26485511  1
  C  C199  1  0.26864399  0.82511501  0.76485511  1
  C  C200  1  0.16546720  0.50900317  0.78941172  1
  C  C201  1  0.83453280  0.99099683  0.28941172  1
  C  C202  1  0.83453280  0.49099683  0.21058828  1
  C  C203  1  0.16546720  0.00900317  0.71058828  1
  C  C204  1  0.04802387  0.36332208  0.70512446  1
  C  C205  1  0.95197613  0.13667792  0.20512446  1
  C  C206  1  0.95197613  0.63667792  0.29487554  1
  C  C207  1  0.04802387  0.86332208  0.79487554  1
  C  C208  1  0.23226843  0.79492780  0.54856822  1
  C  C209  1  0.76773157  0.70507220  0.04856822  1
  C  C210  1  0.76773157  0.20507220  0.45143178  1
  C  C211  1  0.23226843  0.29492780  0.95143178  1
  C  C212  1  0.36416076  0.63732611  0.48595955  1
  C  C213  1  0.63583924  0.86267389  0.98595955  1
  C  C214  1  0.63583924  0.36267389  0.51404045  1
  C  C215  1  0.36416076  0.13732611  0.01404045  1
  C  C216  1  0.13501597  0.62697254  0.47124896  1
  C  C217  1  0.86498403  0.87302746  0.97124896  1
  C  C218  1  0.86498403  0.37302746  0.52875104  1
  C  C219  1  0.13501597  0.12697254  0.02875104  1
  C  C220  1  0.86318706  0.00384530  0.62323495  1
  C  C221  1  0.13681294  0.49615470  0.12323495  1
  C  C222  1  0.13681294  0.99615470  0.37676505  1
  C  C223  1  0.86318706  0.50384530  0.87676505  1
  C  C224  1  0.76962581  0.17387770  0.73419027  1
  C  C225  1  0.23037419  0.32612230  0.23419027  1
  C  C226  1  0.23037419  0.82612230  0.26580973  1
  C  C227  1  0.76962581  0.67387770  0.76580973  1
  C  C228  1  0.66533545  0.99135984  0.78935988  1
  C  C229  1  0.33466455  0.50864016  0.28935988  1
  C  C230  1  0.33466455  0.00864016  0.21064012  1
  C  C231  1  0.66533545  0.49135984  0.71064012  1
  C  C232  1  0.54777040  0.13654343  0.70489731  1
  C  C233  1  0.45222960  0.36345657  0.20489731  1
  C  C234  1  0.45222960  0.86345657  0.29510269  1
  C  C235  1  0.54777040  0.63654343  0.79510269  1
  C  C236  1  0.73335359  0.70541451  0.54914434  1
  C  C237  1  0.26664641  0.79458549  0.04914434  1
  C  C238  1  0.26664641  0.29458549  0.45085566  1
  C  C239  1  0.73335359  0.20541451  0.95085566  1
  C  C240  1  0.86397491  0.86202828  0.48552449  1
  C  C241  1  0.13602509  0.63797172  0.98552449  1
  C  C242  1  0.13602509  0.13797172  0.51447551  1
  C  C243  1  0.86397491  0.36202828  0.01447551  1
  C  C244  1  0.63484017  0.87228219  0.47115762  1
  C  C245  1  0.36515983  0.62771781  0.97115762  1
  C  C246  1  0.36515983  0.12771781  0.52884238  1
  C  C247  1  0.63484017  0.37228219  0.02884238  1
  Cl  Cl248  1  0.04816217  0.62174656  0.63703052  1
  Cl  Cl249  1  0.95183783  0.87825344  0.13703052  1
  Cl  Cl250  1  0.95183783  0.37825344  0.36296948  1
  Cl  Cl251  1  0.04816217  0.12174656  0.86296948  1
  Cl  Cl252  1  0.54727946  0.87815887  0.63671201  1
  Cl  Cl253  1  0.45272054  0.62184113  0.13671201  1
  Cl  Cl254  1  0.45272054  0.12184113  0.36328799  1
  Cl  Cl255  1  0.54727946  0.37815887  0.86328799  1
