# generated using pymatgen
data_V3(H3O5)2
_symmetry_space_group_name_H-M   'P 1'
_cell_length_a   5.54226881
_cell_length_b   9.03091526
_cell_length_c   9.03091526
_cell_angle_alpha   90.00000000
_cell_angle_beta   90.00000000
_cell_angle_gamma   90.00000000
_symmetry_Int_Tables_number   1
_chemical_formula_structural   V3(H3O5)2
_chemical_formula_sum   'V6 H12 O20'
_cell_volume   452.01320291
_cell_formula_units_Z   2
loop_
 _symmetry_equiv_pos_site_id
 _symmetry_equiv_pos_as_xyz
  1  'x, y, z'
loop_
 _atom_site_type_symbol
 _atom_site_label
 _atom_site_symmetry_multiplicity
 _atom_site_fract_x
 _atom_site_fract_y
 _atom_site_fract_z
 _atom_site_occupancy
  V  V0  1  0.24091263  -0.00000000  -0.00000000  1
  V  V1  1  0.24091263  0.50000000  0.50000000  1
  V  V2  1  0.26701221  0.86125657  0.36125657  1
  V  V3  1  0.26701221  0.13874343  0.63874343  1
  V  V4  1  0.26701221  0.63874343  0.86125657  1
  V  V5  1  0.26701221  0.36125657  0.13874343  1
  H  H6  1  0.66045486  0.72990569  0.77009431  1
  H  H7  1  0.66045486  0.27009431  0.22990569  1
  H  H8  1  0.66045486  0.77009431  0.27009431  1
  H  H9  1  0.66045486  0.22990569  0.72990569  1
  H  H10  1  0.71078374  0.82304679  0.55314810  1
  H  H11  1  0.71078374  0.17695321  0.44685190  1
  H  H12  1  0.71078374  0.67695321  0.05314810  1
  H  H13  1  0.71078374  0.32304679  0.94685190  1
  H  H14  1  0.71078374  0.55314810  0.17695321  1
  H  H15  1  0.71078374  0.44685190  0.82304679  1
  H  H16  1  0.71078374  0.05314810  0.32304679  1
  H  H17  1  0.71078374  0.94685190  0.67695321  1
  O  O18  1  0.74110061  0.84107713  0.65892287  1
  O  O19  1  0.74110061  0.15892287  0.34107713  1
  O  O20  1  0.74110061  0.65892287  0.15892287  1
  O  O21  1  0.74110061  0.34107713  0.84107713  1
  O  O22  1  0.21130295  -0.00000000  0.50000000  1
  O  O23  1  0.21130295  0.50000000  -0.00000000  1
  O  O24  1  0.58820179  0.84621752  0.34621752  1
  O  O25  1  0.58820179  0.15378248  0.65378248  1
  O  O26  1  0.58820179  0.65378248  0.84621752  1
  O  O27  1  0.58820179  0.34621752  0.15378248  1
  O  O28  1  0.14902274  0.91315332  0.19527118  1
  O  O29  1  0.14902274  0.08684668  0.80472882  1
  O  O30  1  0.14902274  0.58684668  0.69527118  1
  O  O31  1  0.14902274  0.41315332  0.30472882  1
  O  O32  1  0.14902274  0.19527118  0.08684668  1
  O  O33  1  0.14902274  0.80472882  0.91315332  1
  O  O34  1  0.14902274  0.69527118  0.41315332  1
  O  O35  1  0.14902274  0.30472882  0.58684668  1
  O  O36  1  0.53463958  -0.00000000  -0.00000000  1
  O  O37  1  0.53463958  0.50000000  0.50000000  1
