# generated using pymatgen
data_Na2TlP3H7N3O8
_symmetry_space_group_name_H-M   'P 1'
_cell_length_a   8.12390524
_cell_length_b   8.15841728
_cell_length_c   8.80870866
_cell_angle_alpha   76.66828033
_cell_angle_beta   81.90860884
_cell_angle_gamma   76.50887981
_symmetry_Int_Tables_number   1
_chemical_formula_structural   Na2TlP3H7N3O8
_chemical_formula_sum   'Na4 Tl2 P6 H14 N6 O16'
_cell_volume   550.07847492
_cell_formula_units_Z   2
loop_
 _symmetry_equiv_pos_site_id
 _symmetry_equiv_pos_as_xyz
  1  'x, y, z'
loop_
 _atom_site_type_symbol
 _atom_site_label
 _atom_site_symmetry_multiplicity
 _atom_site_fract_x
 _atom_site_fract_y
 _atom_site_fract_z
 _atom_site_occupancy
  Na  Na0  1  0.92649984  0.00097471  0.33081459  1
  Na  Na1  1  0.07350016  0.99902529  0.66918541  1
  Na  Na2  1  0.14718152  0.15264277  0.99522790  1
  Na  Na3  1  0.85281848  0.84735723  0.00477210  1
  Tl  Tl4  1  0.62569181  0.71469173  0.42534390  1
  Tl  Tl5  1  0.37430819  0.28530827  0.57465610  1
  P  P6  1  0.24885896  0.71898489  0.14921281  1
  P  P7  1  0.75114104  0.28101511  0.85078719  1
  P  P8  1  0.55498071  0.16674762  0.15264550  1
  P  P9  1  0.44501929  0.83325238  0.84735450  1
  P  P10  1  0.78637245  0.41315951  0.12909824  1
  P  P11  1  0.21362755  0.58684049  0.87090176  1
  H  H12  1  0.53583448  0.71800841  0.08967120  1
  H  H13  1  0.46416552  0.28199159  0.91032880  1
  H  H14  1  0.25524810  0.43864457  0.12566358  1
  H  H15  1  0.74475190  0.56135543  0.87433642  1
  H  H16  1  0.51120265  0.42164024  0.23590572  1
  H  H17  1  0.48879735  0.57835976  0.76409428  1
  H  H18  1  0.97186574  0.68212931  0.61994360  1
  H  H19  1  0.02813426  0.31787069  0.38005640  1
  H  H20  1  0.06619414  0.64056751  0.46051034  1
  H  H21  1  0.93380586  0.35943249  0.53948966  1
  H  H22  1  0.25015121  0.84763580  0.39471709  1
  H  H23  1  0.74984879  0.15236420  0.60528291  1
  H  H24  1  0.26957939  0.04172257  0.34510679  1
  H  H25  1  0.73042061  0.95827743  0.65489321  1
  N  N26  1  0.42238968  0.78501099  0.04536798  1
  N  N27  1  0.57761032  0.21498901  0.95463202  1
  N  N28  1  0.21441094  0.56336404  0.06714609  1
  N  N29  1  0.78558906  0.43663596  0.93285391  1
  N  N30  1  0.61381519  0.32791006  0.21281038  1
  N  N31  1  0.38618481  0.67208994  0.78718962  1
  O  O32  1  0.09857995  0.86873424  0.12671604  1
  O  O33  1  0.90142005  0.13126576  0.87328396  1
  O  O34  1  0.67990136  0.00017670  0.20623622  1
  O  O35  1  0.32009864  0.99982330  0.79376378  1
  O  O36  1  0.29691853  0.63827650  0.31505305  1
  O  O37  1  0.70308147  0.36172350  0.68494695  1
  O  O38  1  0.94251646  0.28332123  0.18413526  1
  O  O39  1  0.05748354  0.71667877  0.81586474  1
  O  O40  1  0.75289059  0.59383417  0.16190756  1
  O  O41  1  0.24710941  0.40616583  0.83809244  1
  O  O42  1  0.36614524  0.18229192  0.20143963  1
  O  O43  1  0.63385476  0.81770808  0.79856037  1
  O  O44  1  0.95604131  0.69343612  0.50880845  1
  O  O45  1  0.04395869  0.30656388  0.49119155  1
  O  O46  1  0.21182632  0.96039807  0.42500413  1
  O  O47  1  0.78817368  0.03960193  0.57499587  1
