# generated using pymatgen
data_K4H6W2S2O9
_symmetry_space_group_name_H-M   'P 1'
_cell_length_a   6.57171652
_cell_length_b   6.57171652
_cell_length_c   19.01911513
_cell_angle_alpha   82.89493919
_cell_angle_beta   82.89493919
_cell_angle_gamma   79.78925157
_symmetry_Int_Tables_number   1
_chemical_formula_structural   K4H6W2S2O9
_chemical_formula_sum   'K8 H12 W4 S4 O18'
_cell_volume   797.80410627
_cell_formula_units_Z   2
loop_
 _symmetry_equiv_pos_site_id
 _symmetry_equiv_pos_as_xyz
  1  'x, y, z'
loop_
 _atom_site_type_symbol
 _atom_site_label
 _atom_site_symmetry_multiplicity
 _atom_site_fract_x
 _atom_site_fract_y
 _atom_site_fract_z
 _atom_site_occupancy
  K  K0  1  0.80489733  0.77837806  0.28368351  1
  K  K1  1  0.22162194  0.19510267  0.21631649  1
  K  K2  1  0.19510267  0.22162194  0.71631649  1
  K  K3  1  0.77837806  0.80489733  0.78368351  1
  K  K4  1  0.87079123  0.26214419  0.43876790  1
  K  K5  1  0.73785581  0.12920877  0.06123210  1
  K  K6  1  0.12920877  0.73785581  0.56123210  1
  K  K7  1  0.26214419  0.87079123  0.93876790  1
  H  H8  1  0.20916174  0.28048181  0.03901684  1
  H  H9  1  0.71951819  0.79083826  0.46098316  1
  H  H10  1  0.79083826  0.71951819  0.96098316  1
  H  H11  1  0.28048181  0.20916174  0.53901684  1
  H  H12  1  0.06722127  0.44676270  0.08248363  1
  H  H13  1  0.55323730  0.93277873  0.41751637  1
  H  H14  1  0.93277873  0.55323730  0.91751637  1
  H  H15  1  0.44676270  0.06722127  0.58248363  1
  H  H16  1  0.70657733  0.27931454  0.21043522  1
  H  H17  1  0.72068546  0.29342267  0.28956478  1
  H  H18  1  0.29342267  0.72068546  0.78956478  1
  H  H19  1  0.27931454  0.70657733  0.71043522  1
  W  W20  1  0.30973365  0.54199556  0.37950617  1
  W  W21  1  0.45800444  0.69026635  0.12049383  1
  W  W22  1  0.69026635  0.45800444  0.62049383  1
  W  W23  1  0.54199556  0.30973365  0.87950617  1
  S  S24  1  0.89284627  0.24245620  0.87623873  1
  S  S25  1  0.75754380  0.10715373  0.62376127  1
  S  S26  1  0.10715373  0.75754380  0.12376127  1
  S  S27  1  0.24245620  0.89284627  0.37623873  1
  O  O28  1  0.14180632  0.46050151  0.32415514  1
  O  O29  1  0.53949849  0.85819368  0.17584486  1
  O  O30  1  0.85819368  0.53949849  0.67584486  1
  O  O31  1  0.46050151  0.14180632  0.82415514  1
  O  O32  1  0.24840047  0.43137768  0.46995584  1
  O  O33  1  0.56862232  0.75159953  0.03004416  1
  O  O34  1  0.75159953  0.56862232  0.53004416  1
  O  O35  1  0.43137768  0.24840047  0.96995584  1
  O  O36  1  0.58308376  0.45850593  0.35008751  1
  O  O37  1  0.54149407  0.41691624  0.14991249  1
  O  O38  1  0.41691624  0.54149407  0.64991249  1
  O  O39  1  0.45850593  0.58308376  0.85008751  1
  O  O40  1  0.08569125  0.29859429  0.07469269  1
  O  O41  1  0.70140571  0.91430875  0.42530731  1
  O  O42  1  0.91430875  0.70140571  0.92530731  1
  O  O43  1  0.29859429  0.08569125  0.57469269  1
  O  O44  1  0.78871788  0.21128212  0.25000000  1
  O  O45  1  0.21128212  0.78871788  0.75000000  1
