# generated using pymatgen
data_SmAgH4C2SO10
_symmetry_space_group_name_H-M   'P 1'
_cell_length_a   6.69623435
_cell_length_b   9.06257796
_cell_length_c   14.20465586
_cell_angle_alpha   90.00000000
_cell_angle_beta   90.00000000
_cell_angle_gamma   97.61384313
_symmetry_Int_Tables_number   1
_chemical_formula_structural   SmAgH4C2SO10
_chemical_formula_sum   'Sm4 Ag4 H16 C8 S4 O40'
_cell_volume   854.41173664
_cell_formula_units_Z   4
loop_
 _symmetry_equiv_pos_site_id
 _symmetry_equiv_pos_as_xyz
  1  'x, y, z'
loop_
 _atom_site_type_symbol
 _atom_site_label
 _atom_site_symmetry_multiplicity
 _atom_site_fract_x
 _atom_site_fract_y
 _atom_site_fract_z
 _atom_site_occupancy
  Sm  Sm0  1  0.22579479  0.28589737  0.40978224  1
  Sm  Sm1  1  0.77420521  0.21410263  0.90978224  1
  Sm  Sm2  1  0.77420521  0.71410263  0.59021776  1
  Sm  Sm3  1  0.22579479  0.78589737  0.09021776  1
  Ag  Ag4  1  0.71566653  0.27301984  0.24543843  1
  Ag  Ag5  1  0.28433347  0.22698016  0.74543843  1
  Ag  Ag6  1  0.28433347  0.72698016  0.75456157  1
  Ag  Ag7  1  0.71566653  0.77301984  0.25456157  1
  H  H8  1  0.32361707  0.45347064  0.59868854  1
  H  H9  1  0.67638293  0.04652936  0.09868854  1
  H  H10  1  0.67638293  0.54652936  0.40131146  1
  H  H11  1  0.32361707  0.95347064  0.90131146  1
  H  H12  1  0.09043848  0.40158645  0.59771044  1
  H  H13  1  0.90956152  0.09841355  0.09771044  1
  H  H14  1  0.90956152  0.59841355  0.40228956  1
  H  H15  1  0.09043848  0.90158645  0.90228956  1
  H  H16  1  0.20248308  0.97743953  0.52339340  1
  H  H17  1  0.79751692  0.52256047  0.02339340  1
  H  H18  1  0.79751692  0.02256047  0.47660660  1
  H  H19  1  0.20248308  0.47743953  0.97660660  1
  H  H20  1  0.39879969  0.08954908  0.55013341  1
  H  H21  1  0.60120031  0.41045092  0.05013341  1
  H  H22  1  0.60120031  0.91045092  0.44986659  1
  H  H23  1  0.39879969  0.58954908  0.94986659  1
  C  C24  1  0.12333867  0.98310966  0.27825098  1
  C  C25  1  0.87666133  0.51689034  0.77825098  1
  C  C26  1  0.87666133  0.01689034  0.72174902  1
  C  C27  1  0.12333867  0.48310966  0.22174902  1
  C  C28  1  0.35121854  0.02539218  0.26325175  1
  C  C29  1  0.64878146  0.47460782  0.76325175  1
  C  C30  1  0.64878146  0.97460782  0.73674825  1
  C  C31  1  0.35121854  0.52539218  0.23674825  1
  S  S32  1  0.27204779  0.69232458  0.47339663  1
  S  S33  1  0.72795221  0.80767542  0.97339663  1
  S  S34  1  0.72795221  0.30767542  0.52660337  1
  S  S35  1  0.27204779  0.19232458  0.02660337  1
  O  O36  1  0.43924623  0.94938935  0.20593647  1
  O  O37  1  0.56075377  0.55061065  0.70593647  1
  O  O38  1  0.56075377  0.05061065  0.79406353  1
  O  O39  1  0.43924623  0.44938935  0.29406353  1
  O  O40  1  0.03580229  0.06209948  0.33308430  1
  O  O41  1  0.96419771  0.43790052  0.83308430  1
  O  O42  1  0.96419771  0.93790052  0.66691570  1
  O  O43  1  0.03580229  0.56209948  0.16691570  1
  O  O44  1  0.22285875  0.36484054  0.59085619  1
  O  O45  1  0.77714125  0.13515946  0.09085619  1
  O  O46  1  0.77714125  0.63515946  0.40914381  1
  O  O47  1  0.22285875  0.86484054  0.90914381  1
  O  O48  1  0.16628434  0.55476558  0.42732869  1
  O  O49  1  0.83371566  0.94523442  0.92732869  1
  O  O50  1  0.83371566  0.44523442  0.57267131  1
  O  O51  1  0.16628434  0.05476558  0.07267131  1
  O  O52  1  0.43143943  0.64784162  0.53755669  1
  O  O53  1  0.56856057  0.85215838  0.03755669  1
  O  O54  1  0.56856057  0.35215838  0.46244331  1
  O  O55  1  0.43143943  0.14784162  0.96244331  1
  O  O56  1  0.36212764  0.80018679  0.40358168  1
  O  O57  1  0.63787236  0.69981321  0.90358168  1
  O  O58  1  0.63787236  0.19981321  0.59641832  1
  O  O59  1  0.36212764  0.30018679  0.09641832  1
  O  O60  1  0.11910156  0.75870153  0.53186649  1
  O  O61  1  0.88089844  0.74129847  0.03186649  1
  O  O62  1  0.88089844  0.24129847  0.46813351  1
  O  O63  1  0.11910156  0.25870153  0.96813351  1
  O  O64  1  0.27404358  0.07744656  0.51227072  1
  O  O65  1  0.72595642  0.42255344  0.01227072  1
  O  O66  1  0.72595642  0.92255344  0.48772928  1
  O  O67  1  0.27404358  0.57744656  0.98772928  1
  O  O68  1  0.04154543  0.87149669  0.23037128  1
  O  O69  1  0.95845457  0.62850331  0.73037128  1
  O  O70  1  0.95845457  0.12850331  0.76962872  1
  O  O71  1  0.04154543  0.37149669  0.26962872  1
  O  O72  1  0.43160134  0.13859282  0.30897338  1
  O  O73  1  0.56839866  0.36140718  0.80897338  1
  O  O74  1  0.56839866  0.86140718  0.69102662  1
  O  O75  1  0.43160134  0.63859282  0.19102662  1
