# generated using pymatgen
data_Gd4Ge3O13
_symmetry_space_group_name_H-M   'P 1'
_cell_length_a   6.74611689
_cell_length_b   9.45565739
_cell_length_c   10.16253052
_cell_angle_alpha   62.46437855
_cell_angle_beta   87.89114310
_cell_angle_gamma   69.77166900
_symmetry_Int_Tables_number   1
_chemical_formula_structural   Gd4Ge3O13
_chemical_formula_sum   'Gd8 Ge6 O26'
_cell_volume   533.44025224
_cell_formula_units_Z   2
loop_
 _symmetry_equiv_pos_site_id
 _symmetry_equiv_pos_as_xyz
  1  'x, y, z'
loop_
 _atom_site_type_symbol
 _atom_site_label
 _atom_site_symmetry_multiplicity
 _atom_site_fract_x
 _atom_site_fract_y
 _atom_site_fract_z
 _atom_site_occupancy
  Gd  Gd0  1  0.26203200  0.44032836  0.77522393  1
  Gd  Gd1  1  0.73796800  0.55967164  0.22477607  1
  Gd  Gd2  1  0.30412752  0.85074369  0.48965642  1
  Gd  Gd3  1  0.69587248  0.14925631  0.51034358  1
  Gd  Gd4  1  0.20457102  0.10716238  0.70147784  1
  Gd  Gd5  1  0.79542898  0.89283762  0.29852216  1
  Gd  Gd6  1  0.21722646  0.65624847  0.00575454  1
  Gd  Gd7  1  0.78277354  0.34375153  0.99424546  1
  Ge  Ge8  1  0.27504879  0.95518384  0.10913957  1
  Ge  Ge9  1  0.72495121  0.04481616  0.89086043  1
  Ge  Ge10  1  0.24785398  0.51974177  0.39696052  1
  Ge  Ge11  1  0.75214602  0.48025823  0.60303948  1
  Ge  Ge12  1  0.28333309  0.25790192  0.15949866  1
  Ge  Ge13  1  0.71666691  0.74209808  0.84050134  1
  O  O14  1  0.28024771  0.59057310  0.52658856  1
  O  O15  1  0.71975229  0.40942690  0.47341144  1
  O  O16  1  0.07463021  0.09052635  0.49894678  1
  O  O17  1  0.92536979  0.90947365  0.50105322  1
  O  O18  1  0.38378860  0.57203951  0.23629229  1
  O  O19  1  0.61621140  0.42796049  0.76370771  1
  O  O20  1  0.41405164  0.38145892  0.02160409  1
  O  O21  1  0.58594836  0.61854108  0.97839591  1
  O  O22  1  0.44826340  0.07443405  0.31792293  1
  O  O23  1  0.55173660  0.92556595  0.68207707  1
  O  O24  1  0.17304550  0.19265457  0.04199665  1
  O  O25  1  0.82695450  0.80734543  0.95800335  1
  O  O26  1  0.33357903  0.29270062  0.49510481  1
  O  O27  1  0.66642097  0.70729938  0.50489519  1
  O  O28  1  0.20796860  0.92132528  0.96315938  1
  O  O29  1  0.79203140  0.07867472  0.03684062  1
  O  O30  1  0.06655642  0.42737059  0.16041610  1
  O  O31  1  0.93344358  0.57262941  0.83958390  1
  O  O32  1  0.14001247  0.90665590  0.26678232  1
  O  O33  1  0.85998753  0.09334410  0.73321768  1
  O  O34  1  0.44720267  0.14946567  0.82951762  1
  O  O35  1  0.55279733  0.85053433  0.17048238  1
  O  O36  1  0.02465416  0.36733413  0.68832538  1
  O  O37  1  0.97534584  0.63266587  0.31167462  1
  O  O38  1  0.24856537  0.73460741  0.74756050  1
  O  O39  1  0.75143463  0.26539259  0.25243950  1
