# generated using pymatgen
data_LaH16N7O19
_symmetry_space_group_name_H-M   'P 1'
_cell_length_a   7.19304551
_cell_length_b   7.19304551
_cell_length_c   18.43726670
_cell_angle_alpha   80.59448516
_cell_angle_beta   80.59448516
_cell_angle_gamma   77.06211203
_symmetry_Int_Tables_number   1
_chemical_formula_structural   LaH16N7O19
_chemical_formula_sum   'La2 H32 N14 O38'
_cell_volume   909.21132279
_cell_formula_units_Z   2
loop_
 _symmetry_equiv_pos_site_id
 _symmetry_equiv_pos_as_xyz
  1  'x, y, z'
loop_
 _atom_site_type_symbol
 _atom_site_label
 _atom_site_symmetry_multiplicity
 _atom_site_fract_x
 _atom_site_fract_y
 _atom_site_fract_z
 _atom_site_occupancy
  La  La0  1  0.01317069  0.12856687  0.57473789  1
  La  La1  1  0.12856687  0.01317069  0.07473789  1
  H  H2  1  0.64139647  0.92811440  0.60398235  1
  H  H3  1  0.92811440  0.64139647  0.10398235  1
  H  H4  1  0.81090416  0.75377441  0.61912607  1
  H  H5  1  0.75377441  0.81090416  0.11912607  1
  H  H6  1  0.23204755  0.48513511  0.54834568  1
  H  H7  1  0.48513511  0.23204755  0.04834568  1
  H  H8  1  0.39434734  0.30647324  0.52929007  1
  H  H9  1  0.30647324  0.39434734  0.02929007  1
  H  H10  1  0.16780264  0.61578371  0.73661429  1
  H  H11  1  0.61578371  0.16780264  0.23661429  1
  H  H12  1  0.15687297  0.39682576  0.74020552  1
  H  H13  1  0.39682576  0.15687297  0.24020552  1
  H  H14  1  0.53007609  0.84201916  0.79175151  1
  H  H15  1  0.84201916  0.53007609  0.29175151  1
  H  H16  1  0.68926003  0.91006668  0.73027134  1
  H  H17  1  0.91006668  0.68926003  0.23027134  1
  H  H18  1  0.13384236  0.52295967  0.31799446  1
  H  H19  1  0.52295967  0.13384236  0.81799446  1
  H  H20  1  0.35855930  0.37593654  0.31159406  1
  H  H21  1  0.37593654  0.35855930  0.81159406  1
  H  H22  1  0.31008644  0.57709173  0.35488892  1
  H  H23  1  0.57709173  0.31008644  0.85488892  1
  H  H24  1  0.21758931  0.38659245  0.39458735  1
  H  H25  1  0.38659245  0.21758931  0.89458735  1
  H  H26  1  0.57134027  0.99221107  0.36650337  1
  H  H27  1  0.99221107  0.57134027  0.86650337  1
  H  H28  1  0.77801583  0.93536469  0.40793943  1
  H  H29  1  0.93536469  0.77801583  0.90793943  1
  H  H30  1  0.75738364  0.81306961  0.33914657  1
  H  H31  1  0.81306961  0.75738364  0.83914657  1
  H  H32  1  0.62678378  0.78251907  0.42266797  1
  H  H33  1  0.78251907  0.62678378  0.92266797  1
  N  N34  1  0.25555114  0.46520466  0.34473793  1
  N  N35  1  0.46520466  0.25555114  0.84473793  1
  N  N36  1  0.68152691  0.88357556  0.38417767  1
  N  N37  1  0.88357556  0.68152691  0.88417767  1
  N  N38  1  0.75153951  0.42017624  0.67425663  1
  N  N39  1  0.42017624  0.75153951  0.17425663  1
  N  N40  1  0.73279342  0.36565753  0.46385728  1
  N  N41  1  0.36565753  0.73279342  0.96385728  1
  N  N42  1  0.14983946  0.96262406  0.42129750  1
  N  N43  1  0.96262406  0.14983946  0.92129750  1
  N  N44  1  0.37133199  0.78499755  0.56947771  1
  N  N45  1  0.78499755  0.37133199  0.06947771  1
  N  N46  1  0.14739215  0.01901265  0.73383231  1
  N  N47  1  0.01901265  0.14739215  0.23383231  1
  O  O48  1  0.76944865  0.89411110  0.62103638  1
  O  O49  1  0.89411110  0.76944865  0.12103638  1
  O  O50  1  0.25365363  0.35495306  0.53431673  1
  O  O51  1  0.35495306  0.25365363  0.03431673  1
  O  O52  1  0.73874792  0.24422135  0.67821172  1
  O  O53  1  0.24422135  0.73874792  0.17821172  1
  O  O54  1  0.87300136  0.48164338  0.62128171  1
  O  O55  1  0.48164338  0.87300136  0.12128171  1
  O  O56  1  0.65335859  0.52582534  0.71897711  1
  O  O57  1  0.52582534  0.65335859  0.21897711  1
  O  O58  1  0.66863273  0.24796436  0.51710494  1
  O  O59  1  0.24796436  0.66863273  0.01710494  1
  O  O60  1  0.90471503  0.38752770  0.46283812  1
  O  O61  1  0.38752770  0.90471503  0.96283812  1
  O  O62  1  0.63159884  0.45432122  0.41559216  1
  O  O63  1  0.45432122  0.63159884  0.91559216  1
  O  O64  1  0.97779372  0.96793898  0.45447603  1
  O  O65  1  0.96793898  0.97779372  0.95447603  1
  O  O66  1  0.25118680  0.05845032  0.44559294  1
  O  O67  1  0.05845032  0.25118680  0.94559294  1
  O  O68  1  0.21537499  0.86762274  0.36897903  1
  O  O69  1  0.86762274  0.21537499  0.86897903  1
  O  O70  1  0.20309686  0.75472637  0.56775471  1
  O  O71  1  0.75472637  0.20309686  0.06775471  1
  O  O72  1  0.38016106  0.94745852  0.58773406  1
  O  O73  1  0.94745852  0.38016106  0.08773406  1
  O  O74  1  0.51892675  0.66466913  0.55334556  1
  O  O75  1  0.66466913  0.51892675  0.05334556  1
  O  O76  1  0.07457081  0.90378215  0.70622726  1
  O  O77  1  0.90378215  0.07457081  0.20622726  1
  O  O78  1  0.14559842  0.18657682  0.69668749  1
  O  O79  1  0.18657682  0.14559842  0.19668749  1
  O  O80  1  0.21760656  0.96997018  0.79294482  1
  O  O81  1  0.96997018  0.21760656  0.29294482  1
  O  O82  1  0.17731325  0.49273177  0.76917896  1
  O  O83  1  0.49273177  0.17731325  0.26917896  1
  O  O84  1  0.64170361  0.90297004  0.78382642  1
  O  O85  1  0.90297004  0.64170361  0.28382642  1
