# generated using pymatgen
data_CuTePb3CO10
_symmetry_space_group_name_H-M   'P 1'
_cell_length_a   9.52373530
_cell_length_b   9.57381940
_cell_length_c   10.49261922
_cell_angle_alpha   90.00000000
_cell_angle_beta   90.00000000
_cell_angle_gamma   90.00000000
_symmetry_Int_Tables_number   1
_chemical_formula_structural   CuTePb3CO10
_chemical_formula_sum   'Cu4 Te4 Pb12 C4 O40'
_cell_volume   956.70151003
_cell_formula_units_Z   4
loop_
 _symmetry_equiv_pos_site_id
 _symmetry_equiv_pos_as_xyz
  1  'x, y, z'
loop_
 _atom_site_type_symbol
 _atom_site_label
 _atom_site_symmetry_multiplicity
 _atom_site_fract_x
 _atom_site_fract_y
 _atom_site_fract_z
 _atom_site_occupancy
  Cu  Cu0  1  0.55954289  0.39788538  0.11811267  1
  Cu  Cu1  1  0.44045711  0.89788538  0.88188733  1
  Cu  Cu2  1  0.55954289  0.89788538  0.38188733  1
  Cu  Cu3  1  0.44045711  0.39788538  0.61811267  1
  Te  Te4  1  0.46341107  0.25198742  0.88643675  1
  Te  Te5  1  0.53658893  0.75198742  0.11356325  1
  Te  Te6  1  0.46341107  0.75198742  0.61356325  1
  Te  Te7  1  0.53658893  0.25198742  0.38643675  1
  Pb  Pb8  1  0.24350974  0.55559423  0.91722133  1
  Pb  Pb9  1  0.75649026  0.05559423  0.08277867  1
  Pb  Pb10  1  0.24350974  0.05559423  0.58277867  1
  Pb  Pb11  1  0.75649026  0.55559423  0.41722133  1
  Pb  Pb12  1  0.28576128  0.58719055  0.30240728  1
  Pb  Pb13  1  0.71423872  0.08719055  0.69759272  1
  Pb  Pb14  1  0.28576128  0.08719055  0.19759272  1
  Pb  Pb15  1  0.71423872  0.58719055  0.80240728  1
  Pb  Pb16  1  0.96810890  0.44432289  0.13031040  1
  Pb  Pb17  1  0.03189110  0.94432289  0.86968960  1
  Pb  Pb18  1  0.96810890  0.94432289  0.36968960  1
  Pb  Pb19  1  0.03189110  0.44432289  0.63031040  1
  C  C20  1  0.97382284  0.28537815  0.87308056  1
  C  C21  1  0.02617716  0.78537815  0.12691944  1
  C  C22  1  0.97382284  0.78537815  0.62691944  1
  C  C23  1  0.02617716  0.28537815  0.37308056  1
  O  O24  1  0.97770126  0.42316573  0.87098990  1
  O  O25  1  0.02229874  0.92316573  0.12901010  1
  O  O26  1  0.97770126  0.92316573  0.62901010  1
  O  O27  1  0.02229874  0.42316573  0.37098990  1
  O  O28  1  0.97645108  0.21860608  0.76519688  1
  O  O29  1  0.02354892  0.71860608  0.23480312  1
  O  O30  1  0.97645108  0.71860608  0.73480312  1
  O  O31  1  0.02354892  0.21860608  0.26519688  1
  O  O32  1  0.97064934  0.22239485  0.98183263  1
  O  O33  1  0.02935066  0.72239485  0.01816737  1
  O  O34  1  0.97064934  0.72239485  0.51816737  1
  O  O35  1  0.02935066  0.22239485  0.48183263  1
  O  O36  1  0.33492772  0.33728941  0.76020049  1
  O  O37  1  0.66507228  0.83728941  0.23979951  1
  O  O38  1  0.33492772  0.83728941  0.73979951  1
  O  O39  1  0.66507228  0.33728941  0.26020049  1
  O  O40  1  0.62330640  0.29781060  0.77953224  1
  O  O41  1  0.37669360  0.79781060  0.22046776  1
  O  O42  1  0.62330640  0.79781060  0.72046776  1
  O  O43  1  0.37669360  0.29781060  0.27953224  1
  O  O44  1  0.51276569  0.56644355  0.19558215  1
  O  O45  1  0.48723431  0.06644355  0.80441785  1
  O  O46  1  0.51276569  0.06644355  0.30441785  1
  O  O47  1  0.48723431  0.56644355  0.69558215  1
  O  O48  1  0.59192868  0.22987444  0.03608347  1
  O  O49  1  0.40807132  0.72987444  0.96391653  1
  O  O50  1  0.59192868  0.72987444  0.46391653  1
  O  O51  1  0.40807132  0.22987444  0.53608347  1
  O  O52  1  0.46997544  0.44157017  0.96574845  1
  O  O53  1  0.53002456  0.94157017  0.03425155  1
  O  O54  1  0.46997544  0.94157017  0.53425155  1
  O  O55  1  0.53002456  0.44157017  0.46574845  1
  O  O56  1  0.30253854  0.18467388  0.97789557  1
  O  O57  1  0.69746146  0.68467388  0.02210443  1
  O  O58  1  0.30253854  0.68467388  0.52210443  1
  O  O59  1  0.69746146  0.18467388  0.47789557  1
  O  O60  1  0.20074180  0.49048268  0.11983684  1
  O  O61  1  0.79925820  0.99048268  0.88016316  1
  O  O62  1  0.20074180  0.99048268  0.38016316  1
  O  O63  1  0.79925820  0.49048268  0.61983684  1
