# generated using pymatgen
data_UH2C(OF)3
_symmetry_space_group_name_H-M   'P 1'
_cell_length_a   6.26588358
_cell_length_b   8.63341572
_cell_length_c   9.28440035
_cell_angle_alpha   96.60523101
_cell_angle_beta   109.72107162
_cell_angle_gamma   90.00000000
_symmetry_Int_Tables_number   1
_chemical_formula_structural   UH2C(OF)3
_chemical_formula_sum   'U4 H8 C4 O12 F12'
_cell_volume   469.24703795
_cell_formula_units_Z   4
loop_
 _symmetry_equiv_pos_site_id
 _symmetry_equiv_pos_as_xyz
  1  'x, y, z'
loop_
 _atom_site_type_symbol
 _atom_site_label
 _atom_site_symmetry_multiplicity
 _atom_site_fract_x
 _atom_site_fract_y
 _atom_site_fract_z
 _atom_site_occupancy
  U  U0  1  0.05946394  0.12803727  0.34722136  1
  U  U1  1  0.71224258  0.37196273  0.65277864  1
  U  U2  1  0.94053606  0.87196273  0.65277864  1
  U  U3  1  0.28775742  0.62803727  0.34722136  1
  H  H4  1  0.55758273  0.18637137  0.16204257  1
  H  H5  1  0.39554016  0.31362863  0.83795743  1
  H  H6  1  0.44241727  0.81362863  0.83795743  1
  H  H7  1  0.60445984  0.68637137  0.16204257  1
  H  H8  1  0.66173980  0.33964806  0.27497084  1
  H  H9  1  0.38676896  0.16035194  0.72502916  1
  H  H10  1  0.33826020  0.66035194  0.72502916  1
  H  H11  1  0.61323104  0.83964806  0.27497084  1
  C  C12  1  0.88561350  0.96002556  0.99112775  1
  C  C13  1  0.89448575  0.53997444  0.00887225  1
  C  C14  1  0.11438650  0.03997444  0.00887225  1
  C  C15  1  0.10551425  0.46002556  0.99112775  1
  O  O16  1  0.81522491  0.98486052  0.10355611  1
  O  O17  1  0.71166880  0.51513948  0.89644389  1
  O  O18  1  0.18477509  0.01513948  0.89644389  1
  O  O19  1  0.28833120  0.48486052  0.10355611  1
  O  O20  1  0.21475928  0.12541366  0.13561027  1
  O  O21  1  0.07914902  0.37458634  0.86438973  1
  O  O22  1  0.78524072  0.87458634  0.86438973  1
  O  O23  1  0.92085098  0.62541366  0.13561027  1
  O  O24  1  0.70056358  0.24743214  0.21649960  1
  O  O25  1  0.48406398  0.25256786  0.78350040  1
  O  O26  1  0.29943642  0.75256786  0.78350040  1
  O  O27  1  0.51593602  0.74743214  0.21649960  1
  F  F28  1  0.43030341  0.21013868  0.47125673  1
  F  F29  1  0.95904667  0.28986132  0.52874327  1
  F  F30  1  0.56969659  0.78986132  0.52874327  1
  F  F31  1  0.04095333  0.71013868  0.47125673  1
  F  F32  1  0.80150644  0.97622878  0.40102771  1
  F  F33  1  0.40047873  0.52377122  0.59897229  1
  F  F34  1  0.19849356  0.02377122  0.59897229  1
  F  F35  1  0.59952127  0.47622878  0.40102771  1
  F  F36  1  0.20028335  0.89092877  0.31454645  1
  F  F37  1  0.88573690  0.60907123  0.68545355  1
  F  F38  1  0.79971665  0.10907123  0.68545355  1
  F  F39  1  0.11426310  0.39092877  0.31454645  1
