# generated using pymatgen
data_FeAs2PbO8
_symmetry_space_group_name_H-M   'P 1'
_cell_length_a   4.94721808
_cell_length_b   8.46952382
_cell_length_c   15.60188120
_cell_angle_alpha   90.00000000
_cell_angle_beta   93.26368046
_cell_angle_gamma   90.00000000
_symmetry_Int_Tables_number   1
_chemical_formula_structural   FeAs2PbO8
_chemical_formula_sum   'Fe4 As8 Pb4 O32'
_cell_volume   652.66761564
_cell_formula_units_Z   4
loop_
 _symmetry_equiv_pos_site_id
 _symmetry_equiv_pos_as_xyz
  1  'x, y, z'
loop_
 _atom_site_type_symbol
 _atom_site_label
 _atom_site_symmetry_multiplicity
 _atom_site_fract_x
 _atom_site_fract_y
 _atom_site_fract_z
 _atom_site_occupancy
  Fe  Fe0  1  0.66093924  0.95098272  0.35350345  1
  Fe  Fe1  1  0.16093924  0.54901728  0.85350345  1
  Fe  Fe2  1  0.33906076  0.04901728  0.64649655  1
  Fe  Fe3  1  0.83906076  0.45098272  0.14649655  1
  As  As4  1  0.18540000  0.81035350  0.48120560  1
  As  As5  1  0.68540000  0.68964650  0.98120560  1
  As  As6  1  0.81460000  0.18964650  0.51879440  1
  As  As7  1  0.31460000  0.31035350  0.01879440  1
  As  As8  1  0.16172847  0.76742810  0.23319310  1
  As  As9  1  0.66172847  0.73257190  0.73319310  1
  As  As10  1  0.83827153  0.23257190  0.76680690  1
  As  As11  1  0.33827153  0.26742810  0.26680690  1
  Pb  Pb12  1  0.62908670  0.52762261  0.38139965  1
  Pb  Pb13  1  0.12908670  0.97237739  0.88139965  1
  Pb  Pb14  1  0.37091330  0.47237739  0.61860035  1
  Pb  Pb15  1  0.87091330  0.02762261  0.11860035  1
  O  O16  1  0.35074733  0.95161625  0.42715100  1
  O  O17  1  0.85074733  0.54838375  0.92715100  1
  O  O18  1  0.64925267  0.04838375  0.57284900  1
  O  O19  1  0.14925267  0.45161625  0.07284900  1
  O  O20  1  0.16541955  0.86519930  0.58578277  1
  O  O21  1  0.66541955  0.63480070  0.08578277  1
  O  O22  1  0.83458045  0.13480070  0.41421723  1
  O  O23  1  0.33458045  0.36519930  0.91421723  1
  O  O24  1  0.86843109  0.78135386  0.42769626  1
  O  O25  1  0.36843109  0.71864614  0.92769626  1
  O  O26  1  0.13156891  0.21864614  0.57230374  1
  O  O27  1  0.63156891  0.28135386  0.07230374  1
  O  O28  1  0.32523174  0.61949769  0.48182585  1
  O  O29  1  0.82523174  0.88050231  0.98182585  1
  O  O30  1  0.67476826  0.38050231  0.51817415  1
  O  O31  1  0.17476826  0.11949769  0.01817415  1
  O  O32  1  0.00322175  0.58832600  0.24104923  1
  O  O33  1  0.50322175  0.91167400  0.74104923  1
  O  O34  1  0.99677825  0.41167400  0.75895077  1
  O  O35  1  0.49677825  0.08832600  0.25895077  1
  O  O36  1  0.45446763  0.75206702  0.29934662  1
  O  O37  1  0.95446763  0.74793298  0.79934662  1
  O  O38  1  0.54553237  0.24793298  0.70065338  1
  O  O39  1  0.04553237  0.25206702  0.20065338  1
  O  O40  1  0.94183821  0.91594847  0.26508929  1
  O  O41  1  0.44183821  0.58405153  0.76508929  1
  O  O42  1  0.05816179  0.08405153  0.73491071  1
  O  O43  1  0.55816179  0.41594847  0.23491071  1
  O  O44  1  0.21948981  0.83720007  0.13289810  1
  O  O45  1  0.71948981  0.66279993  0.63289810  1
  O  O46  1  0.78051019  0.16279993  0.86710190  1
  O  O47  1  0.28051019  0.33720007  0.36710190  1
