# generated using pymatgen
data_NaTh3F13
_symmetry_space_group_name_H-M   'P 1'
_cell_length_a   8.37733176
_cell_length_b   8.37733176
_cell_length_c   16.87622410
_cell_angle_alpha   90.00000000
_cell_angle_beta   90.00000000
_cell_angle_gamma   119.99895530
_symmetry_Int_Tables_number   1
_chemical_formula_structural   NaTh3F13
_chemical_formula_sum   'Na4 Th12 F52'
_cell_volume   1025.70368646
_cell_formula_units_Z   4
loop_
 _symmetry_equiv_pos_site_id
 _symmetry_equiv_pos_as_xyz
  1  'x, y, z'
loop_
 _atom_site_type_symbol
 _atom_site_label
 _atom_site_symmetry_multiplicity
 _atom_site_fract_x
 _atom_site_fract_y
 _atom_site_fract_z
 _atom_site_occupancy
  Na  Na0  1  0.66668540  0.33331460  0.63019762  1
  Na  Na1  1  0.33331460  0.66668540  0.36980238  1
  Na  Na2  1  0.33331460  0.66668540  0.13019762  1
  Na  Na3  1  0.66668540  0.33331460  0.86980238  1
  Th  Th4  1  0.66743546  0.83371441  0.61332425  1
  Th  Th5  1  0.16628559  0.33256454  0.61332425  1
  Th  Th6  1  0.16629002  0.83370998  0.61332356  1
  Th  Th7  1  0.33256454  0.16628559  0.38667575  1
  Th  Th8  1  0.83371441  0.66743546  0.38667575  1
  Th  Th9  1  0.83370998  0.16629002  0.38667644  1
  Th  Th10  1  0.33256454  0.16628559  0.11332425  1
  Th  Th11  1  0.83371441  0.66743546  0.11332425  1
  Th  Th12  1  0.83370998  0.16629002  0.11332356  1
  Th  Th13  1  0.66743546  0.83371441  0.88667575  1
  Th  Th14  1  0.16628559  0.33256454  0.88667575  1
  Th  Th15  1  0.16629002  0.83370998  0.88667644  1
  F  F16  1  0.84285255  0.15714745  0.63922229  1
  F  F17  1  0.31429938  0.15714797  0.63922351  1
  F  F18  1  0.84285203  0.68570062  0.63922351  1
  F  F19  1  0.15714745  0.84285255  0.36077771  1
  F  F20  1  0.68570062  0.84285203  0.36077649  1
  F  F21  1  0.15714797  0.31429938  0.36077649  1
  F  F22  1  0.15714745  0.84285255  0.13922229  1
  F  F23  1  0.68570062  0.84285203  0.13922351  1
  F  F24  1  0.15714797  0.31429938  0.13922351  1
  F  F25  1  0.84285255  0.15714745  0.86077771  1
  F  F26  1  0.31429938  0.15714797  0.86077649  1
  F  F27  1  0.84285203  0.68570062  0.86077649  1
  F  F28  1  0.45911438  0.54088562  0.65946792  1
  F  F29  1  0.08175576  0.54087277  0.65946632  1
  F  F30  1  0.45912723  0.91824424  0.65946632  1
  F  F31  1  0.54088562  0.45911438  0.34053208  1
  F  F32  1  0.91824424  0.45912723  0.34053368  1
  F  F33  1  0.54087277  0.08175576  0.34053368  1
  F  F34  1  0.54088562  0.45911438  0.15946792  1
  F  F35  1  0.91824424  0.45912723  0.15946632  1
  F  F36  1  0.54087277  0.08175576  0.15946632  1
  F  F37  1  0.45911438  0.54088562  0.84053208  1
  F  F38  1  0.08175576  0.54087277  0.84053368  1
  F  F39  1  0.45912723  0.91824424  0.84053368  1
  F  F40  1  0.67303902  0.99999787  0.50000061  1
  F  F41  1  0.32697159  0.32697159  0.50000000  1
  F  F42  1  0.99999787  0.67303902  0.49999939  1
  F  F43  1  0.32696098  0.00000213  0.49999939  1
  F  F44  1  0.00000213  0.32696098  0.50000061  1
  F  F45  1  0.67302841  0.67302841  0.50000000  1
  F  F46  1  0.32696098  0.00000213  0.00000061  1
  F  F47  1  0.67302841  0.67302841  -0.00000000  1
  F  F48  1  0.00000213  0.32696098  0.99999939  1
  F  F49  1  0.67303902  0.99999787  0.99999939  1
  F  F50  1  0.99999787  0.67303902  0.00000061  1
  F  F51  1  0.32697159  0.32697159  -0.00000000  1
  F  F52  1  0.72376368  0.86187897  0.75000000  1
  F  F53  1  0.13812103  0.27623632  0.75000000  1
  F  F54  1  0.13811269  0.86188731  0.75000000  1
  F  F55  1  0.27623632  0.13812103  0.25000000  1
  F  F56  1  0.86187897  0.72376368  0.25000000  1
  F  F57  1  0.86188731  0.13811269  0.25000000  1
  F  F58  1  0.00000343  0.99999657  0.57834285  1
  F  F59  1  0.99999657  0.00000343  0.42165715  1
  F  F60  1  0.99999657  0.00000343  0.07834285  1
  F  F61  1  0.00000343  0.99999657  0.92165715  1
  F  F62  1  0.33331909  0.66668091  0.55171035  1
  F  F63  1  0.66668091  0.33331909  0.44828965  1
  F  F64  1  0.66668091  0.33331909  0.05171035  1
  F  F65  1  0.33331909  0.66668091  0.94828965  1
  F  F66  1  0.66669272  0.33330728  0.75000000  1
  F  F67  1  0.33330728  0.66669272  0.25000000  1
