# generated using pymatgen
data_Li9Mn2Co5O16
_symmetry_space_group_name_H-M   'P 1'
_cell_length_a   2.89015440
_cell_length_b   5.11183379
_cell_length_c   20.95903764
_cell_angle_alpha   97.04281244
_cell_angle_beta   89.99999960
_cell_angle_gamma   73.57903782
_symmetry_Int_Tables_number   1
_chemical_formula_structural   Li9Mn2Co5O16
_chemical_formula_sum   'Li9 Mn2 Co5 O16'
_cell_volume   294.58170084
_cell_formula_units_Z   1
loop_
 _symmetry_equiv_pos_site_id
 _symmetry_equiv_pos_as_xyz
  1  'x, y, z'
loop_
 _atom_site_type_symbol
 _atom_site_label
 _atom_site_symmetry_multiplicity
 _atom_site_fract_x
 _atom_site_fract_y
 _atom_site_fract_z
 _atom_site_occupancy
  Li  Li0  1  0.24620554  0.50758892  0.06383912  1
  Li  Li1  1  0.75262145  0.49475711  0.19475571  1
  Li  Li2  1  0.24009120  0.51981759  0.32430641  1
  Li  Li3  1  0.73554432  0.52891135  0.44571727  1
  Li  Li4  1  0.26048387  0.47903227  0.55570162  1
  Li  Li5  1  0.75843187  0.48313627  0.68281830  1
  Li  Li6  1  0.25297367  0.49405267  0.80619210  1
  Li  Li7  1  0.75882117  0.48235765  0.92466655  1
  Li  Li8  1  0.99949887  0.00100226  0.50051658  1
  Mn  Mn9  1  -0.00145601  0.00291202  0.99794640  1
  Mn  Mn10  1  0.49526440  0.00947120  0.12818945  1
  Co  Co11  1  0.00230739  0.99538523  0.25821312  1
  Co  Co12  1  0.48218299  0.03563403  0.39050056  1
  Co  Co13  1  0.51482997  0.97034005  0.61349818  1
  Co  Co14  1  0.99721844  0.00556312  0.74517074  1
  Co  Co15  1  0.51015767  0.97968466  0.86802271  1
  O  O16  1  0.38418060  0.23163880  0.97115128  1
  O  O17  1  0.88139209  0.23721583  0.10094412  1
  O  O18  1  0.39451803  0.21096394  0.21238224  1
  O  O19  1  0.88567248  0.22865504  0.34017603  1
  O  O20  1  0.37373089  0.25253822  0.46514927  1
  O  O21  1  0.89205272  0.21589455  0.59767924  1
  O  O22  1  0.38227373  0.23545254  0.72139421  1
  O  O23  1  0.89101936  0.21796127  0.84334694  1
  O  O24  1  0.11073649  0.77852701  0.15134453  1
  O  O25  1  0.61956685  0.76086629  0.27561767  1
  O  O26  1  0.10889034  0.78221931  0.40465838  1
  O  O27  1  0.62342546  0.75314907  0.53789920  1
  O  O28  1  0.10971056  0.78057889  0.65644804  1
  O  O29  1  0.61580824  0.76838353  0.78006459  1
  O  O30  1  0.12150501  0.75698999  0.90389674  1
  O  O31  1  0.60034035  0.79931929  0.03779270  1
