# generated using pymatgen
data_Pr11Hg45
_symmetry_space_group_name_H-M   'P 1'
_cell_length_a   15.87416751
_cell_length_b   15.87416751
_cell_length_c   15.87416751
_cell_angle_alpha   60.00000000
_cell_angle_beta   60.00000000
_cell_angle_gamma   60.00000000
_symmetry_Int_Tables_number   1
_chemical_formula_structural   Pr11Hg45
_chemical_formula_sum   'Pr22 Hg90'
_cell_volume   2828.51104154
_cell_formula_units_Z   2
loop_
 _symmetry_equiv_pos_site_id
 _symmetry_equiv_pos_as_xyz
  1  'x, y, z'
loop_
 _atom_site_type_symbol
 _atom_site_label
 _atom_site_symmetry_multiplicity
 _atom_site_fract_x
 _atom_site_fract_y
 _atom_site_fract_z
 _atom_site_occupancy
  Pr  Pr0  1  -0.00000000  0.00000000  0.00000000  1
  Pr  Pr1  1  0.36098105  0.67097339  0.98402278  1
  Pr  Pr2  1  0.36098105  0.98402278  0.98402278  1
  Pr  Pr3  1  0.36098105  0.98402278  0.67097339  1
  Pr  Pr4  1  0.67097339  0.36098105  0.98402278  1
  Pr  Pr5  1  0.98402278  0.36098105  0.67097339  1
  Pr  Pr6  1  0.98402278  0.36098105  0.98402278  1
  Pr  Pr7  1  0.98402278  0.98402278  0.36098105  1
  Pr  Pr8  1  0.98402278  0.67097339  0.36098105  1
  Pr  Pr9  1  0.67097339  0.98402278  0.36098105  1
  Pr  Pr10  1  0.98402278  0.98402278  0.67097339  1
  Pr  Pr11  1  0.67097339  0.98402278  0.98402278  1
  Pr  Pr12  1  0.98402278  0.67097339  0.98402278  1
  Pr  Pr13  1  0.75000000  0.75000000  0.75000000  1
  Pr  Pr14  1  0.21732929  0.59422357  0.59422357  1
  Pr  Pr15  1  0.59422357  0.21732929  0.59422357  1
  Pr  Pr16  1  0.59422357  0.59422357  0.21732929  1
  Pr  Pr17  1  0.59422357  0.59422357  0.59422357  1
  Pr  Pr18  1  0.98484871  0.33838376  0.33838376  1
  Pr  Pr19  1  0.33838376  0.98484871  0.33838376  1
  Pr  Pr20  1  0.33838376  0.33838376  0.98484871  1
  Pr  Pr21  1  0.33838376  0.33838376  0.33838376  1
  Hg  Hg22  1  0.24869929  0.91710024  0.91710024  1
  Hg  Hg23  1  0.91710024  0.24869929  0.91710024  1
  Hg  Hg24  1  0.91710024  0.91710024  0.24869929  1
  Hg  Hg25  1  0.91710024  0.91710024  0.91710024  1
  Hg  Hg26  1  0.74373249  0.08542250  0.08542250  1
  Hg  Hg27  1  0.08542250  0.74373249  0.08542250  1
  Hg  Hg28  1  0.08542250  0.08542250  0.74373249  1
  Hg  Hg29  1  0.08542250  0.08542250  0.08542250  1
  Hg  Hg30  1  0.15361726  0.84638274  0.84638274  1
  Hg  Hg31  1  0.15361726  0.84638274  0.15361726  1
  Hg  Hg32  1  0.15361726  0.15361726  0.84638274  1
  Hg  Hg33  1  0.84638274  0.15361726  0.15361726  1
  Hg  Hg34  1  0.84638274  0.15361726  0.84638274  1
  Hg  Hg35  1  0.84638274  0.84638274  0.15361726  1
  Hg  Hg36  1  0.98326833  0.80025421  0.60823873  1
  Hg  Hg37  1  0.98326833  0.60823873  0.60823873  1
  Hg  Hg38  1  0.98326833  0.60823873  0.80025421  1
  Hg  Hg39  1  0.80025421  0.98326833  0.60823873  1
  Hg  Hg40  1  0.60823873  0.98326833  0.80025421  1
  Hg  Hg41  1  0.60823873  0.98326833  0.60823873  1
  Hg  Hg42  1  0.60823873  0.60823873  0.98326833  1
  Hg  Hg43  1  0.60823873  0.80025421  0.98326833  1
  Hg  Hg44  1  0.80025421  0.60823873  0.98326833  1
  Hg  Hg45  1  0.60823873  0.60823873  0.80025421  1
  Hg  Hg46  1  0.80025421  0.60823873  0.60823873  1
  Hg  Hg47  1  0.60823873  0.80025421  0.60823873  1
  Hg  Hg48  1  0.48744423  0.83751859  0.83751859  1
  Hg  Hg49  1  0.83751859  0.48744423  0.83751859  1
  Hg  Hg50  1  0.83751859  0.83751859  0.48744423  1
  Hg  Hg51  1  0.83751859  0.83751859  0.83751859  1
  Hg  Hg52  1  0.13190649  0.38482877  0.74163237  1
  Hg  Hg53  1  0.13190649  0.74163237  0.74163237  1
  Hg  Hg54  1  0.13190649  0.74163237  0.38482877  1
  Hg  Hg55  1  0.38482877  0.13190649  0.74163237  1
  Hg  Hg56  1  0.74163237  0.13190649  0.38482877  1
  Hg  Hg57  1  0.74163237  0.13190649  0.74163237  1
  Hg  Hg58  1  0.74163237  0.74163237  0.13190649  1
  Hg  Hg59  1  0.74163237  0.38482877  0.13190649  1
  Hg  Hg60  1  0.38482877  0.74163237  0.13190649  1
  Hg  Hg61  1  0.74163237  0.74163237  0.38482877  1
  Hg  Hg62  1  0.38482877  0.74163237  0.74163237  1
  Hg  Hg63  1  0.74163237  0.38482877  0.74163237  1
  Hg  Hg64  1  0.50000000  0.50000000  0.50000000  1
  Hg  Hg65  1  0.73385751  0.55023442  0.35795403  1
  Hg  Hg66  1  0.73385751  0.35795403  0.35795403  1
  Hg  Hg67  1  0.73385751  0.35795403  0.55023442  1
  Hg  Hg68  1  0.55023442  0.73385751  0.35795403  1
  Hg  Hg69  1  0.35795403  0.73385751  0.55023442  1
  Hg  Hg70  1  0.35795403  0.73385751  0.35795403  1
  Hg  Hg71  1  0.35795403  0.35795403  0.73385751  1
  Hg  Hg72  1  0.35795403  0.55023442  0.73385751  1
  Hg  Hg73  1  0.55023442  0.35795403  0.73385751  1
  Hg  Hg74  1  0.35795403  0.35795403  0.55023442  1
  Hg  Hg75  1  0.55023442  0.35795403  0.35795403  1
  Hg  Hg76  1  0.35795403  0.55023442  0.35795403  1
  Hg  Hg77  1  0.86078704  0.16274604  0.48823346  1
  Hg  Hg78  1  0.86078704  0.48823346  0.48823346  1
  Hg  Hg79  1  0.86078704  0.48823346  0.16274604  1
  Hg  Hg80  1  0.16274604  0.86078704  0.48823346  1
  Hg  Hg81  1  0.48823346  0.86078704  0.16274604  1
  Hg  Hg82  1  0.48823346  0.86078704  0.48823346  1
  Hg  Hg83  1  0.48823346  0.48823346  0.86078704  1
  Hg  Hg84  1  0.48823346  0.16274604  0.86078704  1
  Hg  Hg85  1  0.16274604  0.48823346  0.86078704  1
  Hg  Hg86  1  0.48823346  0.48823346  0.16274604  1
  Hg  Hg87  1  0.16274604  0.48823346  0.48823346  1
  Hg  Hg88  1  0.48823346  0.16274604  0.48823346  1
  Hg  Hg89  1  0.25000000  0.25000000  0.25000000  1
  Hg  Hg90  1  0.48358299  0.17213900  0.17213900  1
  Hg  Hg91  1  0.17213900  0.48358299  0.17213900  1
  Hg  Hg92  1  0.17213900  0.17213900  0.48358299  1
  Hg  Hg93  1  0.17213900  0.17213900  0.17213900  1
  Hg  Hg94  1  0.41151170  0.08848830  0.08848830  1
  Hg  Hg95  1  0.41151170  0.08848830  0.41151170  1
  Hg  Hg96  1  0.41151170  0.41151170  0.08848830  1
  Hg  Hg97  1  0.08848830  0.41151170  0.41151170  1
  Hg  Hg98  1  0.08848830  0.41151170  0.08848830  1
  Hg  Hg99  1  0.08848830  0.08848830  0.41151170  1
  Hg  Hg100  1  0.59535587  0.93384930  0.23539741  1
  Hg  Hg101  1  0.59535587  0.23539741  0.23539741  1
  Hg  Hg102  1  0.59535587  0.23539741  0.93384930  1
  Hg  Hg103  1  0.93384930  0.59535587  0.23539741  1
  Hg  Hg104  1  0.23539741  0.59535587  0.93384930  1
  Hg  Hg105  1  0.23539741  0.59535587  0.23539741  1
  Hg  Hg106  1  0.23539741  0.23539741  0.59535587  1
  Hg  Hg107  1  0.23539741  0.93384930  0.59535587  1
  Hg  Hg108  1  0.93384930  0.23539741  0.59535587  1
  Hg  Hg109  1  0.23539741  0.23539741  0.93384930  1
  Hg  Hg110  1  0.93384930  0.23539741  0.23539741  1
  Hg  Hg111  1  0.23539741  0.93384930  0.23539741  1
