# generated using pymatgen
data_BaMo6I2O25
_symmetry_space_group_name_H-M   'P 1'
_cell_length_a   7.59058075
_cell_length_b   7.82534894
_cell_length_c   20.69904453
_cell_angle_alpha   84.27891021
_cell_angle_beta   79.43471153
_cell_angle_gamma   60.98755987
_symmetry_Int_Tables_number   1
_chemical_formula_structural   BaMo6I2O25
_chemical_formula_sum   'Ba2 Mo12 I4 O50'
_cell_volume   1056.90534222
_cell_formula_units_Z   2
loop_
 _symmetry_equiv_pos_site_id
 _symmetry_equiv_pos_as_xyz
  1  'x, y, z'
loop_
 _atom_site_type_symbol
 _atom_site_label
 _atom_site_symmetry_multiplicity
 _atom_site_fract_x
 _atom_site_fract_y
 _atom_site_fract_z
 _atom_site_occupancy
  Ba  Ba0  1  0.65075762  0.75000000  0.25000000  1
  Ba  Ba1  1  0.34924238  0.25000000  0.75000000  1
  Mo  Mo2  1  0.08489557  0.97430039  0.91565170  1
  Mo  Mo3  1  0.97484767  0.52569961  0.58434830  1
  Mo  Mo4  1  0.91510443  0.02569961  0.08434830  1
  Mo  Mo5  1  0.02515233  0.47430039  0.41565170  1
  Mo  Mo6  1  0.81405692  0.76974212  0.84265136  1
  Mo  Mo7  1  0.42645040  0.73025788  0.65734864  1
  Mo  Mo8  1  0.18594308  0.23025788  0.15734864  1
  Mo  Mo9  1  0.57354960  0.26974212  0.34265136  1
  Mo  Mo10  1  0.56875652  0.46244602  0.91365107  1
  Mo  Mo11  1  0.94485361  0.03755398  0.58634893  1
  Mo  Mo12  1  0.43124348  0.53755398  0.08634893  1
  Mo  Mo13  1  0.05514639  0.96244602  0.41365107  1
  I  I14  1  0.73888608  0.75837956  0.00283495  1
  I  I15  1  0.50010059  0.74162044  0.49716505  1
  I  I16  1  0.26111392  0.24162044  0.99716505  1
  I  I17  1  0.49989941  0.25837956  0.50283495  1
  O  O18  1  0.88463696  0.92783760  0.00145841  1
  O  O19  1  0.81393297  0.57216240  0.49854159  1
  O  O20  1  0.11536304  0.07216240  0.99854159  1
  O  O21  1  0.18606703  0.42783760  0.50145841  1
  O  O22  1  0.59736931  0.92408050  0.93851924  1
  O  O23  1  0.45996905  0.57591950  0.56148076  1
  O  O24  1  0.40263069  0.07591950  0.06148076  1
  O  O25  1  0.54003095  0.42408050  0.43851924  1
  O  O26  1  0.58215068  0.60489573  0.00310470  1
  O  O27  1  0.19015110  0.89510427  0.49689530  1
  O  O28  1  0.41784932  0.39510427  0.99689530  1
  O  O29  1  0.80984890  0.10489573  0.50310470  1
  O  O30  1  0.94099346  0.60176971  0.93865642  1
  O  O31  1  0.48141959  0.89823029  0.56134358  1
  O  O32  1  0.05900654  0.39823029  0.06134358  1
  O  O33  1  0.51858041  0.10176971  0.43865642  1
  O  O34  1  0.81264041  0.26128791  0.92178983  1
  O  O35  1  0.99571814  0.23871209  0.57821017  1
  O  O36  1  0.18735959  0.73871209  0.07821017  1
  O  O37  1  0.00428186  0.76128791  0.42178983  1
  O  O38  1  0.94477116  0.91872093  0.86164133  1
  O  O39  1  0.72513342  0.58127907  0.63835867  1
  O  O40  1  0.05522884  0.08127907  0.13835867  1
  O  O41  1  0.27486658  0.41872093  0.36164133  1
  O  O42  1  0.21089039  0.08417863  0.86286506  1
  O  O43  1  0.15793408  0.41582137  0.63713494  1
  O  O44  1  0.78910961  0.91582137  0.13713494  1
  O  O45  1  0.84206592  0.58417863  0.36286506  1
  O  O46  1  0.28238723  0.73122859  0.92295314  1
  O  O47  1  0.93656896  0.76877141  0.57704686  1
  O  O48  1  0.71761277  0.26877141  0.07704686  1
  O  O49  1  0.06343104  0.23122859  0.42295314  1
  O  O50  1  0.02390445  0.59186947  0.79420514  1
  O  O51  1  0.40997906  0.90813053  0.70579486  1
  O  O52  1  0.97609555  0.40813053  0.20579486  1
  O  O53  1  0.59002094  0.09186947  0.29420514  1
  O  O54  1  0.67038042  0.94037970  0.78755311  1
  O  O55  1  0.39831323  0.55962030  0.71244689  1
  O  O56  1  0.32961958  0.05962030  0.21244689  1
  O  O57  1  0.60168677  0.44037970  0.28755311  1
  O  O58  1  0.66187053  0.62243467  0.86050979  1
  O  O59  1  0.14481499  0.87756533  0.63949021  1
  O  O60  1  0.33812947  0.37756533  0.13949021  1
  O  O61  1  0.85518501  0.12243467  0.36050979  1
  O  O62  1  0.48036750  0.37276767  0.86058057  1
  O  O63  1  0.71371574  0.12723233  0.63941943  1
  O  O64  1  0.51963250  0.62723233  0.13941943  1
  O  O65  1  0.28628426  0.87276767  0.36058057  1
  O  O66  1  0.04954210  0.75000000  0.25000000  1
  O  O67  1  0.95045790  0.25000000  0.75000000  1
