# generated using pymatgen
data_H4CS(NO)2
_symmetry_space_group_name_H-M   'P 1'
_cell_length_a   7.98264883
_cell_length_b   8.02742874
_cell_length_c   8.91944824
_cell_angle_alpha   63.89523550
_cell_angle_beta   65.36192992
_cell_angle_gamma   87.40783848
_symmetry_Int_Tables_number   1
_chemical_formula_structural   H4CS(NO)2
_chemical_formula_sum   'H16 C4 S4 N8 O8'
_cell_volume   459.79171042
_cell_formula_units_Z   4
loop_
 _symmetry_equiv_pos_site_id
 _symmetry_equiv_pos_as_xyz
  1  'x, y, z'
loop_
 _atom_site_type_symbol
 _atom_site_label
 _atom_site_symmetry_multiplicity
 _atom_site_fract_x
 _atom_site_fract_y
 _atom_site_fract_z
 _atom_site_occupancy
  H  H0  1  0.45576498  0.14695790  0.38745798  1
  H  H1  1  0.54423502  0.85304210  0.61254202  1
  H  H2  1  0.96391518  0.18994733  0.77102404  1
  H  H3  1  0.03608482  0.81005267  0.22897596  1
  H  H4  1  0.78315753  0.04068204  0.74170203  1
  H  H5  1  0.21684247  0.95931796  0.25829797  1
  H  H6  1  0.55824830  0.09227073  0.76922939  1
  H  H7  1  0.44175170  0.90772927  0.23077061  1
  H  H8  1  0.22532382  0.54641576  0.74119470  1
  H  H9  1  0.77467618  0.45358424  0.25880530  1
  H  H10  1  0.21673446  0.32327928  0.74999020  1
  H  H11  1  0.78326554  0.67672072  0.25000980  1
  H  H12  1  0.76136811  0.58155583  0.78403490  1
  H  H13  1  0.23863189  0.41844417  0.21596510  1
  H  H14  1  0.95955435  0.70865178  0.75659603  1
  H  H15  1  0.04044565  0.29134822  0.24340397  1
  C  C16  1  0.71089865  0.26875838  0.79080959  1
  C  C17  1  0.28910135  0.73124162  0.20919041  1
  C  C18  1  0.97983959  0.44512465  0.76832558  1
  C  C19  1  0.02016041  0.55487535  0.23167442  1
  S  S20  1  0.54710963  0.40207175  0.83021749  1
  S  S21  1  0.45289037  0.59792825  0.16978251  1
  S  S22  1  0.23496806  0.98930786  0.66478484  1
  S  S23  1  0.76503194  0.01069214  0.33521516  1
  N  N24  1  0.88856930  0.29496078  0.77961635  1
  N  N25  1  0.11143070  0.70503922  0.22038365  1
  N  N26  1  0.68135389  0.11897707  0.76977933  1
  N  N27  1  0.31864611  0.88102293  0.23022067  1
  N  N28  1  0.15158087  0.43502807  0.75622493  1
  N  N29  1  0.84841913  0.56497193  0.24377507  1
  N  N30  1  0.89773230  0.59212415  0.76747503  1
  N  N31  1  0.10226770  0.40787585  0.23252497  1
  O  O32  1  0.31599706  0.81414138  0.69823245  1
  O  O33  1  0.68400294  0.18585862  0.30176755  1
  O  O34  1  0.03231768  0.95420329  0.72932332  1
  O  O35  1  0.96768232  0.04579671  0.27067668  1
  O  O36  1  0.31427341  0.11193313  0.44524069  1
  O  O37  1  0.68572659  0.88806687  0.55475931  1
  O  O38  1  0.29130724  0.09936188  0.73572356  1
  O  O39  1  0.70869276  0.90063812  0.26427644  1
