# generated using pymatgen
data_CsCu5S3
_symmetry_space_group_name_H-M   'P 1'
_cell_length_a   7.80643031
_cell_length_b   13.08411185
_cell_length_c   13.08411185
_cell_angle_alpha   90.00000000
_cell_angle_beta   90.00000000
_cell_angle_gamma   90.00000000
_symmetry_Int_Tables_number   1
_chemical_formula_structural   CsCu5S3
_chemical_formula_sum   'Cs8 Cu40 S24'
_cell_volume   1336.41389703
_cell_formula_units_Z   8
loop_
 _symmetry_equiv_pos_site_id
 _symmetry_equiv_pos_as_xyz
  1  'x, y, z'
loop_
 _atom_site_type_symbol
 _atom_site_label
 _atom_site_symmetry_multiplicity
 _atom_site_fract_x
 _atom_site_fract_y
 _atom_site_fract_z
 _atom_site_occupancy
  Cs  Cs0  1  0.62580086  0.61527164  0.88870674  1
  Cs  Cs1  1  0.87419914  0.11527164  0.61129326  1
  Cs  Cs2  1  0.62580086  0.38472836  0.11129326  1
  Cs  Cs3  1  0.87419914  0.88472836  0.38870674  1
  Cs  Cs4  1  0.37419914  0.88870674  0.38472836  1
  Cs  Cs5  1  0.12580086  0.61129326  0.88472836  1
  Cs  Cs6  1  0.37419914  0.11129326  0.61527164  1
  Cs  Cs7  1  0.12580086  0.38870674  0.11527164  1
  Cu  Cu8  1  0.60272564  0.50828640  0.61550787  1
  Cu  Cu9  1  0.89727436  0.00828640  0.88449213  1
  Cu  Cu10  1  0.60272564  0.49171360  0.38449213  1
  Cu  Cu11  1  0.89727436  0.99171360  0.11550787  1
  Cu  Cu12  1  0.39727436  0.61550787  0.49171360  1
  Cu  Cu13  1  0.10272564  0.88449213  0.99171360  1
  Cu  Cu14  1  0.39727436  0.38449213  0.50828640  1
  Cu  Cu15  1  0.10272564  0.11550787  0.00828640  1
  Cu  Cu16  1  0.63691908  0.90054412  0.97800244  1
  Cu  Cu17  1  0.86308092  0.40054412  0.52199756  1
  Cu  Cu18  1  0.63691908  0.09945588  0.02199756  1
  Cu  Cu19  1  0.86308092  0.59945588  0.47800244  1
  Cu  Cu20  1  0.36308092  0.97800244  0.09945588  1
  Cu  Cu21  1  0.13691908  0.52199756  0.59945588  1
  Cu  Cu22  1  0.36308092  0.02199756  0.90054412  1
  Cu  Cu23  1  0.13691908  0.47800244  0.40054412  1
  Cu  Cu24  1  0.63474885  0.64779851  0.21933770  1
  Cu  Cu25  1  0.86525115  0.14779851  0.28066230  1
  Cu  Cu26  1  0.63474885  0.35220149  0.78066230  1
  Cu  Cu27  1  0.86525115  0.85220149  0.71933770  1
  Cu  Cu28  1  0.36525115  0.21933770  0.35220149  1
  Cu  Cu29  1  0.13474885  0.28066230  0.85220149  1
  Cu  Cu30  1  0.36525115  0.78066230  0.64779851  1
  Cu  Cu31  1  0.13474885  0.71933770  0.14779851  1
  Cu  Cu32  1  0.53599322  0.89121420  0.78018097  1
  Cu  Cu33  1  0.96400678  0.39121420  0.71981903  1
  Cu  Cu34  1  0.53599322  0.10878580  0.21981903  1
  Cu  Cu35  1  0.96400678  0.60878580  0.28018097  1
  Cu  Cu36  1  0.46400678  0.78018097  0.10878580  1
  Cu  Cu37  1  0.03599322  0.71981903  0.60878580  1
  Cu  Cu38  1  0.46400678  0.21981903  0.89121420  1
  Cu  Cu39  1  0.03599322  0.28018097  0.39121420  1
  Cu  Cu40  1  0.68425458  0.71499263  0.60282778  1
  Cu  Cu41  1  0.81574542  0.21499263  0.89717222  1
  Cu  Cu42  1  0.68425458  0.28500737  0.39717222  1
  Cu  Cu43  1  0.81574542  0.78500737  0.10282778  1
  Cu  Cu44  1  0.31574542  0.60282778  0.28500737  1
  Cu  Cu45  1  0.18425458  0.89717222  0.78500737  1
  Cu  Cu46  1  0.31574542  0.39717222  0.71499263  1
  Cu  Cu47  1  0.18425458  0.10282778  0.21499263  1
  S  S48  1  0.62033008  0.88072537  0.61913855  1
  S  S49  1  0.87966992  0.38072537  0.88086145  1
  S  S50  1  0.62033008  0.11927463  0.38086145  1
  S  S51  1  0.87966992  0.61927463  0.11913855  1
  S  S52  1  0.37966992  0.61913855  0.11927463  1
  S  S53  1  0.12033008  0.88086145  0.61927463  1
  S  S54  1  0.37966992  0.38086145  0.88072537  1
  S  S55  1  0.12033008  0.11913855  0.38072537  1
  S  S56  1  0.63115068  0.91041567  0.15920239  1
  S  S57  1  0.86884932  0.41041567  0.34079761  1
  S  S58  1  0.63115068  0.08958433  0.84079761  1
  S  S59  1  0.86884932  0.58958433  0.65920239  1
  S  S60  1  0.36884932  0.15920239  0.08958433  1
  S  S61  1  0.13115068  0.34079761  0.58958433  1
  S  S62  1  0.36884932  0.84079761  0.91041567  1
  S  S63  1  0.13115068  0.65920239  0.41041567  1
  S  S64  1  0.62699986  0.66555563  0.39439911  1
  S  S65  1  0.87300014  0.16555563  0.10560089  1
  S  S66  1  0.62699986  0.33444437  0.60560089  1
  S  S67  1  0.87300014  0.83444437  0.89439911  1
  S  S68  1  0.37300014  0.39439911  0.33444437  1
  S  S69  1  0.12699986  0.10560089  0.83444437  1
  S  S70  1  0.37300014  0.60560089  0.66555563  1
  S  S71  1  0.12699986  0.89439911  0.16555563  1
