# generated using pymatgen
data_FeMo2H4NO8
_symmetry_space_group_name_H-M   'P 1'
_cell_length_a   5.74531349
_cell_length_b   8.96523432
_cell_length_c   15.23263559
_cell_angle_alpha   90.00000000
_cell_angle_beta   90.00000000
_cell_angle_gamma   90.00000000
_symmetry_Int_Tables_number   1
_chemical_formula_structural   FeMo2H4NO8
_chemical_formula_sum   'Fe4 Mo8 H16 N4 O32'
_cell_volume   784.60383817
_cell_formula_units_Z   4
loop_
 _symmetry_equiv_pos_site_id
 _symmetry_equiv_pos_as_xyz
  1  'x, y, z'
loop_
 _atom_site_type_symbol
 _atom_site_label
 _atom_site_symmetry_multiplicity
 _atom_site_fract_x
 _atom_site_fract_y
 _atom_site_fract_z
 _atom_site_occupancy
  Fe  Fe0  1  0.25000000  0.81394726  0.61949167  1
  Fe  Fe1  1  0.25000000  0.68605274  0.11949167  1
  Fe  Fe2  1  0.75000000  0.18605274  0.38050833  1
  Fe  Fe3  1  0.75000000  0.31394726  0.88050833  1
  Mo  Mo4  1  0.25000000  0.20323966  0.52907755  1
  Mo  Mo5  1  0.25000000  0.29676034  0.02907755  1
  Mo  Mo6  1  0.75000000  0.79676034  0.47092245  1
  Mo  Mo7  1  0.75000000  0.70323966  0.97092245  1
  Mo  Mo8  1  0.25000000  0.50587706  0.78077853  1
  Mo  Mo9  1  0.25000000  0.99412294  0.28077853  1
  Mo  Mo10  1  0.75000000  0.49412294  0.21922147  1
  Mo  Mo11  1  0.75000000  0.00587706  0.71922147  1
  H  H12  1  0.25000000  0.88267432  0.92991331  1
  H  H13  1  0.25000000  0.61732568  0.42991331  1
  H  H14  1  0.75000000  0.11732568  0.07008669  1
  H  H15  1  0.75000000  0.38267432  0.57008669  1
  H  H16  1  0.25000000  0.92087113  0.82187889  1
  H  H17  1  0.25000000  0.57912887  0.32187889  1
  H  H18  1  0.75000000  0.07912887  0.17812111  1
  H  H19  1  0.75000000  0.42087113  0.67812111  1
  H  H20  1  0.10343225  0.03346348  0.89175935  1
  H  H21  1  0.39656775  0.46653652  0.39175935  1
  H  H22  1  0.60343225  0.96653652  0.10824065  1
  H  H23  1  0.89656775  0.53346348  0.60824065  1
  H  H24  1  0.89656775  0.96653652  0.10824065  1
  H  H25  1  0.60343225  0.53346348  0.60824065  1
  H  H26  1  0.39656775  0.03346348  0.89175935  1
  H  H27  1  0.10343225  0.46653652  0.39175935  1
  N  N28  1  0.25000000  0.96760591  0.88395884  1
  N  N29  1  0.25000000  0.53239409  0.38395884  1
  N  N30  1  0.75000000  0.03239409  0.11604116  1
  N  N31  1  0.75000000  0.46760591  0.61604116  1
  O  O32  1  0.25000000  0.00751519  0.55327328  1
  O  O33  1  0.25000000  0.49248481  0.05327328  1
  O  O34  1  0.75000000  0.99248481  0.44672672  1
  O  O35  1  0.75000000  0.50751519  0.94672672  1
  O  O36  1  0.99821752  0.26269420  0.46425289  1
  O  O37  1  0.50178248  0.23730580  0.96425289  1
  O  O38  1  0.49821752  0.73730580  0.53574711  1
  O  O39  1  0.00178248  0.76269420  0.03574711  1
  O  O40  1  0.00178248  0.73730580  0.53574711  1
  O  O41  1  0.49821752  0.76269420  0.03574711  1
  O  O42  1  0.50178248  0.26269420  0.46425289  1
  O  O43  1  0.99821752  0.23730580  0.96425289  1
  O  O44  1  0.25000000  0.63503302  0.86578314  1
  O  O45  1  0.25000000  0.86496698  0.36578314  1
  O  O46  1  0.75000000  0.36496698  0.13421686  1
  O  O47  1  0.75000000  0.13503302  0.63421686  1
  O  O48  1  0.25000000  0.61199592  0.67800645  1
  O  O49  1  0.25000000  0.88800408  0.17800645  1
  O  O50  1  0.75000000  0.38800408  0.32199355  1
  O  O51  1  0.75000000  0.11199592  0.82199355  1
  O  O52  1  0.25000000  0.30748332  0.62566121  1
  O  O53  1  0.25000000  0.19251668  0.12566121  1
  O  O54  1  0.75000000  0.69251668  0.37433879  1
  O  O55  1  0.75000000  0.80748332  0.87433879  1
  O  O56  1  0.98916342  0.39344927  0.79470714  1
  O  O57  1  0.51083658  0.10655073  0.29470714  1
  O  O58  1  0.48916342  0.60655073  0.20529286  1
  O  O59  1  0.01083658  0.89344927  0.70529286  1
  O  O60  1  0.01083658  0.60655073  0.20529286  1
  O  O61  1  0.48916342  0.89344927  0.70529286  1
  O  O62  1  0.51083658  0.39344927  0.79470714  1
  O  O63  1  0.98916342  0.10655073  0.29470714  1
