# generated using pymatgen
data_Li9Mn2Co5O16
_symmetry_space_group_name_H-M   'P 1'
_cell_length_a   2.87278850
_cell_length_b   5.20054754
_cell_length_c   19.36742376
_cell_angle_alpha   98.52229278
_cell_angle_beta   90.00000000
_cell_angle_gamma   90.00000000
_symmetry_Int_Tables_number   1
_chemical_formula_structural   Li9Mn2Co5O16
_chemical_formula_sum   'Li9 Mn2 Co5 O16'
_cell_volume   286.15579777
_cell_formula_units_Z   1
loop_
 _symmetry_equiv_pos_site_id
 _symmetry_equiv_pos_as_xyz
  1  'x, y, z'
loop_
 _atom_site_type_symbol
 _atom_site_label
 _atom_site_symmetry_multiplicity
 _atom_site_fract_x
 _atom_site_fract_y
 _atom_site_fract_z
 _atom_site_occupancy
  Li  Li0  1  0.50000000  0.26499330  0.13158366  1
  Li  Li1  1  0.50000000  0.73500670  0.36841634  1
  Li  Li2  1  0.50000000  0.24775006  0.62699714  1
  Li  Li3  1  0.50000000  0.75224994  0.87300286  1
  Li  Li4  1  0.00000000  0.75955127  0.12969268  1
  Li  Li5  1  0.00000000  0.24044873  0.37030732  1
  Li  Li6  1  0.00000000  0.75381944  0.62474036  1
  Li  Li7  1  0.00000000  0.24618056  0.87525964  1
  Li  Li8  1  0.50000000  0.00000000  0.25000000  1
  Mn  Mn9  1  0.00000000  0.00266444  0.00121346  1
  Mn  Mn10  1  0.00000000  0.99733556  0.49878654  1
  Co  Co11  1  0.00000000  0.50000000  0.25000000  1
  Co  Co12  1  0.00000000  0.50000000  0.75000000  1
  Co  Co13  1  0.50000000  0.50241045  0.99975494  1
  Co  Co14  1  0.50000000  0.49758955  0.50024506  1
  Co  Co15  1  0.50000000  0.00000000  0.75000000  1
  O  O16  1  0.50000000  0.89408353  0.06031546  1
  O  O17  1  0.50000000  0.38393726  0.30667712  1
  O  O18  1  0.50000000  0.89082512  0.55797801  1
  O  O19  1  0.50000000  0.38137966  0.80463883  1
  O  O20  1  -0.00000000  0.39844744  0.05604949  1
  O  O21  1  0.00000000  0.81430590  0.30315147  1
  O  O22  1  -0.00000000  0.39370053  0.55745850  1
  O  O23  1  0.00000000  0.88417099  0.80961323  1
  O  O24  1  0.50000000  0.61606274  0.19332288  1
  O  O25  1  0.50000000  0.10591647  0.43968454  1
  O  O26  1  0.50000000  0.61862034  0.69536117  1
  O  O27  1  0.50000000  0.10917488  0.94202199  1
  O  O28  1  0.00000000  0.18569410  0.19684853  1
  O  O29  1  0.00000000  0.60155256  0.44395051  1
  O  O30  1  0.00000000  0.11582901  0.69038677  1
  O  O31  1  0.00000000  0.60629947  0.94254150  1
