# generated using pymatgen
data_BaFeCoPbO5
_symmetry_space_group_name_H-M   'P 1'
_cell_length_a   4.03059478
_cell_length_b   5.79661244
_cell_length_c   21.28521250
_cell_angle_alpha   90.00000000
_cell_angle_beta   90.00000000
_cell_angle_gamma   90.00000000
_symmetry_Int_Tables_number   1
_chemical_formula_structural   BaFeCoPbO5
_chemical_formula_sum   'Ba4 Fe4 Co4 Pb4 O20'
_cell_volume   497.30335931
_cell_formula_units_Z   4
loop_
 _symmetry_equiv_pos_site_id
 _symmetry_equiv_pos_as_xyz
  1  'x, y, z'
loop_
 _atom_site_type_symbol
 _atom_site_label
 _atom_site_symmetry_multiplicity
 _atom_site_fract_x
 _atom_site_fract_y
 _atom_site_fract_z
 _atom_site_occupancy
  Ba  Ba0  1  0.75000000  0.99049552  0.18816906  1
  Ba  Ba1  1  0.75000000  0.49049552  0.31183094  1
  Ba  Ba2  1  0.25000000  0.00950448  0.81183094  1
  Ba  Ba3  1  0.25000000  0.50950448  0.68816906  1
  Fe  Fe4  1  0.75000000  0.00062452  0.94546883  1
  Fe  Fe5  1  0.75000000  0.50062452  0.55453117  1
  Fe  Fe6  1  0.25000000  0.99937548  0.05453117  1
  Fe  Fe7  1  0.25000000  0.49937548  0.44546883  1
  Co  Co8  1  0.75000000  0.51040256  0.81443481  1
  Co  Co9  1  0.75000000  0.01040256  0.68556519  1
  Co  Co10  1  0.25000000  0.48959744  0.18556519  1
  Co  Co11  1  0.25000000  -0.01040256  0.31443481  1
  Pb  Pb12  1  0.75000000  0.48856487  0.07209907  1
  Pb  Pb13  1  0.75000000  0.98856487  0.42790093  1
  Pb  Pb14  1  0.25000000  0.51143513  0.92790093  1
  Pb  Pb15  1  0.25000000  0.01143513  0.57209907  1
  O  O16  1  0.25000000  0.51060427  0.82204377  1
  O  O17  1  0.25000000  0.01060427  0.67795623  1
  O  O18  1  0.75000000  0.48939573  0.17795623  1
  O  O19  1  0.75000000  0.98939573  0.32204377  1
  O  O20  1  0.75000000  0.76910730  0.74716257  1
  O  O21  1  0.75000000  0.26910730  0.75283743  1
  O  O22  1  0.25000000  0.23089270  0.25283743  1
  O  O23  1  0.25000000  0.73089270  0.24716257  1
  O  O24  1  0.75000000  0.26621743  0.89342697  1
  O  O25  1  0.75000000  0.76621743  0.60657303  1
  O  O26  1  0.25000000  0.73378257  0.10657303  1
  O  O27  1  0.25000000  0.23378257  0.39342697  1
  O  O28  1  0.75000000  0.74310115  0.88663536  1
  O  O29  1  0.75000000  0.24310115  0.61336464  1
  O  O30  1  0.25000000  0.25689885  0.11336464  1
  O  O31  1  0.25000000  0.75689885  0.38663536  1
  O  O32  1  0.25000000  0.97838086  0.96007512  1
  O  O33  1  0.25000000  0.47838086  0.53992488  1
  O  O34  1  0.75000000  0.02161914  0.03992488  1
  O  O35  1  0.75000000  0.52161914  0.46007512  1
