# generated using pymatgen
data_TiSi7H42C14(ClO)2
_symmetry_space_group_name_H-M   'P 1'
_cell_length_a   9.77357363
_cell_length_b   10.43371138
_cell_length_c   18.59453895
_cell_angle_alpha   90.00000000
_cell_angle_beta   90.00000000
_cell_angle_gamma   101.23141606
_symmetry_Int_Tables_number   1
_chemical_formula_structural   TiSi7H42C14(ClO)2
_chemical_formula_sum   'Ti2 Si14 H84 C28 Cl4 O4'
_cell_volume   1859.85701802
_cell_formula_units_Z   2
loop_
 _symmetry_equiv_pos_site_id
 _symmetry_equiv_pos_as_xyz
  1  'x, y, z'
loop_
 _atom_site_type_symbol
 _atom_site_label
 _atom_site_symmetry_multiplicity
 _atom_site_fract_x
 _atom_site_fract_y
 _atom_site_fract_z
 _atom_site_occupancy
  Ti  Ti0  1  0.34760837  0.59404019  0.23476084  1
  Ti  Ti1  1  0.65239163  0.40595981  0.73476084  1
  Si  Si2  1  0.25251805  0.88316517  0.25576086  1
  Si  Si3  1  0.74748195  0.11683483  0.75576086  1
  Si  Si4  1  0.17717152  0.58026751  0.39183797  1
  Si  Si5  1  0.82282848  0.41973249  0.89183797  1
  Si  Si6  1  0.46601025  0.04233389  0.26586353  1
  Si  Si7  1  0.53398975  0.95766611  0.76586353  1
  Si  Si8  1  0.13928351  0.80113892  0.36818779  1
  Si  Si9  1  0.86071649  0.19886108  0.86818779  1
  Si  Si10  1  0.32725943  0.56465561  0.49339012  1
  Si  Si11  1  0.67274057  0.43534439  0.99339012  1
  Si  Si12  1  0.09903479  0.94050386  0.16434501  1
  Si  Si13  1  0.90096521  0.05949614  0.66434501  1
  Si  Si14  1  0.97054945  0.41089929  0.38229427  1
  Si  Si15  1  0.02945055  0.58910071  0.88229427  1
  H  H16  1  0.65916107  0.12248397  0.18039459  1
  H  H17  1  0.34083893  0.87751603  0.68039459  1
  H  H18  1  0.50216029  0.06332347  0.13236010  1
  H  H19  1  0.49783971  0.93667653  0.63236010  1
  H  H20  1  0.59861715  0.95115419  0.17036125  1
  H  H21  1  0.40138285  0.04884581  0.67036125  1
  H  H22  1  0.36323973  0.20933884  0.33234959  1
  H  H23  1  0.63676027  0.79066116  0.83234959  1
  H  H24  1  0.37032582  0.24219553  0.23814490  1
  H  H25  1  0.62967418  0.75780447  0.73814490  1
  H  H26  1  0.52404329  0.28078077  0.29103575  1
  H  H27  1  0.47595671  0.71921923  0.79103575  1
  H  H28  1  0.68789661  0.06457672  0.33323543  1
  H  H29  1  0.31210339  0.93542328  0.83323543  1
  H  H30  1  0.59843234  0.89933650  0.33441380  1
  H  H31  1  0.40156766  0.10066350  0.83441380  1
  H  H32  1  0.54473787  0.01631724  0.39276075  1
  H  H33  1  0.45526213  0.98368276  0.89276075  1
  H  H34  1  0.18676640  0.01334110  0.43468628  1
  H  H35  1  0.81323360  0.98665890  0.93468628  1
  H  H36  1  0.32136644  0.92417559  0.45230051  1
  H  H37  1  0.67863356  0.07582441  0.95230051  1
  H  H38  1  0.15664919  0.87993173  0.49569907  1
  H  H39  1  0.84335081  0.12006827  0.99569907  1
  H  H40  1  0.89666505  0.76667586  0.41646209  1
  H  H41  1  0.10333495  0.23332414  0.91646209  1
  H  H42  1  0.89226633  0.73688527  0.32218926  1
  H  H43  1  0.10773367  0.26311473  0.82218926  1
  H  H44  1  0.92653607  0.90003539  0.35555309  1
  H  H45  1  0.07346393  0.09996461  0.85555309  1
  H  H46  1  0.56882031  0.67184850  0.52560384  1
  H  H47  1  0.43117969  0.32815150  0.02560384  1
  H  H48  1  0.47895167  0.78731113  0.48584343  1
  H  H49  1  0.52104833  0.21268887  0.98584343  1
  H  H50  1  0.54447138  0.67272613  0.43079912  1
  H  H51  1  0.45552862  0.32727387  0.93079912  1
  H  H52  1  0.44747703  0.39526209  0.54325650  1
  H  H53  1  0.55252297  0.60473791  0.04325650  1
  H  H54  1  0.42504725  0.37501400  0.44863401  1
  H  H55  1  0.57495275  0.62498600  0.94863401  1
  H  H56  1  0.28197480  0.32104300  0.50800466  1
  H  H57  1  0.71802520  0.67895700  0.00800466  1
  H  H58  1  0.13689160  0.52996786  0.58483503  1
  H  H59  1  0.86310840  0.47003214  0.08483503  1
  H  H60  1  0.21770419  0.69815418  0.57972814  1
  H  H61  1  0.78229581  0.30184582  0.07972814  1
  H  H62  1  0.30206026  0.58494696  0.62565747  1
  H  H63  1  0.69793974  0.41505304  0.12565747  1
  H  H64  1  0.95317675  0.10946590  0.15144645  1
  H  H65  1  0.04682325  0.89053410  0.65144645  1
  H  H66  1  0.08631143  0.15878344  0.21620656  1
  H  H67  1  0.91368857  0.84121656  0.71620656  1
  H  H68  1  0.93495412  0.04066832  0.23935577  1
  H  H69  1  0.06504588  0.95933168  0.73935577  1
  H  H70  1  0.26143190  0.92876701  0.06093685  1
  H  H71  1  0.73856810  0.07123299  0.56093685  1
  H  H72  1  0.26499316  0.09419243  0.08693284  1
  H  H73  1  0.73500684  0.90580757  0.58693284  1
  H  H74  1  0.12295211  0.00799539  0.03595413  1
  H  H75  1  0.87704789  0.99200461  0.53595413  1
  H  H76  1  0.89495907  0.81439262  0.09844798  1
  H  H77  1  0.10504093  0.18560738  0.59844798  1
  H  H78  1  0.90003912  0.75537335  0.18779400  1
  H  H79  1  0.09996088  0.24462665  0.68779400  1
  H  H80  1  0.01523720  0.71249107  0.12154996  1
  H  H81  1  0.98476280  0.28750893  0.62154996  1
  H  H82  1  0.05009429  0.23821793  0.45623748  1
  H  H83  1  0.94990571  0.76178207  0.95623748  1
  H  H84  1  0.10081106  0.22836304  0.36447388  1
  H  H85  1  0.89918894  0.77163696  0.86447388  1
  H  H86  1  0.92515360  0.16790219  0.39096373  1
  H  H87  1  0.07484640  0.83209781  0.89096373  1
  H  H88  1  0.81453078  0.32785152  0.27958746  1
  H  H89  1  0.18546922  0.67214848  0.77958746  1
  H  H90  1  0.98367249  0.39943896  0.24824248  1
  H  H91  1  0.01632751  0.60056104  0.74824248  1
  H  H92  1  0.86498832  0.50046867  0.27539012  1
  H  H93  1  0.13501168  0.49953133  0.77539012  1
  H  H94  1  0.78594040  0.51962928  0.43419505  1
  H  H95  1  0.21405960  0.48037072  0.93419505  1
  H  H96  1  0.86533836  0.43994974  0.50284258  1
  H  H97  1  0.13466164  0.56005026  0.00284258  1
  H  H98  1  0.74269054  0.34691416  0.44332065  1
  H  H99  1  0.25730946  0.65308584  0.94332065  1
  C  C100  1  0.56499141  0.04459846  0.17858423  1
  C  C101  1  0.43500859  0.95540154  0.67858423  1
  C  C102  1  0.42630610  0.20894450  0.28353752  1
  C  C103  1  0.57369390  0.79105550  0.78353752  1
  C  C104  1  0.58410087  0.00076989  0.33893044  1
  C  C105  1  0.41589913  0.99923011  0.83893044  1
  C  C106  1  0.20894400  0.91538214  0.44498154  1
  C  C107  1  0.79105600  0.08461786  0.94498154  1
  C  C108  1  0.94509803  0.80045293  0.36465699  1
  C  C109  1  0.05490197  0.19954707  0.86465699  1
  C  C110  1  0.49553682  0.68651952  0.48264758  1
  C  C111  1  0.50446318  0.31348048  0.98264758  1
  C  C112  1  0.37382230  0.39754167  0.49841305  1
  C  C113  1  0.62617770  0.60245833  0.99841305  1
  C  C114  1  0.23688405  0.59783211  0.57879253  1
  C  C115  1  0.76311595  0.40216789  0.07879253  1
  C  C116  1  0.01023878  0.07488214  0.19647211  1
  C  C117  1  0.98976122  0.92511786  0.69647211  1
  C  C118  1  0.19772255  0.99822318  0.07931533  1
  C  C119  1  0.80227745  0.00177682  0.57931533  1
  C  C120  1  0.96469391  0.79107637  0.14115756  1
  C  C121  1  0.03530609  0.20892363  0.64115756  1
  C  C122  1  0.01716569  0.24608758  0.40026131  1
  C  C123  1  0.98283431  0.75391242  0.90026131  1
  C  C124  1  0.90282750  0.41038278  0.28737975  1
  C  C125  1  0.09717250  0.58961722  0.78737975  1
  C  C126  1  0.82879098  0.43256823  0.44702530  1
  C  C127  1  0.17120902  0.56743177  0.94702530  1
  Cl  Cl128  1  0.58061833  0.61091544  0.23785648  1
  Cl  Cl129  1  0.41938167  0.38908456  0.73785648  1
  Cl  Cl130  1  0.26082155  0.45152068  0.14728422  1
  Cl  Cl131  1  0.73917845  0.54847932  0.64728422  1
  O  O132  1  0.30807630  0.75052090  0.21918318  1
  O  O133  1  0.69192370  0.24947910  0.71918318  1
  O  O134  1  0.27266095  0.54345687  0.31941682  1
  O  O135  1  0.72733905  0.45654313  0.81941682  1
