# generated using pymatgen
data_Cu3PO7
_symmetry_space_group_name_H-M   'P 1'
_cell_length_a   6.74329243
_cell_length_b   10.96203234
_cell_length_c   14.18477071
_cell_angle_alpha   90.00000000
_cell_angle_beta   90.00000000
_cell_angle_gamma   90.00000000
_symmetry_Int_Tables_number   1
_chemical_formula_structural   Cu3PO7
_chemical_formula_sum   'Cu24 P8 O56'
_cell_volume   1048.54094167
_cell_formula_units_Z   8
loop_
 _symmetry_equiv_pos_site_id
 _symmetry_equiv_pos_as_xyz
  1  'x, y, z'
loop_
 _atom_site_type_symbol
 _atom_site_label
 _atom_site_symmetry_multiplicity
 _atom_site_fract_x
 _atom_site_fract_y
 _atom_site_fract_z
 _atom_site_occupancy
  Cu  Cu0  1  0.30348825  0.51368999  0.13292365  1
  Cu  Cu1  1  0.69651175  0.01368999  0.36707635  1
  Cu  Cu2  1  0.19651175  0.48631001  0.63292365  1
  Cu  Cu3  1  0.80348825  0.98631001  0.86707635  1
  Cu  Cu4  1  0.69651175  0.48631001  0.86707635  1
  Cu  Cu5  1  0.30348825  0.98631001  0.63292365  1
  Cu  Cu6  1  0.80348825  0.51368999  0.36707635  1
  Cu  Cu7  1  0.19651175  0.01368999  0.13292365  1
  Cu  Cu8  1  0.09143783  0.68335020  0.24323559  1
  Cu  Cu9  1  0.90856217  0.18335020  0.25676441  1
  Cu  Cu10  1  0.40856217  0.31664980  0.74323559  1
  Cu  Cu11  1  0.59143783  0.81664980  0.75676441  1
  Cu  Cu12  1  0.90856217  0.31664980  0.75676441  1
  Cu  Cu13  1  0.09143783  0.81664980  0.74323559  1
  Cu  Cu14  1  0.59143783  0.68335020  0.25676441  1
  Cu  Cu15  1  0.40856217  0.18335020  0.24323559  1
  Cu  Cu16  1  0.38526133  0.59851678  0.45207731  1
  Cu  Cu17  1  0.61473867  0.09851678  0.04792269  1
  Cu  Cu18  1  0.11473867  0.40148322  0.95207731  1
  Cu  Cu19  1  0.88526133  0.90148322  0.54792269  1
  Cu  Cu20  1  0.61473867  0.40148322  0.54792269  1
  Cu  Cu21  1  0.38526133  0.90148322  0.95207731  1
  Cu  Cu22  1  0.88526133  0.59851678  0.04792269  1
  Cu  Cu23  1  0.11473867  0.09851678  0.45207731  1
  P  P24  1  0.29114618  0.87035899  0.38527654  1
  P  P25  1  0.70885382  0.37035899  0.11472346  1
  P  P26  1  0.20885382  0.12964101  0.88527654  1
  P  P27  1  0.79114618  0.62964101  0.61472346  1
  P  P28  1  0.70885382  0.12964101  0.61472346  1
  P  P29  1  0.29114618  0.62964101  0.88527654  1
  P  P30  1  0.79114618  0.87035899  0.11472346  1
  P  P31  1  0.20885382  0.37035899  0.38527654  1
  O  O32  1  0.41521548  0.76558362  0.42645950  1
  O  O33  1  0.58478452  0.26558362  0.07354050  1
  O  O34  1  0.08478452  0.23441638  0.92645950  1
  O  O35  1  0.91521548  0.73441638  0.57354050  1
  O  O36  1  0.58478452  0.23441638  0.57354050  1
  O  O37  1  0.41521548  0.73441638  0.92645950  1
  O  O38  1  0.91521548  0.76558362  0.07354050  1
  O  O39  1  0.08478452  0.26558362  0.42645950  1
  O  O40  1  0.16559774  0.92868079  0.46743198  1
  O  O41  1  0.83440226  0.42868079  0.03256802  1
  O  O42  1  0.33440226  0.07131921  0.96743198  1
  O  O43  1  0.66559774  0.57131921  0.53256802  1
  O  O44  1  0.83440226  0.07131921  0.53256802  1
  O  O45  1  0.16559774  0.57131921  0.96743198  1
  O  O46  1  0.66559774  0.92868079  0.03256802  1
  O  O47  1  0.33440226  0.42868079  0.46743198  1
  O  O48  1  0.42691275  0.97634297  0.35148654  1
  O  O49  1  0.57308725  0.47634297  0.14851346  1
  O  O50  1  0.07308725  0.02365703  0.85148654  1
  O  O51  1  0.92691275  0.52365703  0.64851346  1
  O  O52  1  0.57308725  0.02365703  0.64851346  1
  O  O53  1  0.42691275  0.52365703  0.85148654  1
  O  O54  1  0.92691275  0.97634297  0.14851346  1
  O  O55  1  0.07308725  0.47634297  0.35148654  1
  O  O56  1  0.15562727  0.83071025  0.30359564  1
  O  O57  1  0.84437273  0.33071025  0.19640436  1
  O  O58  1  0.34437273  0.16928975  0.80359564  1
  O  O59  1  0.65562727  0.66928975  0.69640436  1
  O  O60  1  0.84437273  0.16928975  0.69640436  1
  O  O61  1  0.15562727  0.66928975  0.80359564  1
  O  O62  1  0.65562727  0.83071025  0.19640436  1
  O  O63  1  0.34437273  0.33071025  0.30359564  1
  O  O64  1  0.03882650  0.56049669  0.15665633  1
  O  O65  1  0.96117350  0.06049669  0.34334367  1
  O  O66  1  0.46117350  0.43950331  0.65665633  1
  O  O67  1  0.53882650  0.93950331  0.84334367  1
  O  O68  1  0.96117350  0.43950331  0.84334367  1
  O  O69  1  0.03882650  0.93950331  0.65665633  1
  O  O70  1  0.53882650  0.56049669  0.34334367  1
  O  O71  1  0.46117350  0.06049669  0.15665633  1
  O  O72  1  0.34680789  0.66421167  0.19401762  1
  O  O73  1  0.65319211  0.16421167  0.30598238  1
  O  O74  1  0.15319211  0.33578833  0.69401762  1
  O  O75  1  0.84680789  0.83578833  0.80598238  1
  O  O76  1  0.65319211  0.33578833  0.80598238  1
  O  O77  1  0.34680789  0.83578833  0.69401762  1
  O  O78  1  0.84680789  0.66421167  0.30598238  1
  O  O79  1  0.15319211  0.16421167  0.19401762  1
  O  O80  1  0.24672278  0.88052356  0.06092868  1
  O  O81  1  0.75327722  0.38052356  0.43907132  1
  O  O82  1  0.25327722  0.11947644  0.56092868  1
  O  O83  1  0.74672278  0.61947644  0.93907132  1
  O  O84  1  0.75327722  0.11947644  0.93907132  1
  O  O85  1  0.24672278  0.61947644  0.56092868  1
  O  O86  1  0.74672278  0.88052356  0.43907132  1
  O  O87  1  0.25327722  0.38052356  0.06092868  1
