# generated using pymatgen
data_Si
_symmetry_space_group_name_H-M   'P 1'
_cell_length_a   10.41140466
_cell_length_b   10.41139695
_cell_length_c   17.05618104
_cell_angle_alpha   90.00000000
_cell_angle_beta   90.00000000
_cell_angle_gamma   119.99989395
_symmetry_Int_Tables_number   1
_chemical_formula_structural   Si
_chemical_formula_sum   Si68
_cell_volume   1601.14706656
_cell_formula_units_Z   68
loop_
 _symmetry_equiv_pos_site_id
 _symmetry_equiv_pos_as_xyz
  1  'x, y, z'
loop_
 _atom_site_type_symbol
 _atom_site_label
 _atom_site_symmetry_multiplicity
 _atom_site_fract_x
 _atom_site_fract_y
 _atom_site_fract_z
 _atom_site_occupancy
  Si  Si0  1  0.95016088  0.66957765  0.56455623  1
  Si  Si1  1  0.71941653  0.04983910  0.56455611  1
  Si  Si2  1  0.33042294  0.28058368  0.56455638  1
  Si  Si3  1  0.71941332  0.66957384  0.56455731  1
  Si  Si4  1  0.33042559  0.04983949  0.56455716  1
  Si  Si5  1  0.95016062  0.28058619  0.56455696  1
  Si  Si6  1  0.04983912  0.33042235  0.43544377  1
  Si  Si7  1  0.28058347  0.95016090  0.43544389  1
  Si  Si8  1  0.66957706  0.71941632  0.43544362  1
  Si  Si9  1  0.28058668  0.33042616  0.43544269  1
  Si  Si10  1  0.66957441  0.95016051  0.43544284  1
  Si  Si11  1  0.04983938  0.71941381  0.43544304  1
  Si  Si12  1  0.04983912  0.33042235  0.06455623  1
  Si  Si13  1  0.28058347  0.95016090  0.06455611  1
  Si  Si14  1  0.66957706  0.71941632  0.06455638  1
  Si  Si15  1  0.28058668  0.33042616  0.06455731  1
  Si  Si16  1  0.66957441  0.95016051  0.06455716  1
  Si  Si17  1  0.04983938  0.71941381  0.06455696  1
  Si  Si18  1  0.95016088  0.66957765  0.93544377  1
  Si  Si19  1  0.71941653  0.04983910  0.93544389  1
  Si  Si20  1  0.33042294  0.28058368  0.93544362  1
  Si  Si21  1  0.71941332  0.66957384  0.93544269  1
  Si  Si22  1  0.33042559  0.04983949  0.93544284  1
  Si  Si23  1  0.95016062  0.28058619  0.93544304  1
  Si  Si24  1  0.91574731  0.45787405  0.86477928  1
  Si  Si25  1  0.54212702  0.08425264  0.86477920  1
  Si  Si26  1  0.54212732  0.45787152  0.86477865  1
  Si  Si27  1  0.08425269  0.54212595  0.13522072  1
  Si  Si28  1  0.45787298  0.91574736  0.13522080  1
  Si  Si29  1  0.45787268  0.54212848  0.13522135  1
  Si  Si30  1  0.08425269  0.54212595  0.36477928  1
  Si  Si31  1  0.45787298  0.91574736  0.36477920  1
  Si  Si32  1  0.45787268  0.54212848  0.36477865  1
  Si  Si33  1  0.91574731  0.45787405  0.63522072  1
  Si  Si34  1  0.54212702  0.08425264  0.63522080  1
  Si  Si35  1  0.54212732  0.45787152  0.63522135  1
  Si  Si36  1  0.87653769  0.12346180  0.36128523  1
  Si  Si37  1  0.24692417  0.12346254  0.36128515  1
  Si  Si38  1  0.87653783  0.75307555  0.36128521  1
  Si  Si39  1  0.12346231  0.87653820  0.63871477  1
  Si  Si40  1  0.75307583  0.87653746  0.63871485  1
  Si  Si41  1  0.12346217  0.24692445  0.63871479  1
  Si  Si42  1  0.12346231  0.87653820  0.86128523  1
  Si  Si43  1  0.75307583  0.87653746  0.86128515  1
  Si  Si44  1  0.12346217  0.24692445  0.86128521  1
  Si  Si45  1  0.87653769  0.12346180  0.13871477  1
  Si  Si46  1  0.24692417  0.12346254  0.13871485  1
  Si  Si47  1  0.87653783  0.75307555  0.13871479  1
  Si  Si48  1  0.66666721  0.33333262  0.81957839  1
  Si  Si49  1  0.33333279  0.66666738  0.18042161  1
  Si  Si50  1  0.33333279  0.66666738  0.31957839  1
  Si  Si51  1  0.66666721  0.33333262  0.68042161  1
  Si  Si52  1  0.99999992  0.00000006  0.81829863  1
  Si  Si53  1  0.00000008  0.99999994  0.18170137  1
  Si  Si54  1  0.00000008  0.99999994  0.31829863  1
  Si  Si55  1  0.99999992  0.00000006  0.68170137  1
  Si  Si56  1  0.93072388  0.46536236  0.25000000  1
  Si  Si57  1  0.53463840  0.06927591  0.25000000  1
  Si  Si58  1  0.53463705  0.46536180  0.25000000  1
  Si  Si59  1  0.06927612  0.53463764  0.75000000  1
  Si  Si60  1  0.46536160  0.93072409  0.75000000  1
  Si  Si61  1  0.46536295  0.53463820  0.75000000  1
  Si  Si62  1  0.79780234  0.20220171  0.25000000  1
  Si  Si63  1  0.40439895  0.20219756  0.25000000  1
  Si  Si64  1  0.79779822  0.59560095  0.25000000  1
  Si  Si65  1  0.20219766  0.79779829  0.75000000  1
  Si  Si66  1  0.59560105  0.79780244  0.75000000  1
  Si  Si67  1  0.20220178  0.40439905  0.75000000  1
