# generated using pymatgen
data_Co3Ag(AsO4)3
_symmetry_space_group_name_H-M   'P 1'
_cell_length_a   6.79058457
_cell_length_b   8.74162358
_cell_length_c   8.74162358
_cell_angle_alpha   93.87137512
_cell_angle_beta   105.62319872
_cell_angle_gamma   105.62319872
_symmetry_Int_Tables_number   1
_chemical_formula_structural   Co3Ag(AsO4)3
_chemical_formula_sum   'Co6 Ag2 As6 O24'
_cell_volume   475.75576749
_cell_formula_units_Z   2
loop_
 _symmetry_equiv_pos_site_id
 _symmetry_equiv_pos_as_xyz
  1  'x, y, z'
loop_
 _atom_site_type_symbol
 _atom_site_label
 _atom_site_symmetry_multiplicity
 _atom_site_fract_x
 _atom_site_fract_y
 _atom_site_fract_z
 _atom_site_occupancy
  Co  Co0  1  0.25000000  0.72406576  0.27593424  1
  Co  Co1  1  0.75000000  0.27593424  0.72406576  1
  Co  Co2  1  0.12507631  0.05389455  0.37604335  1
  Co  Co3  1  0.37492369  0.62395665  0.94610545  1
  Co  Co4  1  0.87492369  0.94610545  0.62395665  1
  Co  Co5  1  0.62507631  0.37604335  0.05389455  1
  Ag  Ag6  1  0.25000000  0.01271476  0.98728524  1
  Ag  Ag7  1  0.75000000  0.98728524  0.01271476  1
  As  As8  1  0.25000000  0.30485574  0.69514426  1
  As  As9  1  0.75000000  0.69514426  0.30485574  1
  As  As10  1  0.38190197  0.87843287  0.65358077  1
  As  As11  1  0.11809803  0.34641923  0.12156713  1
  As  As12  1  0.61809803  0.12156713  0.34641923  1
  As  As13  1  0.88190197  0.65358077  0.87843287  1
  O  O14  1  0.09978048  0.15081063  0.16406402  1
  O  O15  1  0.40021952  0.83593598  0.84918937  1
  O  O16  1  0.90021952  0.84918937  0.83593598  1
  O  O17  1  0.59978048  0.16406402  0.15081063  1
  O  O18  1  0.33488973  0.71995075  0.51620830  1
  O  O19  1  0.16511027  0.48379170  0.28004925  1
  O  O20  1  0.66511027  0.28004925  0.48379170  1
  O  O21  1  0.83488973  0.51620830  0.71995075  1
  O  O22  1  0.23302027  0.26169818  0.49524776  1
  O  O23  1  0.26697973  0.50475224  0.73830182  1
  O  O24  1  0.76697973  0.73830182  0.50475224  1
  O  O25  1  0.73302027  0.49524776  0.26169818  1
  O  O26  1  0.36911052  0.98145774  0.32561715  1
  O  O27  1  0.13088948  0.67438285  0.01854226  1
  O  O28  1  0.63088948  0.01854226  0.67438285  1
  O  O29  1  0.86911052  0.32561715  0.98145774  1
  O  O30  1  0.18160113  0.97486848  0.60213515  1
  O  O31  1  0.31839887  0.39786485  0.02513152  1
  O  O32  1  0.81839887  0.02513152  0.39786485  1
  O  O33  1  0.68160113  0.60213515  0.97486848  1
  O  O34  1  0.01841133  0.18566755  0.72709869  1
  O  O35  1  0.48158867  0.27290131  0.81433245  1
  O  O36  1  0.98158867  0.81433245  0.27290131  1
  O  O37  1  0.51841133  0.72709869  0.18566755  1
