# generated using pymatgen
data_FeH9C4(NO2)3
_symmetry_space_group_name_H-M   'P 1'
_cell_length_a   8.66010590
_cell_length_b   9.02618647
_cell_length_c   12.01350260
_cell_angle_alpha   90.00000000
_cell_angle_beta   90.00000000
_cell_angle_gamma   90.00000000
_symmetry_Int_Tables_number   1
_chemical_formula_structural   FeH9C4(NO2)3
_chemical_formula_sum   'Fe4 H36 C16 N12 O24'
_cell_volume   939.06823604
_cell_formula_units_Z   4
loop_
 _symmetry_equiv_pos_site_id
 _symmetry_equiv_pos_as_xyz
  1  'x, y, z'
loop_
 _atom_site_type_symbol
 _atom_site_label
 _atom_site_symmetry_multiplicity
 _atom_site_fract_x
 _atom_site_fract_y
 _atom_site_fract_z
 _atom_site_occupancy
  Fe  Fe0  1  0.25008827  0.25000000  0.75000000  1
  Fe  Fe1  1  0.24991173  0.25000000  0.25000000  1
  Fe  Fe2  1  0.74991173  0.75000000  0.25000000  1
  Fe  Fe3  1  0.75008827  0.75000000  0.75000000  1
  H  H4  1  0.25000000  0.31847837  -0.00000000  1
  H  H5  1  0.25000000  0.18152163  0.50000000  1
  H  H6  1  0.75000000  0.68152163  -0.00000000  1
  H  H7  1  0.75000000  0.81847837  0.50000000  1
  H  H8  1  0.90935733  0.07338298  0.78421032  1
  H  H9  1  0.59064267  0.07338298  0.21578968  1
  H  H10  1  0.90935733  0.42661702  0.71578968  1
  H  H11  1  0.59064267  0.42661702  0.28421032  1
  H  H12  1  0.09064267  0.92661702  0.21578968  1
  H  H13  1  0.40935733  0.92661702  0.78421032  1
  H  H14  1  0.09064267  0.57338298  0.28421032  1
  H  H15  1  0.40935733  0.57338298  0.71578968  1
  H  H16  1  0.17253735  0.92709066  0.92083427  1
  H  H17  1  0.32746265  0.92709066  0.07916573  1
  H  H18  1  0.17253735  0.57290934  0.57916573  1
  H  H19  1  0.32746265  0.57290934  0.42083427  1
  H  H20  1  0.82746265  0.07290934  0.07916573  1
  H  H21  1  0.67253735  0.07290934  0.92083427  1
  H  H22  1  0.82746265  0.42709066  0.42083427  1
  H  H23  1  0.67253735  0.42709066  0.57916573  1
  H  H24  1  0.08691464  0.75666198  0.87732158  1
  H  H25  1  0.41308536  0.75666198  0.12267842  1
  H  H26  1  0.08691464  0.74333802  0.62267842  1
  H  H27  1  0.41308536  0.74333802  0.37732158  1
  H  H28  1  0.91308536  0.24333802  0.12267842  1
  H  H29  1  0.58691464  0.24333802  0.87732158  1
  H  H30  1  0.91308536  0.25666198  0.37732158  1
  H  H31  1  0.58691464  0.25666198  0.62267842  1
  H  H32  1  0.30954920  0.53517720  0.06018388  1
  H  H33  1  0.19045080  0.53517720  0.93981612  1
  H  H34  1  0.30954920  0.96482280  0.43981612  1
  H  H35  1  0.19045080  0.96482280  0.56018388  1
  H  H36  1  0.69045080  0.46482280  0.93981612  1
  H  H37  1  0.80954920  0.46482280  0.06018388  1
  H  H38  1  0.69045080  0.03517720  0.56018388  1
  H  H39  1  0.80954920  0.03517720  0.43981612  1
  C  C40  1  0.25000000  0.19642484  -0.00000000  1
  C  C41  1  0.25000000  0.30357516  0.50000000  1
  C  C42  1  0.75000000  0.80357516  -0.00000000  1
  C  C43  1  0.75000000  0.69642484  0.50000000  1
  C  C44  1  0.98178847  0.01456828  0.72210538  1
  C  C45  1  0.51821153  0.01456828  0.27789462  1
  C  C46  1  0.98178847  0.48543172  0.77789462  1
  C  C47  1  0.51821153  0.48543172  0.22210538  1
  C  C48  1  0.01821153  0.98543172  0.27789462  1
  C  C49  1  0.48178847  0.98543172  0.72210538  1
  C  C50  1  0.01821153  0.51456828  0.22210538  1
  C  C51  1  0.48178847  0.51456828  0.77789462  1
  C  C52  1  0.25000000  0.74014641  -0.00000000  1
  C  C53  1  0.25000000  0.75985359  0.50000000  1
  C  C54  1  0.75000000  0.25985359  -0.00000000  1
  C  C55  1  0.75000000  0.24014641  0.50000000  1
  N  N56  1  0.16204087  0.81428660  0.92697651  1
  N  N57  1  0.33795913  0.81428660  0.07302349  1
  N  N58  1  0.16204087  0.68571340  0.57302349  1
  N  N59  1  0.33795913  0.68571340  0.42697651  1
  N  N60  1  0.83795913  0.18571340  0.07302349  1
  N  N61  1  0.66204087  0.18571340  0.92697651  1
  N  N62  1  0.83795913  0.31428660  0.42697651  1
  N  N63  1  0.66204087  0.31428660  0.57302349  1
  N  N64  1  0.25000000  0.59216588  -0.00000000  1
  N  N65  1  0.25000000  0.90783412  0.50000000  1
  N  N66  1  0.75000000  0.40783412  -0.00000000  1
  N  N67  1  0.75000000  0.09216588  0.50000000  1
  O  O68  1  0.24204004  0.13053640  0.90664255  1
  O  O69  1  0.25795996  0.13053640  0.09335745  1
  O  O70  1  0.24204004  0.36946360  0.59335745  1
  O  O71  1  0.25795996  0.36946360  0.40664255  1
  O  O72  1  0.75795996  0.86946360  0.09335745  1
  O  O73  1  0.74204004  0.86946360  0.90664255  1
  O  O74  1  0.75795996  0.63053640  0.40664255  1
  O  O75  1  0.74204004  0.63053640  0.59335745  1
  O  O76  1  0.10042103  0.08037387  0.68426695  1
  O  O77  1  0.39957897  0.08037387  0.31573305  1
  O  O78  1  0.10042103  0.41962613  0.81573305  1
  O  O79  1  0.39957897  0.41962613  0.18426695  1
  O  O80  1  0.89957897  0.91962613  0.31573305  1
  O  O81  1  0.60042103  0.91962613  0.68426695  1
  O  O82  1  0.89957897  0.58037387  0.18426695  1
  O  O83  1  0.60042103  0.58037387  0.81573305  1
  O  O84  1  0.94138363  0.88499953  0.69329886  1
  O  O85  1  0.55861637  0.88499953  0.30670114  1
  O  O86  1  0.94138363  0.61500047  0.80670114  1
  O  O87  1  0.55861637  0.61500047  0.19329886  1
  O  O88  1  0.05861637  0.11500047  0.30670114  1
  O  O89  1  0.44138363  0.11500047  0.69329886  1
  O  O90  1  0.05861637  0.38499953  0.19329886  1
  O  O91  1  0.44138363  0.38499953  0.80670114  1
