# generated using pymatgen
data_Li9Mn2Co5O16
_symmetry_space_group_name_H-M   'P 1'
_cell_length_a   2.87271760
_cell_length_b   10.40281491
_cell_length_c   10.38845505
_cell_angle_alpha   68.81360337
_cell_angle_beta   90.00000000
_cell_angle_gamma   90.00000000
_symmetry_Int_Tables_number   1
_chemical_formula_structural   Li9Mn2Co5O16
_chemical_formula_sum   'Li9 Mn2 Co5 O16'
_cell_volume   289.46864156
_cell_formula_units_Z   1
loop_
 _symmetry_equiv_pos_site_id
 _symmetry_equiv_pos_as_xyz
  1  'x, y, z'
loop_
 _atom_site_type_symbol
 _atom_site_label
 _atom_site_symmetry_multiplicity
 _atom_site_fract_x
 _atom_site_fract_y
 _atom_site_fract_z
 _atom_site_occupancy
  Li  Li0  1  0.50000000  0.99730382  0.25993162  1
  Li  Li1  1  0.50000000  0.99947311  0.74239670  1
  Li  Li2  1  0.00000000  0.24845127  0.25009469  1
  Li  Li3  1  0.00000000  0.25154873  0.74990531  1
  Li  Li4  1  0.50000000  0.50052689  0.25760330  1
  Li  Li5  1  0.50000000  0.50269618  0.74006838  1
  Li  Li6  1  0.00000000  0.74981289  0.25746220  1
  Li  Li7  1  -0.00000000  0.75018711  0.74253780  1
  Li  Li8  1  0.50000000  0.75000000  0.50000000  1
  Mn  Mn9  1  0.00000000  -0.00070572  0.00047749  1
  Mn  Mn10  1  -0.00000000  0.50070572  -0.00047749  1
  Co  Co11  1  0.00000000  0.98954387  0.49544932  1
  Co  Co12  1  0.50000000  0.25000000  -0.00000000  1
  Co  Co13  1  0.50000000  0.25000000  0.50000000  1
  Co  Co14  1  0.00000000  0.51045613  0.50455068  1
  Co  Co15  1  0.50000000  0.75000000  -0.00000000  1
  O  O16  1  0.50000000  0.88992788  0.11661474  1
  O  O17  1  0.50000000  0.88604971  0.61893102  1
  O  O18  1  -0.00000000  0.14125050  0.11059874  1
  O  O19  1  -0.00000000  0.12437635  0.61319132  1
  O  O20  1  0.50000000  0.39166822  0.11603308  1
  O  O21  1  0.50000000  0.37447660  0.61296364  1
  O  O22  1  0.00000000  0.64171841  0.10996728  1
  O  O23  1  0.00000000  0.61036178  0.61513422  1
  O  O24  1  0.50000000  0.12552340  0.38703636  1
  O  O25  1  0.50000000  0.10833178  0.88396692  1
  O  O26  1  0.00000000  0.37562365  0.38680868  1
  O  O27  1  0.00000000  0.35874950  0.88940126  1
  O  O28  1  0.50000000  0.61395029  0.38106898  1
  O  O29  1  0.50000000  0.61007212  0.88338526  1
  O  O30  1  -0.00000000  0.88963822  0.38486578  1
  O  O31  1  -0.00000000  0.85828159  0.89003272  1
