# generated using pymatgen
data_TlCrSe2
_symmetry_space_group_name_H-M   'P 1'
_cell_length_a   3.58894622
_cell_length_b   3.58894622
_cell_length_c   9.45329738
_cell_angle_alpha   79.05742444
_cell_angle_beta   79.05742444
_cell_angle_gamma   60.00000185
_symmetry_Int_Tables_number   1
_chemical_formula_structural   TlCrSe2
_chemical_formula_sum   'Tl1 Cr1 Se2'
_cell_volume   102.88596351
_cell_formula_units_Z   1
loop_
 _symmetry_equiv_pos_site_id
 _symmetry_equiv_pos_as_xyz
  1  'x, y, z'
loop_
 _atom_site_type_symbol
 _atom_site_label
 _atom_site_symmetry_multiplicity
 _atom_site_fract_x
 _atom_site_fract_y
 _atom_site_fract_z
 _atom_site_occupancy
  Tl  Tl0  1  0.89255356  0.89255356  0.32233933  1
  Cr  Cr1  1  0.39258660  0.39258660  0.82224019  1
  Se  Se2  1  0.00792132  0.00792132  0.97623603  1
  Se  Se3  1  0.77733852  0.77733852  0.66798445  1
