# generated using pymatgen
data_Y3Si3O11
_symmetry_space_group_name_H-M   'P 1'
_cell_length_a   7.43144502
_cell_length_b   10.45419949
_cell_length_c   11.40064225
_cell_angle_alpha   90.00000000
_cell_angle_beta   90.00000000
_cell_angle_gamma   97.09817327
_symmetry_Int_Tables_number   1
_chemical_formula_structural   Y3Si3O11
_chemical_formula_sum   'Y12 Si12 O44'
_cell_volume   878.92549830
_cell_formula_units_Z   4
loop_
 _symmetry_equiv_pos_site_id
 _symmetry_equiv_pos_as_xyz
  1  'x, y, z'
loop_
 _atom_site_type_symbol
 _atom_site_label
 _atom_site_symmetry_multiplicity
 _atom_site_fract_x
 _atom_site_fract_y
 _atom_site_fract_z
 _atom_site_occupancy
  Y  Y0  1  0.58855294  0.18421063  0.72941183  1
  Y  Y1  1  0.91144706  0.31578937  0.22941183  1
  Y  Y2  1  0.41144706  0.81578937  0.27058817  1
  Y  Y3  1  0.08855294  0.68421063  0.77058817  1
  Y  Y4  1  0.26357977  0.51511521  0.03159018  1
  Y  Y5  1  0.23642023  0.98488479  0.53159018  1
  Y  Y6  1  0.73642023  0.48488479  0.96840982  1
  Y  Y7  1  0.76357977  0.01511521  0.46840982  1
  Y  Y8  1  0.19894031  0.00354629  0.89958197  1
  Y  Y9  1  0.30105969  0.49645371  0.39958197  1
  Y  Y10  1  0.80105969  0.99645371  0.10041803  1
  Y  Y11  1  0.69894031  0.50354629  0.60041803  1
  Si  Si12  1  0.26537755  0.38748681  0.74421987  1
  Si  Si13  1  0.23462245  0.11251319  0.24421987  1
  Si  Si14  1  0.73462245  0.61251319  0.25578013  1
  Si  Si15  1  0.76537755  0.88748681  0.75578013  1
  Si  Si16  1  0.00374124  0.29139189  0.53982217  1
  Si  Si17  1  0.49625876  0.20860811  0.03982217  1
  Si  Si18  1  0.99625876  0.70860811  0.46017783  1
  Si  Si19  1  0.50374124  0.79139189  0.96017783  1
  Si  Si20  1  0.47666207  0.76009931  0.58629876  1
  Si  Si21  1  0.02333793  0.73990069  0.08629876  1
  Si  Si22  1  0.52333793  0.23990069  0.41370124  1
  Si  Si23  1  0.97666207  0.26009931  0.91370124  1
  O  O24  1  0.23159829  0.51590916  0.81770316  1
  O  O25  1  0.26840171  0.98409084  0.31770316  1
  O  O26  1  0.76840171  0.48409084  0.18229684  1
  O  O27  1  0.73159829  0.01590916  0.68229684  1
  O  O28  1  0.47883797  0.37485003  0.72461760  1
  O  O29  1  0.02116203  0.12514997  0.22461760  1
  O  O30  1  0.52116203  0.62514997  0.27538240  1
  O  O31  1  0.97883797  0.87485003  0.77538240  1
  O  O32  1  0.03334861  0.13849407  0.52359376  1
  O  O33  1  0.46665139  0.36150593  0.02359376  1
  O  O34  1  0.96665139  0.86150593  0.47640624  1
  O  O35  1  0.53334861  0.63849407  0.97640624  1
  O  O36  1  0.17609872  0.37552030  0.61126453  1
  O  O37  1  0.32390128  0.12447970  0.11126453  1
  O  O38  1  0.82390128  0.62447970  0.38873547  1
  O  O39  1  0.67609872  0.87552030  0.88873547  1
  O  O40  1  0.15520552  0.26776703  0.82319449  1
  O  O41  1  0.34479448  0.23223297  0.32319449  1
  O  O42  1  0.84479448  0.73223297  0.17680551  1
  O  O43  1  0.65520552  0.76776703  0.67680551  1
  O  O44  1  0.47593101  0.13106456  0.91414207  1
  O  O45  1  0.02406899  0.36893544  0.41414207  1
  O  O46  1  0.52406899  0.86893544  0.08585793  1
  O  O47  1  0.97593101  0.63106456  0.58585793  1
  O  O48  1  0.48789527  0.13720271  0.52251478  1
  O  O49  1  0.01210473  0.36279729  0.02251478  1
  O  O50  1  0.51210473  0.86279729  0.47748522  1
  O  O51  1  0.98789527  0.63720271  0.97748522  1
  O  O52  1  0.31181785  0.80680905  0.89508737  1
  O  O53  1  0.18818215  0.69319095  0.39508737  1
  O  O54  1  0.68818215  0.19319095  0.10491263  1
  O  O55  1  0.81181785  0.30680905  0.60491263  1
  O  O56  1  0.29224033  0.80444255  0.64498808  1
  O  O57  1  0.20775967  0.69555745  0.14498808  1
  O  O58  1  0.70775967  0.19555745  0.35501192  1
  O  O59  1  0.79224033  0.30444255  0.85501192  1
  O  O60  1  0.45852717  0.60878137  0.54998085  1
  O  O61  1  0.04147283  0.89121863  0.04998085  1
  O  O62  1  0.54147283  0.39121863  0.45001915  1
  O  O63  1  0.95852717  0.10878137  0.95001915  1
  O  O64  1  0.30619208  0.04921201  0.71505405  1
  O  O65  1  0.19380792  0.45078799  0.21505405  1
  O  O66  1  0.69380792  0.95078799  0.28494595  1
  O  O67  1  0.80619208  0.54921201  0.78494595  1
