# generated using pymatgen
data_Tb2Ge6Pt
_symmetry_space_group_name_H-M   'P 1'
_cell_length_a   4.09645974
_cell_length_b   4.12504240
_cell_length_c   11.22775554
_cell_angle_alpha   90.00000000
_cell_angle_beta   100.51107525
_cell_angle_gamma   90.00000000
_symmetry_Int_Tables_number   1
_chemical_formula_structural   Tb2Ge6Pt
_chemical_formula_sum   'Tb2 Ge6 Pt1'
_cell_volume   186.54371069
_cell_formula_units_Z   1
loop_
 _symmetry_equiv_pos_site_id
 _symmetry_equiv_pos_as_xyz
  1  'x, y, z'
loop_
 _atom_site_type_symbol
 _atom_site_label
 _atom_site_symmetry_multiplicity
 _atom_site_fract_x
 _atom_site_fract_y
 _atom_site_fract_z
 _atom_site_occupancy
  Tb  Tb0  1  0.77794806  0.50000000  0.55589613  1
  Tb  Tb1  1  0.11660120  0.50000000  0.23320239  1
  Ge  Ge2  1  0.49354941  0.50000000  0.98709883  1
  Ge  Ge3  1  0.37988371  0.50000000  0.75976742  1
  Ge  Ge4  1  0.99273244  -0.00000000  0.98546487  1
  Ge  Ge5  1  0.87880218  0.00000000  0.75760436  1
  Ge  Ge6  1  0.66929557  -0.00000000  0.33859115  1
  Ge  Ge7  1  0.23934238  -0.00000000  0.47868476  1
  Pt  Pt8  1  0.55884504  -0.00000000  0.11769009  1
