# generated using pymatgen
data_Ho2Ge6Pt
_symmetry_space_group_name_H-M   'P 1'
_cell_length_a   4.07220318
_cell_length_b   4.09328875
_cell_length_c   11.18656990
_cell_angle_alpha   90.00000000
_cell_angle_beta   100.48703568
_cell_angle_gamma   90.00000000
_symmetry_Int_Tables_number   1
_chemical_formula_structural   Ho2Ge6Pt
_chemical_formula_sum   'Ho2 Ge6 Pt1'
_cell_volume   183.35091652
_cell_formula_units_Z   1
loop_
 _symmetry_equiv_pos_site_id
 _symmetry_equiv_pos_as_xyz
  1  'x, y, z'
loop_
 _atom_site_type_symbol
 _atom_site_label
 _atom_site_symmetry_multiplicity
 _atom_site_fract_x
 _atom_site_fract_y
 _atom_site_fract_z
 _atom_site_occupancy
  Ho  Ho0  1  0.77811469  0.50000000  0.55622938  1
  Ho  Ho1  1  0.11684878  0.50000000  0.23369756  1
  Ge  Ge2  1  0.49311373  0.50000000  0.98622747  1
  Ge  Ge3  1  0.37920098  0.50000000  0.75840197  1
  Ge  Ge4  1  0.99224443  -0.00000000  0.98448886  1
  Ge  Ge5  1  0.87804970  -0.00000000  0.75609940  1
  Ge  Ge6  1  0.66990620  -0.00000000  0.33981240  1
  Ge  Ge7  1  0.23998250  -0.00000000  0.47996500  1
  Pt  Pt8  1  0.55953898  0.00000000  0.11907796  1
