# generated using pymatgen
data_Tm2CuGe6
_symmetry_space_group_name_H-M   'P 1'
_cell_length_a   4.02189845
_cell_length_b   4.03780633
_cell_length_c   10.79551814
_cell_angle_alpha   90.00000000
_cell_angle_beta   100.73555286
_cell_angle_gamma   90.00000000
_symmetry_Int_Tables_number   1
_chemical_formula_structural   Tm2CuGe6
_chemical_formula_sum   'Tm2 Cu1 Ge6'
_cell_volume   172.24692837
_cell_formula_units_Z   1
loop_
 _symmetry_equiv_pos_site_id
 _symmetry_equiv_pos_as_xyz
  1  'x, y, z'
loop_
 _atom_site_type_symbol
 _atom_site_label
 _atom_site_symmetry_multiplicity
 _atom_site_fract_x
 _atom_site_fract_y
 _atom_site_fract_z
 _atom_site_occupancy
  Tm  Tm0  1  0.77734490  0.50000000  0.55468979  1
  Tm  Tm1  1  0.11257214  0.50000000  0.22514429  1
  Cu  Cu2  1  0.55884057  -0.00000000  0.11768115  1
  Ge  Ge3  1  0.49648086  0.50000000  0.99296173  1
  Ge  Ge4  1  0.37929928  0.50000000  0.75859856  1
  Ge  Ge5  1  0.99673016  0.00000000  0.99346032  1
  Ge  Ge6  1  0.87849862  -0.00000000  0.75699724  1
  Ge  Ge7  1  0.66724884  -0.00000000  0.33449768  1
  Ge  Ge8  1  0.23998462  -0.00000000  0.47996924  1
