# generated using pymatgen
data_K3IrF6
_symmetry_space_group_name_H-M   'P 1'
_cell_length_a   6.73008530
_cell_length_b   8.22063203
_cell_length_c   6.70689349
_cell_angle_alpha   127.96308497
_cell_angle_beta   76.79500778
_cell_angle_gamma   111.82476677
_symmetry_Int_Tables_number   1
_chemical_formula_structural   K3IrF6
_chemical_formula_sum   'K3 Ir1 F6'
_cell_volume   271.58008303
_cell_formula_units_Z   1
loop_
 _symmetry_equiv_pos_site_id
 _symmetry_equiv_pos_as_xyz
  1  'x, y, z'
loop_
 _atom_site_type_symbol
 _atom_site_label
 _atom_site_symmetry_multiplicity
 _atom_site_fract_x
 _atom_site_fract_y
 _atom_site_fract_z
 _atom_site_occupancy
  K  K0  1  0.50000000  -0.00000000  0.00000000  1
  K  K1  1  -0.00000000  0.50000000  0.50000000  1
  K  K2  1  -0.00000000  -0.00000000  0.50000000  1
  Ir  Ir3  1  -0.00000000  -0.00000000  0.00000000  1
  F  F4  1  0.77345949  0.05427068  0.27958946  1
  F  F5  1  0.22654051  0.94572932  0.72041054  1
  F  F6  1  0.78229189  0.77857396  0.70971076  1
  F  F7  1  0.21770811  0.22142604  0.29028924  1
  F  F8  1  0.06888577  0.77562706  0.99756252  1
  F  F9  1  0.93111423  0.22437294  0.00243748  1
