# generated using pymatgen
data_Li9Mn2Co5O16
_symmetry_space_group_name_H-M   'P 1'
_cell_length_a   2.90065863
_cell_length_b   5.16296764
_cell_length_c   19.72028110
_cell_angle_alpha   99.70800385
_cell_angle_beta   90.00000000
_cell_angle_gamma   90.00000000
_symmetry_Int_Tables_number   1
_chemical_formula_structural   Li9Mn2Co5O16
_chemical_formula_sum   'Li9 Mn2 Co5 O16'
_cell_volume   291.10189723
_cell_formula_units_Z   1
loop_
 _symmetry_equiv_pos_site_id
 _symmetry_equiv_pos_as_xyz
  1  'x, y, z'
loop_
 _atom_site_type_symbol
 _atom_site_label
 _atom_site_symmetry_multiplicity
 _atom_site_fract_x
 _atom_site_fract_y
 _atom_site_fract_z
 _atom_site_occupancy
  Li  Li0  1  0.50000000  0.23932499  0.12220614  1
  Li  Li1  1  0.50000000  0.74220415  0.37239637  1
  Li  Li2  1  0.50000000  0.25779585  0.62760363  1
  Li  Li3  1  0.50000000  0.76067501  0.87779386  1
  Li  Li4  1  0.00000000  0.73215522  0.11926401  1
  Li  Li5  1  -0.00000000  0.25096408  0.37202831  1
  Li  Li6  1  -0.00000000  0.74903592  0.62797169  1
  Li  Li7  1  0.00000000  0.26784478  0.88073599  1
  Li  Li8  1  0.50000000  0.50000000  0.00000000  1
  Mn  Mn9  1  0.00000000  0.00000000  0.00000000  1
  Mn  Mn10  1  0.00000000  0.00000000  0.50000000  1
  Co  Co11  1  0.00000000  0.49738977  0.24899757  1
  Co  Co12  1  0.00000000  0.50261023  0.75100243  1
  Co  Co13  1  0.50000000  0.99683868  0.24952548  1
  Co  Co14  1  0.50000000  0.50000000  0.50000000  1
  Co  Co15  1  0.50000000  0.00316132  0.75047452  1
  O  O16  1  0.50000000  0.88534961  0.05541783  1
  O  O17  1  0.50000000  0.37501678  0.30721421  1
  O  O18  1  0.50000000  0.88267498  0.55586008  1
  O  O19  1  0.50000000  0.37671576  0.80705957  1
  O  O20  1  0.00000000  0.33934297  0.05797072  1
  O  O21  1  0.00000000  0.87393969  0.30903754  1
  O  O22  1  0.00000000  0.39131569  0.55832332  1
  O  O23  1  -0.00000000  0.87717411  0.80682740  1
  O  O24  1  0.50000000  0.62328424  0.19294043  1
  O  O25  1  0.50000000  0.11732502  0.44413992  1
  O  O26  1  0.50000000  0.62498322  0.69278579  1
  O  O27  1  0.50000000  0.11465039  0.94458217  1
  O  O28  1  0.00000000  0.12282589  0.19317260  1
  O  O29  1  -0.00000000  0.60868431  0.44167668  1
  O  O30  1  -0.00000000  0.12606031  0.69096246  1
  O  O31  1  -0.00000000  0.66065703  0.94202928  1
