# generated using pymatgen
data_ThGeI6
_symmetry_space_group_name_H-M   'P 1'
_cell_length_a   7.57850925
_cell_length_b   7.57850925
_cell_length_c   13.99692054
_cell_angle_alpha   90.00000000
_cell_angle_beta   90.00000000
_cell_angle_gamma   120.00000235
_symmetry_Int_Tables_number   1
_chemical_formula_structural   ThGeI6
_chemical_formula_sum   'Th2 Ge2 I12'
_cell_volume   696.19466110
_cell_formula_units_Z   2
loop_
 _symmetry_equiv_pos_site_id
 _symmetry_equiv_pos_as_xyz
  1  'x, y, z'
loop_
 _atom_site_type_symbol
 _atom_site_label
 _atom_site_symmetry_multiplicity
 _atom_site_fract_x
 _atom_site_fract_y
 _atom_site_fract_z
 _atom_site_occupancy
  Th  Th0  1  -0.00000000  -0.00000000  -0.00000000  1
  Th  Th1  1  -0.00000000  -0.00000000  0.50000000  1
  Ge  Ge2  1  0.66666700  0.33333300  0.75000000  1
  Ge  Ge3  1  0.33333300  0.66666700  0.25000000  1
  I  I4  1  0.99725621  0.33296629  0.87397396  1
  I  I5  1  0.00274379  0.66703371  0.12602604  1
  I  I6  1  0.33571008  0.00274379  0.87397396  1
  I  I7  1  0.33571008  0.33296629  0.62602604  1
  I  I8  1  0.66428992  0.99725621  0.12602604  1
  I  I9  1  0.66428992  0.66703371  0.37397396  1
  I  I10  1  0.66703371  0.66428992  0.87397396  1
  I  I11  1  0.66703371  0.00274379  0.62602604  1
  I  I12  1  0.33296629  0.33571008  0.12602604  1
  I  I13  1  0.33296629  0.99725621  0.37397396  1
  I  I14  1  0.99725621  0.66428992  0.62602604  1
  I  I15  1  0.00274379  0.33571008  0.37397396  1
