# generated using pymatgen
data_Si2Ag2O5
_symmetry_space_group_name_H-M   'P 1'
_cell_length_a   5.02776183
_cell_length_b   6.67175743
_cell_length_c   15.87350337
_cell_angle_alpha   90.00000000
_cell_angle_beta   90.00000000
_cell_angle_gamma   90.00000000
_symmetry_Int_Tables_number   1
_chemical_formula_structural   Si2Ag2O5
_chemical_formula_sum   'Si8 Ag8 O20'
_cell_volume   532.46091364
_cell_formula_units_Z   4
loop_
 _symmetry_equiv_pos_site_id
 _symmetry_equiv_pos_as_xyz
  1  'x, y, z'
loop_
 _atom_site_type_symbol
 _atom_site_label
 _atom_site_symmetry_multiplicity
 _atom_site_fract_x
 _atom_site_fract_y
 _atom_site_fract_z
 _atom_site_occupancy
  Si  Si0  1  0.70465510  0.88996190  0.66015526  1
  Si  Si1  1  0.29534490  0.11003810  0.33984474  1
  Si  Si2  1  0.79534490  0.61003810  0.16015526  1
  Si  Si3  1  0.70465510  0.11003810  0.83984474  1
  Si  Si4  1  0.20465510  0.38996190  0.83984474  1
  Si  Si5  1  0.29534490  0.88996190  0.16015526  1
  Si  Si6  1  0.79534490  0.38996190  0.33984474  1
  Si  Si7  1  0.20465510  0.61003810  0.66015526  1
  Ag  Ag8  1  0.73354745  0.61818535  0.94585546  1
  Ag  Ag9  1  0.26645255  0.38181465  0.05414454  1
  Ag  Ag10  1  0.76645255  0.88181465  0.44585546  1
  Ag  Ag11  1  0.73354745  0.38181465  0.55414454  1
  Ag  Ag12  1  0.23354745  0.11818535  0.55414454  1
  Ag  Ag13  1  0.26645255  0.61818535  0.44585546  1
  Ag  Ag14  1  0.76645255  0.11818535  0.05414454  1
  Ag  Ag15  1  0.23354745  0.88181465  0.94585546  1
  O  O16  1  0.75652210  0.00000000  0.75000000  1
  O  O17  1  0.24347790  0.00000000  0.25000000  1
  O  O18  1  0.74347790  0.50000000  0.25000000  1
  O  O19  1  0.25652210  0.50000000  0.75000000  1
  O  O20  1  0.75911740  0.96332848  0.91902303  1
  O  O21  1  0.24088260  0.03667152  0.08097697  1
  O  O22  1  0.74088260  0.53667152  0.41902303  1
  O  O23  1  0.75911740  0.03667152  0.58097697  1
  O  O24  1  0.25911740  0.46332848  0.58097697  1
  O  O25  1  0.24088260  0.96332848  0.41902303  1
  O  O26  1  0.74088260  0.46332848  0.08097697  1
  O  O27  1  0.25911740  0.53667152  0.91902303  1
  O  O28  1  0.89220353  0.68736408  0.65632228  1
  O  O29  1  0.10779647  0.31263592  0.34367772  1
  O  O30  1  0.60779647  0.81263592  0.15632228  1
  O  O31  1  0.89220353  0.31263592  0.84367772  1
  O  O32  1  0.39220353  0.18736408  0.84367772  1
  O  O33  1  0.10779647  0.68736408  0.15632228  1
  O  O34  1  0.60779647  0.18736408  0.34367772  1
  O  O35  1  0.39220353  0.81263592  0.65632228  1
