# generated using pymatgen
data_Sr2YbTaO6
_symmetry_space_group_name_H-M   'P 1'
_cell_length_a   5.81232714
_cell_length_b   6.03223686
_cell_length_c   8.45777089
_cell_angle_alpha   90.00000000
_cell_angle_beta   90.00000000
_cell_angle_gamma   90.00000000
_symmetry_Int_Tables_number   1
_chemical_formula_structural   Sr2YbTaO6
_chemical_formula_sum   'Sr4 Yb2 Ta2 O12'
_cell_volume   296.54073021
_cell_formula_units_Z   2
loop_
 _symmetry_equiv_pos_site_id
 _symmetry_equiv_pos_as_xyz
  1  'x, y, z'
loop_
 _atom_site_type_symbol
 _atom_site_label
 _atom_site_symmetry_multiplicity
 _atom_site_fract_x
 _atom_site_fract_y
 _atom_site_fract_z
 _atom_site_occupancy
  Sr  Sr0  1  0.97503693  0.46228645  0.24997383  1
  Sr  Sr1  1  0.97503693  0.53771355  0.75002617  1
  Sr  Sr2  1  0.47503693  0.96228645  0.25002617  1
  Sr  Sr3  1  0.47503693  0.03771355  0.74997383  1
  Yb  Yb4  1  0.00370010  0.00000000  -0.00000000  1
  Yb  Yb5  1  0.50370010  0.50000000  0.50000000  1
  Ta  Ta6  1  0.98434664  -0.00000000  0.50000000  1
  Ta  Ta7  1  0.48434664  0.50000000  -0.00000000  1
  O  O8  1  0.45966060  0.52976208  0.23502934  1
  O  O9  1  0.45966060  0.47023792  0.76497066  1
  O  O10  1  0.95966060  0.02976208  0.26497066  1
  O  O11  1  0.95966060  0.97023792  0.73502934  1
  O  O12  1  0.28385267  0.18367213  0.49293282  1
  O  O13  1  0.28385267  0.81632787  0.50706718  1
  O  O14  1  0.78385267  0.68367213  0.00706718  1
  O  O15  1  0.78385267  0.31632787  0.99293282  1
  O  O16  1  0.30352643  0.23081994  0.01916000  1
  O  O17  1  0.30352643  0.76918006  0.98084000  1
  O  O18  1  0.80352643  0.73081994  0.48084000  1
  O  O19  1  0.80352643  0.26918006  0.51916000  1
