# generated using pymatgen
data_Sm2BeGa2O7
_symmetry_space_group_name_H-M   'P 1'
_cell_length_a   5.20259298
_cell_length_b   7.67722689
_cell_length_c   7.67722689
_cell_angle_alpha   90.00000000
_cell_angle_beta   90.00000000
_cell_angle_gamma   90.00000000
_symmetry_Int_Tables_number   1
_chemical_formula_structural   Sm2BeGa2O7
_chemical_formula_sum   'Sm4 Be2 Ga4 O14'
_cell_volume   306.63985590
_cell_formula_units_Z   2
loop_
 _symmetry_equiv_pos_site_id
 _symmetry_equiv_pos_as_xyz
  1  'x, y, z'
loop_
 _atom_site_type_symbol
 _atom_site_label
 _atom_site_symmetry_multiplicity
 _atom_site_fract_x
 _atom_site_fract_y
 _atom_site_fract_z
 _atom_site_occupancy
  Sm  Sm0  1  0.51921836  0.16603294  0.66603294  1
  Sm  Sm1  1  0.51921836  0.83396706  0.33396706  1
  Sm  Sm2  1  0.48078164  0.66603294  0.83396706  1
  Sm  Sm3  1  0.48078164  0.33396706  0.16603294  1
  Be  Be4  1  -0.00000000  0.00000000  0.00000000  1
  Be  Be5  1  -0.00000000  0.50000000  0.50000000  1
  Ga  Ga6  1  0.97193140  0.65128146  0.15128146  1
  Ga  Ga7  1  0.97193140  0.34871854  0.84871854  1
  Ga  Ga8  1  0.02806860  0.15128146  0.34871854  1
  Ga  Ga9  1  0.02806860  0.84871854  0.65128146  1
  O  O10  1  0.19933213  0.00000000  0.50000000  1
  O  O11  1  0.80066787  0.50000000  0.00000000  1
  O  O12  1  0.32347209  0.63505664  0.13505664  1
  O  O13  1  0.32347209  0.36494336  0.86494336  1
  O  O14  1  0.67652791  0.13505664  0.36494336  1
  O  O15  1  0.67652791  0.86494336  0.63505664  1
  O  O16  1  0.19511932  0.09443862  0.14291287  1
  O  O17  1  0.19511932  0.90556138  0.85708713  1
  O  O18  1  0.80488068  0.14291287  0.90556138  1
  O  O19  1  0.80488068  0.40556138  0.64291287  1
  O  O20  1  0.80488068  0.85708713  0.09443862  1
  O  O21  1  0.80488068  0.59443862  0.35708713  1
  O  O22  1  0.19511932  0.35708713  0.40556138  1
  O  O23  1  0.19511932  0.64291287  0.59443862  1
