# generated using pymatgen
data_SmU2Se5
_symmetry_space_group_name_H-M   'P 1'
_cell_length_a   7.75549123
_cell_length_b   8.26194738
_cell_length_c   12.43910543
_cell_angle_alpha   90.00000000
_cell_angle_beta   90.00758533
_cell_angle_gamma   90.00000000
_symmetry_Int_Tables_number   1
_chemical_formula_structural   SmU2Se5
_chemical_formula_sum   'Sm4 U8 Se20'
_cell_volume   797.04140052
_cell_formula_units_Z   4
loop_
 _symmetry_equiv_pos_site_id
 _symmetry_equiv_pos_as_xyz
  1  'x, y, z'
loop_
 _atom_site_type_symbol
 _atom_site_label
 _atom_site_symmetry_multiplicity
 _atom_site_fract_x
 _atom_site_fract_y
 _atom_site_fract_z
 _atom_site_occupancy
  Sm  Sm0  1  0.92054871  0.75000000  0.99386308  1
  Sm  Sm1  1  0.07945129  0.25000000  0.00613692  1
  Sm  Sm2  1  0.42054523  0.25000000  0.50612124  1
  Sm  Sm3  1  0.57945477  0.75000000  0.49387876  1
  U  U4  1  0.98278963  0.00007721  0.68113945  1
  U  U5  1  0.01721037  0.99992279  0.31886055  1
  U  U6  1  0.48268461  0.99992375  0.81884685  1
  U  U7  1  0.01721037  0.50007721  0.31886055  1
  U  U8  1  0.51731539  0.00007625  0.18115315  1
  U  U9  1  0.98278963  0.49992279  0.68113945  1
  U  U10  1  0.51731539  0.49992375  0.18115315  1
  U  U11  1  0.48268461  0.50007625  0.81884685  1
  Se  Se12  1  0.70135297  0.75000000  0.71653459  1
  Se  Se13  1  0.29864703  0.25000000  0.28346541  1
  Se  Se14  1  0.20131459  0.25000000  0.78345924  1
  Se  Se15  1  0.79868541  0.75000000  0.21654076  1
  Se  Se16  1  0.17604604  0.75000000  0.81442519  1
  Se  Se17  1  0.82395396  0.25000000  0.18557481  1
  Se  Se18  1  0.67600260  0.25000000  0.68558431  1
  Se  Se19  1  0.32399740  0.75000000  0.31441569  1
  Se  Se20  1  0.53094689  0.75000000  0.00008355  1
  Se  Se21  1  0.46905311  0.25000000  0.99991645  1
  Se  Se22  1  0.03096050  0.25000000  0.49994136  1
  Se  Se23  1  0.96903950  0.75000000  0.50005864  1
  Se  Se24  1  0.83251223  0.45584262  0.89368866  1
  Se  Se25  1  0.16748777  0.54415738  0.10631134  1
  Se  Se26  1  0.33249019  0.54415436  0.60628908  1
  Se  Se27  1  0.16748777  0.95584262  0.10631134  1
  Se  Se28  1  0.66750981  0.45584564  0.39371092  1
  Se  Se29  1  0.83251223  0.04415738  0.89368866  1
  Se  Se30  1  0.66750981  0.04415436  0.39371092  1
  Se  Se31  1  0.33249019  0.95584564  0.60628908  1
