# generated using pymatgen
data_RbAlH4
_symmetry_space_group_name_H-M   'P 1'
_cell_length_a   3.81302185
_cell_length_b   6.51041456
_cell_length_c   7.73801739
_cell_angle_alpha   90.00000000
_cell_angle_beta   104.26353715
_cell_angle_gamma   90.00000000
_symmetry_Int_Tables_number   1
_chemical_formula_structural   RbAlH4
_chemical_formula_sum   'Rb2 Al2 H8'
_cell_volume   186.16962429
_cell_formula_units_Z   2
loop_
 _symmetry_equiv_pos_site_id
 _symmetry_equiv_pos_as_xyz
  1  'x, y, z'
loop_
 _atom_site_type_symbol
 _atom_site_label
 _atom_site_symmetry_multiplicity
 _atom_site_fract_x
 _atom_site_fract_y
 _atom_site_fract_z
 _atom_site_occupancy
  Rb  Rb0  1  0.62044340  0.33359239  0.24088679  1
  Rb  Rb1  1  0.37955660  0.83359239  0.75911321  1
  Al  Al2  1  0.88421488  0.35556703  0.76842976  1
  Al  Al3  1  0.11578512  0.85556703  0.23157024  1
  H  H4  1  0.80844258  0.53502939  0.61688516  1
  H  H5  1  0.19155742  0.03502939  0.38311484  1
  H  H6  1  0.39061426  0.34698227  0.78122853  1
  H  H7  1  0.60938574  0.84698227  0.21877147  1
  H  H8  1  0.01481672  0.95374912  0.02963343  1
  H  H9  1  0.98518328  0.45374912  0.97036657  1
  H  H10  1  0.84769078  0.12067981  0.69538155  1
  H  H11  1  0.15230922  0.62067981  0.30461845  1
