# generated using pymatgen
data_TiCr2O5
_symmetry_space_group_name_H-M   'P 1'
_cell_length_a   5.07367803
_cell_length_b   5.63705895
_cell_length_c   7.23020761
_cell_angle_alpha   109.62225660
_cell_angle_beta   90.00000000
_cell_angle_gamma   116.74553329
_symmetry_Int_Tables_number   1
_chemical_formula_structural   TiCr2O5
_chemical_formula_sum   'Ti2 Cr4 O10'
_cell_volume   171.11048616
_cell_formula_units_Z   2
loop_
 _symmetry_equiv_pos_site_id
 _symmetry_equiv_pos_as_xyz
  1  'x, y, z'
loop_
 _atom_site_type_symbol
 _atom_site_label
 _atom_site_symmetry_multiplicity
 _atom_site_fract_x
 _atom_site_fract_y
 _atom_site_fract_z
 _atom_site_occupancy
  Ti  Ti0  1  -0.00000000  -0.00000000  -0.00000000  1
  Ti  Ti1  1  -0.00000000  -0.00000000  0.50000000  1
  Cr  Cr2  1  0.63029727  0.24996677  0.71466226  1
  Cr  Cr3  1  0.36970273  0.75003323  0.28533774  1
  Cr  Cr4  1  0.38033050  0.75003323  0.78533774  1
  Cr  Cr5  1  0.61966950  0.24996677  0.21466226  1
  O  O6  1  0.19170569  -0.00000000  0.75000000  1
  O  O7  1  0.80829431  -0.00000000  0.25000000  1
  O  O8  1  0.66614596  0.62914278  0.84883343  1
  O  O9  1  0.33385404  0.37085722  0.15116657  1
  O  O10  1  0.03700318  0.37085722  0.65116657  1
  O  O11  1  0.96299682  0.62914278  0.34883343  1
  O  O12  1  0.58327183  0.83846574  0.55522771  1
  O  O13  1  0.41672817  0.16153426  0.44477229  1
  O  O14  1  0.74480609  0.16153426  0.94477229  1
  O  O15  1  0.25519391  0.83846574  0.05522771  1
