# generated using pymatgen
data_Na2Ca5TiSi4(O8F)2
_symmetry_space_group_name_H-M   'P 1'
_cell_length_a   5.72650051
_cell_length_b   7.42062331
_cell_length_c   19.12933262
_cell_angle_alpha   101.11132810
_cell_angle_beta   90.00000000
_cell_angle_gamma   90.00000000
_symmetry_Int_Tables_number   1
_chemical_formula_structural   Na2Ca5TiSi4(O8F)2
_chemical_formula_sum   'Na4 Ca10 Ti2 Si8 O32 F4'
_cell_volume   797.64786273
_cell_formula_units_Z   2
loop_
 _symmetry_equiv_pos_site_id
 _symmetry_equiv_pos_as_xyz
  1  'x, y, z'
loop_
 _atom_site_type_symbol
 _atom_site_label
 _atom_site_symmetry_multiplicity
 _atom_site_fract_x
 _atom_site_fract_y
 _atom_site_fract_z
 _atom_site_occupancy
  Na  Na0  1  0.33889052  0.50415985  0.74925852  1
  Na  Na1  1  0.83889052  0.49584015  0.25074148  1
  Na  Na2  1  0.33644347  0.99195052  0.74397386  1
  Na  Na3  1  0.83644347  0.00804948  0.25602614  1
  Ca  Ca4  1  0.68608904  0.34669843  0.43830045  1
  Ca  Ca5  1  0.18608904  0.65330157  0.56169955  1
  Ca  Ca6  1  0.50306841  0.34076331  0.94012824  1
  Ca  Ca7  1  0.00306841  0.65923669  0.05987176  1
  Ca  Ca8  1  0.49698279  0.84693486  0.94385719  1
  Ca  Ca9  1  0.99698279  0.15306514  0.05614281  1
  Ca  Ca10  1  0.83654489  0.24756733  0.75028958  1
  Ca  Ca11  1  0.33654489  0.75243267  0.24971042  1
  Ca  Ca12  1  0.68354981  0.84450034  0.44193915  1
  Ca  Ca13  1  0.18354981  0.15549966  0.55806085  1
  Ti  Ti14  1  0.87178712  0.74475920  0.74055621  1
  Ti  Ti15  1  0.37178712  0.25524080  0.25944379  1
  Si  Si16  1  0.68775042  0.39578223  0.61009550  1
  Si  Si17  1  0.18775042  0.60421777  0.38990450  1
  Si  Si18  1  0.69211888  0.95771848  0.60814213  1
  Si  Si19  1  0.19211888  0.04228152  0.39185787  1
  Si  Si20  1  0.99139380  0.09923365  0.88848343  1
  Si  Si21  1  0.49139380  0.90076635  0.11151657  1
  Si  Si22  1  0.98640716  0.53971586  0.89187495  1
  Si  Si23  1  0.48640716  0.46028414  0.10812505  1
  O  O24  1  0.70081508  0.18686678  0.63076581  1
  O  O25  1  0.20081508  0.81313322  0.36923419  1
  O  O26  1  0.90721493  0.41347497  0.55847981  1
  O  O27  1  0.40721493  0.58652503  0.44152019  1
  O  O28  1  0.91761727  0.89422314  0.55815465  1
  O  O29  1  0.41761727  0.10577686  0.44184535  1
  O  O30  1  0.96505840  0.58718415  0.81131350  1
  O  O31  1  0.46505840  0.41281585  0.18868650  1
  O  O32  1  0.57711623  0.76167682  0.81569685  1
  O  O33  1  0.07711623  0.23832318  0.18430315  1
  O  O34  1  0.69971424  0.90903816  0.68886099  1
  O  O35  1  0.19971424  0.09096184  0.31113901  1
  O  O36  1  0.23258129  0.59539108  0.93182454  1
  O  O37  1  0.73258129  0.40460892  0.06817546  1
  O  O38  1  0.70737185  0.51994583  0.69094455  1
  O  O39  1  0.20737185  0.48005417  0.30905545  1
  O  O40  1  0.12899163  0.71754948  0.69070388  1
  O  O41  1  0.62899163  0.28245052  0.30929612  1
  O  O42  1  0.96968955  0.31059887  0.87016020  1
  O  O43  1  0.46968955  0.68940113  0.12983980  1
  O  O44  1  0.76717830  0.60547110  0.94435886  1
  O  O45  1  0.26717830  0.39452890  0.05564114  1
  O  O46  1  0.74048385  0.91695745  0.07325023  1
  O  O47  1  0.24048385  0.08304255  0.92674977  1
  O  O48  1  0.97500821  0.97795737  0.80710209  1
  O  O49  1  0.47500821  0.02204263  0.19289791  1
  O  O50  1  0.45134284  0.90178126  0.56525323  1
  O  O51  1  0.95134284  0.09821874  0.43474677  1
  O  O52  1  0.77420112  0.08157841  0.94111442  1
  O  O53  1  0.27420112  0.91842159  0.05888558  1
  O  O54  1  0.93985572  0.58584281  0.42810692  1
  O  O55  1  0.43985572  0.41415719  0.57189308  1
  F  F56  1  0.99922148  0.72445444  0.18851046  1
  F  F57  1  0.49922148  0.27554556  0.81148954  1
  F  F58  1  0.67251166  0.78236194  0.31318373  1
  F  F59  1  0.17251166  0.21763806  0.68681627  1
