# generated using pymatgen
data_Tl4Cu19Se12
_symmetry_space_group_name_H-M   'P 1'
_cell_length_a   9.72121031
_cell_length_b   11.61627824
_cell_length_c   11.61627824
_cell_angle_alpha   87.64175713
_cell_angle_beta   90.00000000
_cell_angle_gamma   90.00000000
_symmetry_Int_Tables_number   1
_chemical_formula_structural   Tl4Cu19Se12
_chemical_formula_sum   'Tl8 Cu38 Se24'
_cell_volume   1310.64895069
_cell_formula_units_Z   2
loop_
 _symmetry_equiv_pos_site_id
 _symmetry_equiv_pos_as_xyz
  1  'x, y, z'
loop_
 _atom_site_type_symbol
 _atom_site_label
 _atom_site_symmetry_multiplicity
 _atom_site_fract_x
 _atom_site_fract_y
 _atom_site_fract_z
 _atom_site_occupancy
  Tl  Tl0  1  0.00000000  0.12816889  0.15694882  1
  Tl  Tl1  1  0.00000000  0.90403503  0.88893534  1
  Tl  Tl2  1  0.25000000  0.35568178  0.64431822  1
  Tl  Tl3  1  0.25000000  0.64922162  0.35077838  1
  Tl  Tl4  1  0.50000000  0.11106466  0.09596497  1
  Tl  Tl5  1  0.50000000  0.84305118  0.87183111  1
  Tl  Tl6  1  0.75000000  0.35568178  0.64431822  1
  Tl  Tl7  1  0.75000000  0.64922162  0.35077838  1
  Cu  Cu8  1  0.00000000  0.40781235  0.21937347  1
  Cu  Cu9  1  0.00000000  0.16956003  0.86109884  1
  Cu  Cu10  1  0.00000000  0.76497636  0.22767157  1
  Cu  Cu11  1  0.00000000  0.88632939  0.61080986  1
  Cu  Cu12  1  0.23752205  0.36668181  0.35178454  1
  Cu  Cu13  1  0.26558333  0.95771024  0.78995949  1
  Cu  Cu14  1  0.25622246  0.08951180  0.59346932  1
  Cu  Cu15  1  0.23441667  0.21004051  0.04228976  1
  Cu  Cu16  1  0.24803021  0.60866456  0.09610385  1
  Cu  Cu17  1  0.26247795  0.64821546  0.63331819  1
  Cu  Cu18  1  0.23808809  0.78773448  0.95299307  1
  Cu  Cu19  1  0.26191191  0.04700693  0.21226552  1
  Cu  Cu20  1  0.24377754  0.40653068  0.91048820  1
  Cu  Cu21  1  0.25196979  0.90389615  0.39133544  1
  Cu  Cu22  1  0.50000000  0.13969193  0.38881051  1
  Cu  Cu23  1  0.50000000  0.13890116  0.83043997  1
  Cu  Cu24  1  0.50000000  0.38919014  0.11367061  1
  Cu  Cu25  1  0.50000000  0.54338859  0.34350446  1
  Cu  Cu26  1  0.50000000  0.47306392  0.73212261  1
  Cu  Cu27  1  0.50000000  0.60184177  0.90012470  1
  Cu  Cu28  1  0.50000000  0.78062653  0.59218765  1
  Cu  Cu29  1  0.50000000  0.77232843  0.23502364  1
  Cu  Cu30  1  0.50000000  0.97315316  0.66002574  1
  Cu  Cu31  1  0.73441667  0.95771024  0.78995949  1
  Cu  Cu32  1  0.74377754  0.08951180  0.59346932  1
  Cu  Cu33  1  0.76558333  0.21004051  0.04228976  1
  Cu  Cu34  1  0.76247795  0.36668181  0.35178454  1
  Cu  Cu35  1  0.75196979  0.60866456  0.09610385  1
  Cu  Cu36  1  0.73752205  0.64821546  0.63331819  1
  Cu  Cu37  1  0.76191191  0.78773448  0.95299307  1
  Cu  Cu38  1  0.73808809  0.04700693  0.21226552  1
  Cu  Cu39  1  0.75622246  0.40653068  0.91048820  1
  Cu  Cu40  1  0.74803021  0.90389615  0.39133544  1
  Cu  Cu41  1  0.00000000  0.09987530  0.39815823  1
  Cu  Cu42  1  0.00000000  0.26787739  0.52693608  1
  Cu  Cu43  1  0.00000000  0.33997426  0.02684684  1
  Cu  Cu44  1  0.00000000  0.61118949  0.86030807  1
  Cu  Cu45  1  0.00000000  0.65649554  0.45661141  1
  Se  Se46  1  0.00000000  0.10140431  0.64634510  1
  Se  Se47  1  0.00000000  0.62855183  0.08428927  1
  Se  Se48  1  0.00000000  0.44037653  0.41894340  1
  Se  Se49  1  0.00000000  0.39217371  0.83026514  1
  Se  Se50  1  0.00000000  0.87771288  0.39325904  1
  Se  Se51  1  0.24019383  0.14879565  0.38343420  1
  Se  Se52  1  0.23020623  0.38645735  0.13368780  1
  Se  Se53  1  0.25000000  0.14338986  0.85661014  1
  Se  Se54  1  0.25000000  0.86425244  0.13574756  1
  Se  Se55  1  0.25980617  0.61656580  0.85120435  1
  Se  Se56  1  0.26979377  0.86631220  0.61354265  1
  Se  Se57  1  0.50000000  0.16973486  0.60782629  1
  Se  Se58  1  0.50000000  0.35365490  0.89859569  1
  Se  Se59  1  0.50000000  0.34292680  0.32137831  1
  Se  Se60  1  0.50000000  0.58105660  0.55962347  1
  Se  Se61  1  0.50000000  0.60674096  0.12228712  1
  Se  Se62  1  0.50000000  0.91571073  0.37144817  1
  Se  Se63  1  0.75000000  0.14338986  0.85661014  1
  Se  Se64  1  0.75980617  0.14879565  0.38343420  1
  Se  Se65  1  0.76979377  0.38645735  0.13368780  1
  Se  Se66  1  0.74019383  0.61656580  0.85120435  1
  Se  Se67  1  0.73020623  0.86631220  0.61354265  1
  Se  Se68  1  0.75000000  0.86425244  0.13574756  1
  Se  Se69  1  0.00000000  0.67862169  0.65707320  1
