# generated using pymatgen
data_Pr3Nb(ClO2)3
_symmetry_space_group_name_H-M   'P 1'
_cell_length_a   5.36411811
_cell_length_b   9.55426987
_cell_length_c   9.55426988
_cell_angle_alpha   119.99999518
_cell_angle_beta   90.00000000
_cell_angle_gamma   90.00000000
_symmetry_Int_Tables_number   1
_chemical_formula_structural   Pr3Nb(ClO2)3
_chemical_formula_sum   'Pr6 Nb2 Cl6 O12'
_cell_volume   424.05676253
_cell_formula_units_Z   2
loop_
 _symmetry_equiv_pos_site_id
 _symmetry_equiv_pos_as_xyz
  1  'x, y, z'
loop_
 _atom_site_type_symbol
 _atom_site_label
 _atom_site_symmetry_multiplicity
 _atom_site_fract_x
 _atom_site_fract_y
 _atom_site_fract_z
 _atom_site_occupancy
  Pr  Pr0  1  0.75000000  0.59680035  0.68730617  1
  Pr  Pr1  1  0.25000000  0.40319965  0.31269383  1
  Pr  Pr2  1  0.75000000  0.09050582  0.40319965  1
  Pr  Pr3  1  0.25000000  0.90949418  0.59680035  1
  Pr  Pr4  1  0.75000000  0.31269383  0.90949418  1
  Pr  Pr5  1  0.25000000  0.68730617  0.09050582  1
  Nb  Nb6  1  0.75000000  0.66666700  0.33333300  1
  Nb  Nb7  1  0.25000000  0.33333300  0.66666700  1
  Cl  Cl8  1  0.75000000  0.81007897  0.05015249  1
  Cl  Cl9  1  0.25000000  0.18992103  0.94984751  1
  Cl  Cl10  1  0.75000000  0.24007353  0.18992103  1
  Cl  Cl11  1  0.25000000  0.75992647  0.81007897  1
  Cl  Cl12  1  0.75000000  0.94984751  0.75992647  1
  Cl  Cl13  1  0.25000000  0.05015249  0.24007353  1
  O  O14  1  0.98801238  0.84267830  0.36378885  1
  O  O15  1  0.01198762  0.15732170  0.63621115  1
  O  O16  1  0.98801238  0.52111055  0.15732170  1
  O  O17  1  0.48801238  0.15732170  0.63621115  1
  O  O18  1  0.01198762  0.47888945  0.84267830  1
  O  O19  1  0.51198762  0.84267830  0.36378885  1
  O  O20  1  0.98801238  0.63621115  0.47888945  1
  O  O21  1  0.48801238  0.47888945  0.84267830  1
  O  O22  1  0.01198762  0.36378885  0.52111055  1
  O  O23  1  0.51198762  0.52111055  0.15732170  1
  O  O24  1  0.48801238  0.36378885  0.52111055  1
  O  O25  1  0.51198762  0.63621115  0.47888945  1
