# generated using pymatgen
data_LiV4O8
_symmetry_space_group_name_H-M   'P 1'
_cell_length_a   3.82395172
_cell_length_b   6.64911592
_cell_length_c   6.39998376
_cell_angle_alpha   106.29948028
_cell_angle_beta   90.00000000
_cell_angle_gamma   106.71153793
_symmetry_Int_Tables_number   1
_chemical_formula_structural   LiV4O8
_chemical_formula_sum   'Li1 V4 O8'
_cell_volume   149.01093451
_cell_formula_units_Z   1
loop_
 _symmetry_equiv_pos_site_id
 _symmetry_equiv_pos_as_xyz
  1  'x, y, z'
loop_
 _atom_site_type_symbol
 _atom_site_label
 _atom_site_symmetry_multiplicity
 _atom_site_fract_x
 _atom_site_fract_y
 _atom_site_fract_z
 _atom_site_occupancy
  Li  Li0  1  -0.00000000  0.00000000  0.00000000  1
  V  V1  1  0.89833158  0.79666316  0.32440739  1
  V  V2  1  0.10166842  0.20333684  0.67559261  1
  V  V3  1  0.79263696  0.58527391  0.71036124  1
  V  V4  1  0.20736304  0.41472609  0.28963876  1
  O  O5  1  0.85169715  0.70339430  0.98970833  1
  O  O6  1  0.14830285  0.29660570  0.01029167  1
  O  O7  1  0.74226719  0.48453438  0.36024062  1
  O  O8  1  0.25773281  0.51546562  0.63975938  1
  O  O9  1  0.94660629  0.89321258  0.65632385  1
  O  O10  1  0.05339371  0.10678742  0.34367615  1
  O  O11  1  0.63401924  0.26803848  0.69305408  1
  O  O12  1  0.36598076  0.73196152  0.30694592  1
