# generated using pymatgen
data_LiCa2TeO6
_symmetry_space_group_name_H-M   'P 1'
_cell_length_a   5.56217165
_cell_length_b   5.76205527
_cell_length_c   7.78141759
_cell_angle_alpha   90.00000000
_cell_angle_beta   88.87243971
_cell_angle_gamma   90.00000000
_symmetry_Int_Tables_number   1
_chemical_formula_structural   LiCa2TeO6
_chemical_formula_sum   'Li2 Ca4 Te2 O12'
_cell_volume   249.34256644
_cell_formula_units_Z   2
loop_
 _symmetry_equiv_pos_site_id
 _symmetry_equiv_pos_as_xyz
  1  'x, y, z'
loop_
 _atom_site_type_symbol
 _atom_site_label
 _atom_site_symmetry_multiplicity
 _atom_site_fract_x
 _atom_site_fract_y
 _atom_site_fract_z
 _atom_site_occupancy
  Li  Li0  1  -0.00000000  0.00000000  0.50000000  1
  Li  Li1  1  0.50000000  0.50000000  0.00000000  1
  Ca  Ca2  1  0.01582976  0.44189158  0.25558219  1
  Ca  Ca3  1  0.98417024  0.55810842  0.74441781  1
  Ca  Ca4  1  0.48417024  0.94189158  0.24441781  1
  Ca  Ca5  1  0.51582976  0.05810842  0.75558219  1
  Te  Te6  1  -0.00000000  0.00000000  0.00000000  1
  Te  Te7  1  0.50000000  0.50000000  0.50000000  1
  O  O8  1  0.28371504  0.18680401  0.04529856  1
  O  O9  1  0.71628496  0.81319599  0.95470144  1
  O  O10  1  0.21628496  0.68680401  0.45470144  1
  O  O11  1  0.78371504  0.31319599  0.54529856  1
  O  O12  1  0.90342136  0.03415918  0.23995773  1
  O  O13  1  0.09657864  0.96584082  0.76004227  1
  O  O14  1  0.59657864  0.53415918  0.26004227  1
  O  O15  1  0.40342136  0.46584082  0.73995773  1
  O  O16  1  0.18231210  0.72154726  0.05475659  1
  O  O17  1  0.81768790  0.27845274  0.94524341  1
  O  O18  1  0.31768790  0.22154726  0.44524341  1
  O  O19  1  0.68231210  0.77845274  0.55475659  1
