# generated using pymatgen
data_Li3SiO4
_symmetry_space_group_name_H-M   'P 1'
_cell_length_a   5.27655950
_cell_length_b   5.27655950
_cell_length_c   6.25485075
_cell_angle_alpha   90.00000000
_cell_angle_beta   90.00000000
_cell_angle_gamma   89.81838579
_symmetry_Int_Tables_number   1
_chemical_formula_structural   Li3SiO4
_chemical_formula_sum   'Li6 Si2 O8'
_cell_volume   174.14718129
_cell_formula_units_Z   2
loop_
 _symmetry_equiv_pos_site_id
 _symmetry_equiv_pos_as_xyz
  1  'x, y, z'
loop_
 _atom_site_type_symbol
 _atom_site_label
 _atom_site_symmetry_multiplicity
 _atom_site_fract_x
 _atom_site_fract_y
 _atom_site_fract_z
 _atom_site_occupancy
  Li  Li0  1  0.82226621  0.17773379  0.75000000  1
  Li  Li1  1  0.17773379  0.82226621  0.25000000  1
  Li  Li2  1  0.17785985  0.82214015  0.75000000  1
  Li  Li3  1  0.82214015  0.17785985  0.25000000  1
  Li  Li4  1  0.69474660  0.69474660  -0.00000000  1
  Li  Li5  1  0.30525340  0.30525340  0.50000000  1
  Si  Si6  1  0.31911192  0.31911192  -0.00000000  1
  Si  Si7  1  0.68088808  0.68088808  0.50000000  1
  O  O8  1  0.80357375  0.80308208  0.71671380  1
  O  O9  1  0.19642625  0.19691792  0.21671380  1
  O  O10  1  0.19691792  0.19642625  0.78328620  1
  O  O11  1  0.80308208  0.80357375  0.28328620  1
  O  O12  1  0.63106989  0.28816466  0.00017833  1
  O  O13  1  0.36893011  0.71183534  0.50017833  1
  O  O14  1  0.71183534  0.36893011  0.49982167  1
  O  O15  1  0.28816466  0.63106989  0.99982167  1
