# generated using pymatgen
data_Nd3Ta(ClO2)3
_symmetry_space_group_name_H-M   'P 1'
_cell_length_a   5.32289161
_cell_length_b   9.49510645
_cell_length_c   9.49510645
_cell_angle_alpha   120.00000404
_cell_angle_beta   90.00000000
_cell_angle_gamma   90.00000000
_symmetry_Int_Tables_number   1
_chemical_formula_structural   Nd3Ta(ClO2)3
_chemical_formula_sum   'Nd6 Ta2 Cl6 O12'
_cell_volume   415.60227167
_cell_formula_units_Z   2
loop_
 _symmetry_equiv_pos_site_id
 _symmetry_equiv_pos_as_xyz
  1  'x, y, z'
loop_
 _atom_site_type_symbol
 _atom_site_label
 _atom_site_symmetry_multiplicity
 _atom_site_fract_x
 _atom_site_fract_y
 _atom_site_fract_z
 _atom_site_occupancy
  Nd  Nd0  1  0.75000000  0.59634081  0.68613086  1
  Nd  Nd1  1  0.25000000  0.40365919  0.31386914  1
  Nd  Nd2  1  0.75000000  0.08979005  0.40365919  1
  Nd  Nd3  1  0.25000000  0.91020995  0.59634081  1
  Nd  Nd4  1  0.75000000  0.31386914  0.91020995  1
  Nd  Nd5  1  0.25000000  0.68613086  0.08979005  1
  Ta  Ta6  1  0.75000000  0.66666700  0.33333300  1
  Ta  Ta7  1  0.25000000  0.33333300  0.66666700  1
  Cl  Cl8  1  0.75000000  0.80988382  0.05028756  1
  Cl  Cl9  1  0.25000000  0.19011618  0.94971244  1
  Cl  Cl10  1  0.75000000  0.24040374  0.19011618  1
  Cl  Cl11  1  0.25000000  0.75959626  0.80988382  1
  Cl  Cl12  1  0.75000000  0.94971244  0.75959626  1
  Cl  Cl13  1  0.25000000  0.05028756  0.24040374  1
  O  O14  1  0.98786920  0.84302952  0.36448245  1
  O  O15  1  0.01213080  0.15697048  0.63551755  1
  O  O16  1  0.98786920  0.52145294  0.15697048  1
  O  O17  1  0.48786920  0.15697048  0.63551755  1
  O  O18  1  0.01213080  0.47854706  0.84302952  1
  O  O19  1  0.51213080  0.84302952  0.36448245  1
  O  O20  1  0.98786920  0.63551755  0.47854706  1
  O  O21  1  0.48786920  0.47854706  0.84302952  1
  O  O22  1  0.01213080  0.36448245  0.52145294  1
  O  O23  1  0.51213080  0.52145294  0.15697048  1
  O  O24  1  0.48786920  0.36448245  0.52145294  1
  O  O25  1  0.51213080  0.63551755  0.47854706  1
