# generated using pymatgen
data_Li8EuSn7
_symmetry_space_group_name_H-M   'P 1'
_cell_length_a   4.60756606
_cell_length_b   11.56484488
_cell_length_c   13.70815001
_cell_angle_alpha   90.00000000
_cell_angle_beta   99.67500372
_cell_angle_gamma   90.00000000
_symmetry_Int_Tables_number   1
_chemical_formula_structural   Li8EuSn7
_chemical_formula_sum   'Li16 Eu2 Sn14'
_cell_volume   720.06028776
_cell_formula_units_Z   2
loop_
 _symmetry_equiv_pos_site_id
 _symmetry_equiv_pos_as_xyz
  1  'x, y, z'
loop_
 _atom_site_type_symbol
 _atom_site_label
 _atom_site_symmetry_multiplicity
 _atom_site_fract_x
 _atom_site_fract_y
 _atom_site_fract_z
 _atom_site_occupancy
  Li  Li0  1  0.97680451  0.25000000  0.95360903  1
  Li  Li1  1  0.02319549  0.75000000  0.04639097  1
  Li  Li2  1  0.00000000  -0.00000000  -0.00000000  1
  Li  Li3  1  0.00000000  0.50000000  -0.00000000  1
  Li  Li4  1  0.75712600  0.09438049  0.51425200  1
  Li  Li5  1  0.24287400  0.90561951  0.48574800  1
  Li  Li6  1  0.24287400  0.59438049  0.48574800  1
  Li  Li7  1  0.75712600  0.40561951  0.51425200  1
  Li  Li8  1  0.89173133  0.51814926  0.78346267  1
  Li  Li9  1  0.10826867  0.48185074  0.21653733  1
  Li  Li10  1  0.10826867  0.01814926  0.21653733  1
  Li  Li11  1  0.89173133  0.98185074  0.78346267  1
  Li  Li12  1  0.54470327  0.12492663  0.08940655  1
  Li  Li13  1  0.45529673  0.87507337  0.91059345  1
  Li  Li14  1  0.45529673  0.62492663  0.91059345  1
  Li  Li15  1  0.54470327  0.37507337  0.08940655  1
  Eu  Eu16  1  0.85817264  0.25000000  0.71634529  1
  Eu  Eu17  1  0.14182736  0.75000000  0.28365471  1
  Sn  Sn18  1  0.43481275  0.12064295  0.86962550  1
  Sn  Sn19  1  0.56518725  0.87935705  0.13037450  1
  Sn  Sn20  1  0.56518725  0.62064295  0.13037450  1
  Sn  Sn21  1  0.43481275  0.37935705  0.86962550  1
  Sn  Sn22  1  0.26345909  0.25000000  0.52691817  1
  Sn  Sn23  1  0.73654091  0.75000000  0.47308183  1
  Sn  Sn24  1  0.07980098  0.25000000  0.15960196  1
  Sn  Sn25  1  0.92019902  0.75000000  0.84039804  1
  Sn  Sn26  1  0.65498608  0.25000000  0.30997216  1
  Sn  Sn27  1  0.34501392  0.75000000  0.69002784  1
  Sn  Sn28  1  0.66993883  0.54518248  0.33987766  1
  Sn  Sn29  1  0.33006117  0.45481752  0.66012234  1
  Sn  Sn30  1  0.33006117  0.04518248  0.66012234  1
  Sn  Sn31  1  0.66993883  0.95481752  0.33987766  1
