# generated using pymatgen
data_Ca2SbWO6
_symmetry_space_group_name_H-M   'P 1'
_cell_length_a   5.70863278
_cell_length_b   5.90241543
_cell_length_c   8.11124552
_cell_angle_alpha   90.00000000
_cell_angle_beta   90.00000000
_cell_angle_gamma   91.45444470
_symmetry_Int_Tables_number   1
_chemical_formula_structural   Ca2SbWO6
_chemical_formula_sum   'Ca4 Sb2 W2 O12'
_cell_volume   273.21811097
_cell_formula_units_Z   2
loop_
 _symmetry_equiv_pos_site_id
 _symmetry_equiv_pos_as_xyz
  1  'x, y, z'
loop_
 _atom_site_type_symbol
 _atom_site_label
 _atom_site_symmetry_multiplicity
 _atom_site_fract_x
 _atom_site_fract_y
 _atom_site_fract_z
 _atom_site_occupancy
  Ca  Ca0  1  0.51414918  0.55935580  0.75000000  1
  Ca  Ca1  1  0.48585082  0.44064420  0.25000000  1
  Ca  Ca2  1  0.00127238  0.05074731  0.75000000  1
  Ca  Ca3  1  0.99872762  0.94925269  0.25000000  1
  Sb  Sb4  1  0.00000000  0.50000000  0.50000000  1
  Sb  Sb5  1  0.00000000  0.50000000  0.00000000  1
  W  W6  1  0.50000000  0.00000000  0.50000000  1
  W  W7  1  0.50000000  0.00000000  0.00000000  1
  O  O8  1  0.34393632  0.71128920  0.44397134  1
  O  O9  1  0.20550730  0.17427342  0.05841254  1
  O  O10  1  0.65606368  0.28871080  0.94397134  1
  O  O11  1  0.79449270  0.82572658  0.55841254  1
  O  O12  1  0.20550730  0.17427342  0.44158746  1
  O  O13  1  0.79449270  0.82572658  0.94158746  1
  O  O14  1  0.87497930  0.55695704  0.25000000  1
  O  O15  1  0.34393632  0.71128920  0.05602866  1
  O  O16  1  0.39601156  0.95464170  0.75000000  1
  O  O17  1  0.65606368  0.28871080  0.55602866  1
  O  O18  1  0.12502070  0.44304296  0.75000000  1
  O  O19  1  0.60398844  0.04535830  0.25000000  1
