# generated using pymatgen
data_MnAl2P2(H5O4)4
_symmetry_space_group_name_H-M   'P 1'
_cell_length_a   7.08430136
_cell_length_b   10.39984950
_cell_length_c   10.66599992
_cell_angle_alpha   108.21247055
_cell_angle_beta   90.15989494
_cell_angle_gamma   109.86684733
_symmetry_Int_Tables_number   1
_chemical_formula_structural   MnAl2P2(H5O4)4
_chemical_formula_sum   'Mn2 Al4 P4 H40 O32'
_cell_volume   696.78723122
_cell_formula_units_Z   2
loop_
 _symmetry_equiv_pos_site_id
 _symmetry_equiv_pos_as_xyz
  1  'x, y, z'
loop_
 _atom_site_type_symbol
 _atom_site_label
 _atom_site_symmetry_multiplicity
 _atom_site_fract_x
 _atom_site_fract_y
 _atom_site_fract_z
 _atom_site_occupancy
  Mn  Mn0  1  0.62811440  0.77812967  0.51069664  1
  Mn  Mn1  1  0.37188560  0.22187033  0.48930336  1
  Al  Al2  1  0.74012654  0.75027770  0.00204969  1
  Al  Al3  1  0.25987346  0.24972230  0.99795031  1
  Al  Al4  1  0.00000000  0.50000000  -0.00000000  1
  Al  Al5  1  0.50000000  0.00000000  -0.00000000  1
  P  P6  1  0.43418411  0.59065393  0.18105986  1
  P  P7  1  0.56581589  0.40934607  0.81894014  1
  P  P8  1  0.86330431  0.95424684  0.82574416  1
  P  P9  1  0.13669569  0.04575316  0.17425584  1
  H  H10  1  0.28218560  0.81524279  0.48456955  1
  H  H11  1  0.71781440  0.18475721  0.51543045  1
  H  H12  1  0.78688294  0.04616303  0.15536853  1
  H  H13  1  0.21311706  0.95383697  0.84463147  1
  H  H14  1  0.02065033  0.32341597  0.28511313  1
  H  H15  1  0.97934967  0.67658403  0.71488687  1
  H  H16  1  0.87794534  0.61400568  0.38418267  1
  H  H17  1  0.12205466  0.38599432  0.61581733  1
  H  H18  1  0.83245667  0.37535171  0.15773430  1
  H  H19  1  0.16754333  0.62464829  0.84226570  1
  H  H20  1  0.40136837  0.54951533  0.60276162  1
  H  H21  1  0.59863163  0.45048467  0.39723838  1
  H  H22  1  0.15119458  0.89122177  0.35038317  1
  H  H23  1  0.84880542  0.10877823  0.64961683  1
  H  H24  1  0.42669195  0.78446372  0.05627639  1
  H  H25  1  0.57330805  0.21553628  0.94372361  1
  H  H26  1  0.90440341  0.97056824  0.37098981  1
  H  H27  1  0.09559659  0.02943176  0.62901019  1
  H  H28  1  0.07686586  0.76055850  0.05661458  1
  H  H29  1  0.92313414  0.23944150  0.94338542  1
  H  H30  1  0.57294597  0.66536017  0.71875874  1
  H  H31  1  0.42705403  0.33463983  0.28124126  1
  H  H32  1  0.35021906  0.87555116  0.75228319  1
  H  H33  1  0.64978094  0.12444884  0.24771681  1
  H  H34  1  0.68492595  0.45178916  0.13131773  1
  H  H35  1  0.31507405  0.54821084  0.86868227  1
  H  H36  1  0.14968056  0.61531367  0.38220340  1
  H  H37  1  0.85031944  0.38468633  0.61779660  1
  H  H38  1  0.10553322  0.36093219  0.46221869  1
  H  H39  1  0.89446678  0.63906781  0.53778131  1
  H  H40  1  0.10755384  0.81174899  0.34161697  1
  H  H41  1  0.89244616  0.18825101  0.65838303  1
  H  H42  1  0.10709773  0.64201165  0.33507568  1
  H  H43  1  0.89290227  0.35798835  0.66492432  1
  H  H44  1  0.00260707  0.39009348  0.32883979  1
  H  H45  1  0.99739293  0.60990652  0.67116021  1
  H  H46  1  0.35836770  0.96979532  0.58930931  1
  H  H47  1  0.64163230  0.03020468  0.41069069  1
  H  H48  1  0.71574567  0.83311241  0.28488219  1
  H  H49  1  0.28425433  0.16688759  0.71511781  1
  O  O50  1  0.84746986  0.92048611  0.67263698  1
  O  O51  1  0.15253014  0.07951389  0.32736302  1
  O  O52  1  0.38361516  0.87584083  0.56201320  1
  O  O53  1  0.61638484  0.12415917  0.43798680  1
  O  O54  1  0.48481820  0.65337189  0.64105389  1
  O  O55  1  0.51518180  0.34662811  0.35894611  1
  O  O56  1  0.91389672  0.94104991  0.12013348  1
  O  O57  1  0.08610328  0.05895009  0.87986652  1
  O  O58  1  0.95447101  0.67508219  0.01564445  1
  O  O59  1  0.04552899  0.32491781  0.98435555  1
  O  O60  1  0.63071053  0.70052306  0.15362607  1
  O  O61  1  0.36928947  0.29947694  0.84637393  1
  O  O62  1  0.83271076  0.46610145  0.14833588  1
  O  O63  1  0.16728924  0.53389855  0.85166412  1
  O  O64  1  0.28277991  0.96934022  0.10869900  1
  O  O65  1  0.71722009  0.03065978  0.89130100  1
  O  O66  1  0.52483766  0.82626299  0.00248964  1
  O  O67  1  0.47516234  0.17373701  0.99751036  1
  O  O68  1  0.17847777  0.19073061  0.14758864  1
  O  O69  1  0.82152223  0.80926939  0.85241136  1
  O  O70  1  0.24454073  0.60459892  0.12117034  1
  O  O71  1  0.75545927  0.39540108  0.87882966  1
  O  O72  1  0.76334742  0.91117241  0.37719875  1
  O  O73  1  0.23665258  0.08882759  0.62280125  1
  O  O74  1  0.44776568  0.62732302  0.33252783  1
  O  O75  1  0.55223432  0.37267698  0.66747217  1
  O  O76  1  0.69970051  0.10742546  0.16037065  1
  O  O77  1  0.30029949  0.89257454  0.83962935  1
  O  O78  1  0.43769815  0.43452019  0.11572591  1
  O  O79  1  0.56230185  0.56547981  0.88427409  1
  O  O80  1  0.19792018  0.37709273  0.53901638  1
  O  O81  1  0.80207982  0.62290727  0.46098362  1
