# generated using pymatgen
data_Er8Rh5C12
_symmetry_space_group_name_H-M   'P 1'
_cell_length_a   3.48484987
_cell_length_b   7.40103357
_cell_length_c   14.05303303
_cell_angle_alpha   94.09706141
_cell_angle_beta   97.12238965
_cell_angle_gamma   90.00000000
_symmetry_Int_Tables_number   1
_chemical_formula_structural   Er8Rh5C12
_chemical_formula_sum   'Er8 Rh5 C12'
_cell_volume   358.71838239
_cell_formula_units_Z   1
loop_
 _symmetry_equiv_pos_site_id
 _symmetry_equiv_pos_as_xyz
  1  'x, y, z'
loop_
 _atom_site_type_symbol
 _atom_site_label
 _atom_site_symmetry_multiplicity
 _atom_site_fract_x
 _atom_site_fract_y
 _atom_site_fract_z
 _atom_site_occupancy
  Er  Er0  1  0.29995731  0.38980958  0.59991463  1
  Er  Er1  1  0.70004269  0.61019042  0.40008537  1
  Er  Er2  1  0.54665745  0.29621900  0.09331491  1
  Er  Er3  1  0.45334255  0.70378100  0.90668509  1
  Er  Er4  1  0.70705648  0.11570714  0.41411296  1
  Er  Er5  1  0.29294352  0.88429286  0.58588704  1
  Er  Er6  1  0.41154438  0.17331870  0.82308875  1
  Er  Er7  1  0.58845562  0.82668130  0.17691125  1
  Rh  Rh8  1  0.11008352  0.49489523  0.22016703  1
  Rh  Rh9  1  0.88991648  0.50510477  0.77983297  1
  Rh  Rh10  1  0.11600029  0.12839345  0.23200057  1
  Rh  Rh11  1  0.88399971  0.87160655  0.76799943  1
  Rh  Rh12  1  -0.00000000  0.00000000  -0.00000000  1
  C  C13  1  0.02303080  0.75626505  0.04606160  1
  C  C14  1  0.97696920  0.24373495  0.95393840  1
  C  C15  1  0.21625060  0.36546410  0.43250121  1
  C  C16  1  0.78374940  0.63453590  0.56749879  1
  C  C17  1  0.79294076  0.13162161  0.58588152  1
  C  C18  1  0.20705924  0.86837839  0.41411848  1
  C  C19  1  0.84149262  0.12717332  0.68298524  1
  C  C20  1  0.15850738  0.87282668  0.31701476  1
  C  C21  1  0.04774239  0.61390096  0.09548478  1
  C  C22  1  0.95225761  0.38609904  0.90451522  1
  C  C23  1  0.16822891  0.34685129  0.33645783  1
  C  C24  1  0.83177109  0.65314871  0.66354217  1
