# generated using pymatgen
data_CoH4SO6
_symmetry_space_group_name_H-M   'P 1'
_cell_length_a   7.63306503
_cell_length_b   10.05337711
_cell_length_c   10.03887288
_cell_angle_alpha   90.00000000
_cell_angle_beta   112.34454986
_cell_angle_gamma   90.00000000
_symmetry_Int_Tables_number   1
_chemical_formula_structural   CoH4SO6
_chemical_formula_sum   'Co6 H24 S6 O36'
_cell_volume   712.52060782
_cell_formula_units_Z   6
loop_
 _symmetry_equiv_pos_site_id
 _symmetry_equiv_pos_as_xyz
  1  'x, y, z'
loop_
 _atom_site_type_symbol
 _atom_site_label
 _atom_site_symmetry_multiplicity
 _atom_site_fract_x
 _atom_site_fract_y
 _atom_site_fract_z
 _atom_site_occupancy
  Co  Co0  1  0.12152708  0.02030791  0.16707777  1
  Co  Co1  1  0.87847292  0.52030791  0.83292223  1
  Co  Co2  1  0.04555069  0.52030791  0.16707777  1
  Co  Co3  1  0.95444931  0.02030791  0.83292223  1
  Co  Co4  1  0.29830290  0.30503539  1.00000000  1
  Co  Co5  1  0.70169710  0.80503539  0.00000000  1
  H  H6  1  0.59107245  0.35332589  0.81844614  1
  H  H7  1  0.40892755  0.85332589  0.18155386  1
  H  H8  1  0.22737369  0.85332589  0.81844614  1
  H  H9  1  0.77262631  0.35332589  0.18155386  1
  H  H10  1  0.29405831  0.05966591  0.00000000  1
  H  H11  1  0.70594169  0.55966591  1.00000000  1
  H  H12  1  0.29772156  0.02030156  0.53517553  1
  H  H13  1  0.70227844  0.52030156  0.46482447  1
  H  H14  1  0.23745396  0.52030156  0.53517553  1
  H  H15  1  0.76254604  0.02030156  0.46482447  1
  H  H16  1  0.51943500  0.32302931  0.56253506  1
  H  H17  1  0.48056500  0.82302931  0.43746494  1
  H  H18  1  0.04310006  0.82302931  0.56253506  1
  H  H19  1  0.95689994  0.32302931  0.43746494  1
  H  H20  1  0.49177742  0.47742564  0.71663441  1
  H  H21  1  0.50822258  0.97742564  0.28336559  1
  H  H22  1  0.22485698  0.97742564  0.71663441  1
  H  H23  1  0.77514302  0.47742564  0.28336559  1
  H  H24  1  0.47055991  0.04779688  0.67938002  1
  H  H25  1  0.52944009  0.54779688  0.32061998  1
  H  H26  1  0.20882011  0.54779688  0.67938002  1
  H  H27  1  0.79117989  0.04779688  0.32061998  1
  H  H28  1  0.03357462  0.80815460  0.00000000  1
  H  H29  1  0.96642538  0.30815460  1.00000000  1
  S  S30  1  0.35658668  0.29268353  0.33232973  1
  S  S31  1  0.64341332  0.79268353  0.66767027  1
  S  S32  1  0.97574305  0.79268353  0.33232973  1
  S  S33  1  0.02425695  0.29268353  0.66767027  1
  S  S34  1  0.68648749  0.12214146  0.00000000  1
  S  S35  1  0.31351251  0.62214146  1.00000000  1
  O  O36  1  0.43889144  0.29834328  0.22215491  1
  O  O37  1  0.56110856  0.79834328  0.77784509  1
  O  O38  1  0.78326347  0.79834328  0.22215491  1
  O  O39  1  0.21673653  0.29834328  0.77784509  1
  O  O40  1  0.25822600  0.41718071  0.34084818  1
  O  O41  1  0.74177400  0.91718071  0.65915182  1
  O  O42  1  0.08262219  0.91718071  0.34084818  1
  O  O43  1  0.91737781  0.41718071  0.65915182  1
  O  O44  1  0.57642225  0.99940361  0.00000000  1
  O  O45  1  0.42357775  0.49940361  1.00000000  1
  O  O46  1  0.57413027  0.24333275  0.00000000  1
  O  O47  1  0.42586973  0.74333275  1.00000000  1
  O  O48  1  0.60929212  0.41831428  0.75174784  1
  O  O49  1  0.39070788  0.91831428  0.24825216  1
  O  O50  1  0.14245572  0.91831428  0.75174784  1
  O  O51  1  0.85754428  0.41831428  0.24825216  1
  O  O52  1  0.33322936  0.05519050  0.63293414  1
  O  O53  1  0.66677064  0.55519050  0.36706586  1
  O  O54  1  0.29970477  0.55519050  0.63293414  1
  O  O55  1  0.70029523  0.05519050  0.36706586  1
  O  O56  1  0.73494304  0.12713290  0.86882344  1
  O  O57  1  0.26505696  0.62713290  0.13117656  1
  O  O58  1  0.13388040  0.62713290  0.86882344  1
  O  O59  1  0.86611960  0.12713290  0.13117656  1
  O  O60  1  0.04126356  0.38691562  0.00000000  1
  O  O61  1  0.95873644  0.88691562  1.00000000  1
  O  O62  1  0.24303881  0.17296840  0.32214116  1
  O  O63  1  0.75696119  0.67296840  0.67785884  1
  O  O64  1  0.07910235  0.67296840  0.32214116  1
  O  O65  1  0.92089765  0.17296840  0.67785884  1
  O  O66  1  0.18340430  0.10956151  1.00000000  1
  O  O67  1  0.81659570  0.60956151  0.00000000  1
  O  O68  1  0.53611504  0.28434380  0.47690580  1
  O  O69  1  0.46388496  0.78434380  0.52309420  1
  O  O70  1  0.94079076  0.78434380  0.47690580  1
  O  O71  1  0.05920924  0.28434380  0.52309420  1
