# generated using pymatgen
data_Co3(ReB)4
_symmetry_space_group_name_H-M   'P 1'
_cell_length_a   5.31392424
_cell_length_b   5.31392424
_cell_length_c   7.95387680
_cell_angle_alpha   90.00000000
_cell_angle_beta   90.00000000
_cell_angle_gamma   90.00000000
_symmetry_Int_Tables_number   1
_chemical_formula_structural   Co3(ReB)4
_chemical_formula_sum   'Co6 Re8 B8'
_cell_volume   224.59990935
_cell_formula_units_Z   2
loop_
 _symmetry_equiv_pos_site_id
 _symmetry_equiv_pos_as_xyz
  1  'x, y, z'
loop_
 _atom_site_type_symbol
 _atom_site_label
 _atom_site_symmetry_multiplicity
 _atom_site_fract_x
 _atom_site_fract_y
 _atom_site_fract_z
 _atom_site_occupancy
  Co  Co0  1  0.16176049  0.66176049  0.50000000  1
  Co  Co1  1  0.83823951  0.33823951  0.50000000  1
  Co  Co2  1  0.33823951  0.16176049  0.50000000  1
  Co  Co3  1  0.66176049  0.83823951  0.50000000  1
  Co  Co4  1  0.00000000  0.00000000  0.00000000  1
  Co  Co5  1  0.50000000  0.50000000  0.00000000  1
  Re  Re6  1  0.67438135  0.17438135  0.22327697  1
  Re  Re7  1  0.32561865  0.82561865  0.77672303  1
  Re  Re8  1  0.32561865  0.82561865  0.22327697  1
  Re  Re9  1  0.82561865  0.67438135  0.22327697  1
  Re  Re10  1  0.82561865  0.67438135  0.77672303  1
  Re  Re11  1  0.67438135  0.17438135  0.77672303  1
  Re  Re12  1  0.17438135  0.32561865  0.77672303  1
  Re  Re13  1  0.17438135  0.32561865  0.22327697  1
  B  B14  1  0.12245231  0.62245231  0.00000000  1
  B  B15  1  0.87754769  0.37754769  0.00000000  1
  B  B16  1  0.37754769  0.12245231  0.00000000  1
  B  B17  1  0.62245231  0.87754769  0.00000000  1
  B  B18  1  0.00000000  0.00000000  0.37520078  1
  B  B19  1  0.00000000  0.00000000  0.62479922  1
  B  B20  1  0.50000000  0.50000000  0.62479922  1
  B  B21  1  0.50000000  0.50000000  0.37520078  1
