# generated using pymatgen
data_Hg3BI2(OF2)2
_symmetry_space_group_name_H-M   'P 1'
_cell_length_a   7.66661247
_cell_length_b   10.48452358
_cell_length_c   13.44278367
_cell_angle_alpha   90.00000000
_cell_angle_beta   90.00000000
_cell_angle_gamma   92.58346385
_symmetry_Int_Tables_number   1
_chemical_formula_structural   Hg3BI2(OF2)2
_chemical_formula_sum   'Hg12 B4 I8 O8 F16'
_cell_volume   1079.44318722
_cell_formula_units_Z   4
loop_
 _symmetry_equiv_pos_site_id
 _symmetry_equiv_pos_as_xyz
  1  'x, y, z'
loop_
 _atom_site_type_symbol
 _atom_site_label
 _atom_site_symmetry_multiplicity
 _atom_site_fract_x
 _atom_site_fract_y
 _atom_site_fract_z
 _atom_site_occupancy
  Hg  Hg0  1  0.53862125  0.76635626  0.30949204  1
  Hg  Hg1  1  0.46137875  0.23364374  0.69050796  1
  Hg  Hg2  1  0.96137875  0.73364374  0.80949204  1
  Hg  Hg3  1  0.03862125  0.26635626  0.19050796  1
  Hg  Hg4  1  0.12415418  0.56949270  0.30858361  1
  Hg  Hg5  1  0.87584582  0.43050730  0.69141639  1
  Hg  Hg6  1  0.37584582  0.93050730  0.80858361  1
  Hg  Hg7  1  0.62415418  0.06949270  0.19141639  1
  Hg  Hg8  1  0.98120266  0.95926104  0.32488409  1
  Hg  Hg9  1  0.01879734  0.04073896  0.67511591  1
  Hg  Hg10  1  0.51879734  0.54073896  0.82488409  1
  Hg  Hg11  1  0.48120266  0.45926104  0.17511591  1
  B  B12  1  0.88389779  0.73852613  0.10359064  1
  B  B13  1  0.11610221  0.26147387  0.89640936  1
  B  B14  1  0.61610221  0.76147387  0.60359064  1
  B  B15  1  0.38389779  0.23852613  0.39640936  1
  I  I16  1  0.30049389  0.99302066  0.13951202  1
  I  I17  1  0.69950611  0.00697934  0.86048798  1
  I  I18  1  0.19950611  0.50697934  0.63951202  1
  I  I19  1  0.80049389  0.49302066  0.36048798  1
  I  I20  1  0.15550416  0.81341401  0.44824266  1
  I  I21  1  0.84449584  0.18658599  0.55175734  1
  I  I22  1  0.34449584  0.68658599  0.94824266  1
  I  I23  1  0.65550416  0.31341401  0.05175734  1
  O  O24  1  0.09907538  0.90411655  0.78647138  1
  O  O25  1  0.90092462  0.09588345  0.21352862  1
  O  O26  1  0.40092462  0.59588345  0.28647138  1
  O  O27  1  0.59907538  0.40411655  0.71352862  1
  O  O28  1  0.67292016  0.93616150  0.32378304  1
  O  O29  1  0.32707984  0.06383850  0.67621696  1
  O  O30  1  0.82707984  0.56383850  0.82378304  1
  O  O31  1  0.17292016  0.43616150  0.17621696  1
  F  F32  1  0.98243356  0.75991339  0.19563510  1
  F  F33  1  0.01756644  0.24008661  0.80436490  1
  F  F34  1  0.51756644  0.74008661  0.69563510  1
  F  F35  1  0.48243356  0.25991339  0.30436490  1
  F  F36  1  0.95402328  0.82480886  0.03183640  1
  F  F37  1  0.04597672  0.17519114  0.96816360  1
  F  F38  1  0.54597672  0.67519114  0.53183640  1
  F  F39  1  0.45402328  0.32480886  0.46816360  1
  F  F40  1  0.89670113  0.61264334  0.07478329  1
  F  F41  1  0.10329887  0.38735666  0.92521671  1
  F  F42  1  0.60329887  0.88735666  0.57478329  1
  F  F43  1  0.39670113  0.11264334  0.42521671  1
  F  F44  1  0.79363521  0.73501382  0.62336649  1
  F  F45  1  0.20636479  0.26498618  0.37663351  1
  F  F46  1  0.70636479  0.76498618  0.12336649  1
  F  F47  1  0.29363521  0.23501382  0.87663351  1
