# generated using pymatgen
data_H9C3SN4O3
_symmetry_space_group_name_H-M   'P 1'
_cell_length_a   7.32386672
_cell_length_b   7.55152450
_cell_length_c   7.93059529
_cell_angle_alpha   110.70458800
_cell_angle_beta   89.92427008
_cell_angle_gamma   85.82340274
_symmetry_Int_Tables_number   1
_chemical_formula_structural   H9C3SN4O3
_chemical_formula_sum   'H18 C6 S2 N8 O6'
_cell_volume   409.02299112
_cell_formula_units_Z   2
loop_
 _symmetry_equiv_pos_site_id
 _symmetry_equiv_pos_as_xyz
  1  'x, y, z'
loop_
 _atom_site_type_symbol
 _atom_site_label
 _atom_site_symmetry_multiplicity
 _atom_site_fract_x
 _atom_site_fract_y
 _atom_site_fract_z
 _atom_site_occupancy
  H  H0  1  0.16128069  0.24989448  0.59516263  1
  H  H1  1  0.83871931  0.75010552  0.40483737  1
  H  H2  1  0.11672082  0.34194183  0.41523078  1
  H  H3  1  0.88327918  0.65805817  0.58476922  1
  H  H4  1  0.93708953  0.40211696  0.12285023  1
  H  H5  1  0.06291047  0.59788304  0.87714977  1
  H  H6  1  0.25296369  0.91275994  0.07108529  1
  H  H7  1  0.74703631  0.08724006  0.92891471  1
  H  H8  1  0.61810870  0.30753461  0.34684331  1
  H  H9  1  0.38189130  0.69246539  0.65315669  1
  H  H10  1  0.40501249  0.62586157  0.41633506  1
  H  H11  1  0.59498751  0.37413843  0.58366494  1
  H  H12  1  0.13065594  0.48721857  0.14178155  1
  H  H13  1  0.86934406  0.51278143  0.85821845  1
  H  H14  1  0.30031062  0.79320824  0.27099476  1
  H  H15  1  0.69968938  0.20679176  0.72900524  1
  H  H16  1  0.17416428  0.15577338  0.12688752  1
  H  H17  1  0.82583572  0.84422662  0.87311248  1
  C  C18  1  0.70780077  0.10195188  0.44850608  1
  C  C19  1  0.29219923  0.89804812  0.55149392  1
  C  C20  1  0.56824639  0.45172235  0.05096524  1
  C  C21  1  0.43175361  0.54827765  0.94903476  1
  C  C22  1  0.21736533  0.06989915  0.33900400  1
  C  C23  1  0.78263467  0.93010085  0.66099600  1
  S  S24  1  0.23922084  0.07203158  0.75076401  1
  S  S25  1  0.76077916  0.92796842  0.24923599  1
  N  N26  1  0.64136924  0.27596956  0.46114707  1
  N  N27  1  0.35863076  0.72403044  0.53885293  1
  N  N28  1  0.72671436  0.08469337  0.61645546  1
  N  N29  1  0.27328564  0.91530663  0.38354454  1
  N  N30  1  0.16168752  0.23669589  0.46127909  1
  N  N31  1  0.83831248  0.76330411  0.53872091  1
  N  N32  1  0.22372174  0.04515359  0.16461612  1
  N  N33  1  0.77627826  0.95484641  0.83538388  1
  O  O34  1  0.52003990  0.45664090  0.20506047  1
  O  O35  1  0.47996010  0.54335910  0.79493953  1
  O  O36  1  0.27985223  0.62716355  0.03185047  1
  O  O37  1  0.72014777  0.37283645  0.96814953  1
  O  O38  1  0.05235022  0.41335859  0.18886566  1
  O  O39  1  0.94764978  0.58664141  0.81113434  1
