# generated using pymatgen
data_Ce5Ge2Pd
_symmetry_space_group_name_H-M   'P 1'
_cell_length_a   7.82595540
_cell_length_b   7.82595540
_cell_length_c   8.55256515
_cell_angle_alpha   117.22725772
_cell_angle_beta   117.22725772
_cell_angle_gamma   90.00000000
_symmetry_Int_Tables_number   1
_chemical_formula_structural   Ce5Ge2Pd
_chemical_formula_sum   'Ce10 Ge4 Pd2'
_cell_volume   399.38303834
_cell_formula_units_Z   2
loop_
 _symmetry_equiv_pos_site_id
 _symmetry_equiv_pos_as_xyz
  1  'x, y, z'
loop_
 _atom_site_type_symbol
 _atom_site_label
 _atom_site_symmetry_multiplicity
 _atom_site_fract_x
 _atom_site_fract_y
 _atom_site_fract_z
 _atom_site_occupancy
  Ce  Ce0  1  -0.00000000  0.00000000  -0.00000000  1
  Ce  Ce1  1  0.50000000  0.50000000  -0.00000000  1
  Ce  Ce2  1  0.33357272  0.83357272  0.30982657  1
  Ce  Ce3  1  0.66642728  0.16642728  0.69017343  1
  Ce  Ce4  1  0.97625385  0.47625385  0.30982657  1
  Ce  Ce5  1  0.47625385  0.33357272  0.30982657  1
  Ce  Ce6  1  0.16642728  0.02374615  0.69017343  1
  Ce  Ce7  1  0.02374615  0.52374615  0.69017343  1
  Ce  Ce8  1  0.52374615  0.66642728  0.69017343  1
  Ce  Ce9  1  0.83357272  0.97625385  0.30982657  1
  Ge  Ge10  1  0.62111442  0.12111442  -0.00000000  1
  Ge  Ge11  1  0.37888558  0.87888558  0.00000000  1
  Ge  Ge12  1  0.87888558  0.62111442  -0.00000000  1
  Ge  Ge13  1  0.12111442  0.37888558  -0.00000000  1
  Pd  Pd14  1  0.25000000  0.25000000  0.50000000  1
  Pd  Pd15  1  0.75000000  0.75000000  0.50000000  1
