# generated using pymatgen
data_CsTb(MoO4)2
_symmetry_space_group_name_H-M   'P 1'
_cell_length_a   7.62993477
_cell_length_b   7.62993477
_cell_length_c   7.83568884
_cell_angle_alpha   62.02769728
_cell_angle_beta   62.02769728
_cell_angle_gamma   88.58337137
_symmetry_Int_Tables_number   1
_chemical_formula_structural   CsTb(MoO4)2
_chemical_formula_sum   'Cs2 Tb2 Mo4 O16'
_cell_volume   344.47336228
_cell_formula_units_Z   2
loop_
 _symmetry_equiv_pos_site_id
 _symmetry_equiv_pos_as_xyz
  1  'x, y, z'
loop_
 _atom_site_type_symbol
 _atom_site_label
 _atom_site_symmetry_multiplicity
 _atom_site_fract_x
 _atom_site_fract_y
 _atom_site_fract_z
 _atom_site_occupancy
  Cs  Cs0  1  0.80408173  0.19591827  0.75000000  1
  Cs  Cs1  1  0.19591827  0.80408173  0.25000000  1
  Tb  Tb2  1  0.22881303  0.77118697  0.75000000  1
  Tb  Tb3  1  0.77118697  0.22881303  0.25000000  1
  Mo  Mo4  1  0.30521358  0.30742167  0.73354063  1
  Mo  Mo5  1  0.69478642  0.69257833  0.26645937  1
  Mo  Mo6  1  0.69257833  0.69478642  0.76645937  1
  Mo  Mo7  1  0.30742167  0.30521358  0.23354063  1
  O  O8  1  0.38467347  0.24128040  0.93157555  1
  O  O9  1  0.61532653  0.75871960  0.06842445  1
  O  O10  1  0.75871960  0.61532653  0.56842445  1
  O  O11  1  0.24128040  0.38467347  0.43157555  1
  O  O12  1  0.62081586  0.93122018  0.62305489  1
  O  O13  1  0.37918414  0.06877982  0.37694511  1
  O  O14  1  0.06877982  0.37918414  0.87694511  1
  O  O15  1  0.93122018  0.62081586  0.12305489  1
  O  O16  1  0.41545347  0.62962246  0.53372266  1
  O  O17  1  0.58454653  0.37037754  0.46627734  1
  O  O18  1  0.37037754  0.58454653  0.96627734  1
  O  O19  1  0.62962246  0.41545347  0.03372266  1
  O  O20  1  0.21500956  0.05385757  0.79848483  1
  O  O21  1  0.78499044  0.94614243  0.20151517  1
  O  O22  1  0.94614243  0.78499044  0.70151517  1
  O  O23  1  0.05385757  0.21500956  0.29848483  1
