# generated using pymatgen
data_H4C2SN4
_symmetry_space_group_name_H-M   'P 1'
_cell_length_a   4.65015663
_cell_length_b   11.34358355
_cell_length_c   11.20481310
_cell_angle_alpha   90.00000000
_cell_angle_beta   90.98184773
_cell_angle_gamma   90.00000000
_symmetry_Int_Tables_number   1
_chemical_formula_structural   H4C2SN4
_chemical_formula_sum   'H16 C8 S4 N16'
_cell_volume   590.96083741
_cell_formula_units_Z   4
loop_
 _symmetry_equiv_pos_site_id
 _symmetry_equiv_pos_as_xyz
  1  'x, y, z'
loop_
 _atom_site_type_symbol
 _atom_site_label
 _atom_site_symmetry_multiplicity
 _atom_site_fract_x
 _atom_site_fract_y
 _atom_site_fract_z
 _atom_site_occupancy
  H  H0  1  0.31396822  0.57886052  0.43470662  1
  H  H1  1  0.68603178  0.42113948  0.56529338  1
  H  H2  1  0.18603178  0.07886052  0.06529338  1
  H  H3  1  0.81396822  0.92113948  0.93470662  1
  H  H4  1  0.83425452  0.27140569  0.02705048  1
  H  H5  1  0.16574548  0.72859431  0.97294952  1
  H  H6  1  0.66574548  0.77140569  0.47294952  1
  H  H7  1  0.33425452  0.22859431  0.52705048  1
  H  H8  1  0.19029987  0.61730226  0.29431678  1
  H  H9  1  0.80970013  0.38269774  0.70568322  1
  H  H10  1  0.30970013  0.11730226  0.20568322  1
  H  H11  1  0.69029987  0.88269774  0.79431678  1
  H  H12  1  0.35039146  0.60562343  0.03095053  1
  H  H13  1  0.64960854  0.39437657  0.96904947  1
  H  H14  1  0.14960854  0.10562343  0.46904947  1
  H  H15  1  0.85039146  0.89437657  0.53095053  1
  C  C16  1  0.01236372  0.98684958  0.20191910  1
  C  C17  1  0.98763628  0.01315042  0.79808090  1
  C  C18  1  0.48763628  0.48684958  0.29808090  1
  C  C19  1  0.51236372  0.51315042  0.70191910  1
  C  C20  1  0.84791296  0.87990856  0.34894037  1
  C  C21  1  0.15208704  0.12009144  0.65105963  1
  C  C22  1  0.65208704  0.37990856  0.15105963  1
  C  C23  1  0.34791296  0.62009144  0.84894037  1
  S  S24  1  0.72822599  0.80816236  0.21926087  1
  S  S25  1  0.27177401  0.19183764  0.78073913  1
  S  S26  1  0.77177401  0.30816236  0.28073913  1
  S  S27  1  0.22822599  0.69183764  0.71926087  1
  N  N28  1  0.99832210  0.97584303  0.32383528  1
  N  N29  1  0.00167790  0.02415697  0.67616472  1
  N  N30  1  0.50167790  0.47584303  0.17616472  1
  N  N31  1  0.49832210  0.52415697  0.82383528  1
  N  N32  1  0.88637320  0.90734139  0.13127326  1
  N  N33  1  0.11362680  0.09265861  0.86872674  1
  N  N34  1  0.61362680  0.40734139  0.36872674  1
  N  N35  1  0.38637320  0.59265861  0.63127326  1
  N  N36  1  0.70285416  0.34155826  0.03977765  1
  N  N37  1  0.29714584  0.65844174  0.96022235  1
  N  N38  1  0.79714584  0.84155826  0.46022235  1
  N  N39  1  0.20285416  0.15844174  0.53977765  1
  N  N40  1  0.35274150  0.58365011  0.34525992  1
  N  N41  1  0.64725850  0.41634989  0.65474008  1
  N  N42  1  0.14725850  0.08365011  0.15474008  1
  N  N43  1  0.85274150  0.91634989  0.84525992  1
