# generated using pymatgen
data_BeSi(AgO2)2
_symmetry_space_group_name_H-M   'P 1'
_cell_length_a   5.04371656
_cell_length_b   10.14967491
_cell_length_c   14.40424007
_cell_angle_alpha   90.00000000
_cell_angle_beta   90.00000000
_cell_angle_gamma   90.00000000
_symmetry_Int_Tables_number   1
_chemical_formula_structural   BeSi(AgO2)2
_chemical_formula_sum   'Be8 Si8 Ag16 O32'
_cell_volume   737.38305930
_cell_formula_units_Z   8
loop_
 _symmetry_equiv_pos_site_id
 _symmetry_equiv_pos_as_xyz
  1  'x, y, z'
loop_
 _atom_site_type_symbol
 _atom_site_label
 _atom_site_symmetry_multiplicity
 _atom_site_fract_x
 _atom_site_fract_y
 _atom_site_fract_z
 _atom_site_occupancy
  Be  Be0  1  0.97480676  0.98422193  0.00469932  1
  Be  Be1  1  0.02519324  0.01577807  0.50469932  1
  Be  Be2  1  0.02519324  0.48422193  0.00469932  1
  Be  Be3  1  0.97480676  0.51577807  0.50469932  1
  Be  Be4  1  0.49826649  0.76411272  0.75129398  1
  Be  Be5  1  0.50173351  0.23588728  0.25129398  1
  Be  Be6  1  0.50173351  0.26411272  0.75129398  1
  Be  Be7  1  0.49826649  0.73588728  0.25129398  1
  Si  Si8  1  0.47415257  0.51557713  0.62545156  1
  Si  Si9  1  0.52584743  0.48442287  0.12545156  1
  Si  Si10  1  0.52584743  0.01557713  0.62545156  1
  Si  Si11  1  0.47415257  0.98442287  0.12545156  1
  Si  Si12  1  0.99731766  0.73345481  0.87982237  1
  Si  Si13  1  0.00268234  0.26654519  0.37982237  1
  Si  Si14  1  0.00268234  0.23345481  0.87982237  1
  Si  Si15  1  0.99731766  0.76654519  0.37982237  1
  Ag  Ag16  1  0.98009384  0.76383257  0.62765641  1
  Ag  Ag17  1  0.01990616  0.23616743  0.12765641  1
  Ag  Ag18  1  0.01990616  0.26383257  0.62765641  1
  Ag  Ag19  1  0.98009384  0.73616743  0.12765641  1
  Ag  Ag20  1  0.98113273  0.50366787  0.75288171  1
  Ag  Ag21  1  0.01886727  0.49633213  0.25288171  1
  Ag  Ag22  1  0.01886727  0.00366787  0.75288171  1
  Ag  Ag23  1  0.98113273  0.99633213  0.25288171  1
  Ag  Ag24  1  0.47622311  0.73589685  0.00277305  1
  Ag  Ag25  1  0.52377689  0.26410315  0.50277305  1
  Ag  Ag26  1  0.52377689  0.23589685  0.00277305  1
  Ag  Ag27  1  0.47622311  0.76410315  0.50277305  1
  Ag  Ag28  1  0.48966185  0.98684139  0.87789780  1
  Ag  Ag29  1  0.51033815  0.01315861  0.37789780  1
  Ag  Ag30  1  0.51033815  0.48684139  0.87789780  1
  Ag  Ag31  1  0.48966185  0.51315861  0.37789780  1
  O  O32  1  0.41910537  0.66660142  0.66401565  1
  O  O33  1  0.58089463  0.33339858  0.16401565  1
  O  O34  1  0.58089463  0.16660142  0.66401565  1
  O  O35  1  0.41910537  0.83339858  0.16401565  1
  O  O36  1  0.73591702  0.69985009  0.81468043  1
  O  O37  1  0.26408298  0.30014991  0.31468043  1
  O  O38  1  0.26408298  0.19985009  0.81468043  1
  O  O39  1  0.73591702  0.80014991  0.31468043  1
  O  O40  1  0.89149411  0.40606477  0.42531868  1
  O  O41  1  0.10850589  0.59393523  0.92531868  1
  O  O42  1  0.10850589  0.90606477  0.42531868  1
  O  O43  1  0.89149411  0.09393523  0.92531868  1
  O  O44  1  0.78828847  0.49492078  0.59790297  1
  O  O45  1  0.21171153  0.50507922  0.09790297  1
  O  O46  1  0.21171153  0.99492078  0.59790297  1
  O  O47  1  0.78828847  0.00507922  0.09790297  1
  O  O48  1  0.76434487  0.29931520  0.81613059  1
  O  O49  1  0.23565513  0.70068480  0.31613059  1
  O  O50  1  0.23565513  0.79931520  0.81613059  1
  O  O51  1  0.76434487  0.20068480  0.31613059  1
  O  O52  1  0.71223653  0.99351210  0.53234885  1
  O  O53  1  0.28776347  0.00648790  0.03234885  1
  O  O54  1  0.28776347  0.49351210  0.53234885  1
  O  O55  1  0.71223653  0.50648790  0.03234885  1
  O  O56  1  0.91505172  0.83351588  0.96602944  1
  O  O57  1  0.08494828  0.16648412  0.46602944  1
  O  O58  1  0.08494828  0.33351588  0.96602944  1
  O  O59  1  0.91505172  0.66648412  0.46602944  1
  O  O60  1  0.60609368  0.90629641  0.70639721  1
  O  O61  1  0.39390632  0.09370359  0.20639721  1
  O  O62  1  0.39390632  0.40629641  0.70639721  1
  O  O63  1  0.60609368  0.59370359  0.20639721  1
