# generated using pymatgen
data_Zr2CoMo3
_symmetry_space_group_name_H-M   'P 1'
_cell_length_a   5.22656036
_cell_length_b   5.22656036
_cell_length_c   5.35306212
_cell_angle_alpha   90.00000000
_cell_angle_beta   60.77869817
_cell_angle_gamma   120.00000000
_symmetry_Int_Tables_number   1
_chemical_formula_structural   Zr2CoMo3
_chemical_formula_sum   'Zr2 Co1 Mo3'
_cell_volume   104.60003744
_cell_formula_units_Z   1
loop_
 _symmetry_equiv_pos_site_id
 _symmetry_equiv_pos_as_xyz
  1  'x, y, z'
loop_
 _atom_site_type_symbol
 _atom_site_label
 _atom_site_symmetry_multiplicity
 _atom_site_fract_x
 _atom_site_fract_y
 _atom_site_fract_z
 _atom_site_occupancy
  Zr  Zr0  1  0.49674438  0.74837219  0.75488342  1
  Zr  Zr1  1  0.00325562  0.00162781  0.99511658  1
  Co  Co2  1  0.75000000  0.37500000  0.87500000  1
  Mo  Mo3  1  0.25000000  0.37500000  0.37500000  1
  Mo  Mo4  1  0.25000000  0.87500000  0.37500000  1
  Mo  Mo5  1  0.75000000  0.37500000  0.37500000  1
