# generated using pymatgen
data_Ca11Si4ClO18
_symmetry_space_group_name_H-M   'P 1'
_cell_length_a   8.70201066
_cell_length_b   8.70201066
_cell_length_c   8.70201066
_cell_angle_alpha   105.22783694
_cell_angle_beta   105.22783694
_cell_angle_gamma   118.33877764
_symmetry_Int_Tables_number   1
_chemical_formula_structural   Ca11Si4ClO18
_chemical_formula_sum   'Ca11 Si4 Cl1 O18'
_cell_volume   498.02726321
_cell_formula_units_Z   1
loop_
 _symmetry_equiv_pos_site_id
 _symmetry_equiv_pos_as_xyz
  1  'x, y, z'
loop_
 _atom_site_type_symbol
 _atom_site_label
 _atom_site_symmetry_multiplicity
 _atom_site_fract_x
 _atom_site_fract_y
 _atom_site_fract_z
 _atom_site_occupancy
  Ca  Ca0  1  0.70664016  0.45019239  0.74327988  1
  Ca  Ca1  1  0.70691251  0.96336027  0.25672012  1
  Ca  Ca2  1  0.03663973  0.29335984  0.74355224  1
  Ca  Ca3  1  0.29335984  0.03663973  0.74355224  1
  Ca  Ca4  1  0.54980761  0.29308749  0.25644776  1
  Ca  Ca5  1  0.29308749  0.54980761  0.25644776  1
  Ca  Ca6  1  0.96336027  0.70691251  0.25672012  1
  Ca  Ca7  1  0.45019239  0.70664016  0.74327988  1
  Ca  Ca8  1  -0.00000000  0.50000000  0.50000000  1
  Ca  Ca9  1  0.50000000  0.00000000  0.50000000  1
  Ca  Ca10  1  -0.00000000  0.00000000  0.00000000  1
  Si  Si11  1  0.21008821  0.21008821  0.42257345  1
  Si  Si12  1  0.78751475  0.78751475  0.57742655  1
  Si  Si13  1  0.21248525  0.78991179  -0.00000000  1
  Si  Si14  1  0.78991179  0.21248525  0.00000000  1
  Cl  Cl15  1  0.50000000  0.50000000  0.00000000  1
  O  O16  1  0.81457397  0.63258208  0.45200771  1
  O  O17  1  0.18057437  0.36256626  0.54799229  1
  O  O18  1  0.63743374  0.18542603  0.81800811  1
  O  O19  1  0.18542603  0.63743374  0.81800811  1
  O  O20  1  0.36741792  0.81942563  0.18199189  1
  O  O21  1  0.81942563  0.36741792  0.18199189  1
  O  O22  1  0.36256626  0.18057437  0.54799229  1
  O  O23  1  0.63258208  0.81457397  0.45200771  1
  O  O24  1  0.70826692  0.70826692  0.71373260  1
  O  O25  1  0.99453433  0.99453433  0.28626740  1
  O  O26  1  0.00546567  0.29173308  -0.00000000  1
  O  O27  1  0.29173308  0.00546567  0.00000000  1
  O  O28  1  0.75000000  0.25000000  0.50000000  1
  O  O29  1  0.25000000  0.75000000  0.50000000  1
  O  O30  1  0.29520293  0.29520293  0.29192564  1
  O  O31  1  0.00327729  0.00327729  0.70807436  1
  O  O32  1  0.99672271  0.70479707  0.00000000  1
  O  O33  1  0.70479707  0.99672271  0.00000000  1
