# generated using pymatgen
data_ZrAlFe
_symmetry_space_group_name_H-M   'P 1'
_cell_length_a   5.13145570
_cell_length_b   5.12492071
_cell_length_c   8.32133912
_cell_angle_alpha   90.00000000
_cell_angle_beta   90.00000000
_cell_angle_gamma   60.88873198
_symmetry_Int_Tables_number   1
_chemical_formula_structural   ZrAlFe
_chemical_formula_sum   'Zr4 Al4 Fe4'
_cell_volume   191.19284706
_cell_formula_units_Z   4
loop_
 _symmetry_equiv_pos_site_id
 _symmetry_equiv_pos_as_xyz
  1  'x, y, z'
loop_
 _atom_site_type_symbol
 _atom_site_label
 _atom_site_symmetry_multiplicity
 _atom_site_fract_x
 _atom_site_fract_y
 _atom_site_fract_z
 _atom_site_occupancy
  Zr  Zr0  1  0.33518205  0.33392054  0.54937844  1
  Zr  Zr1  1  0.67143374  0.67019043  0.42605363  1
  Zr  Zr2  1  0.67143374  0.67019043  0.07394637  1
  Zr  Zr3  1  0.33518205  0.33392054  0.95062156  1
  Al  Al4  1  0.99437651  0.99586095  0.48547059  1
  Al  Al5  1  0.99437651  0.99586095  0.01452941  1
  Al  Al6  1  0.83355764  0.34319275  0.75000000  1
  Al  Al7  1  0.34441022  0.83403319  0.75000000  1
  Fe  Fe8  1  0.83535207  0.83265413  0.75000000  1
  Fe  Fe9  1  0.17451051  0.64075840  0.25000000  1
  Fe  Fe10  1  0.64124924  0.17666760  0.25000000  1
  Fe  Fe11  1  0.16893571  0.17275010  0.25000000  1
