# generated using pymatgen
data_YbGeAu
_symmetry_space_group_name_H-M   'P 1'
_cell_length_a   4.50815242
_cell_length_b   5.79217735
_cell_length_c   5.73544163
_cell_angle_alpha   95.30331600
_cell_angle_beta   113.14181510
_cell_angle_gamma   67.09783857
_symmetry_Int_Tables_number   1
_chemical_formula_structural   YbGeAu
_chemical_formula_sum   'Yb2 Ge2 Au2'
_cell_volume   126.53321082
_cell_formula_units_Z   2
loop_
 _symmetry_equiv_pos_site_id
 _symmetry_equiv_pos_as_xyz
  1  'x, y, z'
loop_
 _atom_site_type_symbol
 _atom_site_label
 _atom_site_symmetry_multiplicity
 _atom_site_fract_x
 _atom_site_fract_y
 _atom_site_fract_z
 _atom_site_occupancy
  Yb  Yb0  1  0.76196091  0.70077588  0.22469771  1
  Yb  Yb1  1  0.23803909  0.29922412  0.77530229  1
  Ge  Ge2  1  0.05116298  0.10433468  0.20666063  1
  Ge  Ge3  1  0.94883702  0.89566532  0.79333937  1
  Au  Au4  1  0.54203284  0.27918526  0.36325094  1
  Au  Au5  1  0.45796716  0.72081474  0.63674906  1
