# generated using pymatgen
data_Zr3Fe(CuS4)2
_symmetry_space_group_name_H-M   'P 1'
_cell_length_a   7.31415691
_cell_length_b   7.18947469
_cell_length_c   7.31415691
_cell_angle_alpha   90.00000000
_cell_angle_beta   60.00000000
_cell_angle_gamma   120.57535708
_symmetry_Int_Tables_number   1
_chemical_formula_structural   Zr3Fe(CuS4)2
_chemical_formula_sum   'Zr3 Fe1 Cu2 S8'
_cell_volume   269.57437012
_cell_formula_units_Z   1
loop_
 _symmetry_equiv_pos_site_id
 _symmetry_equiv_pos_as_xyz
  1  'x, y, z'
loop_
 _atom_site_type_symbol
 _atom_site_label
 _atom_site_symmetry_multiplicity
 _atom_site_fract_x
 _atom_site_fract_y
 _atom_site_fract_z
 _atom_site_occupancy
  Zr  Zr0  1  0.50000000  0.50000000  0.50000000  1
  Zr  Zr1  1  -0.00000000  0.50000000  0.00000000  1
  Zr  Zr2  1  -0.00000000  0.50000000  0.50000000  1
  Fe  Fe3  1  0.50000000  -0.00000000  0.50000000  1
  Cu  Cu4  1  0.25743275  0.13614913  0.12128362  1
  Cu  Cu5  1  0.74256725  0.86385087  0.87871638  1
  S  S6  1  0.00188331  0.25282496  0.74905835  1
  S  S7  1  0.03045893  0.76730355  0.73477054  1
  S  S8  1  0.50207409  0.76730355  0.26315538  1
  S  S9  1  0.50207409  0.76730355  0.73477054  1
  S  S10  1  0.99811669  0.74717504  0.25094165  1
  S  S11  1  0.96954107  0.23269645  0.26522946  1
  S  S12  1  0.49792591  0.23269645  0.73684462  1
  S  S13  1  0.49792591  0.23269645  0.26522946  1
