# generated using pymatgen
data_AlIO
_symmetry_space_group_name_H-M   'P 1'
_cell_length_a   5.10442157
_cell_length_b   5.85117009
_cell_length_c   9.83070495
_cell_angle_alpha   90.00000000
_cell_angle_beta   90.00000000
_cell_angle_gamma   90.00000000
_symmetry_Int_Tables_number   1
_chemical_formula_structural   AlIO
_chemical_formula_sum   'Al4 I4 O4'
_cell_volume   293.61208020
_cell_formula_units_Z   4
loop_
 _symmetry_equiv_pos_site_id
 _symmetry_equiv_pos_as_xyz
  1  'x, y, z'
loop_
 _atom_site_type_symbol
 _atom_site_label
 _atom_site_symmetry_multiplicity
 _atom_site_fract_x
 _atom_site_fract_y
 _atom_site_fract_z
 _atom_site_occupancy
  Al  Al0  1  0.99040889  0.09879499  0.07629871  1
  Al  Al1  1  0.49040889  0.90120501  0.92370129  1
  Al  Al2  1  0.99040889  0.59879499  0.92370129  1
  Al  Al3  1  0.49040889  0.40120501  0.07629871  1
  I  I4  1  0.09243560  0.99853491  0.31579292  1
  I  I5  1  0.59243560  0.00146509  0.68420708  1
  I  I6  1  0.09243560  0.49853491  0.68420708  1
  I  I7  1  0.59243560  0.50146509  0.31579292  1
  O  O8  1  0.14615551  0.37198965  0.02758788  1
  O  O9  1  0.64615551  0.62801035  0.97241212  1
  O  O10  1  0.14615551  0.87198965  0.97241212  1
  O  O11  1  0.64615551  0.12801035  0.02758788  1
