# generated using pymatgen
data_TiMo2
_symmetry_space_group_name_H-M   'P 1'
_cell_length_a   2.78965635
_cell_length_b   2.78965635
_cell_length_c   6.83230929
_cell_angle_alpha   82.49618072
_cell_angle_beta   82.49618072
_cell_angle_gamma   111.11971027
_symmetry_Int_Tables_number   1
_chemical_formula_structural   TiMo2
_chemical_formula_sum   'Ti1 Mo2'
_cell_volume   48.25836146
_cell_formula_units_Z   1
loop_
 _symmetry_equiv_pos_site_id
 _symmetry_equiv_pos_as_xyz
  1  'x, y, z'
loop_
 _atom_site_type_symbol
 _atom_site_label
 _atom_site_symmetry_multiplicity
 _atom_site_fract_x
 _atom_site_fract_y
 _atom_site_fract_z
 _atom_site_occupancy
  Ti  Ti0  1  0.00000000  -0.00000000  -0.00000000  1
  Mo  Mo1  1  0.33158368  0.33158368  0.33683164  1
  Mo  Mo2  1  0.66841632  0.66841632  0.66316836  1
