# generated using pymatgen
data_Y2Ti12(CuO4)9
_symmetry_space_group_name_H-M   'P 1'
_cell_length_a   6.44781350
_cell_length_b   10.50053052
_cell_length_c   10.50053052
_cell_angle_alpha   60.00000000
_cell_angle_beta   90.00000000
_cell_angle_gamma   90.00000000
_symmetry_Int_Tables_number   1
_chemical_formula_structural   Y2Ti12(CuO4)9
_chemical_formula_sum   'Y2 Ti12 Cu9 O36'
_cell_volume   615.69493715
_cell_formula_units_Z   1
loop_
 _symmetry_equiv_pos_site_id
 _symmetry_equiv_pos_as_xyz
  1  'x, y, z'
loop_
 _atom_site_type_symbol
 _atom_site_label
 _atom_site_symmetry_multiplicity
 _atom_site_fract_x
 _atom_site_fract_y
 _atom_site_fract_z
 _atom_site_occupancy
  Y  Y0  1  0.00472183  -0.00000000  -0.00000000  1
  Y  Y1  1  0.66194517  0.33333300  0.33333300  1
  Ti  Ti2  1  0.83333300  0.16666700  0.16666700  1
  Ti  Ti3  1  0.49682919  0.50602753  0.50841938  1
  Ti  Ti4  1  0.16983781  0.82730547  0.82491362  1
  Ti  Ti5  1  0.17398248  0.33333300  0.33333300  1
  Ti  Ti6  1  0.83333300  0.66666700  0.66666700  1
  Ti  Ti7  1  0.49268452  0.00000000  -0.00000000  1
  Ti  Ti8  1  0.49682919  0.50841938  0.98555309  1
  Ti  Ti9  1  0.16983781  0.82491362  0.34777991  1
  Ti  Ti10  1  0.83333300  0.16666700  0.66666700  1
  Ti  Ti11  1  0.16983781  0.34777991  0.82730547  1
  Ti  Ti12  1  0.83333300  0.66666700  0.16666700  1
  Ti  Ti13  1  0.49682919  0.98555309  0.50602753  1
  Cu  Cu14  1  0.99624499  0.49889777  0.49887066  1
  Cu  Cu15  1  0.67042201  0.83443523  0.83446234  1
  Cu  Cu16  1  0.33333300  0.16666700  0.16666700  1
  Cu  Cu17  1  0.67042201  0.33110143  0.83443523  1
  Cu  Cu18  1  0.33333300  0.66666700  0.16666700  1
  Cu  Cu19  1  0.99624499  0.00223157  0.49889777  1
  Cu  Cu20  1  0.33333300  0.16666700  0.66666700  1
  Cu  Cu21  1  0.99624499  0.49887066  0.00223157  1
  Cu  Cu22  1  0.67042201  0.83446234  0.33110143  1
  O  O23  1  0.24570052  0.44194479  0.62281703  1
  O  O24  1  0.91856532  0.78458389  0.95905483  1
  O  O25  1  0.58386886  0.11779211  0.29220384  1
  O  O26  1  0.35100812  0.35012186  0.17597712  1
  O  O27  1  0.00396523  0.68406721  0.50256256  1
  O  O28  1  0.68636504  0.01648216  0.84294275  1
  O  O29  1  0.98030196  0.31685084  0.49039025  1
  O  O30  1  0.66270077  0.64926679  0.83077144  1
  O  O31  1  0.31565888  0.98321114  0.15735588  1
  O  O32  1  0.08279714  0.21554189  0.04113016  1
  O  O33  1  0.74810168  0.54874911  0.37427817  1
  O  O34  1  0.42096648  0.89138821  0.71051597  1
  O  O35  1  0.42096648  0.39809483  0.89138821  1
  O  O36  1  0.08279714  0.74332894  0.21554189  1
  O  O37  1  0.74810168  0.07697272  0.54874911  1
  O  O38  1  0.66270077  0.51996277  0.64926679  1
  O  O39  1  0.31565888  0.85943298  0.98321114  1
  O  O40  1  0.98030196  0.19275791  0.31685084  1
  O  O41  1  0.68636504  0.14057509  0.01648216  1
  O  O42  1  0.35100812  0.47390002  0.35012186  1
  O  O43  1  0.00396523  0.81337123  0.68406721  1
  O  O44  1  0.91856532  0.25636028  0.78458389  1
  O  O45  1  0.58386886  0.59000506  0.11779211  1
  O  O46  1  0.24570052  0.93523817  0.44194479  1
  O  O47  1  0.00396523  0.50256256  0.81337123  1
  O  O48  1  0.68636504  0.84294275  0.14057509  1
  O  O49  1  0.35100812  0.17597712  0.47390002  1
  O  O50  1  0.58386886  0.29220384  0.59000506  1
  O  O51  1  0.24570052  0.62281703  0.93523817  1
  O  O52  1  0.91856532  0.95905483  0.25636028  1
  O  O53  1  0.74810168  0.37427817  0.07697272  1
  O  O54  1  0.42096648  0.71051597  0.39809483  1
  O  O55  1  0.08279714  0.04113016  0.74332894  1
  O  O56  1  0.31565888  0.15735588  0.85943298  1
  O  O57  1  0.98030196  0.49039025  0.19275791  1
  O  O58  1  0.66270077  0.83077144  0.51996277  1
