# generated using pymatgen
data_Ti3NbNi2(PO4)6
_symmetry_space_group_name_H-M   'P 1'
_cell_length_a   8.63109061
_cell_length_b   8.63109039
_cell_length_c   8.63109044
_cell_angle_alpha   60.68437633
_cell_angle_beta   60.68436991
_cell_angle_gamma   60.68437847
_symmetry_Int_Tables_number   1
_chemical_formula_structural   Ti3NbNi2(PO4)6
_chemical_formula_sum   'Ti3 Nb1 Ni2 P6 O24'
_cell_volume   461.67857831
_cell_formula_units_Z   1
loop_
 _symmetry_equiv_pos_site_id
 _symmetry_equiv_pos_as_xyz
  1  'x, y, z'
loop_
 _atom_site_type_symbol
 _atom_site_label
 _atom_site_symmetry_multiplicity
 _atom_site_fract_x
 _atom_site_fract_y
 _atom_site_fract_z
 _atom_site_occupancy
  Ti  Ti0  1  0.14199753  0.14199753  0.14199753  1
  Ti  Ti1  1  0.35491100  0.35491100  0.35491100  1
  Ti  Ti2  1  0.64577614  0.64577614  0.64577614  1
  Nb  Nb3  1  0.85934704  0.85934704  0.85934704  1
  Ni  Ni4  1  0.00138775  0.00138775  0.00138775  1
  Ni  Ni5  1  0.49982880  0.49982880  0.49982880  1
  P  P6  1  0.04872273  0.74824792  0.45434920  1
  P  P7  1  0.45434920  0.04872273  0.74824792  1
  P  P8  1  0.25736997  0.53483291  0.95334205  1
  P  P9  1  0.53483291  0.95334205  0.25736997  1
  P  P10  1  0.95334205  0.25736997  0.53483291  1
  P  P11  1  0.74824792  0.45434920  0.04872273  1
  O  O12  1  0.11077738  0.32131693  0.49531398  1
  O  O13  1  0.32131693  0.49531398  0.11077738  1
  O  O14  1  0.06388546  0.90956296  0.26576689  1
  O  O15  1  0.49531398  0.11077738  0.32131693  1
  O  O16  1  0.00511812  0.81237608  0.61468834  1
  O  O17  1  0.24155954  0.58622856  0.44355966  1
  O  O18  1  0.26576689  0.06388546  0.90956296  1
  O  O19  1  0.44355966  0.24155954  0.58622856  1
  O  O20  1  0.18927368  0.37933583  0.99830529  1
  O  O21  1  0.58622856  0.44355966  0.24155954  1
  O  O22  1  0.09632706  0.72828393  0.93659978  1
  O  O23  1  0.37933583  0.99830529  0.18927368  1
  O  O24  1  0.61468834  0.00511812  0.81237608  1
  O  O25  1  0.90956296  0.26576689  0.06388546  1
  O  O26  1  0.41718068  0.55171491  0.75862715  1
  O  O27  1  0.81237608  0.61468834  0.00511812  1
  O  O28  1  0.55171491  0.75862715  0.41718068  1
  O  O29  1  0.72828393  0.93659978  0.09632706  1
  O  O30  1  0.75862715  0.41718068  0.55171491  1
  O  O31  1  0.99830529  0.18927368  0.37933583  1
  O  O32  1  0.50216206  0.88706035  0.68486336  1
  O  O33  1  0.93659978  0.09632706  0.72828393  1
  O  O34  1  0.68486336  0.50216206  0.88706035  1
  O  O35  1  0.88706035  0.68486336  0.50216206  1
