# generated using pymatgen
data_Zr2P7Rh12
_symmetry_space_group_name_H-M   'P 1'
_cell_length_a   3.82605968
_cell_length_b   9.57299123
_cell_length_c   9.57346591
_cell_angle_alpha   59.99848666
_cell_angle_beta   89.99725214
_cell_angle_gamma   90.00174421
_symmetry_Int_Tables_number   1
_chemical_formula_structural   Zr2P7Rh12
_chemical_formula_sum   'Zr2 P7 Rh12'
_cell_volume   303.66350752
_cell_formula_units_Z   1
loop_
 _symmetry_equiv_pos_site_id
 _symmetry_equiv_pos_as_xyz
  1  'x, y, z'
loop_
 _atom_site_type_symbol
 _atom_site_label
 _atom_site_symmetry_multiplicity
 _atom_site_fract_x
 _atom_site_fract_y
 _atom_site_fract_z
 _atom_site_occupancy
  Zr  Zr0  1  0.75486318  0.33340672  0.33330050  1
  Zr  Zr1  1  0.24513682  0.66659328  0.66669950  1
  P  P2  1  0.50000000  0.00000000  -0.00000000  1
  P  P3  1  0.75376947  0.87862503  0.71506486  1
  P  P4  1  0.75365240  0.40618412  0.87868837  1
  P  P5  1  0.75367190  0.71508970  0.40624960  1
  P  P6  1  0.24623053  0.12137497  0.28493514  1
  P  P7  1  0.24634760  0.59381588  0.12131163  1
  P  P8  1  0.24632810  0.28491030  0.59375040  1
  Rh  Rh9  1  0.75020960  0.61769482  0.92518265  1
  Rh  Rh10  1  0.75033283  0.45720152  0.61757267  1
  Rh  Rh11  1  0.75017367  0.92526981  0.45710066  1
  Rh  Rh12  1  0.24979040  0.38230518  0.07481735  1
  Rh  Rh13  1  0.24966717  0.54279848  0.38242733  1
  Rh  Rh14  1  0.24982633  0.07473019  0.54289934  1
  Rh  Rh15  1  0.75080168  0.11219445  0.73540936  1
  Rh  Rh16  1  0.75076218  0.15242794  0.11216481  1
  Rh  Rh17  1  0.75092238  0.73538742  0.15250337  1
  Rh  Rh18  1  0.24919832  0.88780555  0.26459064  1
  Rh  Rh19  1  0.24923782  0.84757206  0.88783519  1
  Rh  Rh20  1  0.24907762  0.26461258  0.84749663  1
