# generated using pymatgen
data_VCuSnS4
_symmetry_space_group_name_H-M   'P 1'
_cell_length_a   7.28047064
_cell_length_b   7.01888056
_cell_length_c   7.39708347
_cell_angle_alpha   90.00000000
_cell_angle_beta   59.46872529
_cell_angle_gamma   118.81838317
_symmetry_Int_Tables_number   1
_chemical_formula_structural   VCuSnS4
_chemical_formula_sum   'V2 Cu2 Sn2 S8'
_cell_volume   269.82962158
_cell_formula_units_Z   2
loop_
 _symmetry_equiv_pos_site_id
 _symmetry_equiv_pos_as_xyz
  1  'x, y, z'
loop_
 _atom_site_type_symbol
 _atom_site_label
 _atom_site_symmetry_multiplicity
 _atom_site_fract_x
 _atom_site_fract_y
 _atom_site_fract_z
 _atom_site_occupancy
  V  V0  1  0.50000000  0.50000000  0.00000000  1
  V  V1  1  0.50000000  -0.00000000  0.00000000  1
  Cu  Cu2  1  0.73556647  0.36778324  0.38221676  1
  Cu  Cu3  1  0.26443353  0.63221676  0.61778324  1
  Sn  Sn4  1  -0.00000000  -0.00000000  0.50000000  1
  Sn  Sn5  1  -0.00000000  -0.00000000  0.00000000  1
  S  S6  1  0.02922580  0.76018863  0.23538710  1
  S  S7  1  0.02922580  0.26903717  0.23538710  1
  S  S8  1  0.49942110  0.24971055  0.76824778  1
  S  S9  1  0.49942110  0.24971055  0.23233112  1
  S  S10  1  0.97077420  0.23981137  0.76461290  1
  S  S11  1  0.97077420  0.73096283  0.76461290  1
  S  S12  1  0.50057890  0.75028945  0.23175222  1
  S  S13  1  0.50057890  0.75028945  0.76766888  1
