# generated using pymatgen
data_SrPrScO4
_symmetry_space_group_name_H-M   'P 1'
_cell_length_a   4.04372843
_cell_length_b   4.04372843
_cell_length_c   6.92509336
_cell_angle_alpha   73.02454011
_cell_angle_beta   73.02454011
_cell_angle_gamma   90.00000000
_symmetry_Int_Tables_number   1
_chemical_formula_structural   SrPrScO4
_chemical_formula_sum   'Sr1 Pr1 Sc1 O4'
_cell_volume   103.13404514
_cell_formula_units_Z   1
loop_
 _symmetry_equiv_pos_site_id
 _symmetry_equiv_pos_as_xyz
  1  'x, y, z'
loop_
 _atom_site_type_symbol
 _atom_site_label
 _atom_site_symmetry_multiplicity
 _atom_site_fract_x
 _atom_site_fract_y
 _atom_site_fract_z
 _atom_site_occupancy
  Sr  Sr0  1  0.35320718  0.35320718  0.29358563  1
  Pr  Pr1  1  0.63891411  0.63891411  0.72217177  1
  Sc  Sc2  1  0.99508678  0.99508678  0.00982643  1
  O  O3  1  0.01000659  0.51000659  0.97998682  1
  O  O4  1  0.51000659  0.01000659  0.97998682  1
  O  O5  1  0.16877886  0.16877886  0.66244227  1
  O  O6  1  0.82399988  0.82399988  0.35200025  1
