# generated using pymatgen
data_TaCuS2
_symmetry_space_group_name_H-M   'P 1'
_cell_length_a   3.37108059
_cell_length_b   3.37110920
_cell_length_c   13.33130039
_cell_angle_alpha   90.00000000
_cell_angle_beta   90.00000000
_cell_angle_gamma   59.99970983
_symmetry_Int_Tables_number   1
_chemical_formula_structural   TaCuS2
_chemical_formula_sum   'Ta2 Cu2 S4'
_cell_volume   131.20302021
_cell_formula_units_Z   2
loop_
 _symmetry_equiv_pos_site_id
 _symmetry_equiv_pos_as_xyz
  1  'x, y, z'
loop_
 _atom_site_type_symbol
 _atom_site_label
 _atom_site_symmetry_multiplicity
 _atom_site_fract_x
 _atom_site_fract_y
 _atom_site_fract_z
 _atom_site_occupancy
  Ta  Ta0  1  0.33333445  0.33333278  0.25398442  1
  Ta  Ta1  1  0.66666555  0.66666722  0.75398442  1
  Cu  Cu2  1  0.33337548  0.33331226  0.03617685  1
  Cu  Cu3  1  0.66662452  0.66668774  0.53617685  1
  S  S4  1  0.33332446  0.33333777  0.63362663  1
  S  S5  1  0.66666217  0.66666891  0.37021210  1
  S  S6  1  0.66667554  0.66666223  0.13362663  1
  S  S7  1  0.33333783  0.33333109  0.87021210  1
