# generated using pymatgen
data_Ta2VC2
_symmetry_space_group_name_H-M   'P 1'
_cell_length_a   3.10178704
_cell_length_b   3.10178704
_cell_length_c   7.44731599
_cell_angle_alpha   89.99999354
_cell_angle_beta   102.01973053
_cell_angle_gamma   59.99999627
_symmetry_Int_Tables_number   1
_chemical_formula_structural   Ta2VC2
_chemical_formula_sum   'Ta2 V1 C2'
_cell_volume   60.23106337
_cell_formula_units_Z   1
loop_
 _symmetry_equiv_pos_site_id
 _symmetry_equiv_pos_as_xyz
  1  'x, y, z'
loop_
 _atom_site_type_symbol
 _atom_site_label
 _atom_site_symmetry_multiplicity
 _atom_site_fract_x
 _atom_site_fract_y
 _atom_site_fract_z
 _atom_site_occupancy
  Ta  Ta0  1  0.55298224  0.22350888  0.32947337  1
  Ta  Ta1  1  0.44701776  0.77649112  0.67052663  1
  V  V2  1  -0.00000000  0.00000000  -0.00000000  1
  C  C3  1  0.22290970  0.38854515  0.83436455  1
  C  C4  1  0.77709030  0.61145485  0.16563545  1
