# generated using pymatgen
data_Tm9B5S21
_symmetry_space_group_name_H-M   'P 1'
_cell_length_a   11.08006899
_cell_length_b   11.08008365
_cell_length_c   11.08004677
_cell_angle_alpha   93.83358316
_cell_angle_beta   86.16629317
_cell_angle_gamma   86.16613756
_symmetry_Int_Tables_number   1
_chemical_formula_structural   Tm9B5S21
_chemical_formula_sum   'Tm18 B10 S42'
_cell_volume   1350.71453149
_cell_formula_units_Z   2
loop_
 _symmetry_equiv_pos_site_id
 _symmetry_equiv_pos_as_xyz
  1  'x, y, z'
loop_
 _atom_site_type_symbol
 _atom_site_label
 _atom_site_symmetry_multiplicity
 _atom_site_fract_x
 _atom_site_fract_y
 _atom_site_fract_z
 _atom_site_occupancy
  Tm  Tm0  1  0.92267379  0.23877410  0.46757654  1
  Tm  Tm1  1  0.55520779  0.58404458  0.80230132  1
  Tm  Tm2  1  0.23987353  0.91562051  0.14975375  1
  Tm  Tm3  1  0.19770098  0.44479352  0.58404842  1
  Tm  Tm4  1  0.85024859  0.76012445  0.91562146  1
  Tm  Tm5  1  0.53242302  0.07732362  0.23877939  1
  Tm  Tm6  1  0.08438122  0.14975291  0.76012690  1
  Tm  Tm7  1  0.76122497  0.46757538  0.07732412  1
  Tm  Tm8  1  0.41595192  0.80229697  0.44479555  1
  Tm  Tm9  1  0.72234535  0.13388352  0.91968206  1
  Tm  Tm10  1  0.37618411  0.46672048  0.23379545  1
  Tm  Tm11  1  0.05690320  0.78847548  0.55345351  1
  Tm  Tm12  1  0.44654561  0.94309852  0.78847221  1
  Tm  Tm13  1  0.08031409  0.27765708  0.13388159  1
  Tm  Tm14  1  0.76620237  0.62381985  0.46671998  1
  Tm  Tm15  1  0.53328226  0.23379558  0.62381573  1
  Tm  Tm16  1  0.21152744  0.55345427  0.94309482  1
  Tm  Tm17  1  0.86611654  0.91968780  0.27765374  1
  B  B18  1  0.76013785  0.91494758  0.57801969  1
  B  B19  1  0.42197936  0.23986238  0.91494921  1
  B  B20  1  0.08504979  0.57801965  0.23986158  1
  B  B21  1  0.58595851  0.73893879  0.07961125  1
  B  B22  1  0.26106075  0.07961258  0.41404192  1
  B  B23  1  0.92038849  0.41404241  0.73893776  1
  B  B24  1  0.02130717  0.97869213  0.97869306  1
  B  B25  1  0.69543425  0.30456509  0.30456639  1
  B  B26  1  0.19500403  0.80499881  0.80499876  1
  B  B27  1  0.52157386  0.47842603  0.47842390  1
  S  S28  1  0.68357596  0.85908947  0.43239811  1
  S  S29  1  0.34642917  0.18030950  0.77082439  1
  S  S30  1  0.01135578  0.52067264  0.09505550  1
  S  S31  1  0.90494172  0.98864216  0.52066847  1
  S  S32  1  0.56760166  0.31642267  0.85908769  1
  S  S33  1  0.22917151  0.65357126  0.18030663  1
  S  S34  1  0.81969501  0.77082462  0.65356940  1
  S  S35  1  0.47933085  0.09505637  0.98864177  1
  S  S36  1  0.14091348  0.43239848  0.31642231  1
  S  S37  1  0.74587970  0.71056921  0.13828597  1
  S  S38  1  0.42077034  0.04986408  0.47451192  1
  S  S39  1  0.08034184  0.39012733  0.80040864  1
  S  S40  1  0.52549440  0.57922682  0.04986559  1
  S  S41  1  0.19959356  0.91965798  0.39012844  1
  S  S42  1  0.86171580  0.25411976  0.71057061  1
  S  S43  1  0.60987392  0.80040430  0.91965425  1
  S  S44  1  0.28943137  0.13828418  0.25411961  1
  S  S45  1  0.95013590  0.47450394  0.57922621  1
  S  S46  1  0.97213197  0.69104081  0.34446613  1
  S  S47  1  0.65553463  0.02786740  0.69104268  1
  S  S48  1  0.30895741  0.34446663  0.02787021  1
  S  S49  1  0.47337804  0.84340732  0.19315512  1
  S  S50  1  0.15659073  0.19315691  0.52662157  1
  S  S51  1  0.80684421  0.52662216  0.84340559  1
  S  S52  1  0.50844644  0.75043398  0.64659127  1
  S  S53  1  0.14941725  0.07416731  0.98237290  1
  S  S54  1  0.81842940  0.40599748  0.31231080  1
  S  S55  1  0.68768886  0.18157067  0.40599921  1
  S  S56  1  0.35340966  0.49155750  0.75043515  1
  S  S57  1  0.01762882  0.85058252  0.07416697  1
  S  S58  1  0.92583524  0.98237087  0.85058325  1
  S  S59  1  0.59400521  0.31230903  0.18157214  1
  S  S60  1  0.24956376  0.64659014  0.49155767  1
  S  S61  1  0.73373018  0.00744482  0.11395073  1
  S  S62  1  0.41252872  0.36385110  0.45549528  1
  S  S63  1  0.08089821  0.69485900  0.78693479  1
  S  S64  1  0.54450353  0.58746846  0.36384877  1
  S  S65  1  0.21306552  0.91910305  0.69485808  1
  S  S66  1  0.88604938  0.26626652  0.00744459  1
  S  S67  1  0.30513990  0.78693715  0.91910304  1
  S  S68  1  0.99255447  0.11395128  0.26626600  1
  S  S69  1  0.63614969  0.45549507  0.58746849  1
