# generated using pymatgen
data_Ti3VS4
_symmetry_space_group_name_H-M   'P 1'
_cell_length_a   3.25082500
_cell_length_b   5.61024737
_cell_length_c   6.37541058
_cell_angle_alpha   89.98961761
_cell_angle_beta   90.00340865
_cell_angle_gamma   89.98957936
_symmetry_Int_Tables_number   1
_chemical_formula_structural   Ti3VS4
_chemical_formula_sum   'Ti3 V1 S4'
_cell_volume   116.27430327
_cell_formula_units_Z   1
loop_
 _symmetry_equiv_pos_site_id
 _symmetry_equiv_pos_as_xyz
  1  'x, y, z'
loop_
 _atom_site_type_symbol
 _atom_site_label
 _atom_site_symmetry_multiplicity
 _atom_site_fract_x
 _atom_site_fract_y
 _atom_site_fract_z
 _atom_site_occupancy
  Ti  Ti0  1  0.50000000  0.50000000  0.50000000  1
  Ti  Ti1  1  -0.00000000  -0.00000000  0.00000000  1
  Ti  Ti2  1  0.50000000  0.50000000  0.00000000  1
  V  V3  1  -0.00000000  -0.00000000  0.50000000  1
  S  S4  1  0.50003674  0.16297636  0.74588697  1
  S  S5  1  0.00001515  0.66970881  0.74748712  1
  S  S6  1  0.99998485  0.33029119  0.25251288  1
  S  S7  1  0.49996326  0.83702364  0.25411303  1
