# generated using pymatgen
data_Tb2Mg5Ag
_symmetry_space_group_name_H-M   'P 1'
_cell_length_a   5.09325808
_cell_length_b   5.09325808
_cell_length_c   8.78549939
_cell_angle_alpha   73.14998800
_cell_angle_beta   90.00000000
_cell_angle_gamma   120.00000000
_symmetry_Int_Tables_number   1
_chemical_formula_structural   Tb2Mg5Ag
_chemical_formula_sum   'Tb2 Mg5 Ag1'
_cell_volume   185.98906749
_cell_formula_units_Z   1
loop_
 _symmetry_equiv_pos_site_id
 _symmetry_equiv_pos_as_xyz
  1  'x, y, z'
loop_
 _atom_site_type_symbol
 _atom_site_label
 _atom_site_symmetry_multiplicity
 _atom_site_fract_x
 _atom_site_fract_y
 _atom_site_fract_z
 _atom_site_occupancy
  Tb  Tb0  1  0.24814332  0.49628664  0.25557003  1
  Tb  Tb1  1  0.75185668  0.50371336  0.74442997  1
  Mg  Mg2  1  0.62746139  0.25492278  0.11761583  1
  Mg  Mg3  1  0.12225886  0.24451772  0.63322342  1
  Mg  Mg4  1  0.87774114  0.75548228  0.36677658  1
  Mg  Mg5  1  0.37253861  0.74507722  0.88238417  1
  Mg  Mg6  1  0.50000000  -0.00000000  0.50000000  1
  Ag  Ag7  1  -0.00000000  -0.00000000  0.00000000  1
