# generated using pymatgen
data_U2MnFeSe6
_symmetry_space_group_name_H-M   'P 1'
_cell_length_a   3.89132183
_cell_length_b   6.29357757
_cell_length_c   9.34329045
_cell_angle_alpha   90.17611279
_cell_angle_beta   90.00000000
_cell_angle_gamma   71.99197345
_symmetry_Int_Tables_number   1
_chemical_formula_structural   U2MnFeSe6
_chemical_formula_sum   'U2 Mn1 Fe1 Se6'
_cell_volume   217.61001253
_cell_formula_units_Z   1
loop_
 _symmetry_equiv_pos_site_id
 _symmetry_equiv_pos_as_xyz
  1  'x, y, z'
loop_
 _atom_site_type_symbol
 _atom_site_label
 _atom_site_symmetry_multiplicity
 _atom_site_fract_x
 _atom_site_fract_y
 _atom_site_fract_z
 _atom_site_occupancy
  U  U0  1  0.73722274  0.52555451  0.25596917  1
  U  U1  1  0.26277726  0.47444549  0.74403083  1
  Mn  Mn2  1  0.50000000  -0.00000000  -0.00000000  1
  Fe  Fe3  1  0.50000000  -0.00000000  0.50000000  1
  Se  Se4  1  0.14424098  0.71151804  0.05355068  1
  Se  Se5  1  0.85575902  0.28848196  0.94644932  1
  Se  Se6  1  0.13655801  0.72688397  0.44939117  1
  Se  Se7  1  0.86344199  0.27311603  0.55060883  1
  Se  Se8  1  0.41669810  0.16660381  0.25265276  1
  Se  Se9  1  0.58330190  0.83339619  0.74734724  1
