# generated using pymatgen
data_Th8(Al21Fe2)3
_symmetry_space_group_name_H-M   'P 1'
_cell_length_a   8.29750156
_cell_length_b   9.71286433
_cell_length_c   17.31239920
_cell_angle_alpha   86.07784234
_cell_angle_beta   89.99998622
_cell_angle_gamma   90.00000618
_symmetry_Int_Tables_number   1
_chemical_formula_structural   Th8(Al21Fe2)3
_chemical_formula_sum   'Th8 Al63 Fe6'
_cell_volume   1391.98183931
_cell_formula_units_Z   1
loop_
 _symmetry_equiv_pos_site_id
 _symmetry_equiv_pos_as_xyz
  1  'x, y, z'
loop_
 _atom_site_type_symbol
 _atom_site_label
 _atom_site_symmetry_multiplicity
 _atom_site_fract_x
 _atom_site_fract_y
 _atom_site_fract_z
 _atom_site_occupancy
  Th  Th0  1  0.50000001  0.93634818  0.35305982  1
  Th  Th1  1  0.50000104  0.44599131  0.85245590  1
  Th  Th2  1  0.49999957  0.56539385  0.14876899  1
  Th  Th3  1  0.50000031  0.06363202  0.65283668  1
  Th  Th4  1  -0.00000100  0.95508559  0.34741135  1
  Th  Th5  1  -0.00000111  0.45060049  0.84808590  1
  Th  Th6  1  0.00000035  0.55059904  0.14534802  1
  Th  Th7  1  -0.00000071  0.04747005  0.65188517  1
  Al  Al8  1  0.73738511  0.75181755  0.24907875  1
  Al  Al9  1  0.74292011  0.24776844  0.75432337  1
  Al  Al10  1  0.25366406  0.50575428  0.99879599  1
  Al  Al11  1  0.26530901  0.00047455  0.50121335  1
  Al  Al12  1  0.26261620  0.75181888  0.24907783  1
  Al  Al13  1  0.25708080  0.24776856  0.75432330  1
  Al  Al14  1  0.74633593  0.50575393  0.99879583  1
  Al  Al15  1  0.73469083  0.00047516  0.50121300  1
  Al  Al16  1  0.76184161  0.72672223  0.42396436  1
  Al  Al17  1  0.75891280  0.23809804  0.92235973  1
  Al  Al18  1  0.74575707  0.77697032  0.07526665  1
  Al  Al19  1  0.75777214  0.26895884  0.57607161  1
  Al  Al20  1  0.25424196  0.77697172  0.07526536  1
  Al  Al21  1  0.24222745  0.26895898  0.57607149  1
  Al  Al22  1  0.23816004  0.72672300  0.42396505  1
  Al  Al23  1  0.24108670  0.23809848  0.92235925  1
  Al  Al24  1  0.73972921  0.05141255  0.22098822  1
  Al  Al25  1  0.74371944  0.54971646  0.72025582  1
  Al  Al26  1  0.74328941  0.45110638  0.27832177  1
  Al  Al27  1  0.74774962  0.94677087  0.78052308  1
  Al  Al28  1  0.26128152  0.31206949  0.13372535  1
  Al  Al29  1  0.26047512  0.80719522  0.63570611  1
  Al  Al30  1  0.25976403  0.19293926  0.36371262  1
  Al  Al31  1  0.24740803  0.69798541  0.86215986  1
  Al  Al32  1  0.25671080  0.45110613  0.27832177  1
  Al  Al33  1  0.25225018  0.94677128  0.78052312  1
  Al  Al34  1  0.26027049  0.05141418  0.22098865  1
  Al  Al35  1  0.25628067  0.54971659  0.72025580  1
  Al  Al36  1  0.74023528  0.19293863  0.36371237  1
  Al  Al37  1  0.75259199  0.69798485  0.86215951  1
  Al  Al38  1  0.73871781  0.31206813  0.13372516  1
  Al  Al39  1  0.73952593  0.80719479  0.63570621  1
  Al  Al40  1  0.49999832  0.89059385  0.16073036  1
  Al  Al41  1  0.50000053  0.38386649  0.65775752  1
  Al  Al42  1  0.50000061  0.61315183  0.34575388  1
  Al  Al43  1  0.49999966  0.10988816  0.85762291  1
  Al  Al44  1  0.49999945  0.28749251  0.01790526  1
  Al  Al45  1  0.50000004  0.78833229  0.52279096  1
  Al  Al46  1  0.50000027  0.20937560  0.47863425  1
  Al  Al47  1  0.50000040  0.69564385  0.97220435  1
  Al  Al48  1  0.27388773  0.07273918  0.05847164  1
  Al  Al49  1  0.28573650  0.56139225  0.56297689  1
  Al  Al50  1  0.28733501  0.43369469  0.43885548  1
  Al  Al51  1  0.24449349  0.93677978  0.93305877  1
  Al  Al52  1  0.72611117  0.07273796  0.05847213  1
  Al  Al53  1  0.71426372  0.56139185  0.56297706  1
  Al  Al54  1  0.71266466  0.43369416  0.43885556  1
  Al  Al55  1  0.75550398  0.93677776  0.93305954  1
  Al  Al56  1  0.50000031  0.25262793  0.24739894  1
  Al  Al57  1  0.49999955  0.75274248  0.75176791  1
  Al  Al58  1  -0.00000015  0.86324450  0.16827384  1
  Al  Al59  1  0.99999958  0.36404992  0.66780472  1
  Al  Al60  1  0.00000224  0.64180802  0.32331353  1
  Al  Al61  1  0.99999971  0.10969630  0.84478157  1
  Al  Al62  1  0.00000003  0.31300977  0.01813469  1
  Al  Al63  1  0.00000000  0.82883624  0.51704424  1
  Al  Al64  1  -0.00000010  0.17633693  0.48063718  1
  Al  Al65  1  0.99999881  0.71783756  0.97819439  1
  Al  Al66  1  0.99999939  0.25829160  0.25324749  1
  Al  Al67  1  0.00000015  0.74926188  0.74549903  1
  Al  Al68  1  0.99999898  0.12561455  0.13229768  1
  Al  Al69  1  -0.00000010  0.62442000  0.62102888  1
  Al  Al70  1  0.99999982  0.38466261  0.37841278  1
  Fe  Fe71  1  0.50000014  0.14088241  0.13708532  1
  Fe  Fe72  1  0.50000136  0.63631073  0.64296277  1
  Fe  Fe73  1  0.50000450  0.36055185  0.35809061  1
  Fe  Fe74  1  0.50000181  0.86214045  0.86263005  1
  Fe  Fe75  1  0.99999974  0.86064174  0.85891721  1
  Fe  Fe76  1  0.49999887  0.92283658  0.01956840  1
