# generated using pymatgen
data_Sr2LiLaTi4O12
_symmetry_space_group_name_H-M   'P 1'
_cell_length_a   5.54934815
_cell_length_b   5.54934815
_cell_length_c   8.77199099
_cell_angle_alpha   71.56004599
_cell_angle_beta   71.56004599
_cell_angle_gamma   90.00000000
_symmetry_Int_Tables_number   1
_chemical_formula_structural   Sr2LiLaTi4O12
_chemical_formula_sum   'Sr2 Li1 La1 Ti4 O12'
_cell_volume   241.60096015
_cell_formula_units_Z   1
loop_
 _symmetry_equiv_pos_site_id
 _symmetry_equiv_pos_as_xyz
  1  'x, y, z'
loop_
 _atom_site_type_symbol
 _atom_site_label
 _atom_site_symmetry_multiplicity
 _atom_site_fract_x
 _atom_site_fract_y
 _atom_site_fract_z
 _atom_site_occupancy
  Sr  Sr0  1  0.75172666  0.75172666  0.49654667  1
  Sr  Sr1  1  0.24827334  0.24827334  0.50345333  1
  Li  Li2  1  -0.00000000  0.00000000  -0.00000000  1
  La  La3  1  0.50000000  0.50000000  0.00000000  1
  Ti  Ti4  1  0.62372866  0.12372866  0.75254268  1
  Ti  Ti5  1  0.37627134  0.87627134  0.24745732  1
  Ti  Ti6  1  0.12372866  0.62372866  0.75254268  1
  Ti  Ti7  1  0.87627134  0.37627134  0.24745732  1
  O  O8  1  0.86704271  0.37977161  0.75318567  1
  O  O9  1  0.62022839  0.13295729  0.24681433  1
  O  O10  1  0.37977161  0.86704271  0.75318567  1
  O  O11  1  0.13295729  0.62022839  0.24681433  1
  O  O12  1  0.75000000  0.25000000  0.50000000  1
  O  O13  1  0.50000000  0.00000000  0.00000000  1
  O  O14  1  0.25000000  0.75000000  0.50000000  1
  O  O15  1  -0.00000000  0.50000000  0.00000000  1
  O  O16  1  0.37977161  0.37977161  0.75318567  1
  O  O17  1  0.13295729  0.13295729  0.24681433  1
  O  O18  1  0.86704271  0.86704271  0.75318567  1
  O  O19  1  0.62022839  0.62022839  0.24681433  1
