# generated using pymatgen
data_Sr3Y2FeCu3BiO12
_symmetry_space_group_name_H-M   'P 1'
_cell_length_a   5.41346405
_cell_length_b   5.41324167
_cell_length_c   10.37331415
_cell_angle_alpha   90.00000000
_cell_angle_beta   74.87461957
_cell_angle_gamma   90.00000000
_symmetry_Int_Tables_number   1
_chemical_formula_structural   Sr3Y2FeCu3BiO12
_chemical_formula_sum   'Sr3 Y2 Fe1 Cu3 Bi1 O12'
_cell_volume   293.45277203
_cell_formula_units_Z   1
loop_
 _symmetry_equiv_pos_site_id
 _symmetry_equiv_pos_as_xyz
  1  'x, y, z'
loop_
 _atom_site_type_symbol
 _atom_site_label
 _atom_site_symmetry_multiplicity
 _atom_site_fract_x
 _atom_site_fract_y
 _atom_site_fract_z
 _atom_site_occupancy
  Sr  Sr0  1  0.17830924  -0.00000000  0.64338152  1
  Sr  Sr1  1  0.81976840  -0.00000000  0.36046321  1
  Sr  Sr2  1  0.32020363  0.50000000  0.35959275  1
  Y  Y3  1  0.50385007  0.50000000  0.99229986  1
  Y  Y4  1  0.00127997  -0.00000000  0.99744006  1
  Fe  Fe5  1  0.40377281  -0.00000000  0.19245438  1
  Cu  Cu6  1  0.58674629  -0.00000000  0.82650741  1
  Cu  Cu7  1  0.08638766  0.50000000  0.82722469  1
  Cu  Cu8  1  0.91820625  0.50000000  0.16358750  1
  Bi  Bi9  1  0.68843667  0.50000000  0.62312666  1
  O  O10  1  0.31933598  0.24828669  0.85701664  1
  O  O11  1  0.82364738  0.75171331  0.85701664  1
  O  O12  1  0.82364738  0.24828669  0.85701664  1
  O  O13  1  0.31933598  0.75171331  0.85701664  1
  O  O14  1  0.17878671  0.24809617  0.14712704  1
  O  O15  1  0.67408625  0.75190383  0.14712704  1
  O  O16  1  0.67408625  0.24809617  0.14712704  1
  O  O17  1  0.17878671  0.75190383  0.14712704  1
  O  O18  1  0.19937237  0.50000000  0.60125525  1
  O  O19  1  0.69913164  -0.00000000  0.60173672  1
  O  O20  1  0.30806388  -0.00000000  0.38387224  1
  O  O21  1  0.79475848  0.50000000  0.41048305  1
