# generated using pymatgen
data_Sr2Al
_symmetry_space_group_name_H-M   'P 1'
_cell_length_a   7.51515508
_cell_length_b   8.97839261
_cell_length_c   8.97839261
_cell_angle_alpha   65.76553503
_cell_angle_beta   64.21021000
_cell_angle_gamma   64.21021000
_symmetry_Int_Tables_number   1
_chemical_formula_structural   Sr2Al
_chemical_formula_sum   'Sr8 Al4'
_cell_volume   472.50457230
_cell_formula_units_Z   4
loop_
 _symmetry_equiv_pos_site_id
 _symmetry_equiv_pos_as_xyz
  1  'x, y, z'
loop_
 _atom_site_type_symbol
 _atom_site_label
 _atom_site_symmetry_multiplicity
 _atom_site_fract_x
 _atom_site_fract_y
 _atom_site_fract_z
 _atom_site_occupancy
  Sr  Sr0  1  0.57797044  0.75741838  0.55816703  1
  Sr  Sr1  1  0.92202956  0.94183297  0.74258162  1
  Sr  Sr2  1  0.42202956  0.24258162  0.44183297  1
  Sr  Sr3  1  0.07797044  0.05816703  0.25741838  1
  Sr  Sr4  1  0.58623143  0.67231170  0.15735982  1
  Sr  Sr5  1  0.91376857  0.34264018  0.82768830  1
  Sr  Sr6  1  0.41376857  0.32768830  0.84264018  1
  Sr  Sr7  1  0.08623143  0.65735982  0.17231170  1
  Al  Al8  1  0.18504403  0.63026638  0.53147527  1
  Al  Al9  1  0.31495597  0.96852473  0.86973362  1
  Al  Al10  1  0.81495597  0.36973362  0.46852473  1
  Al  Al11  1  0.68504403  0.03147527  0.13026638  1
