# generated using pymatgen
data_Sr4Y2GaCu5(PbO4)4
_symmetry_space_group_name_H-M   'P 1'
_cell_length_a   5.46233831
_cell_length_b   16.26531929
_cell_length_c   5.48684293
_cell_angle_alpha   80.95017223
_cell_angle_beta   90.00000000
_cell_angle_gamma   80.33346354
_symmetry_Int_Tables_number   1
_chemical_formula_structural   Sr4Y2GaCu5(PbO4)4
_chemical_formula_sum   'Sr4 Y2 Ga1 Cu5 Pb4 O16'
_cell_volume   474.40945440
_cell_formula_units_Z   1
loop_
 _symmetry_equiv_pos_site_id
 _symmetry_equiv_pos_as_xyz
  1  'x, y, z'
loop_
 _atom_site_type_symbol
 _atom_site_label
 _atom_site_symmetry_multiplicity
 _atom_site_fract_x
 _atom_site_fract_y
 _atom_site_fract_z
 _atom_site_occupancy
  Sr  Sr0  1  0.10959667  0.78080666  0.10701825  1
  Sr  Sr1  1  0.60956455  0.78087091  0.60726938  1
  Sr  Sr2  1  0.39046194  0.21907612  0.39297894  1
  Sr  Sr3  1  0.89053545  0.21892909  0.89354145  1
  Y  Y4  1  0.50147708  0.99704585  0.50184999  1
  Y  Y5  1  0.00149108  0.99701784  0.00142946  1
  Ga  Ga6  1  0.94162757  0.11674486  0.44209431  1
  Cu  Cu7  1  0.25015160  0.49969680  0.24972358  1
  Cu  Cu8  1  0.75015692  0.49968616  0.75202200  1
  Cu  Cu9  1  0.05149143  0.89701714  0.55114311  1
  Cu  Cu10  1  0.55090949  0.89818101  0.05068342  1
  Cu  Cu11  1  0.44721173  0.10557654  0.94747209  1
  Pb  Pb12  1  0.69431164  0.61137673  0.20026453  1
  Pb  Pb13  1  0.19403373  0.61193254  0.69806591  1
  Pb  Pb14  1  0.80632761  0.38734479  0.29821604  1
  Pb  Pb15  1  0.30549589  0.38900822  0.80181637  1
  O  O16  1  0.62652267  0.74695466  0.12167823  1
  O  O17  1  0.12597626  0.74804748  0.62170775  1
  O  O18  1  0.87892071  0.24215858  0.38210009  1
  O  O19  1  0.37411390  0.25177220  0.87853981  1
  O  O20  1  0.79627122  0.90748259  0.29553015  1
  O  O21  1  0.29702826  0.90749515  0.79636029  1
  O  O22  1  0.19701432  0.09326697  0.21046340  1
  O  O23  1  0.71024427  0.09338771  0.69647965  1
  O  O24  1  0.19636803  0.09338771  0.69647965  1
  O  O25  1  0.70971872  0.09326697  0.21046340  1
  O  O26  1  0.79547660  0.90749515  0.79636029  1
  O  O27  1  0.29624619  0.90748259  0.29553015  1
  O  O28  1  0.19238502  0.61522996  0.14299194  1
  O  O29  1  0.69247857  0.61504286  0.64140562  1
  O  O30  1  0.30820469  0.38359063  0.35509227  1
  O  O31  1  0.80818622  0.38362755  0.86322846  1
