# generated using pymatgen
data_SrNdGaO4
_symmetry_space_group_name_H-M   'P 1'
_cell_length_a   3.86767514
_cell_length_b   3.86767514
_cell_length_c   6.83325598
_cell_angle_alpha   73.56043561
_cell_angle_beta   73.56043561
_cell_angle_gamma   90.00000000
_symmetry_Int_Tables_number   1
_chemical_formula_structural   SrNdGaO4
_chemical_formula_sum   'Sr1 Nd1 Ga1 O4'
_cell_volume   93.67423884
_cell_formula_units_Z   1
loop_
 _symmetry_equiv_pos_site_id
 _symmetry_equiv_pos_as_xyz
  1  'x, y, z'
loop_
 _atom_site_type_symbol
 _atom_site_label
 _atom_site_symmetry_multiplicity
 _atom_site_fract_x
 _atom_site_fract_y
 _atom_site_fract_z
 _atom_site_occupancy
  Sr  Sr0  1  0.35616216  0.35616216  0.28767568  1
  Nd  Nd1  1  0.63979055  0.63979055  0.72041890  1
  Ga  Ga2  1  0.99468601  0.99468601  0.01062798  1
  O  O3  1  0.50787306  0.00787306  0.98425388  1
  O  O4  1  0.00787306  0.50787306  0.98425388  1
  O  O5  1  0.16497822  0.16497822  0.67004356  1
  O  O6  1  0.82863694  0.82863694  0.34272613  1
