# generated using pymatgen
data_Ta2CrSi6
_symmetry_space_group_name_H-M   'P 1'
_cell_length_a   4.66689452
_cell_length_b   4.75313873
_cell_length_c   6.51089383
_cell_angle_alpha   90.00000000
_cell_angle_beta   90.00000000
_cell_angle_gamma   119.40156905
_symmetry_Int_Tables_number   1
_chemical_formula_structural   Ta2CrSi6
_chemical_formula_sum   'Ta2 Cr1 Si6'
_cell_volume   125.82505801
_cell_formula_units_Z   1
loop_
 _symmetry_equiv_pos_site_id
 _symmetry_equiv_pos_as_xyz
  1  'x, y, z'
loop_
 _atom_site_type_symbol
 _atom_site_label
 _atom_site_symmetry_multiplicity
 _atom_site_fract_x
 _atom_site_fract_y
 _atom_site_fract_z
 _atom_site_occupancy
  Ta  Ta0  1  0.50000000  0.50000000  0.50308084  1
  Ta  Ta1  1  0.00000000  0.50000000  0.83025216  1
  Cr  Cr2  1  0.50000000  0.00000000  0.16666700  1
  Si  Si3  1  0.84069750  0.68139500  0.16666700  1
  Si  Si4  1  0.83094357  0.15298053  0.49165182  1
  Si  Si5  1  0.32203696  0.15298053  0.84168118  1
  Si  Si6  1  0.15930250  0.31860500  0.16666700  1
  Si  Si7  1  0.16905643  0.84701947  0.49165182  1
  Si  Si8  1  0.67796304  0.84701947  0.84168118  1
