# generated using pymatgen
data_Sr2HoCu2RuO8
_symmetry_space_group_name_H-M   'P 1'
_cell_length_a   3.83601656
_cell_length_b   3.83601656
_cell_length_c   11.86972477
_cell_angle_alpha   89.91762516
_cell_angle_beta   90.08237484
_cell_angle_gamma   89.91951612
_symmetry_Int_Tables_number   1
_chemical_formula_structural   Sr2HoCu2RuO8
_chemical_formula_sum   'Sr2 Ho1 Cu2 Ru1 O8'
_cell_volume   174.66274002
_cell_formula_units_Z   1
loop_
 _symmetry_equiv_pos_site_id
 _symmetry_equiv_pos_as_xyz
  1  'x, y, z'
loop_
 _atom_site_type_symbol
 _atom_site_label
 _atom_site_symmetry_multiplicity
 _atom_site_fract_x
 _atom_site_fract_y
 _atom_site_fract_z
 _atom_site_occupancy
  Sr  Sr0  1  0.49335922  0.49665985  0.69410664  1
  Sr  Sr1  1  0.49665985  0.49335922  0.30589336  1
  Ho  Ho2  1  0.49938967  0.49938967  0.00000000  1
  Cu  Cu3  1  0.99856502  0.99907095  0.85849113  1
  Cu  Cu4  1  0.99907095  0.99856502  0.14150887  1
  Ru  Ru5  1  0.98646638  0.98646638  0.50000000  1
  O  O6  1  0.49843004  0.00010923  0.87887887  1
  O  O7  1  0.99935482  0.49838038  0.87925423  1
  O  O8  1  0.49838038  0.99935482  0.12074577  1
  O  O9  1  0.00010923  0.49843004  0.12112113  1
  O  O10  1  0.98626511  0.98351667  0.67244165  1
  O  O11  1  0.98351667  0.98626511  0.32755835  1
  O  O12  1  0.48615610  0.98527656  0.49987941  1
  O  O13  1  0.98527656  0.48615610  0.50012059  1
