# generated using pymatgen
data_Sr5Ir3O11
_symmetry_space_group_name_H-M   'P 1'
_cell_length_a   3.97436967
_cell_length_b   3.97436967
_cell_length_c   16.77032360
_cell_angle_alpha   90.20366619
_cell_angle_beta   89.79633381
_cell_angle_gamma   89.07026466
_symmetry_Int_Tables_number   1
_chemical_formula_structural   Sr5Ir3O11
_chemical_formula_sum   'Sr5 Ir3 O11'
_cell_volume   264.85928633
_cell_formula_units_Z   1
loop_
 _symmetry_equiv_pos_site_id
 _symmetry_equiv_pos_as_xyz
  1  'x, y, z'
loop_
 _atom_site_type_symbol
 _atom_site_label
 _atom_site_symmetry_multiplicity
 _atom_site_fract_x
 _atom_site_fract_y
 _atom_site_fract_z
 _atom_site_occupancy
  Sr  Sr0  1  0.01921121  0.98495254  0.73002841  1
  Sr  Sr1  1  0.98495254  0.01921121  0.26997159  1
  Sr  Sr2  1  0.51704087  0.51036462  0.88930285  1
  Sr  Sr3  1  0.51036462  0.51704087  0.11069715  1
  Sr  Sr4  1  0.99983460  0.99983460  0.50000000  1
  Ir  Ir5  1  0.00808522  0.00808522  -0.00000000  1
  Ir  Ir6  1  0.50503322  0.49537725  0.62286638  1
  Ir  Ir7  1  0.49537725  0.50503322  0.37713362  1
  O  O8  1  0.50009065  0.50009065  0.50000000  1
  O  O9  1  0.00770075  0.00389256  0.87586306  1
  O  O10  1  0.00389256  0.00770075  0.12413694  1
  O  O11  1  0.50471536  0.49693142  0.74402701  1
  O  O12  1  0.49693142  0.50471536  0.25597299  1
  O  O13  1  0.03190439  0.50992724  0.00003560  1
  O  O14  1  0.50992724  0.03190439  0.99996440  1
  O  O15  1  0.01006380  0.44249851  0.62058849  1
  O  O16  1  0.55750546  0.99017032  0.62068333  1
  O  O17  1  0.99017032  0.55750546  0.37931667  1
  O  O18  1  0.44249851  0.01006380  0.37941151  1
