# generated using pymatgen
data_Nd(TiCo5)2
_symmetry_space_group_name_H-M   'P 1'
_cell_length_a   4.70947595
_cell_length_b   6.43603026
_cell_length_c   6.43603026
_cell_angle_alpha   96.83558825
_cell_angle_beta   111.46101499
_cell_angle_gamma   68.53898501
_symmetry_Int_Tables_number   1
_chemical_formula_structural   Nd(TiCo5)2
_chemical_formula_sum   'Nd1 Ti2 Co10'
_cell_volume   168.94034181
_cell_formula_units_Z   1
loop_
 _symmetry_equiv_pos_site_id
 _symmetry_equiv_pos_as_xyz
  1  'x, y, z'
loop_
 _atom_site_type_symbol
 _atom_site_label
 _atom_site_symmetry_multiplicity
 _atom_site_fract_x
 _atom_site_fract_y
 _atom_site_fract_z
 _atom_site_occupancy
  Nd  Nd0  1  -0.00000000  -0.00000000  -0.00000000  1
  Ti  Ti1  1  0.00000000  0.34894256  0.34894256  1
  Ti  Ti2  1  -0.00000000  0.65105744  0.65105744  1
  Co  Co3  1  0.72248990  0.77751010  0.22248990  1
  Co  Co4  1  0.27751010  0.22248990  0.77751010  1
  Co  Co5  1  0.50000000  0.77659692  0.77659692  1
  Co  Co6  1  0.50000000  0.22340308  0.22340308  1
  Co  Co7  1  0.50000000  -0.00000000  0.50000000  1
  Co  Co8  1  -0.00000000  -0.00000000  0.50000000  1
  Co  Co9  1  0.50000000  0.50000000  -0.00000000  1
  Co  Co10  1  -0.00000000  0.50000000  -0.00000000  1
  Co  Co11  1  0.64071310  0.35928690  0.64071310  1
  Co  Co12  1  0.35928690  0.64071310  0.35928690  1
