# generated using pymatgen
data_NdGa2Co3
_symmetry_space_group_name_H-M   'P 1'
_cell_length_a   3.97918575
_cell_length_b   8.96813679
_cell_length_c   8.95942149
_cell_angle_alpha   59.99668380
_cell_angle_beta   90.00000000
_cell_angle_gamma   90.00000000
_symmetry_Int_Tables_number   1
_chemical_formula_structural   NdGa2Co3
_chemical_formula_sum   'Nd3 Ga6 Co9'
_cell_volume   276.88059732
_cell_formula_units_Z   3
loop_
 _symmetry_equiv_pos_site_id
 _symmetry_equiv_pos_as_xyz
  1  'x, y, z'
loop_
 _atom_site_type_symbol
 _atom_site_label
 _atom_site_symmetry_multiplicity
 _atom_site_fract_x
 _atom_site_fract_y
 _atom_site_fract_z
 _atom_site_occupancy
  Nd  Nd0  1  -0.00000000  0.33306870  0.33356796  1
  Nd  Nd1  1  0.00000000  0.66659630  0.66667941  1
  Nd  Nd2  1  0.00000000  0.00032639  0.99976844  1
  Ga  Ga3  1  0.50000000  0.49260789  0.49258678  1
  Ga  Ga4  1  0.50000000  0.49252729  0.01485061  1
  Ga  Ga5  1  0.50000000  0.01490324  0.49249755  1
  Ga  Ga6  1  0.50000000  0.84059959  0.84071857  1
  Ga  Ga7  1  0.50000000  0.31855624  0.84076741  1
  Ga  Ga8  1  0.50000000  0.84065706  0.31864160  1
  Co  Co9  1  -0.00000000  0.32220152  0.66707876  1
  Co  Co10  1  -0.00000000  0.66691171  0.01126026  1
  Co  Co11  1  0.00000000  0.01089299  0.32206641  1
  Co  Co12  1  0.00000000  0.66708328  0.32178281  1
  Co  Co13  1  -0.00000000  0.32217367  0.01084124  1
  Co  Co14  1  -0.00000000  0.01085510  0.66696440  1
  Co  Co15  1  0.50000000  0.16675624  0.16679286  1
  Co  Co16  1  0.50000000  0.16677329  0.66644002  1
  Co  Co17  1  0.50000000  0.66640952  0.16679492  1
