# generated using pymatgen
data_Sm2In3Ni
_symmetry_space_group_name_H-M   'P 1'
_cell_length_a   3.76566680
_cell_length_b   4.77292758
_cell_length_c   8.24238104
_cell_angle_alpha   90.02128433
_cell_angle_beta   90.00000000
_cell_angle_gamma   90.00000000
_symmetry_Int_Tables_number   1
_chemical_formula_structural   Sm2In3Ni
_chemical_formula_sum   'Sm2 In3 Ni1'
_cell_volume   148.14240541
_cell_formula_units_Z   1
loop_
 _symmetry_equiv_pos_site_id
 _symmetry_equiv_pos_as_xyz
  1  'x, y, z'
loop_
 _atom_site_type_symbol
 _atom_site_label
 _atom_site_symmetry_multiplicity
 _atom_site_fract_x
 _atom_site_fract_y
 _atom_site_fract_z
 _atom_site_occupancy
  Sm  Sm0  1  -0.00000000  0.00005961  0.02890132  1
  Sm  Sm1  1  -0.00000000  0.49976851  0.48539875  1
  In  In2  1  0.50000000  0.50004718  0.83504783  1
  In  In3  1  0.50000000  0.49995173  0.18270257  1
  In  In4  1  0.50000000  0.99986355  0.64380570  1
  Ni  Ni5  1  0.50000000  0.00010942  0.32414383  1
