# generated using pymatgen
data_NdHoZr2O7
_symmetry_space_group_name_H-M   'P 1'
_cell_length_a   7.56430412
_cell_length_b   7.55684173
_cell_length_c   7.56403380
_cell_angle_alpha   90.00000000
_cell_angle_beta   60.00118217
_cell_angle_gamma   119.96737129
_symmetry_Int_Tables_number   1
_chemical_formula_structural   NdHoZr2O7
_chemical_formula_sum   'Nd2 Ho2 Zr4 O14'
_cell_volume   305.89299618
_cell_formula_units_Z   2
loop_
 _symmetry_equiv_pos_site_id
 _symmetry_equiv_pos_as_xyz
  1  'x, y, z'
loop_
 _atom_site_type_symbol
 _atom_site_label
 _atom_site_symmetry_multiplicity
 _atom_site_fract_x
 _atom_site_fract_y
 _atom_site_fract_z
 _atom_site_occupancy
  Nd  Nd0  1  0.50000000  0.00000000  0.50000000  1
  Nd  Nd1  1  0.50000000  0.50000000  0.50000000  1
  Ho  Ho2  1  0.00000000  0.50000000  0.00000000  1
  Ho  Ho3  1  0.00000000  0.50000000  0.50000000  1
  Zr  Zr4  1  0.50000000  0.50000000  0.00000000  1
  Zr  Zr5  1  0.50000000  0.00000000  0.00000000  1
  Zr  Zr6  1  0.00000000  0.00000000  0.50000000  1
  Zr  Zr7  1  0.00000000  0.00000000  0.00000000  1
  O  O8  1  0.76808818  0.38404409  0.36595591  1
  O  O9  1  0.23191182  0.61595591  0.63404409  1
  O  O10  1  0.82391266  0.91195633  0.33804367  1
  O  O11  1  0.67588245  0.33794122  0.91205878  1
  O  O12  1  0.24732304  0.90881765  0.91460798  1
  O  O13  1  0.24732304  0.33850539  0.33806898  1
  O  O14  1  0.24732304  0.33850539  0.91460798  1
  O  O15  1  0.24732304  0.90881765  0.33806898  1
  O  O16  1  0.17608734  0.08804367  0.66195633  1
  O  O17  1  0.32411755  0.66205878  0.08794122  1
  O  O18  1  0.75267696  0.09118235  0.08539202  1
  O  O19  1  0.75267696  0.66149461  0.66193102  1
  O  O20  1  0.75267696  0.66149461  0.08539202  1
  O  O21  1  0.75267696  0.09118235  0.66193102  1
