# generated using pymatgen
data_Sc2Te3
_symmetry_space_group_name_H-M   'P 1'
_cell_length_a   4.10081157
_cell_length_b   5.87414532
_cell_length_c   7.29942856
_cell_angle_alpha   66.27356841
_cell_angle_beta   73.68609731
_cell_angle_gamma   90.00000000
_symmetry_Int_Tables_number   1
_chemical_formula_structural   Sc2Te3
_chemical_formula_sum   'Sc2 Te3'
_cell_volume   153.20736957
_cell_formula_units_Z   1
loop_
 _symmetry_equiv_pos_site_id
 _symmetry_equiv_pos_as_xyz
  1  'x, y, z'
loop_
 _atom_site_type_symbol
 _atom_site_label
 _atom_site_symmetry_multiplicity
 _atom_site_fract_x
 _atom_site_fract_y
 _atom_site_fract_z
 _atom_site_occupancy
  Sc  Sc0  1  0.33504996  0.33504996  0.32989908  1
  Sc  Sc1  1  0.66495004  0.66495004  0.67010092  1
  Te  Te2  1  0.00000000  0.50000000  -0.00000000  1
  Te  Te3  1  0.32803743  0.82803743  0.34392415  1
  Te  Te4  1  0.67196257  0.17196257  0.65607585  1
