# generated using pymatgen
data_Si3B3W10
_symmetry_space_group_name_H-M   'P 1'
_cell_length_a   6.19023970
_cell_length_b   6.19023970
_cell_length_c   7.11198791
_cell_angle_alpha   63.67711349
_cell_angle_beta   63.67711349
_cell_angle_gamma   88.91619589
_symmetry_Int_Tables_number   1
_chemical_formula_structural   Si3B3W10
_chemical_formula_sum   'Si3 B3 W10'
_cell_volume   213.51433734
_cell_formula_units_Z   1
loop_
 _symmetry_equiv_pos_site_id
 _symmetry_equiv_pos_as_xyz
  1  'x, y, z'
loop_
 _atom_site_type_symbol
 _atom_site_label
 _atom_site_symmetry_multiplicity
 _atom_site_fract_x
 _atom_site_fract_y
 _atom_site_fract_z
 _atom_site_occupancy
  Si  Si0  1  0.13001794  0.63001794  0.00000000  1
  Si  Si1  1  0.24588494  0.24588494  0.50000000  1
  Si  Si2  1  0.74588494  0.74588494  0.50000000  1
  B  B3  1  0.62680017  0.87696933  -0.00000000  1
  B  B4  1  0.37696933  0.12680017  0.00000000  1
  B  B5  1  0.86808236  0.36808236  0.00000000  1
  W  W6  1  0.68018274  0.52297057  0.28521251  1
  W  W7  1  0.02297057  0.18018274  0.28521251  1
  W  W8  1  0.51786463  0.01786463  0.28260772  1
  W  W9  1  0.20792352  0.70792352  0.29060532  1
  W  W10  1  0.30818307  0.46539525  0.71478749  1
  W  W11  1  0.96539525  0.80818307  0.71478749  1
  W  W12  1  0.49852884  0.99852884  0.70939468  1
  W  W13  1  0.80047235  0.30047235  0.71739228  1
  W  W14  1  0.50978707  0.49505228  0.00000000  1
  W  W15  1  0.99505228  0.00978707  -0.00000000  1
