# generated using pymatgen
data_SmV2(FeCo)5
_symmetry_space_group_name_H-M   'P 1'
_cell_length_a   4.68545708
_cell_length_b   6.42414054
_cell_length_c   6.42414054
_cell_angle_alpha   97.52938240
_cell_angle_beta   111.38762781
_cell_angle_gamma   68.61237219
_symmetry_Int_Tables_number   1
_chemical_formula_structural   SmV2(FeCo)5
_chemical_formula_sum   'Sm1 V2 Fe5 Co5'
_cell_volume   167.65088201
_cell_formula_units_Z   1
loop_
 _symmetry_equiv_pos_site_id
 _symmetry_equiv_pos_as_xyz
  1  'x, y, z'
loop_
 _atom_site_type_symbol
 _atom_site_label
 _atom_site_symmetry_multiplicity
 _atom_site_fract_x
 _atom_site_fract_y
 _atom_site_fract_z
 _atom_site_occupancy
  Sm  Sm0  1  -0.00000000  0.99875447  0.99875447  1
  V  V1  1  -0.00000000  0.35935159  0.35935159  1
  V  V2  1  0.00000000  0.64112438  0.64112438  1
  Fe  Fe3  1  0.50117087  0.99870955  0.50143104  1
  Fe  Fe4  1  0.00155062  0.99870955  0.50143104  1
  Fe  Fe5  1  0.49882913  0.50143104  0.99870955  1
  Fe  Fe6  1  -0.00155062  0.50143104  0.99870955  1
  Fe  Fe7  1  0.50000000  0.22795639  0.22795639  1
  Co  Co8  1  0.72781466  0.77303689  0.22866622  1
  Co  Co9  1  0.27218534  0.22866622  0.77303689  1
  Co  Co10  1  0.50000000  0.77332661  0.77332661  1
  Co  Co11  1  0.64050434  0.35824679  0.63925547  1
  Co  Co12  1  0.35949566  0.63925547  0.35824679  1
