# generated using pymatgen
data_Mn8Nb3Si
_symmetry_space_group_name_H-M   'P 1'
_cell_length_a   4.76371303
_cell_length_b   4.76371303
_cell_length_c   7.81869092
_cell_angle_alpha   90.01531788
_cell_angle_beta   89.98468212
_cell_angle_gamma   119.97630881
_symmetry_Int_Tables_number   1
_chemical_formula_structural   Mn8Nb3Si
_chemical_formula_sum   'Mn8 Nb3 Si1'
_cell_volume   153.69490425
_cell_formula_units_Z   1
loop_
 _symmetry_equiv_pos_site_id
 _symmetry_equiv_pos_as_xyz
  1  'x, y, z'
loop_
 _atom_site_type_symbol
 _atom_site_label
 _atom_site_symmetry_multiplicity
 _atom_site_fract_x
 _atom_site_fract_y
 _atom_site_fract_z
 _atom_site_occupancy
  Mn  Mn0  1  0.99995413  0.00004587  0.50253610  1
  Mn  Mn1  1  0.99993395  0.00006605  0.00959537  1
  Mn  Mn2  1  0.17102362  0.34195436  0.74673556  1
  Mn  Mn3  1  0.17090326  0.82909674  0.74693840  1
  Mn  Mn4  1  0.65804564  0.82897638  0.74673556  1
  Mn  Mn5  1  0.82641477  0.65278932  0.25257925  1
  Mn  Mn6  1  0.82647349  0.17352651  0.25246400  1
  Mn  Mn7  1  0.34721068  0.17358523  0.25257925  1
  Nb  Nb8  1  0.33332942  0.66667058  0.44330852  1
  Nb  Nb9  1  0.33335420  0.66664580  0.06588416  1
  Nb  Nb10  1  0.66665120  0.33334880  0.91879376  1
  Si  Si11  1  0.66670563  0.33329437  0.56185006  1
