# generated using pymatgen
data_Nd4V3Fe25B2
_symmetry_space_group_name_H-M   'P 1'
_cell_length_a   8.84306030
_cell_length_b   8.84306030
_cell_length_c   12.21468392
_cell_angle_alpha   90.00000000
_cell_angle_beta   90.00000000
_cell_angle_gamma   89.97202109
_symmetry_Int_Tables_number   1
_chemical_formula_structural   Nd4V3Fe25B2
_chemical_formula_sum   'Nd8 V6 Fe50 B4'
_cell_volume   955.18469398
_cell_formula_units_Z   2
loop_
 _symmetry_equiv_pos_site_id
 _symmetry_equiv_pos_as_xyz
  1  'x, y, z'
loop_
 _atom_site_type_symbol
 _atom_site_label
 _atom_site_symmetry_multiplicity
 _atom_site_fract_x
 _atom_site_fract_y
 _atom_site_fract_z
 _atom_site_occupancy
  Nd  Nd0  1  0.23632374  0.76367626  0.49960484  1
  Nd  Nd1  1  0.76367626  0.23632374  0.49960484  1
  Nd  Nd2  1  0.26335407  0.26335407  0.99715042  1
  Nd  Nd3  1  0.73664593  0.73664593  0.99715042  1
  Nd  Nd4  1  0.64161802  0.64161802  0.50466632  1
  Nd  Nd5  1  0.35838198  0.35838198  0.50466632  1
  Nd  Nd6  1  0.85738781  0.14261219  0.00027031  1
  Nd  Nd7  1  0.14261219  0.85738781  0.00027031  1
  V  V8  1  0.68932421  0.68932421  0.24972901  1
  V  V9  1  0.31067579  0.31067579  0.24972901  1
  V  V10  1  0.50000000  0.50000000  0.12034672  1
  V  V11  1  -0.00000000  -0.00000000  0.62460346  1
  V  V12  1  0.50000000  0.50000000  0.87485172  1
  V  V13  1  -0.00000000  -0.00000000  0.37541546  1
  Fe  Fe14  1  0.39998533  0.60001467  0.29184226  1
  Fe  Fe15  1  0.60001467  0.39998533  0.29184226  1
  Fe  Fe16  1  0.09972920  0.09972920  0.79499985  1
  Fe  Fe17  1  0.90027080  0.90027080  0.79499985  1
  Fe  Fe18  1  0.59954800  0.40045200  0.70518752  1
  Fe  Fe19  1  0.40045200  0.59954800  0.70518752  1
  Fe  Fe20  1  0.90072310  0.90072310  0.20423948  1
  Fe  Fe21  1  0.09927690  0.09927690  0.20423948  1
  Fe  Fe22  1  0.13976977  0.53940357  0.32345268  1
  Fe  Fe23  1  0.86023023  0.46059643  0.32345268  1
  Fe  Fe24  1  0.36070456  0.03723677  0.82312353  1
  Fe  Fe25  1  0.63929544  0.96276323  0.82312353  1
  Fe  Fe26  1  0.86075888  0.46205050  0.67657131  1
  Fe  Fe27  1  0.13924112  0.53794950  0.67657131  1
  Fe  Fe28  1  0.63949449  0.96299026  0.17678889  1
  Fe  Fe29  1  0.36050551  0.03700974  0.17678889  1
  Fe  Fe30  1  0.53940357  0.13976977  0.32345268  1
  Fe  Fe31  1  0.46059643  0.86023023  0.32345268  1
  Fe  Fe32  1  0.03723677  0.36070456  0.82312353  1
  Fe  Fe33  1  0.96276323  0.63929544  0.82312353  1
  Fe  Fe34  1  0.46205050  0.86075888  0.67657131  1
  Fe  Fe35  1  0.53794950  0.13924112  0.67657131  1
  Fe  Fe36  1  0.96299026  0.63949449  0.17678889  1
  Fe  Fe37  1  0.03700974  0.36050551  0.17678889  1
  Fe  Fe38  1  0.93260190  0.72248476  0.37411392  1
  Fe  Fe39  1  0.06739810  0.27751524  0.37411392  1
  Fe  Fe40  1  0.56701673  0.22338618  0.87330870  1
  Fe  Fe41  1  0.43298327  0.77661382  0.87330870  1
  Fe  Fe42  1  0.06653753  0.27631193  0.62651282  1
  Fe  Fe43  1  0.93346247  0.72368807  0.62651282  1
  Fe  Fe44  1  0.43512925  0.77685948  0.12669321  1
  Fe  Fe45  1  0.56487075  0.22314052  0.12669321  1
  Fe  Fe46  1  0.72248476  0.93260190  0.37411392  1
  Fe  Fe47  1  0.27751524  0.06739810  0.37411392  1
  Fe  Fe48  1  0.22338618  0.56701673  0.87330870  1
  Fe  Fe49  1  0.77661382  0.43298327  0.87330870  1
  Fe  Fe50  1  0.27631193  0.06653753  0.62651282  1
  Fe  Fe51  1  0.72368807  0.93346247  0.62651282  1
  Fe  Fe52  1  0.77685948  0.43512925  0.12669321  1
  Fe  Fe53  1  0.22314052  0.56487075  0.12669321  1
  Fe  Fe54  1  -0.00000000  0.50000000  0.49977798  1
  Fe  Fe55  1  0.50000000  -0.00000000  0.00118823  1
  Fe  Fe56  1  0.50000000  -0.00000000  0.49977798  1
  Fe  Fe57  1  -0.00000000  0.50000000  0.00118823  1
  Fe  Fe58  1  0.18365579  0.81634421  0.25283931  1
  Fe  Fe59  1  0.81634421  0.18365579  0.25283931  1
  Fe  Fe60  1  0.31594858  0.31594858  0.75356803  1
  Fe  Fe61  1  0.68405142  0.68405142  0.75356803  1
  Fe  Fe62  1  0.81603527  0.18396473  0.74682545  1
  Fe  Fe63  1  0.18396473  0.81603527  0.74682545  1
  B  B64  1  0.87032869  0.87032869  0.49950776  1
  B  B65  1  0.12967131  0.12967131  0.49950776  1
  B  B66  1  0.63079308  0.36920692  0.99986447  1
  B  B67  1  0.36920692  0.63079308  0.99986447  1
