# generated using pymatgen
data_Nd(MnFe5)2
_symmetry_space_group_name_H-M   'P 1'
_cell_length_a   4.66715054
_cell_length_b   6.43804283
_cell_length_c   6.43804283
_cell_angle_alpha   96.91002858
_cell_angle_beta   111.25175804
_cell_angle_gamma   68.74824196
_symmetry_Int_Tables_number   1
_chemical_formula_structural   Nd(MnFe5)2
_chemical_formula_sum   'Nd1 Mn2 Fe10'
_cell_volume   168.01692994
_cell_formula_units_Z   1
loop_
 _symmetry_equiv_pos_site_id
 _symmetry_equiv_pos_as_xyz
  1  'x, y, z'
loop_
 _atom_site_type_symbol
 _atom_site_label
 _atom_site_symmetry_multiplicity
 _atom_site_fract_x
 _atom_site_fract_y
 _atom_site_fract_z
 _atom_site_occupancy
  Nd  Nd0  1  0.00000000  -0.00000000  -0.00000000  1
  Mn  Mn1  1  0.00000000  0.37370404  0.37370404  1
  Mn  Mn2  1  -0.00000000  0.62629596  0.62629596  1
  Fe  Fe3  1  0.50000000  -0.00000000  0.50000000  1
  Fe  Fe4  1  0.00000000  -0.00000000  0.50000000  1
  Fe  Fe5  1  0.50000000  0.50000000  -0.00000000  1
  Fe  Fe6  1  0.00000000  0.50000000  -0.00000000  1
  Fe  Fe7  1  0.72873882  0.77126118  0.22873882  1
  Fe  Fe8  1  0.27126118  0.22873882  0.77126118  1
  Fe  Fe9  1  0.50000000  0.76521859  0.76521859  1
  Fe  Fe10  1  0.50000000  0.23478141  0.23478141  1
  Fe  Fe11  1  0.63993993  0.36006007  0.63993993  1
  Fe  Fe12  1  0.36006007  0.63993993  0.36006007  1
