# generated using pymatgen
data_Mn4BiSb3
_symmetry_space_group_name_H-M   'P 1'
_cell_length_a   4.16427664
_cell_length_b   7.18801274
_cell_length_c   5.66327719
_cell_angle_alpha   90.00000000
_cell_angle_beta   90.00000000
_cell_angle_gamma   89.95213234
_symmetry_Int_Tables_number   1
_chemical_formula_structural   Mn4BiSb3
_chemical_formula_sum   'Mn4 Bi1 Sb3'
_cell_volume   169.51810095
_cell_formula_units_Z   1
loop_
 _symmetry_equiv_pos_site_id
 _symmetry_equiv_pos_as_xyz
  1  'x, y, z'
loop_
 _atom_site_type_symbol
 _atom_site_label
 _atom_site_symmetry_multiplicity
 _atom_site_fract_x
 _atom_site_fract_y
 _atom_site_fract_z
 _atom_site_occupancy
  Mn  Mn0  1  0.00006380  0.99244245  0.49435179  1
  Mn  Mn1  1  0.49998242  0.50737731  0.49671319  1
  Mn  Mn2  1  0.00006380  0.99244245  0.00564821  1
  Mn  Mn3  1  0.49998242  0.50737731  0.00328681  1
  Bi  Bi4  1  0.49988866  0.16710003  0.75000000  1
  Sb  Sb5  1  0.99987802  0.66562315  0.75000000  1
  Sb  Sb6  1  0.00002274  0.33275697  0.25000000  1
  Sb  Sb7  1  0.50011814  0.83488032  0.25000000  1
