# generated using pymatgen
data_MnCdSe4
_symmetry_space_group_name_H-M   'P 1'
_cell_length_a   6.58204261
_cell_length_b   6.56522943
_cell_length_c   6.59281905
_cell_angle_alpha   90.75024837
_cell_angle_beta   90.00000000
_cell_angle_gamma   90.00000000
_symmetry_Int_Tables_number   1
_chemical_formula_structural   MnCdSe4
_chemical_formula_sum   'Mn2 Cd2 Se8'
_cell_volume   284.86856011
_cell_formula_units_Z   2
loop_
 _symmetry_equiv_pos_site_id
 _symmetry_equiv_pos_as_xyz
  1  'x, y, z'
loop_
 _atom_site_type_symbol
 _atom_site_label
 _atom_site_symmetry_multiplicity
 _atom_site_fract_x
 _atom_site_fract_y
 _atom_site_fract_z
 _atom_site_occupancy
  Mn  Mn0  1  0.50000000  0.50000000  0.00000000  1
  Mn  Mn1  1  -0.00000000  -0.00000000  0.00000000  1
  Cd  Cd2  1  0.50000000  -0.00000000  0.50000000  1
  Cd  Cd3  1  -0.00000000  0.50000000  0.50000000  1
  Se  Se4  1  0.88619073  0.38862265  0.09177112  1
  Se  Se5  1  0.38619073  0.11137735  0.90822888  1
  Se  Se6  1  0.09692179  0.90032104  0.38096555  1
  Se  Se7  1  0.59692179  0.59967896  0.61903445  1
  Se  Se8  1  0.11380927  0.61137735  0.90822888  1
  Se  Se9  1  0.61380927  0.88862265  0.09177112  1
  Se  Se10  1  0.90307821  0.09967896  0.61903445  1
  Se  Se11  1  0.40307821  0.40032104  0.38096555  1
