# generated using pymatgen
data_NaLaNb2O7
_symmetry_space_group_name_H-M   'P 1'
_cell_length_a   3.93106877
_cell_length_b   3.93106877
_cell_length_c   11.18403121
_cell_angle_alpha   79.87800112
_cell_angle_beta   79.87800112
_cell_angle_gamma   90.00000000
_symmetry_Int_Tables_number   1
_chemical_formula_structural   NaLaNb2O7
_chemical_formula_sum   'Na1 La1 Nb2 O7'
_cell_volume   167.40705373
_cell_formula_units_Z   1
loop_
 _symmetry_equiv_pos_site_id
 _symmetry_equiv_pos_as_xyz
  1  'x, y, z'
loop_
 _atom_site_type_symbol
 _atom_site_label
 _atom_site_symmetry_multiplicity
 _atom_site_fract_x
 _atom_site_fract_y
 _atom_site_fract_z
 _atom_site_occupancy
  Na  Na0  1  0.75000000  0.25000000  0.50000000  1
  La  La1  1  0.00000000  -0.00000000  -0.00000000  1
  Nb  Nb2  1  0.39345713  0.39345713  0.21308574  1
  Nb  Nb3  1  0.60654287  0.60654287  0.78691426  1
  O  O4  1  0.58643146  0.08643146  0.82713709  1
  O  O5  1  0.08565233  0.58565233  0.82869535  1
  O  O6  1  0.41434767  0.91434767  0.17130465  1
  O  O7  1  0.91356854  0.41356854  0.17286291  1
  O  O8  1  0.31004752  0.31004752  0.37990496  1
  O  O9  1  0.68995248  0.68995248  0.62009504  1
  O  O10  1  0.50000000  0.50000000  -0.00000000  1
