# generated using pymatgen
data_Nb2Co(PbO3)3
_symmetry_space_group_name_H-M   'P 1'
_cell_length_a   5.76428768
_cell_length_b   5.76428768
_cell_length_c   7.08728449
_cell_angle_alpha   90.00000000
_cell_angle_beta   90.00000000
_cell_angle_gamma   120.00000000
_symmetry_Int_Tables_number   1
_chemical_formula_structural   Nb2Co(PbO3)3
_chemical_formula_sum   'Nb2 Co1 Pb3 O9'
_cell_volume   203.93970786
_cell_formula_units_Z   1
loop_
 _symmetry_equiv_pos_site_id
 _symmetry_equiv_pos_as_xyz
  1  'x, y, z'
loop_
 _atom_site_type_symbol
 _atom_site_label
 _atom_site_symmetry_multiplicity
 _atom_site_fract_x
 _atom_site_fract_y
 _atom_site_fract_z
 _atom_site_occupancy
  Nb  Nb0  1  0.33333300  0.66666700  0.15287298  1
  Nb  Nb1  1  0.00000000  0.00000000  0.51379402  1
  Co  Co2  1  0.66666700  0.33333300  0.83333300  1
  Pb  Pb3  1  0.33333300  0.66666700  0.66879933  1
  Pb  Pb4  1  0.00000000  -0.00000000  0.99786767  1
  Pb  Pb5  1  0.66666700  0.33333300  0.33333300  1
  O  O6  1  0.83613073  0.16386927  0.66256779  1
  O  O7  1  0.49720227  0.50279773  0.00409921  1
  O  O8  1  0.16666700  0.83333300  0.33333300  1
  O  O9  1  0.66666700  0.83333300  0.33333300  1
  O  O10  1  0.32773753  0.16386927  0.66256779  1
  O  O11  1  0.00559547  0.50279773  0.00409921  1
  O  O12  1  0.83613073  0.67226247  0.66256779  1
  O  O13  1  0.49720227  -0.00559547  0.00409921  1
  O  O14  1  0.16666700  0.33333300  0.33333300  1
