# generated using pymatgen
data_Ga2Au
_symmetry_space_group_name_H-M   'P 1'
_cell_length_a   3.34650889
_cell_length_b   7.01354136
_cell_length_c   9.73748578
_cell_angle_alpha   90.00000000
_cell_angle_beta   90.00000000
_cell_angle_gamma   104.03171081
_symmetry_Int_Tables_number   1
_chemical_formula_structural   Ga2Au
_chemical_formula_sum   'Ga8 Au4'
_cell_volume   221.72787816
_cell_formula_units_Z   4
loop_
 _symmetry_equiv_pos_site_id
 _symmetry_equiv_pos_as_xyz
  1  'x, y, z'
loop_
 _atom_site_type_symbol
 _atom_site_label
 _atom_site_symmetry_multiplicity
 _atom_site_fract_x
 _atom_site_fract_y
 _atom_site_fract_z
 _atom_site_occupancy
  Ga  Ga0  1  0.59849481  0.59221356  0.12558553  1
  Ga  Ga1  1  0.90150519  0.90778644  0.62558553  1
  Ga  Ga2  1  0.40150519  0.40778644  0.87441447  1
  Ga  Ga3  1  0.09849481  0.09221356  0.37441447  1
  Ga  Ga4  1  0.70876906  0.06016069  0.87441008  1
  Ga  Ga5  1  0.79123094  0.43983931  0.37441008  1
  Ga  Ga6  1  0.29123094  0.93983931  0.12558992  1
  Ga  Ga7  1  0.20876906  0.56016069  0.62558992  1
  Au  Au8  1  0.94297466  0.26095695  0.12148069  1
  Au  Au9  1  0.55702534  0.23904305  0.62148069  1
  Au  Au10  1  0.05702534  0.73904305  0.87851931  1
  Au  Au11  1  0.44297466  0.76095695  0.37851931  1
