# generated using pymatgen
data_Na2In2Mo5O16
_symmetry_space_group_name_H-M   'P 1'
_cell_length_a   6.17914699
_cell_length_b   6.17914668
_cell_length_c   10.81577569
_cell_angle_alpha   90.01492355
_cell_angle_beta   90.01492354
_cell_angle_gamma   60.01070997
_symmetry_Int_Tables_number   1
_chemical_formula_structural   Na2In2Mo5O16
_chemical_formula_sum   'Na2 In2 Mo5 O16'
_cell_volume   357.67795526
_cell_formula_units_Z   1
loop_
 _symmetry_equiv_pos_site_id
 _symmetry_equiv_pos_as_xyz
  1  'x, y, z'
loop_
 _atom_site_type_symbol
 _atom_site_label
 _atom_site_symmetry_multiplicity
 _atom_site_fract_x
 _atom_site_fract_y
 _atom_site_fract_z
 _atom_site_occupancy
  Na  Na0  1  0.00001843  0.00001843  0.00151039  1
  Na  Na1  1  0.66676144  0.66676144  0.23472819  1
  In  In2  1  0.99986170  0.99986170  0.71298213  1
  In  In3  1  0.99992361  0.99992361  0.30501469  1
  Mo  Mo4  1  0.33324499  0.33324499  0.13593851  1
  Mo  Mo5  1  0.49968242  0.49968242  0.50884138  1
  Mo  Mo6  1  0.00129112  0.49943930  0.50906798  1
  Mo  Mo7  1  0.49943930  0.00129112  0.50906798  1
  Mo  Mo8  1  0.66670130  0.66670130  0.86742431  1
  O  O9  1  0.83366616  0.33244709  0.83254098  1
  O  O10  1  0.83389651  0.83389651  0.83267161  1
  O  O11  1  0.33244709  0.83366616  0.83254098  1
  O  O12  1  0.33336268  0.33336268  0.40426609  1
  O  O13  1  0.33326364  0.33326364  0.97625820  1
  O  O14  1  0.66668568  0.66668568  0.02972397  1
  O  O15  1  0.66833457  0.16582840  0.17616104  1
  O  O16  1  0.16582840  0.66833457  0.17616104  1
  O  O17  1  0.16568603  0.16568603  0.17605074  1
  O  O18  1  0.65674141  0.17190061  0.60283573  1
  O  O19  1  0.17190061  0.65674141  0.60283573  1
  O  O20  1  0.17068844  0.17068844  0.60220288  1
  O  O21  1  0.82125898  0.35760647  0.40193330  1
  O  O22  1  0.82145664  0.82145664  0.40235028  1
  O  O23  1  0.35760647  0.82125898  0.40193330  1
  O  O24  1  0.66695238  0.66695238  0.61297853  1
