# generated using pymatgen
data_LiY(MoO4)2
_symmetry_space_group_name_H-M   'P 1'
_cell_length_a   5.20423830
_cell_length_b   5.20423830
_cell_length_c   6.71831402
_cell_angle_alpha   67.21232427
_cell_angle_beta   67.21232427
_cell_angle_gamma   90.00000000
_symmetry_Int_Tables_number   1
_chemical_formula_structural   LiY(MoO4)2
_chemical_formula_sum   'Li1 Y1 Mo2 O8'
_cell_volume   152.23501722
_cell_formula_units_Z   1
loop_
 _symmetry_equiv_pos_site_id
 _symmetry_equiv_pos_as_xyz
  1  'x, y, z'
loop_
 _atom_site_type_symbol
 _atom_site_label
 _atom_site_symmetry_multiplicity
 _atom_site_fract_x
 _atom_site_fract_y
 _atom_site_fract_z
 _atom_site_occupancy
  Li  Li0  1  0.37500000  0.62500000  0.25000000  1
  Y  Y1  1  0.62500000  0.37500000  0.75000000  1
  Mo  Mo2  1  0.87500000  0.12500000  0.25000000  1
  Mo  Mo3  1  0.12500000  0.87500000  0.75000000  1
  O  O4  1  0.93944908  0.78945529  0.42747275  1
  O  O5  1  0.63307818  0.28307197  0.42747275  1
  O  O6  1  0.79088330  0.63034199  0.91888148  1
  O  O7  1  0.29023522  0.95077653  0.91888148  1
  O  O8  1  0.04922347  0.20911670  0.58111852  1
  O  O9  1  0.36965801  0.70976478  0.58111852  1
  O  O10  1  0.21054471  0.36692182  0.07252725  1
  O  O11  1  0.71692803  0.06055092  0.07252725  1
