# generated using pymatgen
data_Mn11Al4V
_symmetry_space_group_name_H-M   'P 1'
_cell_length_a   4.05487769
_cell_length_b   4.05487769
_cell_length_c   13.43573970
_cell_angle_alpha   90.00000000
_cell_angle_beta   81.32097512
_cell_angle_gamma   120.00000000
_symmetry_Int_Tables_number   1
_chemical_formula_structural   Mn11Al4V
_chemical_formula_sum   'Mn11 Al4 V1'
_cell_volume   188.38783085
_cell_formula_units_Z   1
loop_
 _symmetry_equiv_pos_site_id
 _symmetry_equiv_pos_as_xyz
  1  'x, y, z'
loop_
 _atom_site_type_symbol
 _atom_site_label
 _atom_site_symmetry_multiplicity
 _atom_site_fract_x
 _atom_site_fract_y
 _atom_site_fract_z
 _atom_site_occupancy
  Mn  Mn0  1  0.99936818  0.49968409  0.50094773  1
  Mn  Mn1  1  0.50074498  0.75037249  0.74888253  1
  Mn  Mn2  1  0.00058341  0.00029170  0.99912489  1
  Mn  Mn3  1  0.49884906  0.24942453  0.25172641  1
  Mn  Mn4  1  0.24925502  0.12462751  0.62611747  1
  Mn  Mn5  1  0.75063182  0.37531591  0.87405227  1
  Mn  Mn6  1  0.25115094  0.62557547  0.12327359  1
  Mn  Mn7  1  0.74941659  0.87470830  0.37587511  1
  Mn  Mn8  1  0.37266939  0.18633469  0.44099592  1
  Mn  Mn9  1  0.87500000  0.43750000  0.68750000  1
  Mn  Mn10  1  0.37733061  0.68866531  0.93400408  1
  Al  Al11  1  0.62495507  0.81247753  0.56256740  1
  Al  Al12  1  0.12504493  0.06252247  0.81243260  1
  Al  Al13  1  0.62619973  0.31309987  0.06070040  1
  Al  Al14  1  0.12380027  0.56190013  0.31429960  1
  V  V15  1  0.87500000  0.93750000  0.18750000  1
