# generated using pymatgen
data_Mg3Al7(Si2O11)2
_symmetry_space_group_name_H-M   'P 1'
_cell_length_a   6.79968922
_cell_length_b   10.68113455
_cell_length_c   10.68113455
_cell_angle_alpha   99.12502274
_cell_angle_beta   90.00000000
_cell_angle_gamma   90.00000000
_symmetry_Int_Tables_number   1
_chemical_formula_structural   Mg3Al7(Si2O11)2
_chemical_formula_sum   'Mg6 Al14 Si8 O44'
_cell_volume   765.93622179
_cell_formula_units_Z   2
loop_
 _symmetry_equiv_pos_site_id
 _symmetry_equiv_pos_as_xyz
  1  'x, y, z'
loop_
 _atom_site_type_symbol
 _atom_site_label
 _atom_site_symmetry_multiplicity
 _atom_site_fract_x
 _atom_site_fract_y
 _atom_site_fract_z
 _atom_site_occupancy
  Mg  Mg0  1  0.25000000  0.64729384  0.64729384  1
  Mg  Mg1  1  0.75000000  0.35093595  0.35093595  1
  Mg  Mg2  1  0.25000000  0.01634167  0.25937140  1
  Mg  Mg3  1  0.75000000  0.74930122  0.98677516  1
  Mg  Mg4  1  0.75000000  0.98677516  0.74930122  1
  Mg  Mg5  1  0.25000000  0.25937140  0.01634167  1
  Al  Al6  1  0.25000000  0.82783835  0.45535337  1
  Al  Al7  1  0.75000000  0.54739867  0.17378692  1
  Al  Al8  1  0.75000000  0.17378692  0.54739867  1
  Al  Al9  1  0.25000000  0.45535337  0.82783835  1
  Al  Al10  1  0.49956024  0.40162870  0.59466046  1
  Al  Al11  1  0.00043976  0.40162870  0.59466046  1
  Al  Al12  1  0.49956024  0.59466046  0.40162870  1
  Al  Al13  1  0.00043976  0.59466046  0.40162870  1
  Al  Al14  1  0.49877836  0.78509907  0.21055527  1
  Al  Al15  1  0.00122164  0.78509907  0.21055527  1
  Al  Al16  1  0.49877836  0.21055527  0.78509907  1
  Al  Al17  1  0.00122164  0.21055527  0.78509907  1
  Al  Al18  1  0.25000000  0.14919597  0.51794178  1
  Al  Al19  1  0.25000000  0.51794178  0.14919597  1
  Si  Si20  1  0.25000000  0.94961784  0.75542939  1
  Si  Si21  1  0.75000000  0.24459395  0.04810046  1
  Si  Si22  1  0.75000000  0.04810046  0.24459395  1
  Si  Si23  1  0.25000000  0.75542939  0.94961784  1
  Si  Si24  1  0.25000000  0.34078906  0.34078906  1
  Si  Si25  1  0.75000000  0.65532097  0.65532097  1
  Si  Si26  1  0.75000000  0.48923118  0.84982933  1
  Si  Si27  1  0.75000000  0.84982933  0.48923118  1
  O  O28  1  0.55221500  0.95886880  0.24164514  1
  O  O29  1  0.44827378  0.75637913  0.03731566  1
  O  O30  1  0.94778500  0.95886880  0.24164514  1
  O  O31  1  0.05172622  0.75637913  0.03731566  1
  O  O32  1  0.44827378  0.03731566  0.75637913  1
  O  O33  1  0.55221500  0.24164514  0.95886880  1
  O  O34  1  0.05172622  0.03731566  0.75637913  1
  O  O35  1  0.94778500  0.24164514  0.95886880  1
  O  O36  1  0.25000000  0.99195998  0.46267665  1
  O  O37  1  0.75000000  0.53191596  0.99910290  1
  O  O38  1  0.75000000  0.99910290  0.53191596  1
  O  O39  1  0.25000000  0.46267665  0.99195998  1
  O  O40  1  0.25000000  0.09451041  0.09451041  1
  O  O41  1  0.75000000  0.90257137  0.90257137  1
  O  O42  1  0.25000000  0.64584927  0.44823013  1
  O  O43  1  0.75000000  0.54987844  0.35921668  1
  O  O44  1  0.75000000  0.35921668  0.54987844  1
  O  O45  1  0.25000000  0.44823013  0.64584927  1
  O  O46  1  0.54970510  0.58893149  0.58893149  1
  O  O47  1  0.44662728  0.41259886  0.41259886  1
  O  O48  1  0.95029490  0.58893149  0.58893149  1
  O  O49  1  0.05337272  0.41259886  0.41259886  1
  O  O50  1  0.25000000  0.81322139  0.27180316  1
  O  O51  1  0.75000000  0.72968270  0.17958660  1
  O  O52  1  0.75000000  0.17958660  0.72968270  1
  O  O53  1  0.25000000  0.27180316  0.81322139  1
  O  O54  1  0.25000000  0.19614213  0.36334398  1
  O  O55  1  0.75000000  0.63501176  0.80366861  1
  O  O56  1  0.75000000  0.80366861  0.63501176  1
  O  O57  1  0.25000000  0.36334398  0.19614213  1
  O  O58  1  0.25000000  0.87920489  0.87920489  1
  O  O59  1  0.75000000  0.12293434  0.12293434  1
  O  O60  1  0.54990040  0.78145440  0.41938729  1
  O  O61  1  0.46663585  0.59130240  0.22312615  1
  O  O62  1  0.95009960  0.78145440  0.41938729  1
  O  O63  1  0.03336415  0.59130240  0.22312615  1
  O  O64  1  0.46663585  0.22312615  0.59130240  1
  O  O65  1  0.54990040  0.41938729  0.78145440  1
  O  O66  1  0.03336415  0.22312615  0.59130240  1
  O  O67  1  0.95009960  0.41938729  0.78145440  1
  O  O68  1  0.25000000  0.83226945  0.63286132  1
  O  O69  1  0.75000000  0.36948527  0.16452044  1
  O  O70  1  0.75000000  0.16452044  0.36948527  1
  O  O71  1  0.25000000  0.63286132  0.83226945  1
