# generated using pymatgen
data_Na16Ti7(SiO5)8
_symmetry_space_group_name_H-M   'P 1'
_cell_length_a   9.91733013
_cell_length_b   10.97778305
_cell_length_c   10.60045845
_cell_angle_alpha   101.93423814
_cell_angle_beta   117.89017876
_cell_angle_gamma   63.76422764
_symmetry_Int_Tables_number   1
_chemical_formula_structural   Na16Ti7(SiO5)8
_chemical_formula_sum   'Na16 Ti7 Si8 O40'
_cell_volume   914.94411589
_cell_formula_units_Z   1
loop_
 _symmetry_equiv_pos_site_id
 _symmetry_equiv_pos_as_xyz
  1  'x, y, z'
loop_
 _atom_site_type_symbol
 _atom_site_label
 _atom_site_symmetry_multiplicity
 _atom_site_fract_x
 _atom_site_fract_y
 _atom_site_fract_z
 _atom_site_occupancy
  Na  Na0  1  0.24564691  0.74951064  0.24841796  1
  Na  Na1  1  0.72866135  0.75236002  0.23792250  1
  Na  Na2  1  0.00277106  0.25048936  0.24841796  1
  Na  Na3  1  0.50926115  0.24763998  0.23792250  1
  Na  Na4  1  0.27133865  0.24763998  0.76207750  1
  Na  Na5  1  0.75435309  0.25048936  0.75158204  1
  Na  Na6  1  0.49073885  0.75236002  0.76207750  1
  Na  Na7  1  0.99722894  0.74951064  0.75158204  1
  Na  Na8  1  0.83160279  0.75197461  0.00000000  1
  Na  Na9  1  0.32476866  0.75889764  1.00000000  1
  Na  Na10  1  0.16839721  0.24802539  1.00000000  1
  Na  Na11  1  0.67523134  0.24110236  0.00000000  1
  Na  Na12  1  0.00000000  0.50000000  0.50000000  1
  Na  Na13  1  0.50000000  0.50000000  0.50000000  1
  Na  Na14  1  0.26194344  0.00000000  0.52388687  1
  Na  Na15  1  0.73805656  1.00000000  0.47611313  1
  Ti  Ti16  1  0.14555038  0.74548610  0.50416077  1
  Ti  Ti17  1  0.64138961  0.74548610  0.49583923  1
  Ti  Ti18  1  0.35861039  0.25451390  0.50416077  1
  Ti  Ti19  1  0.85444962  0.25451390  0.49583923  1
  Ti  Ti20  1  0.27810945  0.47551640  0.00000000  1
  Ti  Ti21  1  0.72189055  0.52448360  1.00000000  1
  Ti  Ti22  1  0.00000000  0.00000000  -0.00000000  1
  Si  Si23  1  0.12409970  0.50000000  0.24819940  1
  Si  Si24  1  0.62327869  0.50000000  0.24655739  1
  Si  Si25  1  0.36706721  0.00787481  0.26105790  1
  Si  Si26  1  0.89399068  0.99212519  0.26105790  1
  Si  Si27  1  0.37672131  0.50000000  0.75344261  1
  Si  Si28  1  0.87590030  0.50000000  0.75180060  1
  Si  Si29  1  0.63293279  0.99212519  0.73894210  1
  Si  Si30  1  0.10600932  0.00787481  0.73894210  1
  O  O31  1  0.79151655  0.89616903  0.17905243  1
  O  O32  1  0.23756122  0.93876491  0.15037801  1
  O  O33  1  0.38753589  0.10383097  0.17905243  1
  O  O34  1  0.91281679  0.06123509  0.15037801  1
  O  O35  1  0.92218706  0.55639454  0.14788181  1
  O  O36  1  0.41995134  0.57016094  0.14837691  1
  O  O37  1  0.22569475  0.44360546  0.14788181  1
  O  O38  1  0.72842557  0.42983906  0.14837691  1
  O  O39  1  0.76243878  0.06123509  0.84962199  1
  O  O40  1  0.20848345  0.10383097  0.82094757  1
  O  O41  1  0.08718321  0.93876491  0.84962199  1
  O  O42  1  0.61246411  0.89616903  0.82094757  1
  O  O43  1  0.58004866  0.42983906  0.85162309  1
  O  O44  1  0.07781294  0.44360546  0.85211819  1
  O  O45  1  0.27157443  0.57016094  0.85162309  1
  O  O46  1  0.77430525  0.55639454  0.85211819  1
  O  O47  1  0.97093304  0.74452643  0.50132994  1
  O  O48  1  0.46960310  0.74452643  0.49867006  1
  O  O49  1  0.53039690  0.25547357  0.50132994  1
  O  O50  1  0.02906696  0.25547357  0.49867006  1
  O  O51  1  0.29473121  0.10858149  0.37405973  1
  O  O52  1  0.80019422  0.11343702  0.34903804  1
  O  O53  1  0.07932853  0.89141851  0.37405973  1
  O  O54  1  0.54884382  0.88656298  0.34903804  1
  O  O55  1  0.16841237  0.38173721  0.35229330  1
  O  O56  1  0.65970081  0.38652135  0.35201776  1
  O  O57  1  0.18388093  0.61826279  0.35229330  1
  O  O58  1  0.69231695  0.61347865  0.35201776  1
  O  O59  1  0.19980578  0.88656298  0.65096196  1
  O  O60  1  0.70526879  0.89141851  0.62594027  1
  O  O61  1  0.45115618  0.11343702  0.65096196  1
  O  O62  1  0.92067147  0.10858149  0.62594027  1
  O  O63  1  0.34029919  0.61347865  0.64798224  1
  O  O64  1  0.83158763  0.61826279  0.64770670  1
  O  O65  1  0.30768305  0.38652135  0.64798224  1
  O  O66  1  0.81611907  0.38173721  0.64770670  1
  O  O67  1  0.57819442  0.68512328  1.00000000  1
  O  O68  1  0.03179228  0.81409215  1.00000000  1
  O  O69  1  0.42180558  0.31487672  0.00000000  1
  O  O70  1  0.96820772  0.18590785  0.00000000  1
