# generated using pymatgen
data_Li2Al2P2O9F
_symmetry_space_group_name_H-M   'P 1'
_cell_length_a   5.11198392
_cell_length_b   5.21204501
_cell_length_c   7.05367025
_cell_angle_alpha   106.39772022
_cell_angle_beta   107.89432830
_cell_angle_gamma   99.22272848
_symmetry_Int_Tables_number   1
_chemical_formula_structural   Li2Al2P2O9F
_chemical_formula_sum   'Li2 Al2 P2 O9 F1'
_cell_volume   165.17134683
_cell_formula_units_Z   1
loop_
 _symmetry_equiv_pos_site_id
 _symmetry_equiv_pos_as_xyz
  1  'x, y, z'
loop_
 _atom_site_type_symbol
 _atom_site_label
 _atom_site_symmetry_multiplicity
 _atom_site_fract_x
 _atom_site_fract_y
 _atom_site_fract_z
 _atom_site_occupancy
  Li  Li0  1  0.72882688  0.37244743  0.80313382  1
  Li  Li1  1  0.26779046  0.62455785  0.19673789  1
  Al  Al2  1  0.00061111  0.00182719  0.99752756  1
  Al  Al3  1  0.99552075  0.99663727  0.50027358  1
  P  P4  1  0.67789192  0.35329519  0.24095886  1
  P  P5  1  0.32086651  0.64761003  0.75875643  1
  O  O6  1  0.12780811  0.67840262  0.89425215  1
  O  O7  1  0.87823951  0.32664336  0.11156908  1
  O  O8  1  0.69874338  0.66487502  0.34768828  1
  O  O9  1  0.29449786  0.33284273  0.65510826  1
  O  O10  1  0.36137190  0.23702762  0.08729085  1
  O  O11  1  0.63942193  0.76305847  0.91063712  1
  O  O12  1  0.25228923  0.78944195  0.59395139  1
  O  O13  1  0.74761936  0.20394457  0.39984454  1
  O  O14  1  0.90603527  0.06468265  0.74215888  1
  F  F15  1  0.10246580  0.94270604  0.26011132  1
