# generated using pymatgen
data_Mn7Fe3
_symmetry_space_group_name_H-M   'P 1'
_cell_length_a   6.04862453
_cell_length_b   6.06906789
_cell_length_c   6.04993778
_cell_angle_alpha   90.00000000
_cell_angle_beta   89.81171301
_cell_angle_gamma   90.00000000
_symmetry_Int_Tables_number   1
_chemical_formula_structural   Mn7Fe3
_chemical_formula_sum   'Mn14 Fe6'
_cell_volume   222.08906993
_cell_formula_units_Z   2
loop_
 _symmetry_equiv_pos_site_id
 _symmetry_equiv_pos_as_xyz
  1  'x, y, z'
loop_
 _atom_site_type_symbol
 _atom_site_label
 _atom_site_symmetry_multiplicity
 _atom_site_fract_x
 _atom_site_fract_y
 _atom_site_fract_z
 _atom_site_occupancy
  Mn  Mn0  1  0.94964925  0.37457396  0.79946613  1
  Mn  Mn1  1  0.05035075  0.87457396  0.70053387  1
  Mn  Mn2  1  0.44901297  0.12596103  0.19756087  1
  Mn  Mn3  1  0.55098703  0.62596103  0.30243913  1
  Mn  Mn4  1  0.37385142  0.80158893  0.94877251  1
  Mn  Mn5  1  0.87407560  0.69969258  0.04691582  1
  Mn  Mn6  1  0.12592440  0.19969258  0.45308418  1
  Mn  Mn7  1  0.62614858  0.30158893  0.55122749  1
  Mn  Mn8  1  0.79780871  0.94820005  0.37669574  1
  Mn  Mn9  1  0.69908807  0.05111560  0.87201721  1
  Mn  Mn10  1  0.20219129  0.44820005  0.12330426  1
  Mn  Mn11  1  0.30091193  0.55111560  0.62798279  1
  Mn  Mn12  1  0.80645993  0.30939319  0.19234563  1
  Mn  Mn13  1  0.19354007  0.80939319  0.30765437  1
  Fe  Fe14  1  0.30647309  0.19073531  0.80902296  1
  Fe  Fe15  1  0.69352691  0.69073531  0.69097704  1
  Fe  Fe16  1  0.44083008  0.93957912  0.55431321  1
  Fe  Fe17  1  0.94272930  0.55916022  0.44111820  1
  Fe  Fe18  1  0.55916992  0.43957912  0.94568679  1
  Fe  Fe19  1  0.05727070  0.05916022  0.05888180  1
