# generated using pymatgen
data_Mg5Ti(BO5)2
_symmetry_space_group_name_H-M   'P 1'
_cell_length_a   3.04738433
_cell_length_b   9.38979704
_cell_length_c   12.46751229
_cell_angle_alpha   90.00000000
_cell_angle_beta   90.00000000
_cell_angle_gamma   90.00000000
_symmetry_Int_Tables_number   1
_chemical_formula_structural   Mg5Ti(BO5)2
_chemical_formula_sum   'Mg10 Ti2 B4 O20'
_cell_volume   356.74939078
_cell_formula_units_Z   2
loop_
 _symmetry_equiv_pos_site_id
 _symmetry_equiv_pos_as_xyz
  1  'x, y, z'
loop_
 _atom_site_type_symbol
 _atom_site_label
 _atom_site_symmetry_multiplicity
 _atom_site_fract_x
 _atom_site_fract_y
 _atom_site_fract_z
 _atom_site_occupancy
  Mg  Mg0  1  0.00000000  0.51523113  0.50442142  1
  Mg  Mg1  1  -0.00000000  0.98476887  0.00442142  1
  Mg  Mg2  1  0.50000000  0.51563908  0.27902308  1
  Mg  Mg3  1  0.50000000  0.51103273  0.71461452  1
  Mg  Mg4  1  0.50000000  0.98896727  0.21461452  1
  Mg  Mg5  1  0.50000000  0.98436092  0.77902308  1
  Mg  Mg6  1  0.50000000  0.51480109  0.00423000  1
  Mg  Mg7  1  0.50000000  0.98519891  0.50423000  1
  Mg  Mg8  1  -0.00000000  0.73562715  0.11747362  1
  Mg  Mg9  1  0.00000000  0.76437285  0.61747362  1
  Ti  Ti10  1  -0.00000000  0.25994292  0.88436710  1
  Ti  Ti11  1  0.00000000  0.24005708  0.38436710  1
  B  B12  1  -0.00000000  0.77682880  0.35983740  1
  B  B13  1  0.00000000  0.22910351  0.63997871  1
  B  B14  1  0.00000000  0.27089649  0.13997871  1
  B  B15  1  -0.00000000  0.72317120  0.85983740  1
  O  O16  1  -0.00000000  0.85250171  0.45472394  1
  O  O17  1  0.00000000  0.15573266  0.54043268  1
  O  O18  1  -0.00000000  0.34426734  0.04043268  1
  O  O19  1  0.00000000  0.64749829  0.95472394  1
  O  O20  1  0.50000000  0.88870806  0.07449926  1
  O  O21  1  0.50000000  0.12686141  0.92141744  1
  O  O22  1  0.50000000  0.37313859  0.42141744  1
  O  O23  1  0.50000000  0.61129194  0.57449926  1
  O  O24  1  -0.00000000  0.62636126  0.35849117  1
  O  O25  1  0.00000000  0.37362761  0.64331806  1
  O  O26  1  -0.00000000  0.12637239  0.14331806  1
  O  O27  1  0.00000000  0.87363874  0.85849117  1
  O  O28  1  0.50000000  0.60196845  0.14309491  1
  O  O29  1  0.50000000  0.38513465  0.85589441  1
  O  O30  1  0.50000000  0.11486535  0.35589441  1
  O  O31  1  0.50000000  0.89803155  0.64309491  1
  O  O32  1  -0.00000000  0.85263761  0.26460996  1
  O  O33  1  0.00000000  0.15469583  0.73957232  1
  O  O34  1  -0.00000000  0.34530417  0.23957232  1
  O  O35  1  0.00000000  0.64736239  0.76460996  1
