# generated using pymatgen
data_Lu9B5S21
_symmetry_space_group_name_H-M   'P 1'
_cell_length_a   10.99015500
_cell_length_b   10.98996506
_cell_length_c   10.99007217
_cell_angle_alpha   93.55664224
_cell_angle_beta   86.44330996
_cell_angle_gamma   86.44302262
_symmetry_Int_Tables_number   1
_chemical_formula_structural   Lu9B5S21
_chemical_formula_sum   'Lu18 B10 S42'
_cell_volume   1319.39242913
_cell_formula_units_Z   2
loop_
 _symmetry_equiv_pos_site_id
 _symmetry_equiv_pos_as_xyz
  1  'x, y, z'
loop_
 _atom_site_type_symbol
 _atom_site_label
 _atom_site_symmetry_multiplicity
 _atom_site_fract_x
 _atom_site_fract_y
 _atom_site_fract_z
 _atom_site_occupancy
  Lu  Lu0  1  0.92149284  0.23953332  0.46734663  1
  Lu  Lu1  1  0.55741659  0.58509369  0.80184324  1
  Lu  Lu2  1  0.24097911  0.91577016  0.14801463  1
  Lu  Lu3  1  0.19815414  0.44258131  0.58509944  1
  Lu  Lu4  1  0.85199429  0.75902800  0.91578722  1
  Lu  Lu5  1  0.53265516  0.07850427  0.23951915  1
  Lu  Lu6  1  0.08422487  0.14800448  0.75901557  1
  Lu  Lu7  1  0.76049554  0.46734344  0.07849201  1
  Lu  Lu8  1  0.41489710  0.80183484  0.44259980  1
  Lu  Lu9  1  0.72172321  0.13274485  0.91866049  1
  Lu  Lu10  1  0.37700618  0.46514889  0.23367010  1
  Lu  Lu11  1  0.05651598  0.78766711  0.55538658  1
  Lu  Lu12  1  0.44461091  0.94347536  0.78767410  1
  Lu  Lu13  1  0.08133554  0.27827548  0.13274375  1
  Lu  Lu14  1  0.76629573  0.62300436  0.46514424  1
  Lu  Lu15  1  0.53485091  0.23369070  0.62299758  1
  Lu  Lu16  1  0.21233346  0.55538596  0.94347355  1
  Lu  Lu17  1  0.86725411  0.91867252  0.27826918  1
  B  B18  1  0.75904306  0.91359305  0.57770550  1
  B  B19  1  0.42229624  0.24095962  0.91359214  1
  B  B20  1  0.08640681  0.57770584  0.24095611  1
  B  B21  1  0.58720999  0.74042019  0.07884073  1
  B  B22  1  0.25957155  0.07883896  0.41279617  1
  B  B23  1  0.92115997  0.41279123  0.74042964  1
  B  B24  1  0.02177528  0.97822351  0.97822482  1
  B  B25  1  0.69465082  0.30534805  0.30535121  1
  B  B26  1  0.19437623  0.80562607  0.80562040  1
  B  B27  1  0.52194491  0.47805199  0.47805570  1
  S  S28  1  0.97267914  0.69136703  0.34626914  1
  S  S29  1  0.65372560  0.02732194  0.69136523  1
  S  S30  1  0.30862918  0.34628484  0.02731557  1
  S  S31  1  0.47388294  0.84556897  0.19325567  1
  S  S32  1  0.15442598  0.19324786  0.52612390  1
  S  S33  1  0.80674743  0.52611752  0.84558370  1
  S  S34  1  0.50373540  0.75146922  0.64716929  1
  S  S35  1  0.14928153  0.07562134  0.98171659  1
  S  S36  1  0.81789163  0.40762318  0.31279672  1
  S  S37  1  0.68720715  0.18210336  0.40762349  1
  S  S38  1  0.35283646  0.49627862  0.75146675  1
  S  S39  1  0.01829539  0.85071522  0.07563392  1
  S  S40  1  0.92438003  0.98170784  0.85071149  1
  S  S41  1  0.59237987  0.31279273  0.18210854  1
  S  S42  1  0.24852199  0.64715429  0.49623862  1
  S  S43  1  0.73377731  0.01092237  0.11703526  1
  S  S44  1  0.41197274  0.36308161  0.45665478  1
  S  S45  1  0.07996947  0.69457476  0.78876044  1
  S  S46  1  0.54334914  0.58802885  0.36306972  1
  S  S47  1  0.21123397  0.92003929  0.69456150  1
  S  S48  1  0.88296087  0.26619787  0.01094699  1
  S  S49  1  0.30543432  0.78877248  0.92002900  1
  S  S50  1  0.98907621  0.11703799  0.26621399  1
  S  S51  1  0.63692693  0.45665313  0.58802320  1
  S  S52  1  0.68286341  0.85816255  0.43065104  1
  S  S53  1  0.34659131  0.18175931  0.76764612  1
  S  S54  1  0.01196281  0.52079635  0.09438809  1
  S  S55  1  0.90560849  0.98804201  0.52079128  1
  S  S56  1  0.56935235  0.31713378  0.85814919  1
  S  S57  1  0.23235687  0.65340932  0.18176061  1
  S  S58  1  0.81825398  0.76764230  0.65341152  1
  S  S59  1  0.47920364  0.09439507  0.98803622  1
  S  S60  1  0.14184908  0.43066109  0.31713006  1
  S  S61  1  0.74761732  0.71075446  0.13872935  1
  S  S62  1  0.42119919  0.04848548  0.47440562  1
  S  S63  1  0.08165642  0.38742264  0.80232234  1
  S  S64  1  0.52560159  0.57880153  0.04849445  1
  S  S65  1  0.19768508  0.91833708  0.38743126  1
  S  S66  1  0.86127734  0.25237630  0.71076174  1
  S  S67  1  0.61257693  0.80230221  0.91834175  1
  S  S68  1  0.28924298  0.13872103  0.25237663  1
  S  S69  1  0.95151002  0.47439792  0.57878953  1
