# generated using pymatgen
data_KSr2(BiO3)3
_symmetry_space_group_name_H-M   'P 1'
_cell_length_a   6.12647225
_cell_length_b   7.55404248
_cell_length_c   6.12459314
_cell_angle_alpha   90.02623395
_cell_angle_beta   59.98985019
_cell_angle_gamma   90.00000000
_symmetry_Int_Tables_number   1
_chemical_formula_structural   KSr2(BiO3)3
_chemical_formula_sum   'K1 Sr2 Bi3 O9'
_cell_volume   245.44448633
_cell_formula_units_Z   1
loop_
 _symmetry_equiv_pos_site_id
 _symmetry_equiv_pos_as_xyz
  1  'x, y, z'
loop_
 _atom_site_type_symbol
 _atom_site_label
 _atom_site_symmetry_multiplicity
 _atom_site_fract_x
 _atom_site_fract_y
 _atom_site_fract_z
 _atom_site_occupancy
  K  K0  1  0.66666700  0.83333300  0.66666700  1
  Sr  Sr1  1  0.33326385  0.19623678  0.33347130  1
  Sr  Sr2  1  0.00006915  0.47043022  0.99986170  1
  Bi  Bi3  1  0.33316108  0.67409130  0.33367684  1
  Bi  Bi4  1  0.66666700  0.33333300  0.66666700  1
  Bi  Bi5  1  0.00017192  0.99257570  0.99965616  1
  O  O6  1  0.16666700  0.83333300  0.66666700  1
  O  O7  1  0.49248153  0.48094296  0.01503694  1
  O  O8  1  0.84085147  0.18572404  0.31829606  1
  O  O9  1  0.49232273  0.48112002  0.49243001  1
  O  O10  1  0.84101027  0.18554698  0.84090299  1
  O  O11  1  0.16666700  0.83333300  0.16666700  1
  O  O12  1  0.66666700  0.83333300  0.16666700  1
  O  O13  1  0.01524726  0.48112002  0.49243001  1
  O  O14  1  0.31808574  0.18554698  0.84090299  1
