# generated using pymatgen
data_La3DyC8
_symmetry_space_group_name_H-M   'P 1'
_cell_length_a   3.90105908
_cell_length_b   3.90105908
_cell_length_c   12.94043560
_cell_angle_alpha   90.00000000
_cell_angle_beta   90.00000000
_cell_angle_gamma   90.00000000
_symmetry_Int_Tables_number   1
_chemical_formula_structural   La3DyC8
_chemical_formula_sum   'La3 Dy1 C8'
_cell_volume   196.93093865
_cell_formula_units_Z   1
loop_
 _symmetry_equiv_pos_site_id
 _symmetry_equiv_pos_as_xyz
  1  'x, y, z'
loop_
 _atom_site_type_symbol
 _atom_site_label
 _atom_site_symmetry_multiplicity
 _atom_site_fract_x
 _atom_site_fract_y
 _atom_site_fract_z
 _atom_site_occupancy
  La  La0  1  0.50000000  0.50000000  0.24987993  1
  La  La1  1  0.00000000  -0.00000000  0.50000000  1
  La  La2  1  0.50000000  0.50000000  0.75012007  1
  Dy  Dy3  1  0.00000000  -0.00000000  0.00000000  1
  C  C4  1  0.00000000  0.00000000  0.19380887  1
  C  C5  1  0.50000000  0.50000000  0.44981511  1
  C  C6  1  0.00000000  0.00000000  0.70558563  1
  C  C7  1  0.50000000  0.50000000  0.94995949  1
  C  C8  1  0.50000000  0.50000000  0.05004051  1
  C  C9  1  -0.00000000  -0.00000000  0.29441437  1
  C  C10  1  0.50000000  0.50000000  0.55018489  1
  C  C11  1  -0.00000000  -0.00000000  0.80619113  1
