# generated using pymatgen
data_FeCuAs2PbO10
_symmetry_space_group_name_H-M   'P 1'
_cell_length_a   5.47468377
_cell_length_b   5.67703740
_cell_length_c   7.71167823
_cell_angle_alpha   107.50141900
_cell_angle_beta   95.84951385
_cell_angle_gamma   111.87454620
_symmetry_Int_Tables_number   1
_chemical_formula_structural   FeCuAs2PbO10
_chemical_formula_sum   'Fe1 Cu1 As2 Pb1 O10'
_cell_volume   205.83433402
_cell_formula_units_Z   1
loop_
 _symmetry_equiv_pos_site_id
 _symmetry_equiv_pos_as_xyz
  1  'x, y, z'
loop_
 _atom_site_type_symbol
 _atom_site_label
 _atom_site_symmetry_multiplicity
 _atom_site_fract_x
 _atom_site_fract_y
 _atom_site_fract_z
 _atom_site_occupancy
  Fe  Fe0  1  -0.00000000  -0.00000000  0.50000000  1
  Cu  Cu1  1  0.50000000  0.50000000  0.50000000  1
  As  As2  1  0.59852654  0.22105249  0.78548281  1
  As  As3  1  0.40147346  0.77894751  0.21451719  1
  Pb  Pb4  1  -0.00000000  -0.00000000  0.00000000  1
  O  O5  1  0.81947658  0.61202871  0.43555717  1
  O  O6  1  0.18052342  0.38797129  0.56444283  1
  O  O7  1  0.72909705  0.00467172  0.66259272  1
  O  O8  1  0.27090295  0.99532828  0.33740728  1
  O  O9  1  0.75390773  0.95874602  0.27371584  1
  O  O10  1  0.24609227  0.04125398  0.72628416  1
  O  O11  1  0.31352173  0.48596545  0.27166103  1
  O  O12  1  0.68647827  0.51403455  0.72833897  1
  O  O13  1  0.72096812  0.30709920  0.01616883  1
  O  O14  1  0.27903188  0.69290080  0.98383117  1
