# generated using pymatgen
data_K2HS2NO6
_symmetry_space_group_name_H-M   'P 1'
_cell_length_a   7.39247181
_cell_length_b   7.32032877
_cell_length_c   12.63459108
_cell_angle_alpha   90.00000000
_cell_angle_beta   90.47393083
_cell_angle_gamma   90.00000000
_symmetry_Int_Tables_number   1
_chemical_formula_structural   K2HS2NO6
_chemical_formula_sum   'K4 H2 S4 N2 O12'
_cell_volume   683.70160007
_cell_formula_units_Z   2
loop_
 _symmetry_equiv_pos_site_id
 _symmetry_equiv_pos_as_xyz
  1  'x, y, z'
loop_
 _atom_site_type_symbol
 _atom_site_label
 _atom_site_symmetry_multiplicity
 _atom_site_fract_x
 _atom_site_fract_y
 _atom_site_fract_z
 _atom_site_occupancy
  K  K0  1  0.87334278  0.66421405  0.64216407  1
  K  K1  1  0.63459842  0.66919177  0.35403369  1
  K  K2  1  0.13459842  0.33080823  0.35403369  1
  K  K3  1  0.37334278  0.33578595  0.64216407  1
  H  H4  1  0.67284690  0.97230173  0.52555741  1
  H  H5  1  0.17284690  0.02769827  0.52555741  1
  S  S6  1  0.85616908  0.18124021  0.60355351  1
  S  S7  1  0.63945493  0.18800710  0.39653449  1
  S  S8  1  0.13945493  0.81199290  0.39653449  1
  S  S9  1  0.35616908  0.81875979  0.60355351  1
  N  N10  1  0.74729081  0.08257393  0.50001400  1
  N  N11  1  0.24729081  0.91742607  0.50001400  1
  O  O12  1  0.02007253  0.26701244  0.55888417  1
  O  O13  1  0.48225238  0.28923972  0.43797683  1
  O  O14  1  0.98225238  0.71076028  0.43797683  1
  O  O15  1  0.52007253  0.73298756  0.55888417  1
  O  O16  1  0.73827868  0.31958724  0.65184141  1
  O  O17  1  0.77259083  0.31388675  0.35180373  1
  O  O18  1  0.27259083  0.68611325  0.35180373  1
  O  O19  1  0.23827868  0.68041276  0.65184141  1
  O  O20  1  0.89639891  0.02468971  0.67047161  1
  O  O21  1  0.59070376  0.03334270  0.33016508  1
  O  O22  1  0.09070376  0.96665730  0.33016508  1
  O  O23  1  0.39639891  0.97531029  0.67047161  1
