# generated using pymatgen
data_K6Bi6O19
_symmetry_space_group_name_H-M   'P 1'
_cell_length_a   8.77984872
_cell_length_b   8.94706297
_cell_length_c   8.77984872
_cell_angle_alpha   70.54660671
_cell_angle_beta   71.35577525
_cell_angle_gamma   109.54546613
_symmetry_Int_Tables_number   1
_chemical_formula_structural   K6Bi6O19
_chemical_formula_sum   'K6 Bi6 O19'
_cell_volume   535.88384549
_cell_formula_units_Z   1
loop_
 _symmetry_equiv_pos_site_id
 _symmetry_equiv_pos_as_xyz
  1  'x, y, z'
loop_
 _atom_site_type_symbol
 _atom_site_label
 _atom_site_symmetry_multiplicity
 _atom_site_fract_x
 _atom_site_fract_y
 _atom_site_fract_z
 _atom_site_occupancy
  K  K0  1  0.97318515  0.26186205  0.02869445  1
  K  K1  1  0.70944350  0.73813795  0.28867691  1
  K  K2  1  0.36709020  0.99452874  0.01143967  1
  K  K3  1  0.99403160  0.00547126  0.62743854  1
  K  K4  1  0.99582306  0.66460835  0.99973635  1
  K  K5  1  0.33565529  0.33539165  0.66878529  1
  Bi  Bi6  1  0.83718939  0.50000000  0.66281061  1
  Bi  Bi7  1  0.15565584  0.50000000  0.34434416  1
  Bi  Bi8  1  0.65627121  0.15746665  0.50680300  1
  Bi  Bi9  1  0.33573035  0.84253335  0.50119544  1
  Bi  Bi10  1  0.49540134  0.33932918  0.16263949  1
  Bi  Bi11  1  0.49803133  0.66067082  0.84392785  1
  O  O12  1  0.04369758  -0.00000000  0.95630242  1
  O  O13  1  0.35540422  -0.00000000  0.64459578  1
  O  O14  1  0.63291835  -0.00000000  0.36708165  1
  O  O15  1  0.64035796  0.63421728  0.00304478  1
  O  O16  1  0.36273794  0.36578272  0.99385932  1
  O  O17  1  0.00366688  0.36729935  0.64103427  1
  O  O18  1  0.99166638  0.63270065  0.36363247  1
  O  O19  1  0.65949823  0.37604730  0.29655939  1
  O  O20  1  0.32739331  0.62395270  0.71654907  1
  O  O21  1  0.64760732  0.94872751  0.72930145  1
  O  O22  1  0.32197104  0.05127249  0.30112018  1
  O  O23  1  0.71148343  0.33624456  0.95670766  1
  O  O24  1  0.27712266  0.65336566  0.05325351  1
  O  O25  1  0.29338083  0.34663434  0.37624300  1
  O  O26  1  0.70704779  0.66375544  0.62476113  1
  O  O27  1  0.62070844  0.28882065  0.66759648  1
  O  O28  1  0.37354348  0.71915658  0.33314039  1
  O  O29  1  0.04358287  0.71117935  0.66811220  1
  O  O30  1  0.94770304  0.28084342  0.34561309  1
