# generated using pymatgen
data_K6Nb11O30
_symmetry_space_group_name_H-M   'P 1'
_cell_length_a   3.96251666
_cell_length_b   13.02950247
_cell_length_c   13.02950247
_cell_angle_alpha   89.58914640
_cell_angle_beta   90.00000000
_cell_angle_gamma   90.00000000
_symmetry_Int_Tables_number   1
_chemical_formula_structural   K6Nb11O30
_chemical_formula_sum   'K6 Nb11 O30'
_cell_volume   672.69097375
_cell_formula_units_Z   1
loop_
 _symmetry_equiv_pos_site_id
 _symmetry_equiv_pos_as_xyz
  1  'x, y, z'
loop_
 _atom_site_type_symbol
 _atom_site_label
 _atom_site_symmetry_multiplicity
 _atom_site_fract_x
 _atom_site_fract_y
 _atom_site_fract_z
 _atom_site_occupancy
  K  K0  1  0.50000000  0.67322585  0.81837205  1
  K  K1  1  0.50000000  0.31837205  0.17322585  1
  K  K2  1  0.50000000  0.83543872  0.33543872  1
  K  K3  1  0.50000000  0.17005724  0.67005724  1
  K  K4  1  0.50000000  0.49799057  0.50892562  1
  K  K5  1  0.50000000  0.00892562  0.99799057  1
  Nb  Nb6  1  -0.00000000  0.80724840  0.07069208  1
  Nb  Nb7  1  -0.00000000  0.20360387  0.91790266  1
  Nb  Nb8  1  -0.00000000  0.71118306  0.58805262  1
  Nb  Nb9  1  0.00000000  0.27724110  0.43082050  1
  Nb  Nb10  1  -0.00000000  0.08805262  0.21118306  1
  Nb  Nb11  1  -0.00000000  0.93082050  0.77724110  1
  Nb  Nb12  1  0.00000000  0.57069208  0.30724840  1
  Nb  Nb13  1  -0.00000000  0.41790266  0.70360387  1
  Nb  Nb14  1  0.00000000  0.48414575  0.98414575  1
  Nb  Nb15  1  -0.00000000  0.98966942  0.48966942  1
  Nb  Nb16  1  0.50000000  0.61983436  0.11983436  1
  O  O17  1  -0.00000000  0.50579930  0.84474688  1
  O  O18  1  -0.00000000  0.51550552  0.14924724  1
  O  O19  1  -0.00000000  0.99906389  0.34369455  1
  O  O20  1  -0.00000000  0.00267450  0.65555759  1
  O  O21  1  -0.00000000  0.84369455  0.49906389  1
  O  O22  1  -0.00000000  0.15555759  0.50267450  1
  O  O23  1  0.00000000  0.34474688  0.00579930  1
  O  O24  1  -0.00000000  0.64924724  0.01550552  1
  O  O25  1  0.50000000  0.57997480  0.26903362  1
  O  O26  1  0.50000000  0.42586247  0.70943990  1
  O  O27  1  0.50000000  0.92128938  0.79778343  1
  O  O28  1  0.50000000  0.07404768  0.20719405  1
  O  O29  1  0.50000000  0.29778343  0.42128938  1
  O  O30  1  0.50000000  0.70719405  0.57404768  1
  O  O31  1  0.50000000  0.76903362  0.07997480  1
  O  O32  1  0.50000000  0.20943990  0.92586247  1
  O  O33  1  0.00000000  0.70526431  0.20526431  1
  O  O34  1  -0.00000000  0.28869362  0.78869362  1
  O  O35  1  -0.00000000  0.78592039  0.71596989  1
  O  O36  1  0.00000000  0.21596989  0.28592039  1
  O  O37  1  0.50000000  0.51080013  0.01080013  1
  O  O38  1  0.50000000  0.00169557  0.50169557  1
  O  O39  1  -0.00000000  0.43752229  0.35661163  1
  O  O40  1  0.00000000  0.57023262  0.64149174  1
  O  O41  1  -0.00000000  0.06896907  0.85911315  1
  O  O42  1  0.00000000  0.92845588  0.14184105  1
  O  O43  1  -0.00000000  0.35911315  0.56896907  1
  O  O44  1  -0.00000000  0.64184105  0.42845588  1
  O  O45  1  0.00000000  0.85661163  0.93752229  1
  O  O46  1  -0.00000000  0.14149174  0.07023262  1
