# generated using pymatgen
data_La2(GaNi)5
_symmetry_space_group_name_H-M   'P 1'
_cell_length_a   5.18105147
_cell_length_b   6.33212212
_cell_length_c   6.33212212
_cell_angle_alpha   101.06698684
_cell_angle_beta   90.00000000
_cell_angle_gamma   90.00000000
_symmetry_Int_Tables_number   1
_chemical_formula_structural   La2(GaNi)5
_chemical_formula_sum   'La2 Ga5 Ni5'
_cell_volume   203.87503227
_cell_formula_units_Z   1
loop_
 _symmetry_equiv_pos_site_id
 _symmetry_equiv_pos_as_xyz
  1  'x, y, z'
loop_
 _atom_site_type_symbol
 _atom_site_label
 _atom_site_symmetry_multiplicity
 _atom_site_fract_x
 _atom_site_fract_y
 _atom_site_fract_z
 _atom_site_occupancy
  La  La0  1  0.25000000  0.68904721  0.68904721  1
  La  La1  1  0.75000000  0.31032901  0.31032901  1
  Ga  Ga2  1  0.50516868  0.77459303  0.21877309  1
  Ga  Ga3  1  0.99483132  0.77459303  0.21877309  1
  Ga  Ga4  1  0.50516868  0.21877309  0.77459303  1
  Ga  Ga5  1  0.99483132  0.21877309  0.77459303  1
  Ga  Ga6  1  0.25000000  0.08845400  0.08845400  1
  Ni  Ni7  1  0.75000000  0.93618421  0.93618421  1
  Ni  Ni8  1  0.25000000  0.46030864  0.07574084  1
  Ni  Ni9  1  0.75000000  0.91051689  0.54268696  1
  Ni  Ni10  1  0.75000000  0.54268696  0.91051689  1
  Ni  Ni11  1  0.25000000  0.07574084  0.46030864  1
