# generated using pymatgen
data_La4Cu3MoO12
_symmetry_space_group_name_H-M   'P 1'
_cell_length_a   7.82354348
_cell_length_b   8.30572506
_cell_length_c   7.97475150
_cell_angle_alpha   92.71191579
_cell_angle_beta   90.62047557
_cell_angle_gamma   90.63165474
_symmetry_Int_Tables_number   1
_chemical_formula_structural   La4Cu3MoO12
_chemical_formula_sum   'La8 Cu6 Mo2 O24'
_cell_volume   517.55572331
_cell_formula_units_Z   2
loop_
 _symmetry_equiv_pos_site_id
 _symmetry_equiv_pos_as_xyz
  1  'x, y, z'
loop_
 _atom_site_type_symbol
 _atom_site_label
 _atom_site_symmetry_multiplicity
 _atom_site_fract_x
 _atom_site_fract_y
 _atom_site_fract_z
 _atom_site_occupancy
  La  La0  1  0.74093054  0.78987427  0.71568642  1
  La  La1  1  0.25906946  0.21012573  0.28431358  1
  La  La2  1  0.76279016  0.25356497  0.20248973  1
  La  La3  1  0.23720984  0.74643503  0.79751027  1
  La  La4  1  0.75056002  0.25256407  0.71629335  1
  La  La5  1  0.24943998  0.74743593  0.28370665  1
  La  La6  1  0.74356941  0.80355667  0.23037702  1
  La  La7  1  0.25643059  0.19644333  0.76962298  1
  Cu  Cu8  1  0.50000000  0.00000000  0.50000000  1
  Cu  Cu9  1  -0.00000000  0.00000000  0.50000000  1
  Cu  Cu10  1  0.50000000  0.00000000  0.00000000  1
  Cu  Cu11  1  -0.00000000  0.00000000  0.00000000  1
  Cu  Cu12  1  0.50000000  0.50000000  0.50000000  1
  Cu  Cu13  1  -0.00000000  0.50000000  0.00000000  1
  Mo  Mo14  1  -0.00000000  0.50000000  0.50000000  1
  Mo  Mo15  1  0.50000000  0.50000000  0.00000000  1
  O  O16  1  0.73663836  0.53527558  0.07660608  1
  O  O17  1  0.26336164  0.46472442  0.92339392  1
  O  O18  1  0.54383576  0.73531998  0.44943360  1
  O  O19  1  0.04933166  0.28448517  0.57074075  1
  O  O20  1  0.45616424  0.26468002  0.55056640  1
  O  O21  1  0.95066834  0.71551483  0.42925925  1
  O  O22  1  0.74569454  0.96592613  0.97024864  1
  O  O23  1  0.25430546  0.03407387  0.02975136  1
  O  O24  1  0.55628453  0.56110428  0.77470903  1
  O  O25  1  0.04754352  0.42842990  0.27056187  1
  O  O26  1  0.44371547  0.43889572  0.22529097  1
  O  O27  1  0.95245648  0.57157010  0.72943813  1
  O  O28  1  0.46220862  0.95604413  0.75827721  1
  O  O29  1  0.96571482  0.04058905  0.25564130  1
  O  O30  1  0.53779138  0.04395587  0.24172279  1
  O  O31  1  0.03428518  0.95941095  0.74435870  1
  O  O32  1  0.76196398  0.42720548  0.46851466  1
  O  O33  1  0.23803602  0.57279452  0.53148534  1
  O  O34  1  0.75467839  0.01658320  0.53424005  1
  O  O35  1  0.24532161  0.98341680  0.46575995  1
  O  O36  1  0.44962928  0.72444685  0.05795378  1
  O  O37  1  0.94632815  0.27134993  0.95404291  1
  O  O38  1  0.55037072  0.27555315  0.94204622  1
  O  O39  1  0.05367185  0.72865007  0.04595709  1
