# generated using pymatgen
data_LaEr4Se7
_symmetry_space_group_name_H-M   'P 1'
_cell_length_a   3.97493264
_cell_length_b   7.05867027
_cell_length_c   12.23463115
_cell_angle_alpha   103.86232181
_cell_angle_beta   90.00000005
_cell_angle_gamma   73.64644179
_symmetry_Int_Tables_number   1
_chemical_formula_structural   LaEr4Se7
_chemical_formula_sum   'La1 Er4 Se7'
_cell_volume   318.95477541
_cell_formula_units_Z   1
loop_
 _symmetry_equiv_pos_site_id
 _symmetry_equiv_pos_as_xyz
  1  'x, y, z'
loop_
 _atom_site_type_symbol
 _atom_site_label
 _atom_site_symmetry_multiplicity
 _atom_site_fract_x
 _atom_site_fract_y
 _atom_site_fract_z
 _atom_site_occupancy
  La  La0  1  0.88754206  0.22491588  0.42156442  1
  Er  Er1  1  0.11285648  0.77428704  0.58162783  1
  Er  Er2  1  0.00040382  0.99919236  0.99786956  1
  Er  Er3  1  0.69999638  0.60000724  0.18582248  1
  Er  Er4  1  0.30029131  0.39941738  0.81359860  1
  Se  Se5  1  0.04630773  0.90738454  0.20731619  1
  Se  Se6  1  0.95774064  0.08451871  0.78525529  1
  Se  Se7  1  0.34177494  0.31645012  0.04913101  1
  Se  Se8  1  0.65996229  0.68007542  0.94970380  1
  Se  Se9  1  0.73571676  0.52856647  0.65535347  1
  Se  Se10  1  0.25013638  0.49972724  0.34784539  1
  Se  Se11  1  0.50727121  0.98545758  0.50491195  1
