# generated using pymatgen
data_DyV2(FeCo)5
_symmetry_space_group_name_H-M   'P 1'
_cell_length_a   4.65412711
_cell_length_b   6.36539049
_cell_length_c   6.36539049
_cell_angle_alpha   97.41502256
_cell_angle_beta   111.44332084
_cell_angle_gamma   68.55667916
_symmetry_Int_Tables_number   1
_chemical_formula_structural   DyV2(FeCo)5
_chemical_formula_sum   'Dy1 V2 Fe5 Co5'
_cell_volume   163.37139401
_cell_formula_units_Z   1
loop_
 _symmetry_equiv_pos_site_id
 _symmetry_equiv_pos_as_xyz
  1  'x, y, z'
loop_
 _atom_site_type_symbol
 _atom_site_label
 _atom_site_symmetry_multiplicity
 _atom_site_fract_x
 _atom_site_fract_y
 _atom_site_fract_z
 _atom_site_occupancy
  Dy  Dy0  1  -0.00000000  0.99876735  0.99876735  1
  V  V1  1  -0.00000000  0.35865050  0.35865050  1
  V  V2  1  0.00000000  0.64214447  0.64214447  1
  Fe  Fe3  1  0.50088659  0.99882874  0.50146254  1
  Fe  Fe4  1  0.00174720  0.99882874  0.50146254  1
  Fe  Fe5  1  0.49911341  0.50146254  0.99882874  1
  Fe  Fe6  1  0.99825280  0.50146254  0.99882874  1
  Fe  Fe7  1  0.50000000  0.22500093  0.22500093  1
  Co  Co8  1  0.72495968  0.77564931  0.22556867  1
  Co  Co9  1  0.27504032  0.22556867  0.77564931  1
  Co  Co10  1  0.50000000  0.77601142  0.77601142  1
  Co  Co11  1  0.64104338  0.35776901  0.63985577  1
  Co  Co12  1  0.35895662  0.63985577  0.35776901  1
