# generated using pymatgen
data_Ho3Si4
_symmetry_space_group_name_H-M   'P 1'
_cell_length_a   3.92507537
_cell_length_b   4.12896535
_cell_length_c   35.94494744
_cell_angle_alpha   86.70742948
_cell_angle_beta   90.03918136
_cell_angle_gamma   90.00000000
_symmetry_Int_Tables_number   1
_chemical_formula_structural   Ho3Si4
_chemical_formula_sum   'Ho12 Si16'
_cell_volume   581.58004317
_cell_formula_units_Z   4
loop_
 _symmetry_equiv_pos_site_id
 _symmetry_equiv_pos_as_xyz
  1  'x, y, z'
loop_
 _atom_site_type_symbol
 _atom_site_label
 _atom_site_symmetry_multiplicity
 _atom_site_fract_x
 _atom_site_fract_y
 _atom_site_fract_z
 _atom_site_occupancy
  Ho  Ho0  1  0.25280436  0.47751532  0.04496835  1
  Ho  Ho1  1  0.24733524  0.80895324  0.38209452  1
  Ho  Ho2  1  0.24699773  0.14204578  0.71590845  1
  Ho  Ho3  1  0.75810794  0.85796479  0.28407043  1
  Ho  Ho4  1  0.75559761  0.19100371  0.61799157  1
  Ho  Ho5  1  0.74733490  0.52228589  0.95542923  1
  Ho  Ho6  1  0.24796395  0.89955830  0.20088240  1
  Ho  Ho7  1  0.24705653  0.23249502  0.53501096  1
  Ho  Ho8  1  0.25021119  0.56655707  0.86688586  1
  Ho  Ho9  1  0.74786181  0.43316605  0.13366790  1
  Ho  Ho10  1  0.74965103  0.76686472  0.46626956  1
  Ho  Ho11  1  0.75026542  0.10022674  0.79954752  1
  Si  Si12  1  0.24929489  0.94173289  0.11653321  1
  Si  Si13  1  0.25036850  0.27553965  0.44892169  1
  Si  Si14  1  0.25053882  0.60895466  0.78209068  1
  Si  Si15  1  0.74745792  0.39166683  0.21666633  1
  Si  Si16  1  0.74688724  0.72498090  0.55003720  1
  Si  Si17  1  0.74977073  0.05816488  0.88367125  1
  Si  Si18  1  0.25715214  0.37111128  0.25777644  1
  Si  Si19  1  0.25623026  0.70438128  0.59123844  1
  Si  Si20  1  0.25026551  0.04010088  0.91979824  1
  Si  Si21  1  0.74923047  0.95971215  0.08057570  1
  Si  Si22  1  0.74935512  0.29543626  0.40912647  1
  Si  Si23  1  0.74972546  0.62889523  0.74221054  1
  Si  Si24  1  0.32057861  0.33881280  0.32237540  1
  Si  Si25  1  0.32405637  0.67205869  0.65588261  1
  Si  Si26  1  0.24944924  0.00727370  0.98545161  1
  Si  Si27  1  0.75045101  0.99260828  0.01478443  1
