# generated using pymatgen
data_Dy2ScNbO7
_symmetry_space_group_name_H-M   'P 1'
_cell_length_a   7.36975805
_cell_length_b   7.28609932
_cell_length_c   7.45157862
_cell_angle_alpha   90.00000000
_cell_angle_beta   59.63205743
_cell_angle_gamma   119.62519640
_symmetry_Int_Tables_number   1
_chemical_formula_structural   Dy2ScNbO7
_chemical_formula_sum   'Dy4 Sc2 Nb2 O14'
_cell_volume   282.94914952
_cell_formula_units_Z   2
loop_
 _symmetry_equiv_pos_site_id
 _symmetry_equiv_pos_as_xyz
  1  'x, y, z'
loop_
 _atom_site_type_symbol
 _atom_site_label
 _atom_site_symmetry_multiplicity
 _atom_site_fract_x
 _atom_site_fract_y
 _atom_site_fract_z
 _atom_site_occupancy
  Dy  Dy0  1  0.50000000  0.00000000  0.50000000  1
  Dy  Dy1  1  0.50000000  0.50000000  0.50000000  1
  Dy  Dy2  1  0.00000000  0.50000000  -0.00000000  1
  Dy  Dy3  1  0.00000000  0.50000000  0.50000000  1
  Sc  Sc4  1  0.50000000  0.50000000  -0.00000000  1
  Sc  Sc5  1  0.50000000  0.00000000  -0.00000000  1
  Nb  Nb6  1  0.00000000  0.00000000  0.50000000  1
  Nb  Nb7  1  0.00000000  0.00000000  -0.00000000  1
  O  O8  1  0.74234276  0.37117138  0.37882862  1
  O  O9  1  0.25765724  0.62882862  0.62117138  1
  O  O10  1  0.85173416  0.92586708  0.32413292  1
  O  O11  1  0.70006504  0.35003252  0.89996748  1
  O  O12  1  0.25098438  0.92123276  0.90446032  1
  O  O13  1  0.25098438  0.32975161  0.34455531  1
  O  O14  1  0.25098438  0.32975161  0.90446032  1
  O  O15  1  0.25098438  0.92123276  0.34455531  1
  O  O16  1  0.14826584  0.07413292  0.67586708  1
  O  O17  1  0.29993496  0.64996748  0.10003252  1
  O  O18  1  0.74901562  0.07876724  0.09553968  1
  O  O19  1  0.74901562  0.67024839  0.65544469  1
  O  O20  1  0.74901562  0.67024839  0.09553968  1
  O  O21  1  0.74901562  0.07876724  0.65544469  1
