# generated using pymatgen
data_H12C4N2O9
_symmetry_space_group_name_H-M   'P 1'
_cell_length_a   7.64371562
_cell_length_b   11.20524418
_cell_length_c   12.29918020
_cell_angle_alpha   90.00000000
_cell_angle_beta   90.28146225
_cell_angle_gamma   90.00000000
_symmetry_Int_Tables_number   1
_chemical_formula_structural   H12C4N2O9
_chemical_formula_sum   'H48 C16 N8 O36'
_cell_volume   1053.40838251
_cell_formula_units_Z   4
loop_
 _symmetry_equiv_pos_site_id
 _symmetry_equiv_pos_as_xyz
  1  'x, y, z'
loop_
 _atom_site_type_symbol
 _atom_site_label
 _atom_site_symmetry_multiplicity
 _atom_site_fract_x
 _atom_site_fract_y
 _atom_site_fract_z
 _atom_site_occupancy
  H  H0  1  0.62390104  0.78368311  0.24899448  1
  H  H1  1  0.87609896  0.28368311  0.25100552  1
  H  H2  1  0.37609896  0.21631689  0.75100552  1
  H  H3  1  0.12390104  0.71631689  0.74899448  1
  H  H4  1  0.07856499  0.95984219  0.31913576  1
  H  H5  1  0.42143501  0.45984219  0.18086424  1
  H  H6  1  0.92212790  0.03838159  0.81844112  1
  H  H7  1  0.57787210  0.53838159  0.68155888  1
  H  H8  1  0.92143501  0.04015781  0.68086424  1
  H  H9  1  0.57856499  0.54015781  0.81913576  1
  H  H10  1  0.07787210  0.96161841  0.18155888  1
  H  H11  1  0.42212790  0.46161841  0.31844112  1
  H  H12  1  0.48853439  0.87614963  0.31502168  1
  H  H13  1  0.01146561  0.37614963  0.18497832  1
  H  H14  1  0.47392052  0.10589170  0.81936676  1
  H  H15  1  0.02607948  0.60589170  0.68063324  1
  H  H16  1  0.51146561  0.12385037  0.68497832  1
  H  H17  1  0.98853439  0.62385037  0.81502168  1
  H  H18  1  0.52607948  0.89410830  0.18063324  1
  H  H19  1  0.97392052  0.39410830  0.31936676  1
  H  H20  1  0.96280638  0.85249182  0.24943248  1
  H  H21  1  0.53719362  0.35249182  0.25056752  1
  H  H22  1  0.03719362  0.14750818  0.75056752  1
  H  H23  1  0.46280638  0.64750818  0.74943248  1
  H  H24  1  0.85341524  0.65920735  0.18642284  1
  H  H25  1  0.64658476  0.15920735  0.31357716  1
  H  H26  1  0.14507948  0.34030594  0.68673536  1
  H  H27  1  0.35492052  0.84030594  0.81326464  1
  H  H28  1  0.14658476  0.34079265  0.81357716  1
  H  H29  1  0.35341524  0.84079265  0.68642284  1
  H  H30  1  0.85492052  0.65969406  0.31326464  1
  H  H31  1  0.64507948  0.15969406  0.18673536  1
  H  H32  1  0.29715382  0.28697324  0.49475039  1
  H  H33  1  0.20284618  0.78697324  0.00524961  1
  H  H34  1  0.70312382  0.71329525  0.99293591  1
  H  H35  1  0.79687618  0.21329525  0.50706409  1
  H  H36  1  0.70284618  0.71302676  0.50524961  1
  H  H37  1  0.79715382  0.21302676  0.99475039  1
  H  H38  1  0.29687618  0.28670475  0.00706409  1
  H  H39  1  0.20312382  0.78670475  0.49293591  1
  H  H40  1  0.89469234  0.99503466  0.25031098  1
  H  H41  1  0.60530766  0.49503466  0.24968902  1
  H  H42  1  0.10530766  0.00496534  0.74968902  1
  H  H43  1  0.39469234  0.50496534  0.75031098  1
  H  H44  1  0.40675973  0.77472155  0.22411532  1
  H  H45  1  0.09324027  0.27472155  0.27588468  1
  H  H46  1  0.59324027  0.22527845  0.77588468  1
  H  H47  1  0.90675973  0.72527845  0.72411532  1
  C  C48  1  0.24915465  0.11794973  0.46415874  1
  C  C49  1  0.25084535  0.61794973  0.03584126  1
  C  C50  1  0.75045688  0.88271449  0.96422909  1
  C  C51  1  0.74954312  0.38271449  0.53577091  1
  C  C52  1  0.75084535  0.88205027  0.53584126  1
  C  C53  1  0.74915465  0.38205027  0.96415874  1
  C  C54  1  0.24954312  0.11728551  0.03577091  1
  C  C55  1  0.25045688  0.61728551  0.46422909  1
  C  C56  1  0.26643479  0.98927648  0.51116845  1
  C  C57  1  0.23356521  0.48927648  0.98883155  1
  C  C58  1  0.73173767  0.01057947  0.01227794  1
  C  C59  1  0.76826233  0.51057947  0.48772206  1
  C  C60  1  0.73356521  0.01072352  0.48883155  1
  C  C61  1  0.76643479  0.51072352  0.01116845  1
  C  C62  1  0.26826233  0.98942053  0.98772206  1
  C  C63  1  0.23173767  0.48942053  0.51227794  1
  N  N64  1  0.50775861  0.83266025  0.24249393  1
  N  N65  1  0.99224139  0.33266025  0.25750607  1
  N  N66  1  0.49224139  0.16733975  0.75750607  1
  N  N67  1  0.00775861  0.66733975  0.74249393  1
  N  N68  1  0.00380373  0.94180545  0.24998131  1
  N  N69  1  0.49619627  0.44180545  0.25001869  1
  N  N70  1  0.99619627  0.05819455  0.75001869  1
  N  N71  1  0.50380373  0.55819455  0.74998131  1
  O  O72  1  0.84598678  0.71404543  0.24975077  1
  O  O73  1  0.65401322  0.21404543  0.25024923  1
  O  O74  1  0.15401322  0.28595457  0.75024923  1
  O  O75  1  0.34598678  0.78595457  0.74975077  1
  O  O76  1  0.20979089  0.90798611  0.44706206  1
  O  O77  1  0.29020911  0.40798611  0.05293794  1
  O  O78  1  0.79000150  0.09250606  0.95017124  1
  O  O79  1  0.70999850  0.59250606  0.54982876  1
  O  O80  1  0.79020911  0.09201389  0.55293794  1
  O  O81  1  0.70979089  0.59201389  0.94706206  1
  O  O82  1  0.20999850  0.90749394  0.04982876  1
  O  O83  1  0.29000150  0.40749394  0.45017124  1
  O  O84  1  0.33042966  0.97550389  0.60462076  1
  O  O85  1  0.16957034  0.47550389  0.89537924  1
  O  O86  1  0.66498609  0.02355536  0.10503571  1
  O  O87  1  0.83501391  0.52355536  0.39496429  1
  O  O88  1  0.66957034  0.02449611  0.39537924  1
  O  O89  1  0.83042966  0.52449611  0.10462076  1
  O  O90  1  0.33501391  0.97644464  0.89496429  1
  O  O91  1  0.16498609  0.47644464  0.60503571  1
  O  O92  1  0.31340298  0.20070196  0.52888091  1
  O  O93  1  0.18659702  0.70070196  0.97111909  1
  O  O94  1  0.68701606  0.79878133  0.02803628  1
  O  O95  1  0.81298394  0.29878133  0.47196372  1
  O  O96  1  0.68659702  0.79929804  0.47111909  1
  O  O97  1  0.81340298  0.29929804  0.02888091  1
  O  O98  1  0.31298394  0.20121867  0.97196372  1
  O  O99  1  0.18701606  0.70121867  0.52803628  1
  O  O100  1  0.17955364  0.13531993  0.37491010  1
  O  O101  1  0.32044636  0.63531993  0.12508990  1
  O  O102  1  0.82004888  0.86670283  0.87547319  1
  O  O103  1  0.67995112  0.36670283  0.62452681  1
  O  O104  1  0.82044636  0.86468007  0.62508990  1
  O  O105  1  0.67955364  0.36468007  0.87491010  1
  O  O106  1  0.17995112  0.13329717  0.12452681  1
  O  O107  1  0.32004888  0.63329717  0.37547319  1
