# generated using pymatgen
data_FeNiTe4
_symmetry_space_group_name_H-M   'P 1'
_cell_length_a   6.35102188
_cell_length_b   6.33559191
_cell_length_c   6.31330370
_cell_angle_alpha   90.36646919
_cell_angle_beta   90.00000000
_cell_angle_gamma   90.00000000
_symmetry_Int_Tables_number   1
_chemical_formula_structural   FeNiTe4
_chemical_formula_sum   'Fe2 Ni2 Te8'
_cell_volume   254.02625325
_cell_formula_units_Z   2
loop_
 _symmetry_equiv_pos_site_id
 _symmetry_equiv_pos_as_xyz
  1  'x, y, z'
loop_
 _atom_site_type_symbol
 _atom_site_label
 _atom_site_symmetry_multiplicity
 _atom_site_fract_x
 _atom_site_fract_y
 _atom_site_fract_z
 _atom_site_occupancy
  Fe  Fe0  1  0.50000000  0.00000000  0.50000000  1
  Fe  Fe1  1  -0.00000000  0.50000000  0.50000000  1
  Ni  Ni2  1  0.50000000  0.50000000  -0.00000000  1
  Ni  Ni3  1  -0.00000000  0.00000000  -0.00000000  1
  Te  Te4  1  0.86943400  0.37134243  0.14108320  1
  Te  Te5  1  0.36943400  0.12865757  0.85891680  1
  Te  Te6  1  0.13734448  0.86138852  0.37376983  1
  Te  Te7  1  0.63734448  0.63861148  0.62623017  1
  Te  Te8  1  0.13056600  0.62865757  0.85891680  1
  Te  Te9  1  0.63056600  0.87134243  0.14108320  1
  Te  Te10  1  0.86265552  0.13861148  0.62623017  1
  Te  Te11  1  0.36265552  0.36138852  0.37376983  1
