# generated using pymatgen
data_Ti2Zn3(Si2O7)2
_symmetry_space_group_name_H-M   'P 1'
_cell_length_a   7.71168062
_cell_length_b   9.70175912
_cell_length_c   9.19717749
_cell_angle_alpha   62.43784356
_cell_angle_beta   65.21327730
_cell_angle_gamma   66.58193314
_symmetry_Int_Tables_number   1
_chemical_formula_structural   Ti2Zn3(Si2O7)2
_chemical_formula_sum   'Ti4 Zn6 Si8 O28'
_cell_volume   535.82704044
_cell_formula_units_Z   2
loop_
 _symmetry_equiv_pos_site_id
 _symmetry_equiv_pos_as_xyz
  1  'x, y, z'
loop_
 _atom_site_type_symbol
 _atom_site_label
 _atom_site_symmetry_multiplicity
 _atom_site_fract_x
 _atom_site_fract_y
 _atom_site_fract_z
 _atom_site_occupancy
  Ti  Ti0  1  0.18587869  0.25000000  0.75000000  1
  Ti  Ti1  1  0.81412131  0.75000000  0.25000000  1
  Ti  Ti2  1  0.00000000  0.00000000  0.00000000  1
  Ti  Ti3  1  0.00000000  0.50000000  0.50000000  1
  Zn  Zn4  1  0.92748887  0.91118307  0.44519404  1
  Zn  Zn5  1  0.28386598  0.58881693  0.05480596  1
  Zn  Zn6  1  0.71613402  0.41118307  0.94519404  1
  Zn  Zn7  1  0.60611930  0.25000000  0.75000000  1
  Zn  Zn8  1  0.07251113  0.08881693  0.55480596  1
  Zn  Zn9  1  0.39388070  0.75000000  0.25000000  1
  Si  Si10  1  0.47603710  0.28854314  0.34257466  1
  Si  Si11  1  0.89284410  0.78854314  0.84257466  1
  Si  Si12  1  0.47533934  0.90061866  0.85808821  1
  Si  Si13  1  0.76595479  0.40061866  0.35808821  1
  Si  Si14  1  0.10715590  0.21145686  0.15742534  1
  Si  Si15  1  0.52466066  0.09938134  0.14191179  1
  Si  Si16  1  0.23404521  0.59938134  0.64191179  1
  Si  Si17  1  0.52396290  0.71145686  0.65742534  1
  O  O18  1  0.15783022  0.66066096  0.47073057  1
  O  O19  1  0.05602384  0.58620803  0.24784121  1
  O  O20  1  0.54125411  0.91071787  0.19456956  1
  O  O21  1  0.10992692  0.08620803  0.74784121  1
  O  O22  1  0.74131862  0.67599651  0.52257488  1
  O  O23  1  0.94841291  0.37613149  0.18752360  1
  O  O24  1  0.35345745  0.41071787  0.69456956  1
  O  O25  1  0.93989000  0.82400349  0.97742512  1
  O  O26  1  0.05158709  0.62386851  0.81247640  1
  O  O27  1  0.35686011  0.73433070  0.57529328  1
  O  O28  1  0.94397616  0.41379197  0.75215879  1
  O  O29  1  0.25868138  0.32400349  0.47742512  1
  O  O30  1  0.51206900  0.12386851  0.31247640  1
  O  O31  1  0.71077725  0.16066096  0.97073057  1
  O  O32  1  0.33351591  0.23433070  0.07529328  1
  O  O33  1  0.06011000  0.17599651  0.02257488  1
  O  O34  1  0.10313042  0.06600429  0.34314763  1
  O  O35  1  0.64313989  0.26566930  0.42470672  1
  O  O36  1  0.51228134  0.43399571  0.15685237  1
  O  O37  1  0.66648409  0.76566930  0.92470672  1
  O  O38  1  0.48793100  0.87613149  0.68752360  1
  O  O39  1  0.89007308  0.91379197  0.25215879  1
  O  O40  1  0.48771866  0.56600429  0.84314763  1
  O  O41  1  0.45874589  0.08928213  0.80543044  1
  O  O42  1  0.89686958  0.93399571  0.65685237  1
  O  O43  1  0.64654255  0.58928213  0.30543044  1
  O  O44  1  0.28922275  0.83933904  0.02926943  1
  O  O45  1  0.84216978  0.33933904  0.52926943  1
