# generated using pymatgen
data_Eu2TiCuO6
_symmetry_space_group_name_H-M   'P 1'
_cell_length_a   5.44761418
_cell_length_b   5.61968551
_cell_length_c   7.75242666
_cell_angle_alpha   90.00000000
_cell_angle_beta   89.73130303
_cell_angle_gamma   90.00000000
_symmetry_Int_Tables_number   1
_chemical_formula_structural   Eu2TiCuO6
_chemical_formula_sum   'Eu4 Ti2 Cu2 O12'
_cell_volume   237.32923800
_cell_formula_units_Z   2
loop_
 _symmetry_equiv_pos_site_id
 _symmetry_equiv_pos_as_xyz
  1  'x, y, z'
loop_
 _atom_site_type_symbol
 _atom_site_label
 _atom_site_symmetry_multiplicity
 _atom_site_fract_x
 _atom_site_fract_y
 _atom_site_fract_z
 _atom_site_occupancy
  Eu  Eu0  1  0.48839771  0.05223743  0.24793601  1
  Eu  Eu1  1  0.01160229  0.55223743  0.25206399  1
  Eu  Eu2  1  0.51160229  0.94776257  0.75206399  1
  Eu  Eu3  1  0.98839771  0.44776257  0.74793601  1
  Ti  Ti4  1  0.50000000  0.50000000  0.50000000  1
  Ti  Ti5  1  -0.00000000  -0.00000000  0.00000000  1
  Cu  Cu6  1  0.50000000  0.50000000  0.00000000  1
  Cu  Cu7  1  -0.00000000  -0.00000000  0.50000000  1
  O  O8  1  0.29232603  0.80351132  0.04252450  1
  O  O9  1  0.20767397  0.30351132  0.45747550  1
  O  O10  1  0.69598602  0.20923090  0.54515603  1
  O  O11  1  0.80401398  0.70923090  0.95484397  1
  O  O12  1  0.70767397  0.19648868  0.95747550  1
  O  O13  1  0.79232603  0.69648868  0.54252450  1
  O  O14  1  0.30401398  0.79076910  0.45484397  1
  O  O15  1  0.19598602  0.29076910  0.04515603  1
  O  O16  1  0.58645581  0.47608203  0.25364072  1
  O  O17  1  0.91354419  0.97608203  0.24635928  1
  O  O18  1  0.41354419  0.52391797  0.74635928  1
  O  O19  1  0.08645581  0.02391797  0.75364072  1
