# generated using pymatgen
data_ErFeNi4
_symmetry_space_group_name_H-M   'P 1'
_cell_length_a   3.91249688
_cell_length_b   4.88915650
_cell_length_c   4.88981334
_cell_angle_alpha   120.02949853
_cell_angle_beta   90.00000000
_cell_angle_gamma   90.00000000
_symmetry_Int_Tables_number   1
_chemical_formula_structural   ErFeNi4
_chemical_formula_sum   'Er1 Fe1 Ni4'
_cell_volume   80.98072983
_cell_formula_units_Z   1
loop_
 _symmetry_equiv_pos_site_id
 _symmetry_equiv_pos_as_xyz
  1  'x, y, z'
loop_
 _atom_site_type_symbol
 _atom_site_label
 _atom_site_symmetry_multiplicity
 _atom_site_fract_x
 _atom_site_fract_y
 _atom_site_fract_z
 _atom_site_occupancy
  Er  Er0  1  0.00000000  0.99997835  -0.00001543  1
  Fe  Fe1  1  0.00000000  0.33329287  0.66665614  1
  Ni  Ni2  1  0.00000000  0.66666438  0.33334242  1
  Ni  Ni3  1  0.50000000  0.50018435  0.00035875  1
  Ni  Ni4  1  0.50000000  0.50016420  0.49984855  1
  Ni  Ni5  1  0.50000000  0.99961585  0.49980958  1
