# generated using pymatgen
data_CeZr3O8
_symmetry_space_group_name_H-M   'P 1'
_cell_length_a   3.70706156
_cell_length_b   6.52148443
_cell_length_c   6.52148443
_cell_angle_alpha   69.00204460
_cell_angle_beta   90.00000000
_cell_angle_gamma   90.00000000
_symmetry_Int_Tables_number   1
_chemical_formula_structural   CeZr3O8
_chemical_formula_sum   'Ce1 Zr3 O8'
_cell_volume   147.19071265
_cell_formula_units_Z   1
loop_
 _symmetry_equiv_pos_site_id
 _symmetry_equiv_pos_as_xyz
  1  'x, y, z'
loop_
 _atom_site_type_symbol
 _atom_site_label
 _atom_site_symmetry_multiplicity
 _atom_site_fract_x
 _atom_site_fract_y
 _atom_site_fract_z
 _atom_site_occupancy
  Ce  Ce0  1  0.50000000  0.49801953  0.99801953  1
  Zr  Zr1  1  0.50000000  0.00246331  0.50246331  1
  Zr  Zr2  1  0.00000000  0.99472383  0.00555088  1
  Zr  Zr3  1  -0.00000000  0.50555088  0.49472383  1
  O  O4  1  0.00000000  0.61231098  0.11231098  1
  O  O5  1  0.00000000  0.09379703  0.59379703  1
  O  O6  1  0.50000000  0.39483405  0.41163668  1
  O  O7  1  0.50000000  0.91163668  0.89483405  1
  O  O8  1  0.50000000  0.13612960  0.15698004  1
  O  O9  1  0.50000000  0.65698004  0.63612960  1
  O  O10  1  0.00000000  0.34568088  0.84568088  1
  O  O11  1  0.00000000  0.84787319  0.34787319  1
