# generated using pymatgen
data_Cr24P11C
_symmetry_space_group_name_H-M   'P 1'
_cell_length_a   3.17737572
_cell_length_b   6.19743363
_cell_length_c   21.46420456
_cell_angle_alpha   90.00000219
_cell_angle_beta   90.00000000
_cell_angle_gamma   90.00000000
_symmetry_Int_Tables_number   1
_chemical_formula_structural   Cr24P11C
_chemical_formula_sum   'Cr24 P11 C1'
_cell_volume   422.66399693
_cell_formula_units_Z   1
loop_
 _symmetry_equiv_pos_site_id
 _symmetry_equiv_pos_as_xyz
  1  'x, y, z'
loop_
 _atom_site_type_symbol
 _atom_site_label
 _atom_site_symmetry_multiplicity
 _atom_site_fract_x
 _atom_site_fract_y
 _atom_site_fract_z
 _atom_site_occupancy
  Cr  Cr0  1  0.50000000  0.09967527  0.25000000  1
  Cr  Cr1  1  0.50000000  0.59831495  0.50010526  1
  Cr  Cr2  1  0.50000000  0.11347754  0.75000000  1
  Cr  Cr3  1  0.50000000  0.59831495  0.99989474  1
  Cr  Cr4  1  0.50000000  0.20027016  0.09976399  1
  Cr  Cr5  1  0.50000000  0.70040644  0.35013112  1
  Cr  Cr6  1  0.50000000  0.20790353  0.60344823  1
  Cr  Cr7  1  0.50000000  0.68361134  0.84304090  1
  Cr  Cr8  1  0.50000000  0.70040644  0.14986888  1
  Cr  Cr9  1  0.50000000  0.20027016  0.40023601  1
  Cr  Cr10  1  0.50000000  0.68361134  0.65695910  1
  Cr  Cr11  1  0.50000000  0.20790353  0.89655177  1
  Cr  Cr12  1  -0.00000000  0.25876902  0.99864834  1
  Cr  Cr13  1  -0.00000000  0.75835618  0.25000000  1
  Cr  Cr14  1  -0.00000000  0.25876902  0.50135166  1
  Cr  Cr15  1  -0.00000000  0.73669015  0.75000000  1
  Cr  Cr16  1  -0.00000000  0.37064647  0.18530892  1
  Cr  Cr17  1  0.00000000  0.87118751  0.43596742  1
  Cr  Cr18  1  0.00000000  0.38302623  0.69267696  1
  Cr  Cr19  1  -0.00000000  0.86992613  0.93267310  1
  Cr  Cr20  1  -0.00000000  0.87118751  0.06403258  1
  Cr  Cr21  1  -0.00000000  0.37064647  0.31469108  1
  Cr  Cr22  1  -0.00000000  0.86992613  0.56732690  1
  Cr  Cr23  1  0.00000000  0.38302623  0.80732304  1
  P  P24  1  -0.00000000  0.99970697  0.16663492  1
  P  P25  1  -0.00000000  0.49948558  0.41686268  1
  P  P26  1  0.00000000  0.99962812  0.66874425  1
  P  P27  1  0.00000000  0.50202766  0.91451492  1
  P  P28  1  -0.00000000  0.49948558  0.08313732  1
  P  P29  1  0.00000000  0.99970697  0.33336508  1
  P  P30  1  0.00000000  0.50202766  0.58548508  1
  P  P31  1  0.00000000  0.99962812  0.83125575  1
  P  P32  1  0.50000000  0.99868711  0.99823605  1
  P  P33  1  0.50000000  0.50006155  0.25000000  1
  P  P34  1  0.50000000  0.99868711  0.50176395  1
  C  C35  1  0.50000000  0.50414487  0.75000000  1
