# generated using pymatgen
data_Cu2S
_symmetry_space_group_name_H-M   'P 1'
_cell_length_a   4.10850025
_cell_length_b   4.10850025
_cell_length_c   4.10850025
_cell_angle_alpha   96.34705373
_cell_angle_beta   59.13588475
_cell_angle_gamma   126.69440271
_symmetry_Int_Tables_number   1
_chemical_formula_structural   Cu2S
_chemical_formula_sum   'Cu2 S1'
_cell_volume   45.75669138
_cell_formula_units_Z   1
loop_
 _symmetry_equiv_pos_site_id
 _symmetry_equiv_pos_as_xyz
  1  'x, y, z'
loop_
 _atom_site_type_symbol
 _atom_site_label
 _atom_site_symmetry_multiplicity
 _atom_site_fract_x
 _atom_site_fract_y
 _atom_site_fract_z
 _atom_site_occupancy
  Cu  Cu0  1  0.61339880  0.29068819  0.09591301  1
  Cu  Cu1  1  0.61339880  0.70931181  0.67728940  1
  S  S2  1  0.94160241  -0.00000000  0.05839759  1
