# generated using pymatgen
data_Fe4As4H4O19
_symmetry_space_group_name_H-M   'P 1'
_cell_length_a   6.68892336
_cell_length_b   6.68540205
_cell_length_c   9.20490459
_cell_angle_alpha   94.99052171
_cell_angle_beta   104.44456771
_cell_angle_gamma   75.24506676
_symmetry_Int_Tables_number   1
_chemical_formula_structural   Fe4As4H4O19
_chemical_formula_sum   'Fe4 As4 H4 O19'
_cell_volume   385.34878821
_cell_formula_units_Z   1
loop_
 _symmetry_equiv_pos_site_id
 _symmetry_equiv_pos_as_xyz
  1  'x, y, z'
loop_
 _atom_site_type_symbol
 _atom_site_label
 _atom_site_symmetry_multiplicity
 _atom_site_fract_x
 _atom_site_fract_y
 _atom_site_fract_z
 _atom_site_occupancy
  Fe  Fe0  1  0.64572421  0.13013654  0.30966899  1
  Fe  Fe1  1  0.35451435  0.87067847  0.69172437  1
  Fe  Fe2  1  0.82643164  0.21090901  0.02119192  1
  Fe  Fe3  1  0.17290351  0.79002169  0.97789227  1
  As  As4  1  0.80385761  0.00940629  0.68349999  1
  As  As5  1  0.19575819  0.99053708  0.31676935  1
  As  As6  1  0.70752252  0.75321878  0.05706629  1
  As  As7  1  0.29224090  0.24790939  0.94279129  1
  H  H8  1  0.72371916  0.50241824  0.37869125  1
  H  H9  1  0.28926976  0.50045776  0.59526485  1
  H  H10  1  0.47689561  0.55751128  0.29153372  1
  H  H11  1  0.52192243  0.43853457  0.70951243  1
  O  O12  1  0.45742089  0.79500331  0.93297264  1
  O  O13  1  0.54245303  0.20647340  0.06759281  1
  O  O14  1  0.85850507  0.88276842  0.98732295  1
  O  O15  1  0.14115789  0.11866297  0.01308675  1
  O  O16  1  0.74185421  0.22375289  0.79958547  1
  O  O17  1  0.25691365  0.77738745  0.20003420  1
  O  O18  1  0.59492145  0.44804326  0.34519589  1
  O  O19  1  0.40612250  0.55373095  0.66087769  1
  O  O20  1  0.63847832  0.84672017  0.66271653  1
  O  O21  1  0.36045790  0.15454552  0.33867049  1
  O  O22  1  0.82001197  0.49684273  0.06037433  1
  O  O23  1  0.17974861  0.50418754  0.94144662  1
  O  O24  1  0.79720262  0.10084094  0.51586573  1
  O  O25  1  0.20334341  0.89534832  0.48364103  1
  O  O26  1  0.06457039  0.86456879  0.75359831  1
  O  O27  1  0.93504651  0.13714731  0.24735025  1
  O  O28  1  0.69260173  0.83719868  0.23536521  1
  O  O29  1  0.30699351  0.16350424  0.76480208  1
  O  O30  1  0.00843646  0.51553401  0.46689429  1
