# generated using pymatgen
data_Dy(Co5Mo)2
_symmetry_space_group_name_H-M   'P 1'
_cell_length_a   4.68077341
_cell_length_b   6.41976519
_cell_length_c   6.41976519
_cell_angle_alpha   97.55527427
_cell_angle_beta   111.38047918
_cell_angle_gamma   68.61952082
_symmetry_Int_Tables_number   1
_chemical_formula_structural   Dy(Co5Mo)2
_chemical_formula_sum   'Dy1 Co10 Mo2'
_cell_volume   167.27177770
_cell_formula_units_Z   1
loop_
 _symmetry_equiv_pos_site_id
 _symmetry_equiv_pos_as_xyz
  1  'x, y, z'
loop_
 _atom_site_type_symbol
 _atom_site_label
 _atom_site_symmetry_multiplicity
 _atom_site_fract_x
 _atom_site_fract_y
 _atom_site_fract_z
 _atom_site_occupancy
  Dy  Dy0  1  0.00000000  0.00000000  0.00000000  1
  Co  Co1  1  0.71002384  0.78997616  0.21002384  1
  Co  Co2  1  0.28997616  0.21002384  0.78997616  1
  Co  Co3  1  0.50000000  0.77838025  0.77838025  1
  Co  Co4  1  0.50000000  0.22161975  0.22161975  1
  Co  Co5  1  0.50000000  0.00000000  0.50000000  1
  Co  Co6  1  0.00000000  0.00000000  0.50000000  1
  Co  Co7  1  0.50000000  0.50000000  0.00000000  1
  Co  Co8  1  0.00000000  0.50000000  0.00000000  1
  Co  Co9  1  0.64086157  0.35913843  0.64086157  1
  Co  Co10  1  0.35913843  0.64086157  0.35913843  1
  Mo  Mo11  1  -0.00000000  0.35853941  0.35853941  1
  Mo  Mo12  1  0.00000000  0.64146059  0.64146059  1
