# generated using pymatgen
data_CaEu2BeO5
_symmetry_space_group_name_H-M   'P 1'
_cell_length_a   6.52783154
_cell_length_b   7.14864310
_cell_length_c   9.48738532
_cell_angle_alpha   90.00000000
_cell_angle_beta   90.00000000
_cell_angle_gamma   90.00000000
_symmetry_Int_Tables_number   1
_chemical_formula_structural   CaEu2BeO5
_chemical_formula_sum   'Ca4 Eu8 Be4 O20'
_cell_volume   442.73014423
_cell_formula_units_Z   4
loop_
 _symmetry_equiv_pos_site_id
 _symmetry_equiv_pos_as_xyz
  1  'x, y, z'
loop_
 _atom_site_type_symbol
 _atom_site_label
 _atom_site_symmetry_multiplicity
 _atom_site_fract_x
 _atom_site_fract_y
 _atom_site_fract_z
 _atom_site_occupancy
  Ca  Ca0  1  0.58032183  0.97979591  0.67473517  1
  Ca  Ca1  1  0.41967817  0.47979591  0.32526483  1
  Ca  Ca2  1  0.08032183  0.47979591  0.82526483  1
  Ca  Ca3  1  0.91967817  0.97979591  0.17473517  1
  Eu  Eu4  1  0.09158741  0.74689226  0.52184503  1
  Eu  Eu5  1  0.40841259  0.74689226  0.02184503  1
  Eu  Eu6  1  0.90841259  0.24689226  0.47815497  1
  Eu  Eu7  1  0.59158741  0.24689226  0.97815497  1
  Eu  Eu8  1  0.92231580  0.52505030  0.17429108  1
  Eu  Eu9  1  0.07768420  0.02505030  0.82570892  1
  Eu  Eu10  1  0.42231580  0.02505030  0.32570892  1
  Eu  Eu11  1  0.57768420  0.52505030  0.67429108  1
  Be  Be12  1  0.69218354  0.74940680  0.39631068  1
  Be  Be13  1  0.80781646  0.74940680  0.89631068  1
  Be  Be14  1  0.30781646  0.24940680  0.60368932  1
  Be  Be15  1  0.19218354  0.24940680  0.10368932  1
  O  O16  1  0.02096689  0.74995172  0.98744487  1
  O  O17  1  0.47903311  0.74995172  0.48744487  1
  O  O18  1  0.97903311  0.24995172  0.01255513  1
  O  O19  1  0.52096689  0.24995172  0.51255513  1
  O  O20  1  0.63754663  0.74981877  0.22315728  1
  O  O21  1  0.86245337  0.74981877  0.72315728  1
  O  O22  1  0.36245337  0.24981877  0.77684272  1
  O  O23  1  0.13754663  0.24981877  0.27684272  1
  O  O24  1  0.16439355  0.74947162  0.27633834  1
  O  O25  1  0.33560645  0.74947162  0.77633834  1
  O  O26  1  0.83560645  0.24947162  0.72366166  1
  O  O27  1  0.66439355  0.24947162  0.22366166  1
  O  O28  1  0.31313083  0.05777506  0.07111894  1
  O  O29  1  0.18913782  0.44183758  0.57220903  1
  O  O30  1  0.68686917  0.55777506  0.92888106  1
  O  O31  1  0.81086218  0.94183758  0.42779097  1
  O  O32  1  0.68913782  0.94183758  0.92779097  1
  O  O33  1  0.81313083  0.55777506  0.42888106  1
  O  O34  1  0.31086218  0.44183758  0.07220903  1
  O  O35  1  0.18686917  0.05777506  0.57111894  1
