# generated using pymatgen
data_BaSnF4
_symmetry_space_group_name_H-M   'P 1'
_cell_length_a   4.32401370
_cell_length_b   4.32401369
_cell_length_c   7.41043223
_cell_angle_alpha   73.03713171
_cell_angle_beta   90.00000000
_cell_angle_gamma   120.00000005
_symmetry_Int_Tables_number   1
_chemical_formula_structural   BaSnF4
_chemical_formula_sum   'Ba1 Sn1 F4'
_cell_volume   112.97687784
_cell_formula_units_Z   1
loop_
 _symmetry_equiv_pos_site_id
 _symmetry_equiv_pos_as_xyz
  1  'x, y, z'
loop_
 _atom_site_type_symbol
 _atom_site_label
 _atom_site_symmetry_multiplicity
 _atom_site_fract_x
 _atom_site_fract_y
 _atom_site_fract_z
 _atom_site_occupancy
  Ba  Ba0  1  0.00000000  0.00000000  -0.00000000  1
  Sn  Sn1  1  0.50000000  0.00000000  0.50000000  1
  F  F2  1  0.62010149  0.24020298  0.13969554  1
  F  F3  1  0.13000547  0.26001094  0.60998359  1
  F  F4  1  0.86999453  0.73998906  0.39001641  1
  F  F5  1  0.37989851  0.75979702  0.86030446  1
