# generated using pymatgen
data_Bi12Pb2Cl6O17
_symmetry_space_group_name_H-M   'P 1'
_cell_length_a   3.93075984
_cell_length_b   12.81038227
_cell_length_c   15.28480198
_cell_angle_alpha   105.79689522
_cell_angle_beta   82.61222924
_cell_angle_gamma   90.00000000
_symmetry_Int_Tables_number   1
_chemical_formula_structural   Bi12Pb2Cl6O17
_chemical_formula_sum   'Bi12 Pb2 Cl6 O17'
_cell_volume   733.94897807
_cell_formula_units_Z   1
loop_
 _symmetry_equiv_pos_site_id
 _symmetry_equiv_pos_as_xyz
  1  'x, y, z'
loop_
 _atom_site_type_symbol
 _atom_site_label
 _atom_site_symmetry_multiplicity
 _atom_site_fract_x
 _atom_site_fract_y
 _atom_site_fract_z
 _atom_site_occupancy
  Bi  Bi0  1  0.35756593  0.51521875  0.28486814  1
  Bi  Bi1  1  0.64486329  0.48894254  0.71027342  1
  Bi  Bi2  1  0.45526270  0.66029605  0.08947460  1
  Bi  Bi3  1  0.53955317  0.34202685  0.92089366  1
  Bi  Bi4  1  0.75040183  0.62105616  0.49919634  1
  Bi  Bi5  1  0.25225150  0.37282881  0.49549700  1
  Bi  Bi6  1  0.85254589  0.80340555  0.29490823  1
  Bi  Bi7  1  0.14908217  0.23981320  0.70183567  1
  Bi  Bi8  1  0.55937726  0.79875114  0.88124549  1
  Bi  Bi9  1  0.43890962  0.19965809  0.12218076  1
  Bi  Bi10  1  0.66359528  0.94374070  0.67280944  1
  Bi  Bi11  1  0.34048439  0.05162830  0.31903121  1
  Pb  Pb12  1  0.95092612  0.92238543  0.09814777  1
  Pb  Pb13  1  0.04846623  0.07571348  0.90306755  1
  Cl  Cl14  1  0.15809765  0.68028220  0.68380470  1
  Cl  Cl15  1  0.83606031  0.30374435  0.32787938  1
  Cl  Cl16  1  0.25409357  0.80259404  0.49181286  1
  Cl  Cl17  1  0.73036176  0.19588773  0.53927649  1
  Cl  Cl18  1  0.05991274  0.55920873  0.88017452  1
  Cl  Cl19  1  0.95145731  0.42969216  0.09708538  1
  O  O20  1  0.03580687  0.88192427  0.92838626  1
  O  O21  1  0.96586917  0.12411753  0.06826166  1
  O  O22  1  0.48694042  0.79883253  0.02611916  1
  O  O23  1  0.51661076  0.19829583  0.96677848  1
  O  O24  1  0.92957794  0.73513656  0.14084413  1
  O  O25  1  0.07238080  0.27039561  0.85523840  1
  O  O26  1  0.38110249  0.65574293  0.23779502  1
  O  O27  1  0.62211611  0.33128688  0.75576778  1
  O  O28  1  0.27435900  0.52845655  0.45128200  1
  O  O29  1  0.72404399  0.46262174  0.55191202  1
  O  O30  1  0.82528956  0.58384385  0.34942088  1
  O  O31  1  0.17299225  0.40455403  0.65401549  1
  O  O32  1  0.59618077  0.93762585  0.80763846  1
  O  O33  1  0.41187058  0.05933739  0.17625885  1
  O  O34  1  0.15424940  0.03927172  0.69150120  1
  O  O35  1  0.82648649  0.98794059  0.34702703  1
  O  O36  1  0.37355472  0.87374189  0.25289057  1
