# generated using pymatgen
data_Re5Si3
_symmetry_space_group_name_H-M   'P 1'
_cell_length_a   4.95404286
_cell_length_b   7.13637168
_cell_length_c   7.13637168
_cell_angle_alpha   83.08036023
_cell_angle_beta   69.69007245
_cell_angle_gamma   69.69007245
_symmetry_Int_Tables_number   1
_chemical_formula_structural   Re5Si3
_chemical_formula_sum   'Re10 Si6'
_cell_volume   221.90230831
_cell_formula_units_Z   2
loop_
 _symmetry_equiv_pos_site_id
 _symmetry_equiv_pos_as_xyz
  1  'x, y, z'
loop_
 _atom_site_type_symbol
 _atom_site_label
 _atom_site_symmetry_multiplicity
 _atom_site_fract_x
 _atom_site_fract_y
 _atom_site_fract_z
 _atom_site_occupancy
  Re  Re0  1  0.72346509  0.84973697  0.70333284  1
  Re  Re1  1  0.27653491  0.15026303  0.29666716  1
  Re  Re2  1  0.77653491  0.29666716  0.15026303  1
  Re  Re3  1  0.22346509  0.70333284  0.84973697  1
  Re  Re4  1  0.57320206  0.70333284  0.15026303  1
  Re  Re5  1  0.42679794  0.29666716  0.84973697  1
  Re  Re6  1  0.07320206  0.15026303  0.70333284  1
  Re  Re7  1  0.92679794  0.84973697  0.29666716  1
  Re  Re8  1  0.75000000  0.50000000  0.50000000  1
  Re  Re9  1  0.25000000  0.50000000  0.50000000  1
  Si  Si10  1  0.17058689  0.50000000  0.15882622  1
  Si  Si11  1  0.82941311  0.50000000  0.84117378  1
  Si  Si12  1  0.32941311  0.84117378  0.50000000  1
  Si  Si13  1  0.67058689  0.15882622  0.50000000  1
  Si  Si14  1  0.25000000  0.00000000  -0.00000000  1
  Si  Si15  1  0.75000000  -0.00000000  -0.00000000  1
