# generated using pymatgen
data_Ce2Fe20Si2C
_symmetry_space_group_name_H-M   'P 1'
_cell_length_a   6.36789515
_cell_length_b   7.79632780
_cell_length_c   7.76240320
_cell_angle_alpha   100.80474639
_cell_angle_beta   114.20190329
_cell_angle_gamma   65.69516001
_symmetry_Int_Tables_number   1
_chemical_formula_structural   Ce2Fe20Si2C
_chemical_formula_sum   'Ce2 Fe20 Si2 C1'
_cell_volume   320.26648789
_cell_formula_units_Z   1
loop_
 _symmetry_equiv_pos_site_id
 _symmetry_equiv_pos_as_xyz
  1  'x, y, z'
loop_
 _atom_site_type_symbol
 _atom_site_label
 _atom_site_symmetry_multiplicity
 _atom_site_fract_x
 _atom_site_fract_y
 _atom_site_fract_z
 _atom_site_occupancy
  Ce  Ce0  1  0.37341679  0.75089724  0.25366592  1
  Ce  Ce1  1  0.62658321  0.24910276  0.74633408  1
  Fe  Fe2  1  0.12319000  0.24696481  0.74927822  1
  Fe  Fe3  1  0.87681000  0.75303519  0.25072178  1
  Fe  Fe4  1  0.19704386  0.16603964  0.42402336  1
  Fe  Fe5  1  0.43842071  0.92184706  0.67011037  1
  Fe  Fe6  1  0.85994005  0.83558156  0.91960875  1
  Fe  Fe7  1  0.27673384  0.42111083  0.33542412  1
  Fe  Fe8  1  0.17653474  0.58387561  0.82444046  1
  Fe  Fe9  1  0.43325897  0.32332155  0.08013643  1
  Fe  Fe10  1  0.85994353  0.07639007  0.17513718  1
  Fe  Fe11  1  0.25586520  0.67765368  0.57511180  1
  Fe  Fe12  1  0.80295614  0.83396036  0.57597664  1
  Fe  Fe13  1  0.56157929  0.07815294  0.32988963  1
  Fe  Fe14  1  0.14005995  0.16441844  0.08039125  1
  Fe  Fe15  1  0.72326616  0.57888917  0.66457588  1
  Fe  Fe16  1  0.82346526  0.41612439  0.17555954  1
  Fe  Fe17  1  0.56674103  0.67667845  0.91986357  1
  Fe  Fe18  1  0.14005647  0.92360993  0.82486282  1
  Fe  Fe19  1  0.74413480  0.32234632  0.42488820  1
  Fe  Fe20  1  0.00000000  0.50000000  -0.00000000  1
  Fe  Fe21  1  0.00000000  0.50000000  0.50000000  1
  Si  Si22  1  0.50000000  -0.00000000  -0.00000000  1
  Si  Si23  1  0.00000000  -0.00000000  0.50000000  1
  C  C24  1  0.50000000  0.50000000  -0.00000000  1
