# generated using pymatgen
data_CaV4Co(CuO6)2
_symmetry_space_group_name_H-M   'P 1'
_cell_length_a   6.42315252
_cell_length_b   6.42315252
_cell_length_c   6.42315252
_cell_angle_alpha   70.70444741
_cell_angle_beta   70.87842762
_cell_angle_gamma   109.99787006
_symmetry_Int_Tables_number   1
_chemical_formula_structural   CaV4Co(CuO6)2
_chemical_formula_sum   'Ca1 V4 Co1 Cu2 O12'
_cell_volume   203.98313956
_cell_formula_units_Z   1
loop_
 _symmetry_equiv_pos_site_id
 _symmetry_equiv_pos_as_xyz
  1  'x, y, z'
loop_
 _atom_site_type_symbol
 _atom_site_label
 _atom_site_symmetry_multiplicity
 _atom_site_fract_x
 _atom_site_fract_y
 _atom_site_fract_z
 _atom_site_occupancy
  Ca  Ca0  1  -0.00000000  -0.00000000  0.00000000  1
  V  V1  1  -0.00000000  0.50000000  0.00000000  1
  V  V2  1  0.50000000  0.50000000  0.50000000  1
  V  V3  1  0.50000000  -0.00000000  0.00000000  1
  V  V4  1  -0.00000000  -0.00000000  0.50000000  1
  Co  Co5  1  -0.00000000  0.50000000  0.50000000  1
  Cu  Cu6  1  0.50000000  -0.00000000  0.50000000  1
  Cu  Cu7  1  0.50000000  0.50000000  0.00000000  1
  O  O8  1  0.69779381  0.87767043  0.82012338  1
  O  O9  1  0.30220619  0.12232957  0.17987662  1
  O  O10  1  0.69779381  0.51791719  0.17987662  1
  O  O11  1  0.30220619  0.48208281  0.82012338  1
  O  O12  1  0.18021021  0.29611317  0.52367662  1
  O  O13  1  0.81978979  0.70388683  0.47632338  1
  O  O14  1  0.81978979  0.29611317  0.88409705  1
  O  O15  1  0.18021021  0.70388683  0.11590295  1
  O  O16  1  0.12373977  0.81889845  0.69515869  1
  O  O17  1  0.87626023  0.18110155  0.30484131  1
  O  O18  1  0.48594286  0.18110155  0.69515869  1
  O  O19  1  0.51405714  0.81889845  0.30484131  1
