# generated using pymatgen
data_Cr4In2(CuSe4)3
_symmetry_space_group_name_H-M   'P 1'
_cell_length_a   7.46150139
_cell_length_b   7.51337827
_cell_length_c   18.84870492
_cell_angle_alpha   90.00430861
_cell_angle_beta   90.00000000
_cell_angle_gamma   119.77185920
_symmetry_Int_Tables_number   1
_chemical_formula_structural   Cr4In2(CuSe4)3
_chemical_formula_sum   'Cr8 In4 Cu6 Se24'
_cell_volume   917.20716669
_cell_formula_units_Z   2
loop_
 _symmetry_equiv_pos_site_id
 _symmetry_equiv_pos_as_xyz
  1  'x, y, z'
loop_
 _atom_site_type_symbol
 _atom_site_label
 _atom_site_symmetry_multiplicity
 _atom_site_fract_x
 _atom_site_fract_y
 _atom_site_fract_z
 _atom_site_occupancy
  Cr  Cr0  1  0.50016120  0.50032241  0.50074699  1
  Cr  Cr1  1  0.16650580  0.83301059  0.83258601  1
  Cr  Cr2  1  0.83333300  0.66666700  0.16666700  1
  Cr  Cr3  1  0.50041771  0.00032627  0.50037662  1
  Cr  Cr4  1  0.16624929  0.33300673  0.83295638  1
  Cr  Cr5  1  0.33333300  0.66666700  0.16666700  1
  Cr  Cr6  1  0.99990856  0.00032627  0.50037662  1
  Cr  Cr7  1  0.66675844  0.33300673  0.83295638  1
  In  In8  1  0.66536086  0.83072071  0.33391618  1
  In  In9  1  0.33333300  0.16666700  0.66666700  1
  In  In10  1  0.00130614  0.50261229  0.99941682  1
  In  In11  1  0.83333300  0.16666700  0.16666700  1
  Cu  Cu12  1  0.66641463  0.83282825  0.70754964  1
  Cu  Cu13  1  0.33106766  0.16213631  0.03892478  1
  Cu  Cu14  1  0.00015291  0.50030582  0.37570203  1
  Cu  Cu15  1  0.66651409  0.83302718  0.95763097  1
  Cu  Cu16  1  0.33559834  0.17119769  0.29440922  1
  Cu  Cu17  1  0.00025237  0.50050475  0.62578336  1
  Se  Se18  1  0.33225516  0.16451132  0.90707514  1
  Se  Se19  1  0.01117704  0.52235408  0.24528311  1
  Se  Se20  1  0.66670677  0.83341255  0.57475843  1
  Se  Se21  1  0.49590140  0.49180179  0.75969796  1
  Se  Se22  1  0.16246818  0.82493736  0.09267951  1
  Se  Se23  1  0.82867260  0.15734520  0.42658104  1
  Se  Se24  1  0.49609670  0.00493769  0.75963871  1
  Se  Se25  1  0.18361591  0.35545864  0.08766467  1
  Se  Se26  1  0.82819085  0.67125760  0.42777895  1
  Se  Se27  1  0.00884199  0.00493769  0.75963871  1
  Se  Se28  1  0.67184173  0.35545864  0.08766467  1
  Se  Se29  1  0.34306676  0.67125760  0.42777895  1
  Se  Se30  1  0.99996023  0.49992045  0.75857457  1
  Se  Se31  1  0.65548996  0.81097892  0.08804989  1
  Se  Se32  1  0.33441084  0.16882268  0.42625886  1
  Se  Se33  1  0.83799440  0.17598780  0.90675196  1
  Se  Se34  1  0.50419782  0.50839664  0.24065449  1
  Se  Se35  1  0.17076560  0.84153121  0.57363504  1
  Se  Se36  1  0.83847615  0.66207540  0.90555405  1
  Se  Se37  1  0.48305009  0.97787536  0.24566933  1
  Se  Se38  1  0.17057030  0.32839531  0.57369429  1
  Se  Se39  1  0.32360024  0.66207540  0.90555405  1
  Se  Se40  1  0.99482427  0.97787536  0.24566933  1
  Se  Se41  1  0.65782501  0.32839531  0.57369429  1
