# generated using pymatgen
data_BeZnS2
_symmetry_space_group_name_H-M   'P 1'
_cell_length_a   3.65526386
_cell_length_b   3.65526385
_cell_length_c   6.34462298
_cell_angle_alpha   73.25816097
_cell_angle_beta   90.00000000
_cell_angle_gamma   120.00000006
_symmetry_Int_Tables_number   1
_chemical_formula_structural   BeZnS2
_chemical_formula_sum   'Be1 Zn1 S2'
_cell_volume   69.23300823
_cell_formula_units_Z   1
loop_
 _symmetry_equiv_pos_site_id
 _symmetry_equiv_pos_as_xyz
  1  'x, y, z'
loop_
 _atom_site_type_symbol
 _atom_site_label
 _atom_site_symmetry_multiplicity
 _atom_site_fract_x
 _atom_site_fract_y
 _atom_site_fract_z
 _atom_site_occupancy
  Be  Be0  1  0.49954920  0.99909840  0.50135241  1
  Zn  Zn1  1  0.99896816  0.99793632  0.00309552  1
  S  S2  1  0.86850520  0.73701041  0.39448439  1
  S  S3  1  0.38297744  0.76595488  0.85106769  1
