# generated using pymatgen
data_Ca9Y3(CoO6)4
_symmetry_space_group_name_H-M   'P 1'
_cell_length_a   6.30745471
_cell_length_b   9.04140830
_cell_length_c   8.85095167
_cell_angle_alpha   89.74305148
_cell_angle_beta   89.87428779
_cell_angle_gamma   88.75097717
_symmetry_Int_Tables_number   1
_chemical_formula_structural   Ca9Y3(CoO6)4
_chemical_formula_sum   'Ca9 Y3 Co4 O24'
_cell_volume   504.62837739
_cell_formula_units_Z   1
loop_
 _symmetry_equiv_pos_site_id
 _symmetry_equiv_pos_as_xyz
  1  'x, y, z'
loop_
 _atom_site_type_symbol
 _atom_site_label
 _atom_site_symmetry_multiplicity
 _atom_site_fract_x
 _atom_site_fract_y
 _atom_site_fract_z
 _atom_site_occupancy
  Ca  Ca0  1  0.89027983  0.92916051  0.67989405  1
  Ca  Ca1  1  0.25237966  0.74986844  0.14130816  1
  Ca  Ca2  1  0.25002775  0.25024476  0.64091157  1
  Ca  Ca3  1  0.10835956  0.57080051  0.82282625  1
  Ca  Ca4  1  0.10971294  0.07142862  0.32130592  1
  Ca  Ca5  1  0.74788840  0.24842882  0.85485947  1
  Ca  Ca6  1  0.74981494  0.75071439  0.35942516  1
  Ca  Ca7  1  0.39107477  0.42927787  0.32186295  1
  Ca  Ca8  1  0.39323964  0.92752323  0.82137317  1
  Y  Y9  1  0.60787376  0.57066669  0.67927285  1
  Y  Y10  1  0.60793652  0.07094881  0.17856270  1
  Y  Y11  1  0.89291256  0.43036094  0.17786561  1
  Co  Co12  1  0.49750378  0.49716919  0.00105812  1
  Co  Co13  1  0.49797926  0.99751870  0.50090562  1
  Co  Co14  1  0.00449342  0.00194264  0.99924483  1
  Co  Co15  1  0.00332561  0.50163767  0.50102215  1
  O  O16  1  0.56827507  0.32116348  0.10972391  1
  O  O17  1  0.56599283  0.81918628  0.60610592  1
  O  O18  1  0.21377685  0.49423841  0.07100096  1
  O  O19  1  0.22450019  0.99462906  0.56737570  1
  O  O20  1  0.43302972  0.39319859  0.82404321  1
  O  O21  1  0.43352228  0.89257050  0.32303959  1
  O  O22  1  0.06519933  0.82514522  0.89962453  1
  O  O23  1  0.06135353  0.32739628  0.39149289  1
  O  O24  1  0.92002931  0.39489931  0.67015883  1
  O  O25  1  0.92124174  0.89935978  0.17010177  1
  O  O26  1  0.71794689  0.49740609  0.43265413  1
  O  O27  1  0.71701904  0.99985475  0.93646286  1
  O  O28  1  0.43895845  0.67198464  0.89164249  1
  O  O29  1  0.43677634  0.17313793  0.39042324  1
  O  O30  1  0.78088730  0.50139965  0.93124382  1
  O  O31  1  0.77392155  0.00634213  0.42722869  1
  O  O32  1  0.58088651  0.60270560  0.17077580  1
  O  O33  1  0.57422025  0.10603600  0.66968988  1
  O  O34  1  0.92990623  0.18160355  0.11132314  1
  O  O35  1  0.92968842  0.67398427  0.60843731  1
  O  O36  1  0.06523072  0.60779752  0.32515178  1
  O  O37  1  0.07101270  0.10823212  0.83259035  1
  O  O38  1  0.28544877  0.50515517  0.56847647  1
  O  O39  1  0.28637358  0.00488188  0.06953413  1
