# generated using pymatgen
data_Ca3Fe6(SnO8)2
_symmetry_space_group_name_H-M   'P 1'
_cell_length_a   3.10792450
_cell_length_b   9.35753408
_cell_length_c   10.95788742
_cell_angle_alpha   89.52355984
_cell_angle_beta   90.00000000
_cell_angle_gamma   90.00000000
_symmetry_Int_Tables_number   1
_chemical_formula_structural   Ca3Fe6(SnO8)2
_chemical_formula_sum   'Ca3 Fe6 Sn2 O16'
_cell_volume   318.67184657
_cell_formula_units_Z   1
loop_
 _symmetry_equiv_pos_site_id
 _symmetry_equiv_pos_as_xyz
  1  'x, y, z'
loop_
 _atom_site_type_symbol
 _atom_site_label
 _atom_site_symmetry_multiplicity
 _atom_site_fract_x
 _atom_site_fract_y
 _atom_site_fract_z
 _atom_site_occupancy
  Ca  Ca0  1  0.25000000  0.25471036  0.83940316  1
  Ca  Ca1  1  0.25000000  0.75588891  0.66127065  1
  Ca  Ca2  1  0.75000000  0.74345896  0.15414297  1
  Fe  Fe3  1  0.25000000  0.93846738  0.88695297  1
  Fe  Fe4  1  0.25000000  0.43611573  0.61073027  1
  Fe  Fe5  1  0.75000000  0.06633737  0.10758550  1
  Fe  Fe6  1  0.75000000  0.55141865  0.39574321  1
  Fe  Fe7  1  0.75000000  0.09315329  0.60278284  1
  Fe  Fe8  1  0.75000000  0.58689726  0.89244952  1
  Sn  Sn9  1  0.25000000  0.92177493  0.39497242  1
  Sn  Sn10  1  0.25000000  0.41055774  0.10960583  1
  O  O11  1  0.25000000  0.61658363  0.02591471  1
  O  O12  1  0.25000000  0.11142581  0.48659349  1
  O  O13  1  0.75000000  0.38262057  0.97459265  1
  O  O14  1  0.75000000  0.87538304  0.52486843  1
  O  O15  1  0.25000000  0.91602058  0.06985890  1
  O  O16  1  0.25000000  0.42985517  0.43378602  1
  O  O17  1  0.75000000  0.08229637  0.92318724  1
  O  O18  1  0.75000000  0.58399926  0.58038284  1
  O  O19  1  0.25000000  0.70602342  0.33441916  1
  O  O20  1  0.25000000  0.19660956  0.13804666  1
  O  O21  1  0.75000000  0.29748742  0.67055225  1
  O  O22  1  0.75000000  0.79476288  0.83671188  1
  O  O23  1  0.25000000  0.02578561  0.71744643  1
  O  O24  1  0.25000000  0.52909650  0.78797271  1
  O  O25  1  0.75000000  0.96153084  0.27453599  1
  O  O26  1  0.75000000  0.48273876  0.21549131  1
