# generated using pymatgen
data_Ba2Li3Y3(WO4)8
_symmetry_space_group_name_H-M   'P 1'
_cell_length_a   5.25966625
_cell_length_b   6.94096980
_cell_length_c   19.39064313
_cell_angle_alpha   91.45558320
_cell_angle_beta   87.64089837
_cell_angle_gamma   111.95030053
_symmetry_Int_Tables_number   1
_chemical_formula_structural   Ba2Li3Y3(WO4)8
_chemical_formula_sum   'Ba2 Li3 Y3 W8 O32'
_cell_volume   655.98639137
_cell_formula_units_Z   1
loop_
 _symmetry_equiv_pos_site_id
 _symmetry_equiv_pos_as_xyz
  1  'x, y, z'
loop_
 _atom_site_type_symbol
 _atom_site_label
 _atom_site_symmetry_multiplicity
 _atom_site_fract_x
 _atom_site_fract_y
 _atom_site_fract_z
 _atom_site_occupancy
  Ba  Ba0  1  0.53324888  0.06866623  0.23542975  1
  Ba  Ba1  1  0.46823892  0.93211483  0.76094842  1
  Li  Li2  1  0.80548283  0.63706249  0.24220005  1
  Li  Li3  1  0.19147769  0.35984572  0.75677424  1
  Li  Li4  1  0.64909268  0.29072194  0.03667455  1
  Y  Y5  1  0.64191791  0.28982205  0.46681609  1
  Y  Y6  1  0.34691875  0.70556526  0.97139015  1
  Y  Y7  1  0.35853694  0.71032970  0.53177493  1
  W  W8  1  0.92497954  0.88051618  0.09318297  1
  W  W9  1  0.95840131  0.87390284  0.40441756  1
  W  W10  1  0.07538916  0.12095594  0.90899101  1
  W  W11  1  0.04157817  0.12465266  0.59502145  1
  W  W12  1  0.24047745  0.48311258  0.14812850  1
  W  W13  1  0.24117041  0.48984458  0.34968178  1
  W  W14  1  0.75650318  0.51240447  0.85098223  1
  W  W15  1  0.75775728  0.50994982  0.64937419  1
  O  O16  1  0.22381729  0.95566324  0.03328512  1
  O  O17  1  0.72597011  0.95895473  0.46305398  1
  O  O18  1  0.76683698  0.02738369  0.96382398  1
  O  O19  1  0.27456843  0.03969495  0.53732023  1
  O  O20  1  0.52290839  0.71229643  0.17907561  1
  O  O21  1  0.20815455  0.73485801  0.33027248  1
  O  O22  1  0.48262995  0.28191338  0.81977511  1
  O  O23  1  0.79181557  0.26697134  0.67061202  1
  O  O24  1  0.08996422  0.53270538  0.06974547  1
  O  O25  1  0.43176250  0.52388640  0.43206481  1
  O  O26  1  0.91958876  0.48070671  0.92835906  1
  O  O27  1  0.56555146  0.47542627  0.56758543  1
  O  O28  1  0.99003644  0.41759755  0.22162771  1
  O  O29  1  0.44356732  0.40891525  0.28806573  1
  O  O30  1  0.01373366  0.58493682  0.77962851  1
  O  O31  1  0.55975510  0.59028407  0.71257821  1
  O  O32  1  0.82673721  0.10144342  0.10902331  1
  O  O33  1  0.27691147  0.09923798  0.39702100  1
  O  O34  1  0.19377916  0.90426123  0.89269792  1
  O  O35  1  0.72193158  0.90024159  0.60367436  1
  O  O36  1  0.65416067  0.67307182  0.04593248  1
  O  O37  1  0.98801295  0.65915412  0.45789152  1
  O  O38  1  0.33202019  0.34719898  0.95113382  1
  O  O39  1  0.00941369  0.33970568  0.54261105  1
  O  O40  1  0.05660582  0.83193685  0.17452076  1
  O  O41  1  0.77471053  0.82777681  0.32587076  1
  O  O42  1  0.94761004  0.16573341  0.82666853  1
  O  O43  1  0.22328698  0.17207510  0.67409559  1
  O  O44  1  0.39799220  0.29424555  0.13521455  1
  O  O45  1  0.89631434  0.29892435  0.36830085  1
  O  O46  1  0.59457742  0.70308509  0.86486684  1
  O  O47  1  0.10410394  0.70024650  0.63181530  1
