# generated using pymatgen
data_Ba2Fe8Ni3(SbO11)2
_symmetry_space_group_name_H-M   'P 1'
_cell_length_a   6.00324226
_cell_length_b   6.04210451
_cell_length_c   14.42683789
_cell_angle_alpha   90.00000001
_cell_angle_beta   90.00043456
_cell_angle_gamma   120.21437942
_symmetry_Int_Tables_number   1
_chemical_formula_structural   Ba2Fe8Ni3(SbO11)2
_chemical_formula_sum   'Ba2 Fe8 Ni3 Sb2 O22'
_cell_volume   452.20322081
_cell_formula_units_Z   1
loop_
 _symmetry_equiv_pos_site_id
 _symmetry_equiv_pos_as_xyz
  1  'x, y, z'
loop_
 _atom_site_type_symbol
 _atom_site_label
 _atom_site_symmetry_multiplicity
 _atom_site_fract_x
 _atom_site_fract_y
 _atom_site_fract_z
 _atom_site_occupancy
  Ba  Ba0  1  0.33033147  0.66516573  0.42463390  1
  Ba  Ba1  1  0.66966853  0.33483427  0.57536610  1
  Fe  Fe2  1  0.16693588  0.83255260  0.17161725  1
  Fe  Fe3  1  0.16693588  0.33438328  0.17161725  1
  Fe  Fe4  1  0.66493050  0.83246525  0.17114629  1
  Fe  Fe5  1  0.83306412  0.16744740  0.82838275  1
  Fe  Fe6  1  0.83306412  0.66561672  0.82838275  1
  Fe  Fe7  1  0.33506950  0.16753475  0.82885371  1
  Fe  Fe8  1  0.33246129  0.66623065  0.95364356  1
  Fe  Fe9  1  0.66753871  0.33376935  0.04635644  1
  Ni  Ni10  1  0.99529106  0.99764553  0.37779750  1
  Ni  Ni11  1  0.00470894  0.00235447  0.62220250  1
  Ni  Ni12  1  -0.00000000  0.00000000  0.00000000  1
  Sb  Sb13  1  0.33415543  0.66707772  0.67587165  1
  Sb  Sb14  1  0.66584457  0.33292228  0.32412835  1
  O  O15  1  0.15804294  0.84250406  0.91342110  1
  O  O16  1  0.15804294  0.31553889  0.91342110  1
  O  O17  1  0.68436019  0.84218009  0.91305690  1
  O  O18  1  0.84195706  0.15749594  0.08657890  1
  O  O19  1  0.84195706  0.68446111  0.08657890  1
  O  O20  1  0.31563981  0.15781991  0.08694310  1
  O  O21  1  0.17579631  0.81232186  0.59293519  1
  O  O22  1  0.17579631  0.36347445  0.59293519  1
  O  O23  1  0.63840973  0.81920487  0.59202557  1
  O  O24  1  0.82420369  0.18767814  0.40706481  1
  O  O25  1  0.82420369  0.63652555  0.40706481  1
  O  O26  1  0.36159027  0.18079513  0.40797443  1
  O  O27  1  0.99989104  0.99994552  0.23921167  1
  O  O28  1  0.00010896  0.00005448  0.76078833  1
  O  O29  1  0.33299765  0.66649882  0.09103445  1
  O  O30  1  0.66700235  0.33350118  0.90896555  1
  O  O31  1  0.49887885  0.50170345  0.24489564  1
  O  O32  1  0.49887885  0.99717540  0.24489564  1
  O  O33  1  0.00239375  0.50119688  0.24415049  1
  O  O34  1  0.50112115  0.49829655  0.75510436  1
  O  O35  1  0.50112115  0.00282460  0.75510436  1
  O  O36  1  0.99760625  0.49880312  0.75584951  1
