# generated using pymatgen
data_AgMo12PbS16
_symmetry_space_group_name_H-M   'P 1'
_cell_length_a   9.29611419
_cell_length_b   9.24944872
_cell_length_c   9.29611456
_cell_angle_alpha   59.83296452
_cell_angle_beta   119.99999863
_cell_angle_gamma   90.00000000
_symmetry_Int_Tables_number   1
_chemical_formula_structural   AgMo12PbS16
_chemical_formula_sum   'Ag1 Mo12 Pb1 S16'
_cell_volume   563.77091942
_cell_formula_units_Z   1
loop_
 _symmetry_equiv_pos_site_id
 _symmetry_equiv_pos_as_xyz
  1  'x, y, z'
loop_
 _atom_site_type_symbol
 _atom_site_label
 _atom_site_symmetry_multiplicity
 _atom_site_fract_x
 _atom_site_fract_y
 _atom_site_fract_z
 _atom_site_occupancy
  Ag  Ag0  1  -0.00000000  -0.00000000  0.00000000  1
  Mo  Mo1  1  0.37230469  0.40598923  0.55579385  1
  Mo  Mo2  1  0.87707383  0.90212625  0.56154652  1
  Mo  Mo3  1  0.03821693  0.40598923  0.41052161  1
  Mo  Mo4  1  0.53632723  0.90212625  0.41340106  1
  Mo  Mo5  1  0.18348916  0.40598923  0.22170609  1
  Mo  Mo6  1  0.68447269  0.90212625  0.22079992  1
  Mo  Mo7  1  0.12292617  0.09787375  0.43845348  1
  Mo  Mo8  1  0.62769531  0.59401077  0.44420615  1
  Mo  Mo9  1  0.46367277  0.09787375  0.58659894  1
  Mo  Mo10  1  0.96178307  0.59401077  0.58947839  1
  Mo  Mo11  1  0.31552731  0.09787375  0.77920008  1
  Mo  Mo12  1  0.81651084  0.59401077  0.77829391  1
  Pb  Pb13  1  0.50000000  0.50000000  0.00000000  1
  S  S14  1  0.11538382  0.65384853  0.23076765  1
  S  S15  1  0.62056609  0.13830174  0.24113217  1
  S  S16  1  0.37943391  0.86169826  0.75886783  1
  S  S17  1  0.88461618  0.34615147  0.76923235  1
  S  S18  1  0.88557251  0.37653361  0.12647513  1
  S  S19  1  0.39138340  0.87456808  0.13049483  1
  S  S20  1  0.49699126  0.37653361  0.38256377  1
  S  S21  1  0.99493709  0.87456808  0.38632049  1
  S  S22  1  0.24090262  0.37653361  0.73789388  1
  S  S23  1  0.73911143  0.87456808  0.73404852  1
  S  S24  1  0.60861660  0.12543192  0.86950517  1
  S  S25  1  0.11442749  0.62346639  0.87352487  1
  S  S26  1  0.00506291  0.12543192  0.61367951  1
  S  S27  1  0.50300874  0.62346639  0.61743623  1
  S  S28  1  0.26088857  0.12543192  0.26595148  1
  S  S29  1  0.75909738  0.62346639  0.26210612  1
