# generated using pymatgen
data_As7Rh12
_symmetry_space_group_name_H-M   'P 1'
_cell_length_a   3.72707882
_cell_length_b   9.40699139
_cell_length_c   9.40699139
_cell_angle_alpha   119.99999669
_cell_angle_beta   90.00000000
_cell_angle_gamma   90.00000000
_symmetry_Int_Tables_number   1
_chemical_formula_structural   As7Rh12
_chemical_formula_sum   'As7 Rh12'
_cell_volume   285.62795891
_cell_formula_units_Z   1
loop_
 _symmetry_equiv_pos_site_id
 _symmetry_equiv_pos_as_xyz
  1  'x, y, z'
loop_
 _atom_site_type_symbol
 _atom_site_label
 _atom_site_symmetry_multiplicity
 _atom_site_fract_x
 _atom_site_fract_y
 _atom_site_fract_z
 _atom_site_occupancy
  As  As0  1  0.58766378  -0.00000000  -0.00000000  1
  As  As1  1  0.74987500  0.28651167  0.84160271  1
  As  As2  1  0.74987500  0.15839729  0.44490896  1
  As  As3  1  0.74987500  0.55509104  0.71348833  1
  As  As4  1  0.25323792  0.71520804  0.16131232  1
  As  As5  1  0.25323792  0.83868768  0.55389571  1
  As  As6  1  0.25323792  0.44610429  0.28479196  1
  Rh  Rh7  1  0.75549103  0.99018750  0.74853756  1
  Rh  Rh8  1  0.75549103  0.25146244  0.24164994  1
  Rh  Rh9  1  0.75549103  0.75835006  0.00981250  1
  Rh  Rh10  1  0.25452554  0.00757086  0.23557460  1
  Rh  Rh11  1  0.25452554  0.76442540  0.77199627  1
  Rh  Rh12  1  0.25452554  0.22800373  0.99242914  1
  Rh  Rh13  1  0.75429688  0.51549694  0.13403888  1
  Rh  Rh14  1  0.75429688  0.86596112  0.38145806  1
  Rh  Rh15  1  0.75429688  0.61854194  0.48450306  1
  Rh  Rh16  1  0.24768570  0.48318534  0.86251480  1
  Rh  Rh17  1  0.24768570  0.13748520  0.62067054  1
  Rh  Rh18  1  0.24768570  0.37932946  0.51681466  1
