# generated using pymatgen
data_Ba4ScTi4BiO15
_symmetry_space_group_name_H-M   'P 1'
_cell_length_a   4.04014077
_cell_length_b   5.74247635
_cell_length_c   14.53013520
_cell_angle_alpha   78.60301571
_cell_angle_beta   90.00000000
_cell_angle_gamma   90.00000000
_symmetry_Int_Tables_number   1
_chemical_formula_structural   Ba4ScTi4BiO15
_chemical_formula_sum   'Ba4 Sc1 Ti4 Bi1 O15'
_cell_volume   330.45795348
_cell_formula_units_Z   1
loop_
 _symmetry_equiv_pos_site_id
 _symmetry_equiv_pos_as_xyz
  1  'x, y, z'
loop_
 _atom_site_type_symbol
 _atom_site_label
 _atom_site_symmetry_multiplicity
 _atom_site_fract_x
 _atom_site_fract_y
 _atom_site_fract_z
 _atom_site_occupancy
  Ba  Ba0  1  -0.00000000  0.99976550  0.00046899  1
  Ba  Ba1  1  -0.00000000  0.39981531  0.20036937  1
  Ba  Ba2  1  -0.00000000  0.80018469  0.39963063  1
  Ba  Ba3  1  0.00000000  0.20023450  0.59953101  1
  Sc  Sc4  1  0.50000000  0.10000000  0.80000000  1
  Ti  Ti5  1  0.50000000  0.50021410  0.99957180  1
  Ti  Ti6  1  0.50000000  0.89997989  0.20004022  1
  Ti  Ti7  1  0.50000000  0.30002011  0.39995978  1
  Ti  Ti8  1  0.50000000  0.69978590  0.60042820  1
  Bi  Bi9  1  -0.00000000  0.60000000  0.80000000  1
  O  O10  1  -0.00000000  0.69833905  0.60332190  1
  O  O11  1  -0.00000000  0.10000000  0.80000000  1
  O  O12  1  -0.00000000  0.50166095  0.99667810  1
  O  O13  1  0.00000000  0.89995227  0.20009547  1
  O  O14  1  0.00000000  0.30004773  0.39990453  1
  O  O15  1  0.50000000  0.49792189  0.49971309  1
  O  O16  1  0.50000000  0.87937331  0.70000732  1
  O  O17  1  0.50000000  0.32062669  0.89999268  1
  O  O18  1  0.50000000  0.70207811  0.10028691  1
  O  O19  1  0.50000000  0.10000000  0.30000000  1
  O  O20  1  0.50000000  0.42061937  0.70000732  1
  O  O21  1  0.50000000  0.77938063  0.89999268  1
  O  O22  1  0.50000000  0.19763499  0.10028691  1
  O  O23  1  0.50000000  0.60000000  0.30000000  1
  O  O24  1  0.50000000  0.00236501  0.49971309  1
