# generated using pymatgen
data_Ag14H8I4(OF2)5
_symmetry_space_group_name_H-M   'P 1'
_cell_length_a   7.45294762
_cell_length_b   9.39069082
_cell_length_c   18.54401018
_cell_angle_alpha   90.00000000
_cell_angle_beta   90.00000000
_cell_angle_gamma   91.09946837
_symmetry_Int_Tables_number   1
_chemical_formula_structural   Ag14H8I4(OF2)5
_chemical_formula_sum   'Ag28 H16 I8 O10 F20'
_cell_volume   1297.62529487
_cell_formula_units_Z   2
loop_
 _symmetry_equiv_pos_site_id
 _symmetry_equiv_pos_as_xyz
  1  'x, y, z'
loop_
 _atom_site_type_symbol
 _atom_site_label
 _atom_site_symmetry_multiplicity
 _atom_site_fract_x
 _atom_site_fract_y
 _atom_site_fract_z
 _atom_site_occupancy
  Ag  Ag0  1  0.33469868  0.99137101  0.23179781  1
  Ag  Ag1  1  0.83663420  0.48839350  0.27178758  1
  Ag  Ag2  1  0.66336580  0.01160650  0.77178758  1
  Ag  Ag3  1  0.16530132  0.50862899  0.73179781  1
  Ag  Ag4  1  0.34985858  0.75240724  0.01488448  1
  Ag  Ag5  1  0.86308777  0.26921487  0.49061928  1
  Ag  Ag6  1  0.63691223  0.23078513  0.99061928  1
  Ag  Ag7  1  0.15014142  0.74759276  0.51488448  1
  Ag  Ag8  1  0.68484975  0.99145352  0.28989907  1
  Ag  Ag9  1  0.18717603  0.49174716  0.21146802  1
  Ag  Ag10  1  0.31282397  0.00825284  0.71146802  1
  Ag  Ag11  1  0.81515025  0.50854648  0.78989907  1
  Ag  Ag12  1  0.09262007  0.80760329  0.34076381  1
  Ag  Ag13  1  0.59116748  0.30503986  0.15749893  1
  Ag  Ag14  1  0.90883252  0.19496014  0.65749893  1
  Ag  Ag15  1  0.40737993  0.69239671  0.84076381  1
  Ag  Ag16  1  0.04643179  0.19209087  0.34198403  1
  Ag  Ag17  1  0.55079084  0.68993969  0.15966850  1
  Ag  Ag18  1  0.94920916  0.81006031  0.65966850  1
  Ag  Ag19  1  0.45356821  0.30790913  0.84198403  1
  Ag  Ag20  1  0.42736432  0.29156143  0.33908873  1
  Ag  Ag21  1  0.92822163  0.79390744  0.16359463  1
  Ag  Ag22  1  0.57177837  0.70609256  0.66359463  1
  Ag  Ag23  1  0.07263568  0.20843857  0.83908873  1
  Ag  Ag24  1  0.48097735  0.73303472  0.33205834  1
  Ag  Ag25  1  0.97937893  0.23474685  0.17074493  1
  Ag  Ag26  1  0.52062107  0.26525315  0.67074493  1
  Ag  Ag27  1  0.01902265  0.76696528  0.83205834  1
  H  H28  1  0.11804648  0.95657569  0.05420427  1
  H  H29  1  0.62392113  0.46348667  0.44558557  1
  H  H30  1  0.87607887  0.03651333  0.94558557  1
  H  H31  1  0.38195352  0.54342431  0.55420427  1
  H  H32  1  0.00120302  0.85056155  0.00440481  1
  H  H33  1  0.51614205  0.35461879  0.49661110  1
  H  H34  1  0.98385795  0.14538121  0.99661110  1
  H  H35  1  0.49879698  0.64943845  0.50440481  1
  H  H36  1  0.70237063  0.76159963  0.96002943  1
  H  H37  1  0.22034604  0.26839379  0.54381566  1
  H  H38  1  0.27965396  0.23160621  0.04381566  1
  H  H39  1  0.79762937  0.73840037  0.46002943  1
  H  H40  1  0.63582639  0.59451088  0.94576284  1
  H  H41  1  0.14440958  0.10215909  0.55312711  1
  H  H42  1  0.35559042  0.39784091  0.05312711  1
  H  H43  1  0.86417361  0.90548912  0.44576284  1
  I  I44  1  0.36231510  0.98097108  0.39777982  1
  I  I45  1  0.86035713  0.48815652  0.10752656  1
  I  I46  1  0.63964287  0.01184348  0.60752656  1
  I  I47  1  0.13768490  0.51902892  0.89777982  1
  I  I48  1  0.62594966  0.97759035  0.13354391  1
  I  I49  1  0.12743312  0.47340583  0.37141331  1
  I  I50  1  0.37256688  0.02659417  0.87141331  1
  I  I51  1  0.87405034  0.52240965  0.63354391  1
  O  O52  1  0.61687427  0.68400060  0.97591722  1
  O  O53  1  0.12472699  0.19726375  0.52916152  1
  O  O54  1  0.37527301  0.30273625  0.02916152  1
  O  O55  1  0.88312573  0.81599940  0.47591722  1
  O  O56  1  0.08862677  0.85155701  0.04742493  1
  O  O57  1  0.60307163  0.35770485  0.45394542  1
  O  O58  1  0.89692837  0.14229515  0.95394542  1
  O  O59  1  0.41137323  0.64844299  0.54742493  1
  O  O60  1  0.45213148  0.96480792  0.00170112  1
  O  O61  1  0.04786852  0.53519208  0.50170112  1
  F  F62  1  0.98421639  0.96887637  0.76189034  1
  F  F63  1  0.48192730  0.47087224  0.73991751  1
  F  F64  1  0.01807270  0.02912776  0.23991751  1
  F  F65  1  0.51578361  0.53112363  0.26189034  1
  F  F66  1  0.68187847  0.75291096  0.79315187  1
  F  F67  1  0.18407470  0.24901919  0.70837894  1
  F  F68  1  0.31592530  0.25098081  0.20837894  1
  F  F69  1  0.81812153  0.74708904  0.29315187  1
  F  F70  1  0.87651154  0.86906094  0.94017653  1
  F  F71  1  0.39248234  0.37000971  0.56201148  1
  F  F72  1  0.10751766  0.12999029  0.06201148  1
  F  F73  1  0.62348846  0.63093906  0.44017653  1
  F  F74  1  0.21990088  0.74689671  0.21302956  1
  F  F75  1  0.71191508  0.24904204  0.28579823  1
  F  F76  1  0.78808492  0.25095796  0.78579823  1
  F  F77  1  0.28009912  0.75310329  0.71302956  1
  F  F78  1  0.33897099  0.54375475  0.09230523  1
  F  F79  1  0.84520559  0.03797848  0.40092758  1
  F  F80  1  0.65479441  0.46202152  0.90092758  1
  F  F81  1  0.16102901  0.95624525  0.59230523  1
