# generated using pymatgen
data_Ba2In2O5
_symmetry_space_group_name_H-M   'P 1'
_cell_length_a   4.17601550
_cell_length_b   4.31760972
_cell_length_c   8.72762576
_cell_angle_alpha   90.00000000
_cell_angle_beta   90.00000000
_cell_angle_gamma   90.00000000
_symmetry_Int_Tables_number   1
_chemical_formula_structural   Ba2In2O5
_chemical_formula_sum   'Ba2 In2 O5'
_cell_volume   157.36262813
_cell_formula_units_Z   1
loop_
 _symmetry_equiv_pos_site_id
 _symmetry_equiv_pos_as_xyz
  1  'x, y, z'
loop_
 _atom_site_type_symbol
 _atom_site_label
 _atom_site_symmetry_multiplicity
 _atom_site_fract_x
 _atom_site_fract_y
 _atom_site_fract_z
 _atom_site_occupancy
  Ba  Ba0  1  0.00000000  0.00596458  0.71862357  1
  Ba  Ba1  1  0.00000000  0.00596458  0.28137643  1
  In  In2  1  0.50000000  0.51589696  0.50000000  1
  In  In3  1  0.50000000  0.43926731  -0.00000000  1
  O  O4  1  0.50000000  0.56521472  0.77258255  1
  O  O5  1  0.50000000  0.56521472  0.22741745  1
  O  O6  1  0.50000000  0.01431026  0.50000000  1
  O  O7  1  -0.00000000  0.49623336  0.50000000  1
  O  O8  1  -0.00000000  0.24773351  -0.00000000  1
