# generated using pymatgen
data_BaPr2CoS5
_symmetry_space_group_name_H-M   'P 1'
_cell_length_a   7.92672404
_cell_length_b   7.92672403
_cell_length_c   8.78495289
_cell_angle_alpha   116.81771379
_cell_angle_beta   116.81771377
_cell_angle_gamma   89.99999999
_symmetry_Int_Tables_number   1
_chemical_formula_structural   BaPr2CoS5
_chemical_formula_sum   'Ba2 Pr4 Co2 S10'
_cell_volume   425.03565353
_cell_formula_units_Z   2
loop_
 _symmetry_equiv_pos_site_id
 _symmetry_equiv_pos_as_xyz
  1  'x, y, z'
loop_
 _atom_site_type_symbol
 _atom_site_label
 _atom_site_symmetry_multiplicity
 _atom_site_fract_x
 _atom_site_fract_y
 _atom_site_fract_z
 _atom_site_occupancy
  S  S0  1  0.49092849  0.99092849  0.27259015  1
  S  S1  1  0.21833835  0.71833835  0.72740985  1
  S  S2  1  0.50907151  0.00907151  0.72740985  1
  S  S3  1  0.71833835  0.50907151  0.72740985  1
  S  S4  1  0.00907151  0.21833835  0.72740985  1
  S  S5  1  0.28166165  0.49092849  0.27259015  1
  S  S6  1  0.99092849  0.78166165  0.27259015  1
  S  S7  1  0.78166165  0.28166165  0.27259015  1
  S  S8  1  0.00000000  0.00000000  0.00000000  1
  S  S9  1  0.50000000  0.50000000  0.00000000  1
  Co  Co10  1  0.75000000  0.25000000  0.50000000  1
  Co  Co11  1  0.25000000  0.75000000  0.50000000  1
  Ba  Ba12  1  0.75000000  0.75000000  0.50000000  1
  Ba  Ba13  1  0.25000000  0.25000000  0.50000000  1
  Pr  Pr14  1  0.66321592  0.83678408  0.00000000  1
  Pr  Pr15  1  0.16321592  0.66321592  0.00000000  1
  Pr  Pr16  1  0.83678408  0.33678408  0.00000000  1
  Pr  Pr17  1  0.33678408  0.16321592  0.00000000  1
