# generated using pymatgen
data_Yb2Fe3O7
_symmetry_space_group_name_H-M   'P 1'
_cell_length_a   3.50068188
_cell_length_b   3.50068188
_cell_length_c   28.46108638
_cell_angle_alpha   90.00000000
_cell_angle_beta   90.00000000
_cell_angle_gamma   119.99999999
_symmetry_Int_Tables_number   1
_chemical_formula_structural   Yb2Fe3O7
_chemical_formula_sum   'Yb4 Fe6 O14'
_cell_volume   302.05595241
_cell_formula_units_Z   2
loop_
 _symmetry_equiv_pos_site_id
 _symmetry_equiv_pos_as_xyz
  1  'x, y, z'
loop_
 _atom_site_type_symbol
 _atom_site_label
 _atom_site_symmetry_multiplicity
 _atom_site_fract_x
 _atom_site_fract_y
 _atom_site_fract_z
 _atom_site_occupancy
  O  O0  1  0.66666592  0.33333236  0.74999990  1
  O  O1  1  0.33333401  0.66666802  0.24999985  1
  O  O2  1  0.00000000  0.00000000  0.31312744  1
  O  O3  1  0.00000000  0.00000000  0.81312714  1
  O  O4  1  0.00000000  0.00000000  0.68687266  1
  O  O5  1  0.00000000  0.00000000  0.18687261  1
  O  O6  1  0.66666592  0.33333236  0.39186614  1
  O  O7  1  0.33333401  0.66666802  0.89186619  1
  O  O8  1  0.33333401  0.66666802  0.60813397  1
  O  O9  1  0.66666592  0.33333236  0.10813392  1
  O  O10  1  0.33333401  0.66666802  0.03174587  1
  O  O11  1  0.66666592  0.33333236  0.53174592  1
  O  O12  1  0.33333401  0.66666802  0.46825382  1
  O  O13  1  0.66666592  0.33333236  0.96825388  1
  Fe  Fe14  1  0.66666592  0.33333236  0.45558717  1
  Fe  Fe15  1  0.33333401  0.66666802  0.95558722  1
  Fe  Fe16  1  0.33333401  0.66666802  0.54441258  1
  Fe  Fe17  1  0.66666592  0.33333236  0.04441253  1
  Fe  Fe18  1  0.00000000  0.00000000  0.74999990  1
  Fe  Fe19  1  0.00000000  0.00000000  0.24999985  1
  Yb  Yb20  1  0.33333401  0.66666802  0.35075408  1
  Yb  Yb21  1  0.66666592  0.33333236  0.85075377  1
  Yb  Yb22  1  0.66666592  0.33333236  0.64924603  1
  Yb  Yb23  1  0.33333401  0.66666802  0.14924597  1
