# generated using pymatgen
data_Na2SiF6
_symmetry_space_group_name_H-M   'P 1'
_cell_length_a   9.34512902
_cell_length_b   9.34512902
_cell_length_c   4.58200842
_cell_angle_alpha   90.00000000
_cell_angle_beta   90.00000000
_cell_angle_gamma   120.00000001
_symmetry_Int_Tables_number   1
_chemical_formula_structural   Na2SiF6
_chemical_formula_sum   'Na6 Si3 F18'
_cell_volume   346.54298969
_cell_formula_units_Z   3
loop_
 _symmetry_equiv_pos_site_id
 _symmetry_equiv_pos_as_xyz
  1  'x, y, z'
loop_
 _atom_site_type_symbol
 _atom_site_label
 _atom_site_symmetry_multiplicity
 _atom_site_fract_x
 _atom_site_fract_y
 _atom_site_fract_z
 _atom_site_occupancy
  F  F0  1  0.57918158  0.42081842  0.71611383  1
  F  F1  1  0.57918158  0.15836316  0.71611383  1
  F  F2  1  0.84163684  0.42081842  0.71611383  1
  F  F3  1  0.15836316  0.57918158  0.28388617  1
  F  F4  1  0.42081842  0.84163684  0.28388617  1
  F  F5  1  0.42081842  0.57918158  0.28388617  1
  F  F6  1  0.75413305  0.24586695  0.28566784  1
  F  F7  1  0.75413305  0.50826609  0.28566784  1
  F  F8  1  0.49173391  0.24586695  0.28566784  1
  F  F9  1  0.08826169  0.91173831  0.20935263  1
  F  F10  1  0.08826169  0.17652338  0.20935263  1
  F  F11  1  0.82347662  0.91173831  0.20935263  1
  F  F12  1  0.17652338  0.08826169  0.79064737  1
  F  F13  1  0.91173831  0.82347662  0.79064737  1
  F  F14  1  0.91173831  0.08826169  0.79064737  1
  F  F15  1  0.24586695  0.75413305  0.71433216  1
  F  F16  1  0.24586695  0.49173391  0.71433216  1
  F  F17  1  0.50826609  0.75413305  0.71433216  1
  Na  Na18  1  0.34317913  0.34317913  0.00000000  1
  Na  Na19  1  0.00000000  0.65682087  0.00000000  1
  Na  Na20  1  0.65682087  0.00000000  0.00000000  1
  Na  Na21  1  0.65682087  0.65682087  0.00000000  1
  Na  Na22  1  0.00000000  0.34317913  0.00000000  1
  Na  Na23  1  0.34317913  0.00000000  0.00000000  1
  Si  Si24  1  0.66666667  0.33333333  0.49994079  1
  Si  Si25  1  0.33333333  0.66666667  0.50005921  1
  Si  Si26  1  0.00000000  0.00000000  0.00000000  1
