# generated using pymatgen
data_K2MoO2F5
_symmetry_space_group_name_H-M   'P 1'
_cell_length_a   6.29214285
_cell_length_b   6.29214285
_cell_length_c   9.46953423
_cell_angle_alpha   86.00782819
_cell_angle_beta   86.00782819
_cell_angle_gamma   89.99163947
_symmetry_Int_Tables_number   1
_chemical_formula_structural   K2MoO2F5
_chemical_formula_sum   'K4 Mo2 O4 F10'
_cell_volume   373.08757803
_cell_formula_units_Z   2
loop_
 _symmetry_equiv_pos_site_id
 _symmetry_equiv_pos_as_xyz
  1  'x, y, z'
loop_
 _atom_site_type_symbol
 _atom_site_label
 _atom_site_symmetry_multiplicity
 _atom_site_fract_x
 _atom_site_fract_y
 _atom_site_fract_z
 _atom_site_occupancy
  K  K0  1  0.28497025  0.29774590  0.20180041  1
  K  K1  1  0.70225410  0.71502975  0.79819959  1
  K  K2  1  0.23405148  0.76594852  0.50000000  1
  K  K3  1  0.74650258  0.25349742  0.50000000  1
  Mo  Mo4  1  0.76549835  0.79169303  0.26533784  1
  Mo  Mo5  1  0.20830697  0.23450165  0.73466216  1
  O  O6  1  0.74847590  0.80661203  0.08305073  1
  O  O7  1  0.19338797  0.25152410  0.91694927  1
  O  O8  1  0.33654879  0.66345121  -0.00000000  1
  O  O9  1  0.73772028  0.26227972  -0.00000000  1
  F  F10  1  0.77977337  0.77152803  0.48400068  1
  F  F11  1  0.22847197  0.22022663  0.51599932  1
  F  F12  1  0.54599164  0.56258357  0.31439457  1
  F  F13  1  0.43741643  0.45400836  0.68560543  1
  F  F14  1  0.99062666  0.56975179  0.28029397  1
  F  F15  1  0.43024821  0.00937334  0.71970603  1
  F  F16  1  0.54129322  0.00663207  0.31110547  1
  F  F17  1  0.99336793  0.45870678  0.68889453  1
  F  F18  1  0.98443028  0.01643636  0.27747047  1
  F  F19  1  0.98356364  0.01556972  0.72252953  1
