# generated using pymatgen
data_Rb2Li14Pr3O14
_symmetry_space_group_name_H-M   'P 1'
_cell_length_a   7.49512499
_cell_length_b   8.37932030
_cell_length_c   8.86049263
_cell_angle_alpha   118.21928115
_cell_angle_beta   115.02109621
_cell_angle_gamma   90.00000001
_symmetry_Int_Tables_number   1
_chemical_formula_structural   Rb2Li14Pr3O14
_chemical_formula_sum   'Rb2 Li14 Pr3 O14'
_cell_volume   430.15436660
_cell_formula_units_Z   1
loop_
 _symmetry_equiv_pos_site_id
 _symmetry_equiv_pos_as_xyz
  1  'x, y, z'
loop_
 _atom_site_type_symbol
 _atom_site_label
 _atom_site_symmetry_multiplicity
 _atom_site_fract_x
 _atom_site_fract_y
 _atom_site_fract_z
 _atom_site_occupancy
  Li  Li0  1  0.14524921  0.71303587  0.73450361  1
  Li  Li1  1  0.85475079  0.97853226  0.26549639  1
  Li  Li2  1  0.58925440  0.02146774  0.73450361  1
  Li  Li3  1  0.41074560  0.28696413  0.26549639  1
  Li  Li4  1  0.14524921  0.02146774  0.73450361  1
  Li  Li5  1  0.50000000  0.15867630  0.00000000  1
  Li  Li6  1  0.50000000  0.84132370  0.00000000  1
  Li  Li7  1  0.76858149  0.41425684  0.53716299  1
  Li  Li8  1  0.23141851  0.58574316  0.46283701  1
  Li  Li9  1  0.23141851  0.87709386  0.46283701  1
  Li  Li10  1  0.76858149  0.12290614  0.53716299  1
  Li  Li11  1  0.58925440  0.71303587  0.73450361  1
  Li  Li12  1  0.85475079  0.28696413  0.26549639  1
  Li  Li13  1  0.41074560  0.97853226  0.26549639  1
  O  O14  1  0.86777559  0.05804331  0.73555117  1
  O  O15  1  0.62414346  0.40166416  0.24828692  1
  O  O16  1  0.62414346  0.84662276  0.24828692  1
  O  O17  1  0.37585654  0.59833584  0.75171308  1
  O  O18  1  0.37585654  0.15337724  0.75171308  1
  O  O19  1  0.06399687  0.75893906  0.51787812  1
  O  O20  1  0.54611875  0.24106094  0.48212188  1
  O  O21  1  0.93600313  0.24106094  0.48212188  1
  O  O22  1  0.45388125  0.75893906  0.51787812  1
  O  O23  1  0.69382298  0.00000000  0.00000000  1
  O  O24  1  0.30617702  0.00000000  0.00000000  1
  O  O25  1  0.86777559  0.67750786  0.73555117  1
  O  O26  1  0.13222441  0.32249214  0.26444883  1
  O  O27  1  0.13222441  0.94195669  0.26444883  1
  Rb  Rb28  1  0.76224388  0.50000000  0.00000000  1
  Rb  Rb29  1  0.23775612  0.50000000  0.00000000  1
  Pr  Pr30  1  0.00000000  0.00000000  0.00000000  1
  Pr  Pr31  1  0.27209054  0.27209054  0.54418109  1
  Pr  Pr32  1  0.72790946  0.72790946  0.45581891  1
