# generated using pymatgen
data_Sr2TmReO6
_symmetry_space_group_name_H-M   'P 1'
_cell_length_a   5.85796492
_cell_length_b   5.85796492
_cell_length_c   5.85796492
_cell_angle_alpha   60.00000000
_cell_angle_beta   59.99999997
_cell_angle_gamma   60.00000001
_symmetry_Int_Tables_number   1
_chemical_formula_structural   Sr2TmReO6
_chemical_formula_sum   'Sr2 Tm1 Re1 O6'
_cell_volume   142.14294256
_cell_formula_units_Z   1
loop_
 _symmetry_equiv_pos_site_id
 _symmetry_equiv_pos_as_xyz
  1  'x, y, z'
loop_
 _atom_site_type_symbol
 _atom_site_label
 _atom_site_symmetry_multiplicity
 _atom_site_fract_x
 _atom_site_fract_y
 _atom_site_fract_z
 _atom_site_occupancy
  O  O0  1  0.23797068  0.76202932  0.76202932  1
  O  O1  1  0.23797068  0.76202932  0.23797068  1
  O  O2  1  0.76202932  0.23797068  0.76202932  1
  O  O3  1  0.23797068  0.23797068  0.76202932  1
  O  O4  1  0.76202932  0.23797068  0.23797068  1
  O  O5  1  0.76202932  0.76202932  0.23797068  1
  Sr  Sr6  1  0.25000000  0.25000000  0.25000000  1
  Sr  Sr7  1  0.75000000  0.75000000  0.75000000  1
  Tm  Tm8  1  0.50000000  0.50000000  0.50000000  1
  Re  Re9  1  0.00000000  0.00000000  0.00000000  1
