# generated using pymatgen
data_TmMnGe
_symmetry_space_group_name_H-M   'P 1'
_cell_length_a   4.05096199
_cell_length_b   6.95890221
_cell_length_c   7.88104515
_cell_angle_alpha   90.00000000
_cell_angle_beta   90.00000000
_cell_angle_gamma   90.00000000
_symmetry_Int_Tables_number   1
_chemical_formula_structural   TmMnGe
_chemical_formula_sum   'Tm4 Mn4 Ge4'
_cell_volume   222.16862000
_cell_formula_units_Z   4
loop_
 _symmetry_equiv_pos_site_id
 _symmetry_equiv_pos_as_xyz
  1  'x, y, z'
loop_
 _atom_site_type_symbol
 _atom_site_label
 _atom_site_symmetry_multiplicity
 _atom_site_fract_x
 _atom_site_fract_y
 _atom_site_fract_z
 _atom_site_occupancy
  Mn  Mn0  1  0.75000000  0.36742232  0.55434227  1
  Mn  Mn1  1  0.25000000  0.13257768  0.05434227  1
  Mn  Mn2  1  0.75000000  0.86742232  0.94565773  1
  Mn  Mn3  1  0.25000000  0.63257768  0.44565773  1
  Ge  Ge4  1  0.25000000  0.27300432  0.37872970  1
  Ge  Ge5  1  0.75000000  0.22699568  0.87872970  1
  Ge  Ge6  1  0.25000000  0.77300432  0.12127030  1
  Ge  Ge7  1  0.75000000  0.72699568  0.62127030  1
  Tm  Tm8  1  0.25000000  0.52608434  0.81915432  1
  Tm  Tm9  1  0.75000000  0.47391566  0.18084568  1
  Tm  Tm10  1  0.25000000  0.02608434  0.68084568  1
  Tm  Tm11  1  0.75000000  0.97391566  0.31915432  1
