# generated using pymatgen
data_PbSO3
_symmetry_space_group_name_H-M   'P 1'
_cell_length_a   5.57030164
_cell_length_b   6.90710160
_cell_length_c   8.05401781
_cell_angle_alpha   90.00000000
_cell_angle_beta   90.00000000
_cell_angle_gamma   90.00000000
_symmetry_Int_Tables_number   1
_chemical_formula_structural   PbSO3
_chemical_formula_sum   'Pb4 S4 O12'
_cell_volume   309.87543072
_cell_formula_units_Z   4
loop_
 _symmetry_equiv_pos_site_id
 _symmetry_equiv_pos_as_xyz
  1  'x, y, z'
loop_
 _atom_site_type_symbol
 _atom_site_label
 _atom_site_symmetry_multiplicity
 _atom_site_fract_x
 _atom_site_fract_y
 _atom_site_fract_z
 _atom_site_occupancy
  O  O0  1  0.03034502  0.78417313  0.06227846  1
  O  O1  1  0.53034502  0.21582687  0.93772154  1
  O  O2  1  0.96965498  0.28417313  0.43772154  1
  O  O3  1  0.46965498  0.71582687  0.56227846  1
  O  O4  1  0.96965498  0.21582687  0.93772154  1
  O  O5  1  0.46965498  0.78417313  0.06227846  1
  O  O6  1  0.03034502  0.71582687  0.56227846  1
  O  O7  1  0.53034502  0.28417313  0.43772154  1
  O  O8  1  0.75000000  0.01600431  0.31222661  1
  O  O9  1  0.25000000  0.98399569  0.68777339  1
  O  O10  1  0.25000000  0.51600431  0.18777339  1
  O  O11  1  0.75000000  0.48399569  0.81222661  1
  S  S12  1  0.75000000  0.35117898  0.96510768  1
  S  S13  1  0.25000000  0.64882102  0.03489232  1
  S  S14  1  0.25000000  0.85117898  0.53489232  1
  S  S15  1  0.75000000  0.14882102  0.46510768  1
  Pb  Pb16  1  0.25000000  0.35836333  0.68350818  1
  Pb  Pb17  1  0.75000000  0.64163667  0.31649182  1
  Pb  Pb18  1  0.75000000  0.85836333  0.81649182  1
  Pb  Pb19  1  0.25000000  0.14163667  0.18350818  1
