# generated using pymatgen
data_MnH16C4(Br2N)2
_symmetry_space_group_name_H-M   'P 1'
_cell_length_a   8.30439054
_cell_length_b   11.95073213
_cell_length_c   15.46638518
_cell_angle_alpha   90.00000000
_cell_angle_beta   95.38516296
_cell_angle_gamma   90.00000000
_symmetry_Int_Tables_number   1
_chemical_formula_structural   MnH16C4(Br2N)2
_chemical_formula_sum   'Mn4 H64 C16 Br16 N8'
_cell_volume   1528.16416370
_cell_formula_units_Z   4
loop_
 _symmetry_equiv_pos_site_id
 _symmetry_equiv_pos_as_xyz
  1  'x, y, z'
loop_
 _atom_site_type_symbol
 _atom_site_label
 _atom_site_symmetry_multiplicity
 _atom_site_fract_x
 _atom_site_fract_y
 _atom_site_fract_z
 _atom_site_occupancy
  H  H0  1  0.87012686  0.47190818  0.10815085  1
  H  H1  1  0.62987314  0.97190818  0.39184915  1
  H  H2  1  0.12987314  0.52809182  0.89184915  1
  H  H3  1  0.37012686  0.02809182  0.60815085  1
  H  H4  1  0.66763407  0.47868471  0.05686259  1
  H  H5  1  0.83236593  0.97868471  0.44313741  1
  H  H6  1  0.33236593  0.52131529  0.94313741  1
  H  H7  1  0.16763407  0.02131529  0.55686259  1
  H  H8  1  0.83286636  0.44944117  0.99331496  1
  H  H9  1  0.66713364  0.94944117  0.50668504  1
  H  H10  1  0.16713364  0.55055883  0.00668504  1
  H  H11  1  0.33286636  0.05055883  0.49331496  1
  H  H12  1  0.58032508  0.32429939  0.15532743  1
  H  H13  1  0.91967492  0.82429939  0.34467257  1
  H  H14  1  0.41967492  0.67570061  0.84467257  1
  H  H15  1  0.08032508  0.17570061  0.65532743  1
  H  H16  1  0.78230502  0.31849604  0.20840407  1
  H  H17  1  0.71769498  0.81849604  0.29159593  1
  H  H18  1  0.21769498  0.68150396  0.79159593  1
  H  H19  1  0.28230502  0.18150396  0.70840407  1
  H  H20  1  0.69119092  0.19536264  0.15909229  1
  H  H21  1  0.80880908  0.69536264  0.34090771  1
  H  H22  1  0.41725973  0.92110407  0.23289332  1
  H  H23  1  0.19119092  0.30463736  0.65909229  1
  H  H24  1  0.65873559  0.46642612  0.61965449  1
  H  H25  1  0.84126441  0.96642612  0.88034551  1
  H  H26  1  0.34126441  0.53357388  0.38034551  1
  H  H27  1  0.30880908  0.80463736  0.84090771  1
  H  H28  1  0.65589121  0.59964389  0.65130285  1
  H  H29  1  0.84410879  0.09964389  0.84869715  1
  H  H30  1  0.34410879  0.40035611  0.34869715  1
  H  H31  1  0.15589121  0.90035611  0.15130285  1
  H  H32  1  0.68828171  0.28372142  0.01933101  1
  H  H33  1  0.81171829  0.78372142  0.48066899  1
  H  H34  1  0.31171829  0.71627858  0.98066899  1
  H  H35  1  0.18828171  0.21627858  0.51933101  1
  H  H36  1  0.48901917  0.48855621  0.73428000  1
  H  H37  1  0.01098083  0.98855621  0.76572000  1
  H  H38  1  0.51098083  0.51144379  0.26572000  1
  H  H39  1  0.98901917  0.01144379  0.23428000  1
  H  H40  1  0.65870511  0.54559144  0.80161260  1
  H  H41  1  0.84129489  0.04559144  0.69838740  1
  H  H42  1  0.34129489  0.45440856  0.19838740  1
  H  H43  1  0.15870511  0.95440856  0.30161260  1
  H  H44  1  0.65935262  0.40156744  0.76809512  1
  H  H45  1  0.84064738  0.90156744  0.73190488  1
  H  H46  1  0.34064738  0.59843256  0.23190488  1
  H  H47  1  0.15935262  0.09843256  0.26809512  1
  H  H48  1  0.87879012  0.27710732  0.06874063  1
  H  H49  1  0.62120988  0.77710732  0.43125937  1
  H  H50  1  0.12120988  0.72289268  0.93125937  1
  H  H51  1  0.37879012  0.22289268  0.56874063  1
  H  H52  1  0.92442394  0.54279615  0.62066552  1
  H  H53  1  0.57557606  0.04279615  0.87933448  1
  H  H54  1  0.07557606  0.45720385  0.37933448  1
  H  H55  1  0.42442394  0.95720385  0.12066552  1
  H  H56  1  0.91733224  0.43417438  0.70100317  1
  H  H57  1  0.58266776  0.93417438  0.79899683  1
  H  H58  1  0.08266776  0.56582562  0.29899683  1
  H  H59  1  0.41733224  0.06582562  0.20100317  1
  H  H60  1  0.91725973  0.57889593  0.73289332  1
  H  H61  1  0.58274027  0.07889593  0.76710668  1
  H  H62  1  0.08274027  0.42110407  0.26710668  1
  H  H63  1  0.15873559  0.03357388  0.11965449  1
  C  C64  1  0.21461036  0.56247806  0.94361462  1
  C  C65  1  0.71461036  0.93752194  0.44361462  1
  C  C66  1  0.78538964  0.43752194  0.05638538  1
  C  C67  1  0.28538964  0.06247806  0.55638538  1
  C  C68  1  0.37760678  0.98124561  0.18183012  1
  C  C69  1  0.12239322  0.48124561  0.31816988  1
  C  C70  1  0.62239322  0.01875439  0.81816988  1
  C  C71  1  0.87760678  0.51875439  0.68183012  1
  C  C72  1  0.12041566  0.01360091  0.24954283  1
  C  C73  1  0.37958434  0.51360091  0.25045717  1
  C  C74  1  0.87958434  0.98639909  0.75045717  1
  C  C75  1  0.62041566  0.48639909  0.74954283  1
  C  C76  1  0.20026473  0.21346172  0.65442329  1
  C  C77  1  0.70026473  0.28653828  0.15442329  1
  C  C78  1  0.79973527  0.78653828  0.34557671  1
  C  C79  1  0.29973527  0.71346172  0.84557671  1
  N  N80  1  0.19738440  0.98016290  0.17015394  1
  N  N81  1  0.30261560  0.48016290  0.32984606  1
  N  N82  1  0.80261560  0.01983710  0.82984606  1
  N  N83  1  0.69738440  0.51983710  0.67015394  1
  N  N84  1  0.23393207  0.68492070  0.92927773  1
  N  N85  1  0.73393207  0.81507930  0.42927773  1
  N  N86  1  0.76606793  0.31507930  0.07072227  1
  N  N87  1  0.26606793  0.18492070  0.57072227  1
  Mn  Mn88  1  0.78816105  0.79399420  0.04714038  1
  Mn  Mn89  1  0.21183895  0.20600580  0.95285962  1
  Mn  Mn90  1  0.71183895  0.29399420  0.45285962  1
  Mn  Mn91  1  0.28816105  0.70600580  0.54714038  1
  Br  Br92  1  0.03365445  0.79166889  0.59014227  1
  Br  Br93  1  0.46634555  0.29166889  0.90985773  1
  Br  Br94  1  0.96634555  0.20833111  0.40985773  1
  Br  Br95  1  0.53365445  0.70833111  0.09014227  1
  Br  Br96  1  0.78300398  0.00152293  0.05956499  1
  Br  Br97  1  0.71699602  0.50152293  0.44043501  1
  Br  Br98  1  0.21699602  0.99847707  0.94043501  1
  Br  Br99  1  0.28300398  0.49847707  0.55956499  1
  Br  Br100  1  0.03310573  0.72226097  0.13797604  1
  Br  Br101  1  0.46689427  0.22226097  0.36202396  1
  Br  Br102  1  0.96689427  0.27773903  0.86202396  1
  Br  Br103  1  0.53310573  0.77773903  0.63797604  1
  Br  Br104  1  0.33105808  0.76180275  0.39325414  1
  Br  Br105  1  0.66894192  0.23819725  0.60674586  1
  Br  Br106  1  0.83105808  0.73819725  0.89325414  1
  Br  Br107  1  0.16894192  0.26180275  0.10674586  1
