# generated using pymatgen
data_SrCr10O15
_symmetry_space_group_name_H-M   'P 1'
_cell_length_a   7.83858554
_cell_length_b   7.83858554
_cell_length_c   9.54359805
_cell_angle_alpha   90.00000000
_cell_angle_beta   90.00000000
_cell_angle_gamma   96.27241076
_symmetry_Int_Tables_number   1
_chemical_formula_structural   SrCr10O15
_chemical_formula_sum   'Sr2 Cr20 O30'
_cell_volume   582.88100855
_cell_formula_units_Z   2
loop_
 _symmetry_equiv_pos_site_id
 _symmetry_equiv_pos_as_xyz
  1  'x, y, z'
loop_
 _atom_site_type_symbol
 _atom_site_label
 _atom_site_symmetry_multiplicity
 _atom_site_fract_x
 _atom_site_fract_y
 _atom_site_fract_z
 _atom_site_occupancy
  O  O0  1  0.00000000  0.00000000  0.50000000  1
  O  O1  1  0.50000000  0.50000000  0.00000000  1
  O  O2  1  0.24579972  0.75420028  0.50000000  1
  O  O3  1  0.25420028  0.74579972  0.00000000  1
  O  O4  1  0.75420028  0.24579972  0.50000000  1
  O  O5  1  0.74579972  0.25420028  0.00000000  1
  O  O6  1  0.63838059  0.63838059  0.73087114  1
  O  O7  1  0.86161941  0.86161941  0.23087114  1
  O  O8  1  0.13838059  0.13838059  0.76912886  1
  O  O9  1  0.36161941  0.36161941  0.26912886  1
  O  O10  1  0.56492517  0.06492517  0.25000000  1
  O  O11  1  0.93507483  0.43507483  0.75000000  1
  O  O12  1  0.43507483  0.93507483  0.75000000  1
  O  O13  1  0.06492517  0.56492517  0.25000000  1
  O  O14  1  0.72302462  0.46074063  0.24153300  1
  O  O15  1  0.77697538  0.03925937  0.74153300  1
  O  O16  1  0.96074063  0.22302462  0.25846700  1
  O  O17  1  0.53925937  0.27697538  0.75846700  1
  O  O18  1  0.27697538  0.53925937  0.75846700  1
  O  O19  1  0.22302462  0.96074063  0.25846700  1
  O  O20  1  0.03925937  0.77697538  0.74153300  1
  O  O21  1  0.46074063  0.72302462  0.24153300  1
  O  O22  1  0.10388054  0.36317833  0.50706433  1
  O  O23  1  0.39611946  0.13682167  0.00706433  1
  O  O24  1  0.86317833  0.60388054  0.99293567  1
  O  O25  1  0.63682167  0.89611946  0.49293567  1
  O  O26  1  0.89611946  0.63682167  0.49293567  1
  O  O27  1  0.60388054  0.86317833  0.99293567  1
  O  O28  1  0.13682167  0.39611946  0.00706433  1
  O  O29  1  0.36317833  0.10388054  0.50706433  1
  Cr  Cr30  1  0.81485275  0.81485275  0.63412143  1
  Cr  Cr31  1  0.68514725  0.68514725  0.13412143  1
  Cr  Cr32  1  0.31485275  0.31485275  0.86587857  1
  Cr  Cr33  1  0.18514725  0.18514725  0.36587857  1
  Cr  Cr34  1  0.04409948  0.79008179  0.35445046  1
  Cr  Cr35  1  0.45590052  0.70991821  0.85445046  1
  Cr  Cr36  1  0.29008179  0.54409948  0.14554954  1
  Cr  Cr37  1  0.20991821  0.95590052  0.64554954  1
  Cr  Cr38  1  0.95590052  0.20991821  0.64554954  1
  Cr  Cr39  1  0.54409948  0.29008179  0.14554954  1
  Cr  Cr40  1  0.70991821  0.45590052  0.85445046  1
  Cr  Cr41  1  0.79008179  0.04409948  0.35445046  1
  Cr  Cr42  1  0.40627185  0.91877708  0.11412957  1
  Cr  Cr43  1  0.09372815  0.58122292  0.61412957  1
  Cr  Cr44  1  0.41877708  0.90627185  0.38587043  1
  Cr  Cr45  1  0.08122292  0.59372815  0.88587043  1
  Cr  Cr46  1  0.59372815  0.08122292  0.88587043  1
  Cr  Cr47  1  0.90627185  0.41877708  0.38587043  1
  Cr  Cr48  1  0.58122292  0.09372815  0.61412957  1
  Cr  Cr49  1  0.91877708  0.40627185  0.11412957  1
  Sr  Sr50  1  0.50000000  0.50000000  0.50000000  1
  Sr  Sr51  1  0.00000000  0.00000000  0.00000000  1
