# generated using pymatgen
data_Mg3Fe2(SiO4)3
_symmetry_space_group_name_H-M   'P 1'
_cell_length_a   10.21093431
_cell_length_b   10.21093431
_cell_length_c   10.21093430
_cell_angle_alpha   109.47122064
_cell_angle_beta   109.47122064
_cell_angle_gamma   109.47122061
_symmetry_Int_Tables_number   1
_chemical_formula_structural   Mg3Fe2(SiO4)3
_chemical_formula_sum   'Mg12 Fe8 Si12 O48'
_cell_volume   819.54830318
_cell_formula_units_Z   4
loop_
 _symmetry_equiv_pos_site_id
 _symmetry_equiv_pos_as_xyz
  1  'x, y, z'
loop_
 _atom_site_type_symbol
 _atom_site_label
 _atom_site_symmetry_multiplicity
 _atom_site_fract_x
 _atom_site_fract_y
 _atom_site_fract_z
 _atom_site_occupancy
  O  O0  1  0.71253183  0.69197259  0.08847524  1
  O  O1  1  0.69197259  0.10349735  0.97944076  1
  O  O2  1  0.62405659  0.71253183  0.52055924  1
  O  O3  1  0.52055924  0.62405659  0.71253183  1
  O  O4  1  0.08847524  0.87594341  0.39650265  1
  O  O5  1  0.39650265  0.08847524  0.87594341  1
  O  O6  1  0.10349735  0.97944076  0.69197259  1
  O  O7  1  0.62405659  0.41152476  0.10349735  1
  O  O8  1  0.52055924  0.39650265  0.80802741  1
  O  O9  1  0.87594341  0.97944076  0.78746817  1
  O  O10  1  0.41152476  0.10349735  0.62405659  1
  O  O11  1  0.80802741  0.52055924  0.39650265  1
  O  O12  1  0.97944076  0.78746817  0.87594341  1
  O  O13  1  0.08847524  0.71253183  0.69197259  1
  O  O14  1  0.69197259  0.08847524  0.71253183  1
  O  O15  1  0.10349735  0.62405659  0.41152476  1
  O  O16  1  0.80802741  0.78746817  0.41152476  1
  O  O17  1  0.39650265  0.80802741  0.52055924  1
  O  O18  1  0.41152476  0.80802741  0.78746817  1
  O  O19  1  0.78746817  0.87594341  0.97944076  1
  O  O20  1  0.78746817  0.41152476  0.80802741  1
  O  O21  1  0.87594341  0.39650265  0.08847524  1
  O  O22  1  0.97944076  0.69197259  0.10349735  1
  O  O23  1  0.71253183  0.52055924  0.62405659  1
  O  O24  1  0.28746817  0.30802741  0.91152476  1
  O  O25  1  0.30802741  0.89650265  0.02055924  1
  O  O26  1  0.37594341  0.28746817  0.47944076  1
  O  O27  1  0.47944076  0.37594341  0.28746817  1
  O  O28  1  0.91152476  0.12405659  0.60349735  1
  O  O29  1  0.60349735  0.91152476  0.12405659  1
  O  O30  1  0.89650265  0.02055924  0.30802741  1
  O  O31  1  0.37594341  0.58847524  0.89650265  1
  O  O32  1  0.47944076  0.60349735  0.19197259  1
  O  O33  1  0.12405659  0.02055924  0.21253183  1
  O  O34  1  0.58847524  0.89650265  0.37594341  1
  O  O35  1  0.19197259  0.47944076  0.60349735  1
  O  O36  1  0.02055924  0.21253183  0.12405659  1
  O  O37  1  0.91152476  0.28746817  0.30802741  1
  O  O38  1  0.30802741  0.91152476  0.28746817  1
  O  O39  1  0.89650265  0.37594341  0.58847524  1
  O  O40  1  0.19197259  0.21253183  0.58847524  1
  O  O41  1  0.60349735  0.19197259  0.47944076  1
  O  O42  1  0.58847524  0.19197259  0.21253183  1
  O  O43  1  0.21253183  0.12405659  0.02055924  1
  O  O44  1  0.21253183  0.58847524  0.19197259  1
  O  O45  1  0.12405659  0.60349735  0.91152476  1
  O  O46  1  0.02055924  0.30802741  0.89650265  1
  O  O47  1  0.28746817  0.47944076  0.37594341  1
  Mg  Mg48  1  0.25000000  0.37500000  0.12500000  1
  Mg  Mg49  1  0.37500000  0.75000000  0.12500000  1
  Mg  Mg50  1  0.12500000  0.25000000  0.37500000  1
  Mg  Mg51  1  0.37500000  0.12500000  0.25000000  1
  Mg  Mg52  1  0.12500000  0.37500000  0.75000000  1
  Mg  Mg53  1  0.75000000  0.12500000  0.37500000  1
  Mg  Mg54  1  0.75000000  0.62500000  0.87500000  1
  Mg  Mg55  1  0.62500000  0.25000000  0.87500000  1
  Mg  Mg56  1  0.87500000  0.75000000  0.62500000  1
  Mg  Mg57  1  0.62500000  0.87500000  0.75000000  1
  Mg  Mg58  1  0.87500000  0.62500000  0.25000000  1
  Mg  Mg59  1  0.25000000  0.87500000  0.62500000  1
  Si  Si60  1  0.75000000  0.87500000  0.12500000  1
  Si  Si61  1  0.37500000  0.25000000  0.62500000  1
  Si  Si62  1  0.62500000  0.37500000  0.25000000  1
  Si  Si63  1  0.12500000  0.75000000  0.87500000  1
  Si  Si64  1  0.12500000  0.87500000  0.25000000  1
  Si  Si65  1  0.87500000  0.12500000  0.75000000  1
  Si  Si66  1  0.75000000  0.37500000  0.62500000  1
  Si  Si67  1  0.37500000  0.62500000  0.75000000  1
  Si  Si68  1  0.25000000  0.62500000  0.37500000  1
  Si  Si69  1  0.62500000  0.75000000  0.37500000  1
  Si  Si70  1  0.87500000  0.25000000  0.12500000  1
  Si  Si71  1  0.25000000  0.12500000  0.87500000  1
  Fe  Fe72  1  0.50000000  0.50000000  0.50000000  1
  Fe  Fe73  1  0.50000000  0.50000000  0.00000000  1
  Fe  Fe74  1  0.50000000  0.00000000  0.50000000  1
  Fe  Fe75  1  0.50000000  0.00000000  0.00000000  1
  Fe  Fe76  1  0.00000000  0.00000000  0.50000000  1
  Fe  Fe77  1  0.00000000  0.50000000  0.00000000  1
  Fe  Fe78  1  0.00000000  0.00000000  0.00000000  1
  Fe  Fe79  1  0.00000000  0.50000000  0.50000000  1
