# generated using pymatgen
data_Ca3Mn2O7
_symmetry_space_group_name_H-M   'P 1'
_cell_length_a   3.79135863
_cell_length_b   3.79135862
_cell_length_c   10.06241829
_cell_angle_alpha   100.85895922
_cell_angle_beta   100.85895927
_cell_angle_gamma   89.99999999
_symmetry_Int_Tables_number   1
_chemical_formula_structural   Ca3Mn2O7
_chemical_formula_sum   'Ca3 Mn2 O7'
_cell_volume   139.41320287
_cell_formula_units_Z   1
loop_
 _symmetry_equiv_pos_site_id
 _symmetry_equiv_pos_as_xyz
  1  'x, y, z'
loop_
 _atom_site_type_symbol
 _atom_site_label
 _atom_site_symmetry_multiplicity
 _atom_site_fract_x
 _atom_site_fract_y
 _atom_site_fract_z
 _atom_site_occupancy
  O  O0  1  0.90191343  0.40191253  0.80382668  1
  O  O1  1  0.40191462  0.90191345  0.80382682  1
  O  O2  1  0.09808614  0.59808569  0.19617274  1
  O  O3  1  0.59808774  0.09808747  0.19617297  1
  O  O4  1  0.80170814  0.80170903  0.60341827  1
  O  O5  1  0.00000000  0.00000000  0.00000000  1
  O  O6  1  0.19829152  0.19829190  0.39658134  1
  Ca  Ca7  1  0.49999899  0.50000091  0.99999954  1
  Ca  Ca8  1  0.31602252  0.31602245  0.63204394  1
  Ca  Ca9  1  0.68397716  0.68397849  0.36795667  1
  Mn  Mn10  1  0.10010923  0.10010992  0.20021861  1
  Mn  Mn11  1  0.89989043  0.89989100  0.79978100  1
