# generated using pymatgen
data_Zn2SiHO5
_symmetry_space_group_name_H-M   'P 1'
_cell_length_a   5.16575859
_cell_length_b   7.37042610
_cell_length_c   7.37042610
_cell_angle_alpha   70.04176020
_cell_angle_beta   69.48588015
_cell_angle_gamma   69.48588015
_symmetry_Int_Tables_number   1
_chemical_formula_structural   Zn2SiHO5
_chemical_formula_sum   'Zn4 Si2 H2 O10'
_cell_volume   238.39744163
_cell_formula_units_Z   2
loop_
 _symmetry_equiv_pos_site_id
 _symmetry_equiv_pos_as_xyz
  1  'x, y, z'
loop_
 _atom_site_type_symbol
 _atom_site_label
 _atom_site_symmetry_multiplicity
 _atom_site_fract_x
 _atom_site_fract_y
 _atom_site_fract_z
 _atom_site_occupancy
  Zn  Zn0  1  0.15911679  0.63280012  0.04611268  1
  Zn  Zn1  1  0.83802959  0.36719988  0.95388732  1
  Zn  Zn2  1  0.15911679  0.04611268  0.63280012  1
  Zn  Zn3  1  0.83802959  0.95388732  0.36719988  1
  Si  Si4  1  0.63732364  0.85481067  0.85481067  1
  Si  Si5  1  0.34694499  0.14518933  0.14518933  1
  H  H6  1  0.80729669  0.61479393  0.38520607  1
  H  H7  1  0.80729669  0.38520607  0.61479393  1
  O  O8  1  0.56684932  0.63509761  0.95564612  1
  O  O9  1  0.15759305  0.36490239  0.04435388  1
  O  O10  1  0.56684932  0.95564612  0.63509761  1
  O  O11  1  0.15759305  0.04435388  0.36490239  1
  O  O12  1  0.97235099  0.83382291  0.83382291  1
  O  O13  1  0.63999682  0.16617709  0.16617709  1
  O  O14  1  0.94053997  0.69862416  0.30137584  1
  O  O15  1  0.94053997  0.30137584  0.69862416  1
  O  O16  1  0.40790879  0.00000000  0.00000000  1
  O  O17  1  0.51512397  0.50000000  0.50000000  1
