# generated using pymatgen
data_Ca2Mn2O5
_symmetry_space_group_name_H-M   'P 1'
_cell_length_a   3.83711230
_cell_length_b   5.50261245
_cell_length_c   10.39494665
_cell_angle_alpha   90.00000000
_cell_angle_beta   90.00000000
_cell_angle_gamma   90.00000000
_symmetry_Int_Tables_number   1
_chemical_formula_structural   Ca2Mn2O5
_chemical_formula_sum   'Ca4 Mn4 O10'
_cell_volume   219.48037876
_cell_formula_units_Z   2
loop_
 _symmetry_equiv_pos_site_id
 _symmetry_equiv_pos_as_xyz
  1  'x, y, z'
loop_
 _atom_site_type_symbol
 _atom_site_label
 _atom_site_symmetry_multiplicity
 _atom_site_fract_x
 _atom_site_fract_y
 _atom_site_fract_z
 _atom_site_occupancy
  O  O0  1  0.00000000  0.50000085  0.50000006  1
  O  O1  1  0.00000000  0.08287437  0.29161681  1
  O  O2  1  0.00000000  0.58287338  0.20838325  1
  O  O3  1  0.00000000  0.41712648  0.79161688  1
  O  O4  1  0.50000120  0.28923621  0.09809372  1
  O  O5  1  0.50000120  0.71076366  0.90190640  1
  O  O6  1  0.00000000  0.91712550  0.70838234  1
  O  O7  1  0.50000120  0.21076464  0.59809378  1
  O  O8  1  0.00000000  0.00000000  0.00000000  1
  O  O9  1  0.50000120  0.78923523  0.40190634  1
  Ca  Ca10  1  0.50000120  0.19489839  0.87081169  1
  Ca  Ca11  1  0.50000120  0.80510147  0.12918843  1
  Ca  Ca12  1  0.50000120  0.69489924  0.62918849  1
  Ca  Ca13  1  0.50000120  0.30510062  0.37081163  1
  Mn  Mn14  1  0.00000000  0.22114866  0.62075853  1
  Mn  Mn15  1  0.00000000  0.77885121  0.37924159  1
  Mn  Mn16  1  0.00000000  0.27885036  0.12075847  1
  Mn  Mn17  1  0.00000000  0.72114951  0.87924165  1
