# generated using pymatgen
data_LiFePCO7
_symmetry_space_group_name_H-M   'P 1'
_cell_length_a   5.21262875
_cell_length_b   6.43891204
_cell_length_c   8.65259458
_cell_angle_alpha   90.00000000
_cell_angle_beta   85.83408445
_cell_angle_gamma   90.00000000
_symmetry_Int_Tables_number   1
_chemical_formula_structural   LiFePCO7
_chemical_formula_sum   'Li2 Fe2 P2 C2 O14'
_cell_volume   289.64541684
_cell_formula_units_Z   2
loop_
 _symmetry_equiv_pos_site_id
 _symmetry_equiv_pos_as_xyz
  1  'x, y, z'
loop_
 _atom_site_type_symbol
 _atom_site_label
 _atom_site_symmetry_multiplicity
 _atom_site_fract_x
 _atom_site_fract_y
 _atom_site_fract_z
 _atom_site_occupancy
  Li  Li0  1  0.20280414  0.98103375  0.21575536  1
  Li  Li1  1  0.79719611  0.48103360  0.78424511  1
  C  C2  1  0.72143380  0.75208716  0.06548560  1
  C  C3  1  0.27856646  0.25208701  0.93451488  1
  O  O4  1  0.79452363  0.44670985  0.32309066  1
  O  O5  1  0.94842346  0.76133405  0.11822973  1
  O  O6  1  0.46685904  0.27715895  0.82853929  1
  O  O7  1  0.53313925  0.77715911  0.17146124  1
  O  O8  1  0.17343233  0.56198059  0.67064724  1
  O  O9  1  0.13663938  0.76824119  0.42025677  1
  O  O10  1  0.20547466  0.94671001  0.67690986  1
  O  O11  1  0.05157690  0.26133390  0.88176955  1
  O  O12  1  0.82656803  0.06198044  0.32935204  1
  O  O13  1  0.43730507  0.23952891  0.46418066  1
  O  O14  1  0.68811298  0.71398128  0.92616671  1
  O  O15  1  0.31188727  0.21398112  0.07383376  1
  O  O16  1  0.56269519  0.73952907  0.53581981  1
  O  O17  1  0.86336098  0.26824104  0.57974251  1
  P  P18  1  0.73384045  0.25419895  0.42363203  1
  P  P19  1  0.26615981  0.75419910  0.57636844  1
  Fe  Fe20  1  0.78674781  0.74694465  0.35151668  1
  Fe  Fe21  1  0.21325244  0.24694450  0.64848379  1
