# generated using pymatgen
data_LiPWO4F
_symmetry_space_group_name_H-M   'P 1'
_cell_length_a   5.28562152
_cell_length_b   5.63568415
_cell_length_c   7.79728123
_cell_angle_alpha   110.62987442
_cell_angle_beta   106.24482140
_cell_angle_gamma   97.31728358
_symmetry_Int_Tables_number   1
_chemical_formula_structural   LiPWO4F
_chemical_formula_sum   'Li2 P2 W2 O8 F2'
_cell_volume   201.98879257
_cell_formula_units_Z   2
loop_
 _symmetry_equiv_pos_site_id
 _symmetry_equiv_pos_as_xyz
  1  'x, y, z'
loop_
 _atom_site_type_symbol
 _atom_site_label
 _atom_site_symmetry_multiplicity
 _atom_site_fract_x
 _atom_site_fract_y
 _atom_site_fract_z
 _atom_site_occupancy
  Li  Li0  1  0.89936401  0.57074838  0.17104013  1
  Li  Li1  1  0.10063599  0.42925162  0.82895987  1
  O  O2  1  0.69872945  0.82685912  0.08259298  1
  O  O3  1  0.64460648  0.67868741  0.33001208  1
  O  O4  1  0.35539352  0.32131259  0.66998792  1
  O  O5  1  0.62220922  0.14952501  0.37746020  1
  O  O6  1  0.30127055  0.17314088  0.91740702  1
  O  O7  1  0.37779078  0.85047499  0.62253980  1
  O  O8  1  0.23328408  0.76267360  0.11424372  1
  O  O9  1  0.76671592  0.23732640  0.88575628  1
  F  F10  1  0.11229388  0.34829796  0.26445520  1
  F  F11  1  0.88770612  0.65170204  0.73554480  1
  P  P12  1  0.44997927  0.13555729  0.76770469  1
  P  P13  1  0.55002073  0.86444271  0.23229531  1
  W  W14  1  0.00000000  0.00000000  0.00000000  1
  W  W15  1  0.50000000  0.50000000  0.50000000  1
