# generated using pymatgen
data_LiNb2(PO4)3
_symmetry_space_group_name_H-M   'P 1'
_cell_length_a   8.67806271
_cell_length_b   8.67207342
_cell_length_c   9.12914192
_cell_angle_alpha   118.07085794
_cell_angle_beta   90.82209763
_cell_angle_gamma   119.13711414
_symmetry_Int_Tables_number   1
_chemical_formula_structural   LiNb2(PO4)3
_chemical_formula_sum   'Li2 Nb4 P6 O24'
_cell_volume   502.38614769
_cell_formula_units_Z   2
loop_
 _symmetry_equiv_pos_site_id
 _symmetry_equiv_pos_as_xyz
  1  'x, y, z'
loop_
 _atom_site_type_symbol
 _atom_site_label
 _atom_site_symmetry_multiplicity
 _atom_site_fract_x
 _atom_site_fract_y
 _atom_site_fract_z
 _atom_site_occupancy
  Li  Li0  1  0.76381935  0.23279856  0.41423075  1
  Li  Li1  1  0.23618065  0.76720144  0.58576925  1
  Nb  Nb2  1  0.86698463  0.21178563  0.06930294  1
  Nb  Nb3  1  0.64350005  0.78979502  0.43691602  1
  Nb  Nb4  1  0.13301537  0.78821437  0.93069706  1
  Nb  Nb5  1  0.35649995  0.21020498  0.56308398  1
  P  P6  1  0.53271898  0.27741806  0.24939405  1
  P  P7  1  0.24821020  0.71199859  0.25465311  1
  P  P8  1  0.75178980  0.28800141  0.74534689  1
  P  P9  1  0.03973194  0.00768278  0.75149545  1
  P  P10  1  0.46728102  0.72258194  0.75060595  1
  P  P11  1  0.96026806  0.99231722  0.24850455  1
  O  O12  1  0.47561893  0.76443718  0.60046866  1
  O  O13  1  0.27977279  0.68748095  0.77669260  1
  O  O14  1  0.72022721  0.31251905  0.22330740  1
  O  O15  1  0.89649107  0.49724222  0.76113004  1
  O  O16  1  0.47018612  0.52835816  0.69833637  1
  O  O17  1  0.03122548  0.13414879  0.93507807  1
  O  O18  1  0.52981388  0.47164184  0.30166363  1
  O  O19  1  0.43997662  0.74164451  0.27303560  1
  O  O20  1  0.10669580  0.86895851  0.74729504  1
  O  O21  1  0.84093504  0.85765974  0.61834911  1
  O  O22  1  0.19100186  0.71039968  0.09474867  1
  O  O23  1  0.82504934  0.84206090  0.29868759  1
  O  O24  1  0.36847060  0.08301501  0.08242995  1
  O  O25  1  0.96877452  0.86585121  0.06492193  1
  O  O26  1  0.52438107  0.23556282  0.39953134  1
  O  O27  1  0.89330420  0.13104149  0.25270496  1
  O  O28  1  0.63152940  0.91698499  0.91757005  1
  O  O29  1  0.25685571  0.88554748  0.42903636  1
  O  O30  1  0.80899814  0.28960032  0.90525133  1
  O  O31  1  0.56002338  0.25835549  0.72696440  1
  O  O32  1  0.74314429  0.11445252  0.57096364  1
  O  O33  1  0.10350893  0.50275778  0.23886996  1
  O  O34  1  0.17495066  0.15793910  0.70131241  1
  O  O35  1  0.15906496  0.14234026  0.38165089  1
