# generated using pymatgen
data_KOsBr4NO2
_symmetry_space_group_name_H-M   'P 1'
_cell_length_a   7.57098879
_cell_length_b   9.18374648
_cell_length_c   9.18374648
_cell_angle_alpha   118.62371847
_cell_angle_beta   90.00000000
_cell_angle_gamma   90.00000000
_symmetry_Int_Tables_number   1
_chemical_formula_structural   KOsBr4NO2
_chemical_formula_sum   'K2 Os2 Br8 N2 O4'
_cell_volume   560.50617476
_cell_formula_units_Z   2
loop_
 _symmetry_equiv_pos_site_id
 _symmetry_equiv_pos_as_xyz
  1  'x, y, z'
loop_
 _atom_site_type_symbol
 _atom_site_label
 _atom_site_symmetry_multiplicity
 _atom_site_fract_x
 _atom_site_fract_y
 _atom_site_fract_z
 _atom_site_occupancy
  K  K0  1  0.47805815  0.68092154  0.31907846  1
  K  K1  1  0.97805815  0.31907846  0.68092154  1
  Os  Os2  1  0.47963575  0.16923192  0.83076808  1
  Os  Os3  1  0.97963575  0.83076808  0.16923192  1
  Br  Br4  1  0.44500987  0.86397436  0.74866589  1
  Br  Br5  1  0.44500987  0.25133411  0.13602564  1
  Br  Br6  1  0.94500987  0.13602564  0.25133411  1
  Br  Br7  1  0.94500987  0.74866589  0.86397436  1
  Br  Br8  1  0.06332240  0.90450134  0.46507838  1
  Br  Br9  1  0.06332240  0.53492162  0.09549866  1
  Br  Br10  1  0.56332240  0.09549866  0.53492162  1
  Br  Br11  1  0.56332240  0.46507838  0.90450134  1
  N  N12  1  0.22179026  0.86356304  0.13643696  1
  N  N13  1  0.72179026  0.13643696  0.86356304  1
  O  O14  1  0.87025435  0.11622428  0.88377572  1
  O  O15  1  0.37025435  0.88377572  0.11622428  1
  O  O16  1  0.25659693  0.19873328  0.80126672  1
  O  O17  1  0.75659693  0.80126672  0.19873328  1
