# generated using pymatgen
data_La2NiO4
_symmetry_space_group_name_H-M   'P 1'
_cell_length_a   5.62250250
_cell_length_b   5.62250250
_cell_length_c   12.39384387
_cell_angle_alpha   90.00000000
_cell_angle_beta   90.00000000
_cell_angle_gamma   90.00000000
_symmetry_Int_Tables_number   1
_chemical_formula_structural   La2NiO4
_chemical_formula_sum   'La8 Ni4 O16'
_cell_volume   391.80081522
_cell_formula_units_Z   4
loop_
 _symmetry_equiv_pos_site_id
 _symmetry_equiv_pos_as_xyz
  1  'x, y, z'
loop_
 _atom_site_type_symbol
 _atom_site_label
 _atom_site_symmetry_multiplicity
 _atom_site_fract_x
 _atom_site_fract_y
 _atom_site_fract_z
 _atom_site_occupancy
  O  O0  1  0.95020735  0.95020735  0.82070700  1
  O  O1  1  0.54979095  0.54979095  0.82070700  1
  O  O2  1  0.45020730  0.45020730  0.17929265  1
  O  O3  1  0.95020735  0.54979095  0.32070717  1
  O  O4  1  0.54979095  0.95020735  0.32070717  1
  O  O5  1  0.04979275  0.45020730  0.67929247  1
  O  O6  1  0.45020730  0.04979275  0.67929247  1
  O  O7  1  0.04979275  0.04979275  0.17929265  1
  O  O8  1  0.74999915  0.24999910  0.49999982  1
  O  O9  1  0.24999910  0.74999915  0.00000000  1
  O  O10  1  0.24999910  0.74999915  0.49999982  1
  O  O11  1  0.74999915  0.24999910  0.00000000  1
  O  O12  1  0.24999910  0.24999910  0.97244661  1
  O  O13  1  0.24999910  0.24999910  0.47244601  1
  O  O14  1  0.74999915  0.74999915  0.02755381  1
  O  O15  1  0.74999915  0.74999915  0.52755364  1
  Ni  Ni16  1  0.50000005  0.50000005  0.00000000  1
  Ni  Ni17  1  0.00000000  0.50000005  0.49999982  1
  Ni  Ni18  1  0.50000005  0.00000000  0.49999982  1
  Ni  Ni19  1  0.00000000  0.00000000  0.00000000  1
  La  La20  1  0.51336912  0.51336912  0.36282132  1
  La  La21  1  0.48663098  0.48663098  0.63717910  1
  La  La22  1  0.01336907  0.01336907  0.63717910  1
  La  La23  1  0.01336907  0.48663098  0.13717850  1
  La  La24  1  0.48663098  0.01336907  0.13717850  1
  La  La25  1  0.98663103  0.51336912  0.86282114  1
  La  La26  1  0.51336912  0.98663103  0.86282114  1
  La  La27  1  0.98663103  0.98663103  0.36282132  1
