# generated using pymatgen
data_Sn2SO5
_symmetry_space_group_name_H-M   'P 1'
_cell_length_a   9.06729158
_cell_length_b   11.26007321
_cell_length_c   11.26007321
_cell_angle_alpha   90.00000000
_cell_angle_beta   90.00000000
_cell_angle_gamma   90.00000000
_symmetry_Int_Tables_number   1
_chemical_formula_structural   Sn2SO5
_chemical_formula_sum   'Sn16 S8 O40'
_cell_volume   1149.63508712
_cell_formula_units_Z   8
loop_
 _symmetry_equiv_pos_site_id
 _symmetry_equiv_pos_as_xyz
  1  'x, y, z'
loop_
 _atom_site_type_symbol
 _atom_site_label
 _atom_site_symmetry_multiplicity
 _atom_site_fract_x
 _atom_site_fract_y
 _atom_site_fract_z
 _atom_site_occupancy
  O  O0  1  0.35291436  0.81752502  0.83511107  1
  O  O1  1  0.35291436  0.18247498  0.16488893  1
  O  O2  1  0.64708564  0.16488893  0.81752502  1
  O  O3  1  0.64708564  0.83511107  0.18247498  1
  O  O4  1  0.85291436  0.66488893  0.68247498  1
  O  O5  1  0.14708564  0.68247498  0.33511107  1
  O  O6  1  0.14708564  0.31752502  0.66488893  1
  O  O7  1  0.85291436  0.33511107  0.31752502  1
  O  O8  1  0.60540191  0.89218535  0.83041113  1
  O  O9  1  0.60540191  0.10781465  0.16958887  1
  O  O10  1  0.39459809  0.16958887  0.89218535  1
  O  O11  1  0.39459809  0.83041113  0.10781465  1
  O  O12  1  0.10540191  0.66958887  0.60781465  1
  O  O13  1  0.89459809  0.60781465  0.33041113  1
  O  O14  1  0.89459809  0.39218535  0.66958887  1
  O  O15  1  0.55736141  0.67863146  0.84268855  1
  O  O16  1  0.10540191  0.33041113  0.39218535  1
  O  O17  1  0.50275447  0.21194209  0.34148689  1
  O  O18  1  0.49724553  0.34148689  0.78805791  1
  O  O19  1  0.49724553  0.65851311  0.21194209  1
  O  O20  1  0.00275447  0.84148689  0.71194209  1
  O  O21  1  0.99724553  0.71194209  0.15851311  1
  O  O22  1  0.99724553  0.28805791  0.84148689  1
  O  O23  1  0.00275447  0.15851311  0.28805791  1
  O  O24  1  0.11315314  0.12478238  0.01518529  1
  O  O25  1  0.88684686  0.01518529  0.87521762  1
  O  O26  1  0.88684686  0.98481471  0.12478238  1
  O  O27  1  0.11315314  0.87521762  0.98481471  1
  O  O28  1  0.38684686  0.62478238  0.48481471  1
  O  O29  1  0.38684686  0.37521762  0.51518529  1
  O  O30  1  0.61315314  0.48481471  0.37521762  1
  O  O31  1  0.61315314  0.51518529  0.62478238  1
  O  O32  1  0.05736141  0.34268855  0.17863146  1
  O  O33  1  0.94263859  0.17863146  0.65731145  1
  O  O34  1  0.94263859  0.82136854  0.34268855  1
  O  O35  1  0.05736141  0.65731145  0.82136854  1
  O  O36  1  0.44263859  0.84268855  0.32136854  1
  O  O37  1  0.44263859  0.15731145  0.67863146  1
  O  O38  1  0.55736141  0.32136854  0.15731145  1
  O  O39  1  0.50275447  0.78805791  0.65851311  1
  S  S40  1  0.50784705  0.79292577  0.79018131  1
  S  S41  1  0.50784705  0.20707423  0.20981869  1
  S  S42  1  0.49215295  0.20981869  0.79292577  1
  S  S43  1  0.49215295  0.79018131  0.20707423  1
  S  S44  1  0.00784705  0.70981869  0.70707423  1
  S  S45  1  0.99215295  0.70707423  0.29018131  1
  S  S46  1  0.99215295  0.29292577  0.70981869  1
  S  S47  1  0.00784705  0.29018131  0.29292577  1
  Sn  Sn48  1  0.74336598  0.51749189  0.78612448  1
  Sn  Sn49  1  0.74336598  0.48250811  0.21387552  1
  Sn  Sn50  1  0.25663402  0.21387552  0.51749189  1
  Sn  Sn51  1  0.25663402  0.78612448  0.48250811  1
  Sn  Sn52  1  0.24336598  0.71387552  0.98250811  1
  Sn  Sn53  1  0.75663402  0.98250811  0.28612448  1
  Sn  Sn54  1  0.75663402  0.01749189  0.71387552  1
  Sn  Sn55  1  0.24336598  0.28612448  0.01749189  1
  Sn  Sn56  1  0.63516940  0.65919558  0.49357900  1
  Sn  Sn57  1  0.63516940  0.34080442  0.50642100  1
  Sn  Sn58  1  0.36483060  0.50642100  0.65919558  1
  Sn  Sn59  1  0.36483060  0.49357900  0.34080442  1
  Sn  Sn60  1  0.13516940  0.00642100  0.84080442  1
  Sn  Sn61  1  0.86483060  0.84080442  0.99357900  1
  Sn  Sn62  1  0.86483060  0.15919558  0.00642100  1
  Sn  Sn63  1  0.13516940  0.99357900  0.15919558  1
