# generated using pymatgen
data_P4SO6
_symmetry_space_group_name_H-M   'P 1'
_cell_length_a   8.48213211
_cell_length_b   9.78681719
_cell_length_c   10.31065895
_cell_angle_alpha   90.00000000
_cell_angle_beta   90.11266935
_cell_angle_gamma   90.00000000
_symmetry_Int_Tables_number   1
_chemical_formula_structural   P4SO6
_chemical_formula_sum   'P16 S4 O24'
_cell_volume   855.91786329
_cell_formula_units_Z   4
loop_
 _symmetry_equiv_pos_site_id
 _symmetry_equiv_pos_as_xyz
  1  'x, y, z'
loop_
 _atom_site_type_symbol
 _atom_site_label
 _atom_site_symmetry_multiplicity
 _atom_site_fract_x
 _atom_site_fract_y
 _atom_site_fract_z
 _atom_site_occupancy
  O  O0  1  0.84523663  0.55735954  0.42722092  1
  O  O1  1  0.15476337  0.05735954  0.07277908  1
  O  O2  1  0.15476337  0.44264046  0.57277908  1
  O  O3  1  0.84523663  0.94264046  0.92722092  1
  O  O4  1  0.85438318  0.39556927  0.23445430  1
  O  O5  1  0.14561682  0.89556927  0.26554570  1
  O  O6  1  0.14561682  0.60443073  0.76554570  1
  O  O7  1  0.85438318  0.10443073  0.73445430  1
  O  O8  1  0.86198694  0.65416482  0.19752780  1
  O  O9  1  0.13801306  0.15416482  0.30247220  1
  O  O10  1  0.13801306  0.34583518  0.80247220  1
  O  O11  1  0.86198694  0.84583518  0.69752780  1
  O  O12  1  0.60758798  0.67843930  0.32797825  1
  O  O13  1  0.39241202  0.17843930  0.17202175  1
  O  O14  1  0.39241202  0.32156070  0.67202175  1
  O  O15  1  0.60758798  0.82156070  0.82797825  1
  O  O16  1  0.61684292  0.51770803  0.13557605  1
  O  O17  1  0.38315708  0.01770803  0.36442395  1
  O  O18  1  0.38315708  0.48229197  0.86442395  1
  O  O19  1  0.61684292  0.98229197  0.63557605  1
  O  O20  1  0.59890779  0.07750763  0.86350278  1
  O  O21  1  0.40109221  0.57750763  0.63649722  1
  O  O22  1  0.40109221  0.92249237  0.13649722  1
  O  O23  1  0.59890779  0.42249237  0.36350278  1
  P  P24  1  0.81490992  0.51025255  0.12042526  1
  P  P25  1  0.18509008  0.01025255  0.37957474  1
  P  P26  1  0.18509008  0.48974745  0.87957474  1
  P  P27  1  0.81490992  0.98974745  0.62042526  1
  P  P28  1  0.80435315  0.69931866  0.34571825  1
  P  P29  1  0.19564685  0.19931866  0.15428175  1
  P  P30  1  0.19564685  0.30068134  0.65428175  1
  P  P31  1  0.80435315  0.80068134  0.84571825  1
  P  P32  1  0.79434189  0.39834736  0.38831130  1
  P  P33  1  0.20565811  0.89834736  0.11168870  1
  P  P34  1  0.20565811  0.60165264  0.61168870  1
  P  P35  1  0.79434189  0.10165264  0.88831130  1
  P  P36  1  0.52659907  0.54101369  0.27179115  1
  P  P37  1  0.47340093  0.04101369  0.22820885  1
  P  P38  1  0.47340093  0.45898631  0.72820885  1
  P  P39  1  0.52659907  0.95898631  0.77179115  1
  S  S40  1  0.30332929  0.54618104  0.26090080  1
  S  S41  1  0.69667071  0.04618104  0.23909920  1
  S  S42  1  0.69667071  0.45381896  0.73909920  1
  S  S43  1  0.30332929  0.95381896  0.76090080  1
