# generated using pymatgen
data_Sc3Si4Ni11
_symmetry_space_group_name_H-M   'P 1'
_cell_length_a   7.93197330
_cell_length_b   7.93197330
_cell_length_c   8.32308293
_cell_angle_alpha   90.00000000
_cell_angle_beta   90.00000000
_cell_angle_gamma   120.00000000
_symmetry_Int_Tables_number   1
_chemical_formula_structural   Sc3Si4Ni11
_chemical_formula_sum   'Sc6 Si8 Ni22'
_cell_volume   453.50005169
_cell_formula_units_Z   2
loop_
 _symmetry_equiv_pos_site_id
 _symmetry_equiv_pos_as_xyz
  1  'x, y, z'
loop_
 _atom_site_type_symbol
 _atom_site_label
 _atom_site_symmetry_multiplicity
 _atom_site_fract_x
 _atom_site_fract_y
 _atom_site_fract_z
 _atom_site_occupancy
  Si  Si0  1  0.00000000  0.00000000  0.75000000  1
  Si  Si1  1  0.50000000  0.00000000  0.00000000  1
  Si  Si2  1  0.50000000  0.50000000  0.50000000  1
  Si  Si3  1  0.00000000  0.50000000  0.50000000  1
  Si  Si4  1  0.00000000  0.50000000  0.00000000  1
  Si  Si5  1  0.50000000  0.50000000  0.00000000  1
  Si  Si6  1  0.50000000  0.00000000  0.50000000  1
  Si  Si7  1  0.00000000  0.00000000  0.25000000  1
  Sc  Sc8  1  0.80234131  0.60468262  0.75000000  1
  Sc  Sc9  1  0.19765869  0.80234131  0.25000000  1
  Sc  Sc10  1  0.60468262  0.80234131  0.25000000  1
  Sc  Sc11  1  0.39531738  0.19765869  0.75000000  1
  Sc  Sc12  1  0.80234131  0.19765869  0.75000000  1
  Sc  Sc13  1  0.19765869  0.39531738  0.25000000  1
  Ni  Ni14  1  0.84759732  0.69519463  0.09288246  1
  Ni  Ni15  1  0.69519463  0.84759732  0.90711754  1
  Ni  Ni16  1  0.15240268  0.30480537  0.90711754  1
  Ni  Ni17  1  0.15240268  0.84759732  0.90711754  1
  Ni  Ni18  1  0.30480537  0.15240268  0.40711754  1
  Ni  Ni19  1  0.43880082  0.56119918  0.75000000  1
  Ni  Ni20  1  0.12239836  0.56119918  0.75000000  1
  Ni  Ni21  1  0.87760164  0.43880082  0.25000000  1
  Ni  Ni22  1  0.56119918  0.43880082  0.25000000  1
  Ni  Ni23  1  0.43880082  0.87760164  0.75000000  1
  Ni  Ni24  1  0.33333333  0.66666667  0.00330921  1
  Ni  Ni25  1  0.66666667  0.33333333  0.50330921  1
  Ni  Ni26  1  0.66666667  0.33333333  0.99669079  1
  Ni  Ni27  1  0.33333333  0.66666667  0.49669079  1
  Ni  Ni28  1  0.84759732  0.15240268  0.40711754  1
  Ni  Ni29  1  0.84759732  0.69519463  0.40711754  1
  Ni  Ni30  1  0.15240268  0.84759732  0.59288246  1
  Ni  Ni31  1  0.69519463  0.84759732  0.59288246  1
  Ni  Ni32  1  0.30480537  0.15240268  0.09288246  1
  Ni  Ni33  1  0.84759732  0.15240268  0.09288246  1
  Ni  Ni34  1  0.15240268  0.30480537  0.59288246  1
  Ni  Ni35  1  0.56119918  0.12239836  0.25000000  1
