# generated using pymatgen
data_NaFeO2
_symmetry_space_group_name_H-M   'P 1'
_cell_length_a   5.66194484
_cell_length_b   5.66194484
_cell_length_c   7.31242845
_cell_angle_alpha   90.00000000
_cell_angle_beta   90.00000000
_cell_angle_gamma   90.00000000
_symmetry_Int_Tables_number   1
_chemical_formula_structural   NaFeO2
_chemical_formula_sum   'Na4 Fe4 O8'
_cell_volume   234.41904793
_cell_formula_units_Z   4
loop_
 _symmetry_equiv_pos_site_id
 _symmetry_equiv_pos_as_xyz
  1  'x, y, z'
loop_
 _atom_site_type_symbol
 _atom_site_label
 _atom_site_symmetry_multiplicity
 _atom_site_fract_x
 _atom_site_fract_y
 _atom_site_fract_z
 _atom_site_occupancy
  O  O0  1  0.14747114  0.77900687  0.46506725  1
  O  O1  1  0.85252886  0.22099313  0.96506725  1
  O  O2  1  0.77900687  0.14747114  0.53493275  1
  O  O3  1  0.27900687  0.35252886  0.21506725  1
  O  O4  1  0.72099313  0.64747114  0.71506725  1
  O  O5  1  0.22099313  0.85252886  0.03493275  1
  O  O6  1  0.64747114  0.72099313  0.28493275  1
  O  O7  1  0.35252886  0.27900687  0.78493275  1
  Na  Na8  1  0.80214010  0.80214010  0.00000000  1
  Na  Na9  1  0.30214010  0.69785990  0.75000000  1
  Na  Na10  1  0.69785990  0.30214010  0.25000000  1
  Na  Na11  1  0.19785990  0.19785990  0.50000000  1
  Fe  Fe12  1  0.81242114  0.81242114  0.50000000  1
  Fe  Fe13  1  0.68757886  0.31242114  0.75000000  1
  Fe  Fe14  1  0.31242114  0.68757886  0.25000000  1
  Fe  Fe15  1  0.18757886  0.18757886  0.00000000  1
