# generated using pymatgen
data_LiNiP2O7
_symmetry_space_group_name_H-M   'P 1'
_cell_length_a   6.48199593
_cell_length_b   10.39503247
_cell_length_c   9.22982210
_cell_angle_alpha   65.76829890
_cell_angle_beta   106.68211776
_cell_angle_gamma   93.77775514
_symmetry_Int_Tables_number   1
_chemical_formula_structural   LiNiP2O7
_chemical_formula_sum   'Li4 Ni4 P8 O28'
_cell_volume   542.28640401
_cell_formula_units_Z   4
loop_
 _symmetry_equiv_pos_site_id
 _symmetry_equiv_pos_as_xyz
  1  'x, y, z'
loop_
 _atom_site_type_symbol
 _atom_site_label
 _atom_site_symmetry_multiplicity
 _atom_site_fract_x
 _atom_site_fract_y
 _atom_site_fract_z
 _atom_site_occupancy
  Li  Li0  1  0.04017034  0.53209635  0.16046296  1
  Li  Li1  1  0.34971549  0.60062661  0.93551650  1
  Li  Li2  1  0.54252112  0.02023834  0.50178994  1
  Li  Li3  1  0.94727183  0.05271133  0.93457484  1
  O  O4  1  0.42932639  0.81655311  0.91877088  1
  O  O5  1  0.92933006  0.09349833  0.28025152  1
  O  O6  1  0.95726710  0.73655594  0.50713702  1
  O  O7  1  0.98003644  0.26147418  0.72691780  1
  O  O8  1  0.03914836  0.65826570  0.91254917  1
  O  O9  1  0.07201870  0.91362391  0.71254775  1
  O  O10  1  0.04534952  0.28798205  0.45897004  1
  O  O11  1  0.01155357  0.70816930  0.25635037  1
  O  O12  1  0.25482517  0.03332607  0.90458867  1
  O  O13  1  0.20684074  0.54114386  0.53601338  1
  O  O14  1  0.36380457  0.45074912  0.84660229  1
  O  O15  1  0.99253702  0.35499707  0.13561425  1
  O  O16  1  0.30835175  0.79438734  0.44653057  1
  O  O17  1  0.10676387  0.17507422  0.05186871  1
  O  O18  1  0.43438684  0.31685069  0.69817461  1
  O  O19  1  0.39931219  0.04889889  0.66719272  1
  O  O20  1  0.30356216  0.17448597  0.33216673  1
  O  O21  1  0.37474498  0.46095218  0.32002805  1
  O  O22  1  0.74524988  0.97688160  0.08819582  1
  O  O23  1  0.70894647  0.81472348  0.67049879  1
  O  O24  1  0.57287718  0.69109102  0.29600300  1
  O  O25  1  0.61050722  0.95759995  0.33343485  1
  O  O26  1  0.86246541  0.86638839  0.91679191  1
  O  O27  1  0.68399403  0.20488130  0.51696372  1
  O  O28  1  0.56216161  0.18675753  0.07762627  1
  O  O29  1  0.63299062  0.56729957  0.13767827  1
  O  O30  1  0.77899546  0.45594701  0.45542026  1
  O  O31  1  0.61251603  0.55383352  0.65318410  1
  P  P32  1  0.87711505  0.29275582  0.54421768  1
  P  P33  1  0.70051763  0.05046919  0.19092922  1
  P  P34  1  0.91746425  0.80147180  0.80853464  1
  P  P35  1  0.57864671  0.53913593  0.30004699  1
  P  P36  1  0.11489882  0.70323649  0.43021094  1
  P  P37  1  0.30038649  0.95757747  0.80364568  1
  P  P38  1  0.41951436  0.46975610  0.68842008  1
  P  P39  1  0.08963134  0.20632173  0.19637629  1
  Ni  Ni40  1  0.28840441  0.23293286  0.89168699  1
  Ni  Ni41  1  0.36940047  0.25732465  0.50303802  1
  Ni  Ni42  1  0.63441586  0.74896438  0.48691765  1
  Ni  Ni43  1  0.71252142  0.78210316  0.09767705  1
