# generated using pymatgen
data_Al2O3
_symmetry_space_group_name_H-M   'P 1'
_cell_length_a   5.63864587
_cell_length_b   5.67673251
_cell_length_c   33.90357791
_cell_angle_alpha   59.84687572
_cell_angle_beta   59.40219103
_cell_angle_gamma   59.77630666
_symmetry_Int_Tables_number   1
_chemical_formula_structural   Al2O3
_chemical_formula_sum   'Al32 O48'
_cell_volume   761.67780746
_cell_formula_units_Z   16
loop_
 _symmetry_equiv_pos_site_id
 _symmetry_equiv_pos_as_xyz
  1  'x, y, z'
loop_
 _atom_site_type_symbol
 _atom_site_label
 _atom_site_symmetry_multiplicity
 _atom_site_fract_x
 _atom_site_fract_y
 _atom_site_fract_z
 _atom_site_occupancy
  Al  Al0  1  0.00423252  0.49798661  0.08329871  1
  Al  Al1  1  0.48676818  0.48686237  0.00658451  1
  Al  Al2  1  0.12800576  0.11392136  0.19069192  1
  Al  Al3  1  0.49491063  0.49825868  0.08276976  1
  Al  Al4  1  0.46318420  0.50549640  0.17097083  1
  Al  Al5  1  0.14235639  0.11819716  0.35354188  1
  Al  Al6  1  0.49491063  0.01021014  0.08276976  1
  Al  Al7  1  0.50041934  0.49834168  0.25039698  1
  Al  Al8  1  0.99059690  0.49604692  0.41955188  1
  Al  Al9  1  0.53320450  0.49223947  0.33038576  1
  Al  Al10  1  0.50041934  -0.00114293  0.25039698  1
  Al  Al11  1  0.85888061  0.88192883  0.14620996  1
  Al  Al12  1  0.12243467  0.11928157  0.52316670  1
  Al  Al13  1  0.49951551  0.49655116  0.41971998  1
  Al  Al14  1  0.01073322  0.50555976  0.57969088  1
  Al  Al15  1  0.49951551  0.98561548  0.41971998  1
  Al  Al16  1  0.87003649  0.88036254  0.31153974  1
  Al  Al17  1  0.13542284  0.12038039  0.68730273  1
  Al  Al18  1  0.50249514  0.50528275  0.57939216  1
  Al  Al19  1  0.46941724  0.50952402  0.66858945  1
  Al  Al20  1  0.50529684  0.00310192  0.74812931  1
  Al  Al21  1  0.50249514  0.01586713  0.57939216  1
  Al  Al22  1  0.14828344  0.12753062  0.84944289  1
  Al  Al23  1  0.88023034  0.88303101  0.47561827  1
  Al  Al24  1  0.50529684  0.50282539  0.74812931  1
  Al  Al25  1  0.53628734  0.49657447  0.82842695  1
  Al  Al26  1  0.85995239  0.88334993  0.64555763  1
  Al  Al27  1  0.49551133  0.49490967  0.91797780  1
  Al  Al28  1  0.49551133  0.00171417  0.91797780  1
  Al  Al29  1  0.87189227  0.88197530  0.81069286  1
  Al  Al30  1  0.00667748  0.49452677  0.91737850  1
  Al  Al31  1  0.86566782  0.87147891  0.98189606  1
  O  O32  1  0.25670145  0.25943879  0.04597110  1
  O  O33  1  0.24475519  0.25204073  0.12519389  1
  O  O34  1  0.25670145  0.70803118  0.04597110  1
  O  O35  1  0.70872051  0.25842352  0.04573841  1
  O  O36  1  0.27607665  0.23914237  0.20842779  1
  O  O37  1  0.26324239  0.74405600  0.12477394  1
  O  O38  1  0.73427298  0.28163858  0.12384278  1
  O  O39  1  0.27607665  0.73421425  0.20842779  1
  O  O40  1  0.27738335  0.24040680  0.29030084  1
  O  O41  1  0.73710092  0.74269646  0.04625136  1
  O  O42  1  0.72859578  0.25600693  0.20989839  1
  O  O43  1  0.73427298  0.74102975  0.12384278  1
  O  O44  1  0.26261155  0.25660359  0.37776782  1
  O  O45  1  0.26880695  0.73863670  0.29231994  1
  O  O46  1  0.72081746  0.25901690  0.29397764  1
  O  O47  1  0.72137821  0.75750388  0.21060201  1
  O  O48  1  0.26261155  0.71417996  0.37776782  1
  O  O49  1  0.25659269  0.25201822  0.45656148  1
  O  O50  1  0.73334952  0.25332356  0.37666756  1
  O  O51  1  0.72081746  0.75629977  0.29397764  1
  O  O52  1  0.23952827  0.24060642  0.54700732  1
  O  O53  1  0.26423402  0.75838575  0.45316608  1
  O  O54  1  0.74612406  0.73870834  0.37940988  1
  O  O55  1  0.75878286  0.26353904  0.45326366  1
  O  O56  1  0.23952827  0.73781940  0.54700732  1
  O  O57  1  0.25516552  0.26164521  0.62025734  1
  O  O58  1  0.73740100  0.24008234  0.54707205  1
  O  O59  1  0.75878286  0.75809817  0.45326366  1
  O  O60  1  0.28203430  0.24244739  0.70578417  1
  O  O61  1  0.26624099  0.74638991  0.62349620  1
  O  O62  1  0.74363768  0.74824908  0.54331103  1
  O  O63  1  0.28203430  0.74081332  0.70578417  1
  O  O64  1  0.73673205  0.28605510  0.62244659  1
  O  O65  1  0.28381358  0.24887979  0.78640481  1
  O  O66  1  0.73651661  0.25960984  0.70737728  1
  O  O67  1  0.73673205  0.74253133  0.62244659  1
  O  O68  1  0.26006574  0.25768346  0.87512016  1
  O  O69  1  0.27125815  0.74195526  0.79080522  1
  O  O70  1  0.72588569  0.75821716  0.70961300  1
  O  O71  1  0.27385383  0.27036341  0.94756956  1
  O  O72  1  0.72304222  0.26090811  0.79260325  1
  O  O73  1  0.26006574  0.73153183  0.87512016  1
  O  O74  1  0.74574564  0.25563469  0.87383116  1
  O  O75  1  0.72304222  0.76043014  0.79260325  1
  O  O76  1  0.27010481  0.74543433  0.95650475  1
  O  O77  1  0.74459639  0.27222674  0.95638902  1
  O  O78  1  0.74400695  0.73941209  0.87952814  1
  O  O79  1  0.74459639  0.74484477  0.95638902  1
