# generated using pymatgen
data_YTiO3
_symmetry_space_group_name_H-M   'P 1'
_cell_length_a   5.34770626
_cell_length_b   5.71762231
_cell_length_c   7.70200937
_cell_angle_alpha   90.00000000
_cell_angle_beta   90.00000000
_cell_angle_gamma   90.00000000
_symmetry_Int_Tables_number   1
_chemical_formula_structural   YTiO3
_chemical_formula_sum   'Y4 Ti4 O12'
_cell_volume   235.49790640
_cell_formula_units_Z   4
loop_
 _symmetry_equiv_pos_site_id
 _symmetry_equiv_pos_as_xyz
  1  'x, y, z'
loop_
 _atom_site_type_symbol
 _atom_site_label
 _atom_site_symmetry_multiplicity
 _atom_site_fract_x
 _atom_site_fract_y
 _atom_site_fract_z
 _atom_site_occupancy
  O  O0  1  0.69048917  0.30185164  0.44223079  1
  O  O1  1  0.19048917  0.19814836  0.55776921  1
  O  O2  1  0.80951083  0.80185164  0.05776921  1
  O  O3  1  0.30951083  0.69814836  0.94223079  1
  O  O4  1  0.30951083  0.69814836  0.55776921  1
  O  O5  1  0.80951083  0.80185164  0.44223079  1
  O  O6  1  0.19048917  0.19814836  0.94223079  1
  O  O7  1  0.69048917  0.30185164  0.05776921  1
  O  O8  1  0.12051424  0.45465359  0.25000000  1
  O  O9  1  0.62051424  0.04534641  0.75000000  1
  O  O10  1  0.37948576  0.95465359  0.25000000  1
  O  O11  1  0.87948576  0.54534641  0.75000000  1
  Ti  Ti12  1  0.00000000  0.50000000  0.50000000  1
  Ti  Ti13  1  0.50000000  0.00000000  0.50000000  1
  Ti  Ti14  1  0.50000000  0.00000000  0.00000000  1
  Ti  Ti15  1  0.00000000  0.50000000  0.00000000  1
  Y  Y16  1  0.02217790  0.92848411  0.75000000  1
  Y  Y17  1  0.52217790  0.57151589  0.25000000  1
  Y  Y18  1  0.47782210  0.42848411  0.75000000  1
  Y  Y19  1  0.97782210  0.07151589  0.25000000  1
