# generated using pymatgen
data_Co(PO3)4
_symmetry_space_group_name_H-M   'P 1'
_cell_length_a   5.13114217
_cell_length_b   10.50664308
_cell_length_c   10.50664332
_cell_angle_alpha   71.71759571
_cell_angle_beta   96.48372083
_cell_angle_gamma   96.48371987
_symmetry_Int_Tables_number   1
_chemical_formula_structural   Co(PO3)4
_chemical_formula_sum   'Co2 P8 O24'
_cell_volume   532.58650012
_cell_formula_units_Z   2
loop_
 _symmetry_equiv_pos_site_id
 _symmetry_equiv_pos_as_xyz
  1  'x, y, z'
loop_
 _atom_site_type_symbol
 _atom_site_label
 _atom_site_symmetry_multiplicity
 _atom_site_fract_x
 _atom_site_fract_y
 _atom_site_fract_z
 _atom_site_occupancy
  Co  Co0  1  0.00000000  -0.00000000  0.50000000  1
  Co  Co1  1  0.00000000  0.50000000  0.00000000  1
  P  P2  1  0.18181386  0.78822096  0.36153514  1
  P  P3  1  0.53417157  0.94198819  0.69885924  1
  P  P4  1  0.46582843  0.05801181  0.30114076  1
  P  P5  1  0.18181386  0.36153514  0.78822096  1
  P  P6  1  0.53417157  0.69885924  0.94198819  1
  P  P7  1  0.81818614  0.63846486  0.21177904  1
  P  P8  1  0.46582843  0.30114076  0.05801181  1
  P  P9  1  0.81818614  0.21177904  0.63846486  1
  O  O10  1  0.33651037  0.43432382  0.66983253  1
  O  O11  1  0.29820341  0.39889521  0.08408228  1
  O  O12  1  0.66348963  0.56567618  0.33016747  1
  O  O13  1  0.37284063  0.91435784  0.28091800  1
  O  O14  1  0.98496484  0.16566539  0.55398531  1
  O  O15  1  0.70179659  0.91591772  0.60110479  1
  O  O16  1  0.62715937  0.71908200  0.08564216  1
  O  O17  1  0.75765615  0.33051682  0.07270024  1
  O  O18  1  0.24234385  0.66948318  0.92729976  1
  O  O19  1  0.61315426  0.84813183  0.84813183  1
  O  O20  1  0.29820341  0.08408228  0.39889521  1
  O  O21  1  0.66348963  0.33016747  0.56567618  1
  O  O22  1  1.00000000  0.23252434  0.76747566  1
  O  O23  1  0.62715937  0.08564216  0.71908200  1
  O  O24  1  0.01503516  0.44601469  0.83433461  1
  O  O25  1  0.33651037  0.66983253  0.43432382  1
  O  O26  1  0.00000000  0.76747566  0.23252434  1
  O  O27  1  0.98496484  0.55398531  0.16566539  1
  O  O28  1  0.24234385  0.92729976  0.66948318  1
  O  O29  1  0.75765615  0.07270024  0.33051682  1
  O  O30  1  0.70179659  0.60110479  0.91591772  1
  O  O31  1  0.38684574  0.15186817  0.15186817  1
  O  O32  1  0.37284063  0.28091800  0.91435784  1
  O  O33  1  0.01503516  0.83433461  0.44601469  1
