# generated using pymatgen
data_La5MnPb3
_symmetry_space_group_name_H-M   'P 1'
_cell_length_a   7.07186989
_cell_length_b   9.79030541
_cell_length_c   9.78781273
_cell_angle_alpha   120.01590923
_cell_angle_beta   89.99986185
_cell_angle_gamma   90.00231838
_symmetry_Int_Tables_number   1
_chemical_formula_structural   La5MnPb3
_chemical_formula_sum   'La10 Mn2 Pb6'
_cell_volume   586.78248155
_cell_formula_units_Z   2
loop_
 _symmetry_equiv_pos_site_id
 _symmetry_equiv_pos_as_xyz
  1  'x, y, z'
loop_
 _atom_site_type_symbol
 _atom_site_label
 _atom_site_symmetry_multiplicity
 _atom_site_fract_x
 _atom_site_fract_y
 _atom_site_fract_z
 _atom_site_occupancy
  La  La0  1  0.74974522  0.25078043  0.00000271  1
  La  La1  1  0.74970747  0.74926496  0.74929541  1
  La  La2  1  0.74971566  0.99995837  0.25072026  1
  La  La3  1  0.25008802  0.74922545  0.00001332  1
  La  La4  1  0.25004678  0.25072474  0.25068035  1
  La  La5  1  0.25003237  0.00005386  0.74928806  1
  La  La6  1  0.49992498  0.33330709  0.66664760  1
  La  La7  1  0.49994037  0.66665804  0.33335392  1
  La  La8  1  0.99992396  0.66667023  0.33332096  1
  La  La9  1  0.99993351  0.33335732  0.66667891  1
  Mn  Mn10  1  0.50002535  0.99997663  0.00000462  1
  Mn  Mn11  1  0.99997306  0.00000677  0.00000190  1
  Pb  Pb12  1  0.75014094  0.60583537  0.00000332  1
  Pb  Pb13  1  0.75016483  0.39409289  0.39410881  1
  Pb  Pb14  1  0.75016475  0.99998706  0.60586887  1
  Pb  Pb15  1  0.25014988  0.39416736  0.99999321  1
  Pb  Pb16  1  0.25016028  0.60590943  0.60588568  1
  Pb  Pb17  1  0.25016258  0.00002401  0.39413208  1
