# generated using pymatgen
data_Nd5ErS8
_symmetry_space_group_name_H-M   'P 1'
_cell_length_a   7.39907993
_cell_length_b   7.39907924
_cell_length_c   7.39907969
_cell_angle_alpha   109.70389153
_cell_angle_beta   109.70388974
_cell_angle_gamma   109.00687588
_symmetry_Int_Tables_number   1
_chemical_formula_structural   Nd5ErS8
_chemical_formula_sum   'Nd5 Er1 S8'
_cell_volume   311.80985625
_cell_formula_units_Z   1
loop_
 _symmetry_equiv_pos_site_id
 _symmetry_equiv_pos_as_xyz
  1  'x, y, z'
loop_
 _atom_site_type_symbol
 _atom_site_label
 _atom_site_symmetry_multiplicity
 _atom_site_fract_x
 _atom_site_fract_y
 _atom_site_fract_z
 _atom_site_occupancy
  Nd  Nd0  1  0.12411009  0.74712788  0.87319582  1
  Nd  Nd1  1  0.25287212  0.62606794  0.37698221  1
  Nd  Nd2  1  0.37393206  0.25091427  0.62680418  1
  Nd  Nd3  1  0.62500000  0.37500000  0.25000000  1
  Nd  Nd4  1  0.74908573  0.87588991  0.12301779  1
  Er  Er5  1  0.87500000  0.12500000  0.75000000  1
  S  S6  1  0.51014377  0.00530683  0.36238832  1
  S  S7  1  0.14291852  0.14775545  0.13761168  1
  S  S8  1  0.34524226  0.49856030  0.99901446  1
  S  S9  1  0.65377221  0.65475774  0.65331805  1
  S  S10  1  0.50143970  0.00045416  0.84668195  1
  S  S11  1  0.99469317  0.85708148  0.50483693  1
  S  S12  1  0.85224455  0.48985623  0.99516307  1
  S  S13  1  0.99954584  0.34622779  0.50098554  1
