# generated using pymatgen
data_Pr3NF6
_symmetry_space_group_name_H-M   'P 1'
_cell_length_a   4.02677898
_cell_length_b   12.41792699
_cell_length_c   7.19266238
_cell_angle_alpha   30.40307790
_cell_angle_beta   56.28747789
_cell_angle_gamma   62.45631841
_symmetry_Int_Tables_number   1
_chemical_formula_structural   Pr3NF6
_chemical_formula_sum   'Pr3 N1 F6'
_cell_volume   151.29583702
_cell_formula_units_Z   1
loop_
 _symmetry_equiv_pos_site_id
 _symmetry_equiv_pos_as_xyz
  1  'x, y, z'
loop_
 _atom_site_type_symbol
 _atom_site_label
 _atom_site_symmetry_multiplicity
 _atom_site_fract_x
 _atom_site_fract_y
 _atom_site_fract_z
 _atom_site_occupancy
  F  F0  1  0.23214207  0.35499773  0.21995760  1
  F  F1  1  0.43322560  0.48861252  0.37569575  1
  F  F2  1  0.71746895  0.25213621  0.90415639  1
  F  F3  1  0.25883408  0.99436473  0.25101548  1
  F  F4  1  0.78900049  0.64338049  0.44186891  1
  F  F5  1  0.76375250  0.71236649  0.69238022  1
  N  N6  1  0.72199884  0.00077783  0.72234405  1
  Pr  Pr7  1  0.99649276  0.00041677  0.96190859  1
  Pr  Pr8  1  0.99277521  0.30847029  0.03775477  1
  Pr  Pr9  1  0.01630949  0.69247693  0.97091824  1
