# generated using pymatgen
data_CoP2O7
_symmetry_space_group_name_H-M   'P 1'
_cell_length_a   7.29135272
_cell_length_b   8.26890984
_cell_length_c   9.57691207
_cell_angle_alpha   90.00000000
_cell_angle_beta   109.22404509
_cell_angle_gamma   90.00000000
_symmetry_Int_Tables_number   1
_chemical_formula_structural   CoP2O7
_chemical_formula_sum   'Co4 P8 O28'
_cell_volume   545.20956241
_cell_formula_units_Z   4
loop_
 _symmetry_equiv_pos_site_id
 _symmetry_equiv_pos_as_xyz
  1  'x, y, z'
loop_
 _atom_site_type_symbol
 _atom_site_label
 _atom_site_symmetry_multiplicity
 _atom_site_fract_x
 _atom_site_fract_y
 _atom_site_fract_z
 _atom_site_occupancy
  O  O0  1  0.65401942  0.17315461  0.59703369  1
  O  O1  1  0.98184349  0.40558395  0.33473810  1
  O  O2  1  0.81165031  0.65083786  0.11800806  1
  O  O3  1  0.88486207  0.15194019  0.44652330  1
  O  O4  1  0.01815711  0.59441537  0.66526167  1
  O  O5  1  0.18835029  0.34916270  0.88199171  1
  O  O6  1  0.11513707  0.84805913  0.55347718  1
  O  O7  1  0.17381808  0.32255847  0.59410954  1
  O  O8  1  0.34598175  0.67315427  0.90296724  1
  O  O9  1  0.01815654  0.90558362  0.16526158  1
  O  O10  1  0.18834972  0.15083696  0.38199163  1
  O  O11  1  0.36666090  0.62447041  0.60669289  1
  O  O12  1  0.11513796  0.65194110  0.05347747  1
  O  O13  1  0.17381897  0.17744243  0.09410875  1
  O  O14  1  0.53551521  0.41836116  0.83215358  1
  O  O15  1  0.34598118  0.82684472  0.40296716  1
  O  O16  1  0.46448450  0.91836207  0.66784698  1
  O  O17  1  0.65401885  0.32684506  0.09703361  1
  O  O18  1  0.36666179  0.87552981  0.10669318  1
  O  O19  1  0.53551464  0.08163850  0.33215349  1
  O  O20  1  0.82618107  0.67744209  0.40589093  1
  O  O21  1  0.46448538  0.58163816  0.16784727  1
  O  O22  1  0.82618164  0.82255814  0.90589101  1
  O  O23  1  0.88486264  0.34805947  0.94652338  1
  O  O24  1  0.63333825  0.37552891  0.39330650  1
  O  O25  1  0.81165088  0.84916237  0.61800814  1
  O  O26  1  0.98184406  0.09441571  0.83473818  1
  O  O27  1  0.63333882  0.12447075  0.89330658  1
  P  P28  1  0.66930128  0.29969752  0.94330290  1
  P  P29  1  0.33069786  0.70030305  0.05669649  1
  P  P30  1  0.66930217  0.20030338  0.44330319  1
  P  P31  1  0.93457346  0.73854240  0.56070521  1
  P  P32  1  0.06542626  0.23854273  0.93929425  1
  P  P33  1  0.06542569  0.26145693  0.43929417  1
  P  P34  1  0.33069843  0.79969718  0.55669766  1
  P  P35  1  0.93457435  0.76145659  0.06070551  1
  Co  Co36  1  0.72665075  0.50482679  0.25145062  1
  Co  Co37  1  0.72665132  0.99517343  0.75145070  1
  Co  Co38  1  0.27334928  0.00482713  0.24855015  1
  Co  Co39  1  0.27334839  0.49517253  0.74854986  1
