# generated using pymatgen
data_Al2CuO4
_symmetry_space_group_name_H-M   'P 1'
_cell_length_a   5.74962469
_cell_length_b   5.75071987
_cell_length_c   23.07172219
_cell_angle_alpha   60.09865730
_cell_angle_beta   60.50178391
_cell_angle_gamma   59.99370257
_symmetry_Int_Tables_number   1
_chemical_formula_structural   Al2CuO4
_chemical_formula_sum   'Al16 Cu8 O32'
_cell_volume   541.81501645
_cell_formula_units_Z   8
loop_
 _symmetry_equiv_pos_site_id
 _symmetry_equiv_pos_as_xyz
  1  'x, y, z'
loop_
 _atom_site_type_symbol
 _atom_site_label
 _atom_site_symmetry_multiplicity
 _atom_site_fract_x
 _atom_site_fract_y
 _atom_site_fract_z
 _atom_site_occupancy
  Al  Al0  1  0.00395338  0.49640001  0.12581165  1
  Al  Al1  1  0.49649041  0.00397711  0.12581013  1
  Al  Al2  1  0.49649041  0.49629196  0.12581013  1
  Al  Al3  1  0.00032285  0.49897070  0.37543394  1
  Al  Al4  1  0.50045926  0.99819508  0.37560083  1
  Al  Al5  1  0.13240773  0.12309959  0.53034827  1
  Al  Al6  1  0.50045926  0.49894233  0.37560083  1
  Al  Al7  1  0.50673739  0.50180593  0.49741269  1
  Al  Al8  1  0.49807385  0.99788741  0.62487410  1
  Al  Al9  1  0.88058657  0.87903538  0.21533567  1
  Al  Al10  1  0.49807385  0.50454234  0.62487410  1
  Al  Al11  1  0.00091434  0.49869748  0.87542268  1
  Al  Al12  1  0.49794334  0.00318571  0.87509016  1
  Al  Al13  1  0.49554395  0.50159956  0.75031423  1
  Al  Al14  1  0.49794334  0.49851031  0.87509016  1
  Al  Al15  1  0.87582845  0.87488565  0.96860006  1
  Cu  Cu16  1  0.12412527  0.12612330  0.03090703  1
  Cu  Cu17  1  0.49596470  0.49721895  0.00239935  1
  Cu  Cu18  1  0.11978804  0.12142823  0.28433887  1
  Cu  Cu19  1  0.49480139  0.49467014  0.25396458  1
  Cu  Cu20  1  0.99249882  0.50498364  0.62438348  1
  Cu  Cu21  1  0.12779828  0.12993021  0.77808532  1
  Cu  Cu22  1  0.87876415  0.87474258  0.46793767  1
  Cu  Cu23  1  0.86855537  0.87245512  0.72163360  1
  O  O24  1  0.25190383  0.25399502  0.07084159  1
  O  O25  1  0.26269743  0.26045364  0.17909882  1
  O  O26  1  0.25190383  0.71073477  0.07084159  1
  O  O27  1  0.70967411  0.25295162  0.07110566  1
  O  O28  1  0.27075614  0.75307652  0.18077270  1
  O  O29  1  0.25076261  0.25106817  0.32322012  1
  O  O30  1  0.75421870  0.26993419  0.18091386  1
  O  O31  1  0.25392002  0.25285150  0.43509424  1
  O  O32  1  0.74162937  0.74276157  0.06821187  1
  O  O33  1  0.25076261  0.70528876  0.32322012  1
  O  O34  1  0.75421870  0.75219166  0.18091386  1
  O  O35  1  0.70506178  0.24982787  0.32382062  1
  O  O36  1  0.30364397  0.73564224  0.43126789  1
  O  O37  1  0.28510929  0.24784202  0.55788411  1
  O  O38  1  0.73922516  0.30039981  0.43180161  1
  O  O39  1  0.75029546  0.74973409  0.31255909  1
  O  O40  1  0.28301000  0.26597418  0.67126041  1
  O  O41  1  0.28510929  0.73551224  0.55788411  1
  O  O42  1  0.73922516  0.73316858  0.43180161  1
  O  O43  1  0.74024331  0.25681645  0.56153095  1
  O  O44  1  0.26132187  0.26713133  0.81601448  1
  O  O45  1  0.28799660  0.74049618  0.68275276  1
  O  O46  1  0.71668988  0.28707190  0.68674677  1
  O  O47  1  0.26518696  0.26397383  0.92671634  1
  O  O48  1  0.72421992  0.74431361  0.57178822  1
  O  O49  1  0.26132187  0.70748889  0.81601448  1
  O  O50  1  0.71668988  0.74925115  0.68674677  1
  O  O51  1  0.70498345  0.26568988  0.81590920  1
  O  O52  1  0.26078248  0.75392647  0.93284115  1
  O  O53  1  0.75392600  0.26088336  0.93300538  1
  O  O54  1  0.72505992  0.72880064  0.82933470  1
  O  O55  1  0.75392600  0.75316915  0.93300538  1
