# generated using pymatgen
data_Li2V(PO4)2
_symmetry_space_group_name_H-M   'P 1'
_cell_length_a   8.05082867
_cell_length_b   5.34440971
_cell_length_c   6.40175653
_cell_angle_alpha   90.00000000
_cell_angle_beta   91.78765672
_cell_angle_gamma   90.00000000
_symmetry_Int_Tables_number   1
_chemical_formula_structural   Li2V(PO4)2
_chemical_formula_sum   'Li4 V2 P4 O16'
_cell_volume   275.31385106
_cell_formula_units_Z   2
loop_
 _symmetry_equiv_pos_site_id
 _symmetry_equiv_pos_as_xyz
  1  'x, y, z'
loop_
 _atom_site_type_symbol
 _atom_site_label
 _atom_site_symmetry_multiplicity
 _atom_site_fract_x
 _atom_site_fract_y
 _atom_site_fract_z
 _atom_site_occupancy
  Li  Li0  1  0.92775017  0.25000000  0.71759874  1
  Li  Li1  1  0.75248608  0.75000000  0.49407861  1
  Li  Li2  1  0.25337955  0.25000000  0.49171337  1
  Li  Li3  1  0.42744466  0.75000000  0.71953849  1
  V  V4  1  0.75565711  0.75000000  0.00979656  1
  V  V5  1  0.25564190  0.25000000  0.00957377  1
  P  P6  1  0.90188004  0.25000000  0.23138029  1
  P  P7  1  0.59510858  0.25000000  0.76566866  1
  P  P8  1  0.40186692  0.75000000  0.23251015  1
  P  P9  1  0.09508277  0.75000000  0.76658110  1
  O  O10  1  0.78647687  0.48758600  0.21596254  1
  O  O11  1  0.28660991  0.98785873  0.21640225  1
  O  O12  1  0.99081956  0.75000000  0.57043633  1
  O  O13  1  0.51407164  0.75000000  0.03550909  1
  O  O14  1  0.49129969  0.25000000  0.56932268  1
  O  O15  1  0.48580963  0.25000000  0.96356894  1
  O  O16  1  0.01386096  0.25000000  0.03425720  1
  O  O17  1  0.98615650  0.75000000  0.96468480  1
  O  O18  1  0.71531397  0.48472693  0.78153641  1
  O  O19  1  0.71531397  0.01527307  0.78153641  1
  O  O20  1  0.21541846  0.51542722  0.78188668  1
  O  O21  1  0.78647687  0.01241400  0.21596254  1
  O  O22  1  0.50066312  0.75000000  0.43555036  1
  O  O23  1  0.00129770  0.25000000  0.43424313  1
  O  O24  1  0.28660991  0.51214127  0.21640225  1
  O  O25  1  0.21541846  0.98457278  0.78188668  1
