# generated using pymatgen
data_NaH6BrO5
_symmetry_space_group_name_H-M   'P 1'
_cell_length_a   5.52612442
_cell_length_b   6.48748755
_cell_length_c   9.08716110
_cell_angle_alpha   72.63398977
_cell_angle_beta   87.84369409
_cell_angle_gamma   70.59214924
_symmetry_Int_Tables_number   1
_chemical_formula_structural   NaH6BrO5
_chemical_formula_sum   'Na2 H12 Br2 O10'
_cell_volume   292.57646654
_cell_formula_units_Z   2
loop_
 _symmetry_equiv_pos_site_id
 _symmetry_equiv_pos_as_xyz
  1  'x, y, z'
loop_
 _atom_site_type_symbol
 _atom_site_label
 _atom_site_symmetry_multiplicity
 _atom_site_fract_x
 _atom_site_fract_y
 _atom_site_fract_z
 _atom_site_occupancy
  Br  Br0  1  0.10280304  0.17277903  0.12739177  1
  Br  Br1  1  0.89719696  0.82722097  0.87260823  1
  Na  Na2  1  0.27071149  0.45215300  0.40096248  1
  Na  Na3  1  0.72928851  0.54784700  0.59903752  1
  O  O4  1  0.15785506  0.17595433  0.31465017  1
  O  O5  1  0.84214494  0.82404567  0.68534983  1
  O  O6  1  0.78676816  0.16737038  0.11675601  1
  O  O7  1  0.21323184  0.83262962  0.88324399  1
  O  O8  1  0.49162376  0.57915803  0.17017204  1
  O  O9  1  0.50837624  0.42084197  0.82982796  1
  O  O10  1  0.71050211  0.25228276  0.49012916  1
  O  O11  1  0.28949789  0.74771724  0.50987084  1
  O  O12  1  0.17616828  0.28305202  0.67789137  1
  O  O13  1  0.82383172  0.71694798  0.32210863  1
  H  H14  1  0.38500911  0.67572642  0.07302100  1
  H  H15  1  0.61499089  0.32427358  0.92697900  1
  H  H16  1  0.59281065  0.43155767  0.15131858  1
  H  H17  1  0.40718935  0.56844233  0.84868142  1
  H  H18  1  0.74551206  0.09550895  0.56551394  1
  H  H19  1  0.25448794  0.90449105  0.43448606  1
  H  H20  1  0.85042168  0.23136914  0.41968120  1
  H  H21  1  0.14957832  0.76863086  0.58031880  1
  H  H22  1  0.29398183  0.32218155  0.73580985  1
  H  H23  1  0.70601817  0.67781845  0.26419015  1
  H  H24  1  0.19460504  0.12254733  0.73573278  1
  H  H25  1  0.80539496  0.87745267  0.26426722  1
