# generated using pymatgen
data_Sr3La21Zn2(Cu5O24)2
_symmetry_space_group_name_H-M   'P 1'
_cell_length_a   5.36805006
_cell_length_b   5.53392486
_cell_length_c   42.40480288
_cell_angle_alpha   89.81713159
_cell_angle_beta   112.25359505
_cell_angle_gamma   89.99757292
_symmetry_Int_Tables_number   1
_chemical_formula_structural   Sr3La21Zn2(Cu5O24)2
_chemical_formula_sum   'Sr3 La21 Zn2 Cu10 O48'
_cell_volume   1165.86035733
_cell_formula_units_Z   1
loop_
 _symmetry_equiv_pos_site_id
 _symmetry_equiv_pos_as_xyz
  1  'x, y, z'
loop_
 _atom_site_type_symbol
 _atom_site_label
 _atom_site_symmetry_multiplicity
 _atom_site_fract_x
 _atom_site_fract_y
 _atom_site_fract_z
 _atom_site_occupancy
  Cu  Cu0  1  0.50129792  0.50069219  0.83384102  1
  Cu  Cu1  1  -0.00021728  0.99592788  0.50004071  1
  Cu  Cu2  1  0.49722844  0.49776218  0.66576051  1
  Cu  Cu3  1  0.49733534  0.49710471  0.49913456  1
  Cu  Cu4  1  0.49601069  0.49885675  0.33202451  1
  Cu  Cu5  1  0.00633833  0.99627777  0.00213923  1
  Cu  Cu6  1  0.49783384  0.49802165  0.16601078  1
  Cu  Cu7  1  0.00036237  0.99982171  0.33346888  1
  Cu  Cu8  1  0.50460909  0.49952352  0.00153798  1
  Cu  Cu9  1  0.00346033  0.99710443  0.16792162  1
  La  La10  1  0.14119320  0.51134942  0.88103034  1
  La  La11  1  0.36541438  0.01518688  0.95490405  1
  La  La12  1  0.13762174  0.51356999  0.71275818  1
  La  La13  1  0.35944143  0.01533453  0.78632217  1
  La  La14  1  0.64337583  0.98436756  0.88132815  1
  La  La15  1  0.86767729  0.48611682  0.95584401  1
  La  La16  1  0.35314790  0.01864854  0.61761559  1
  La  La17  1  0.63916170  0.98323699  0.71325610  1
  La  La18  1  0.86209752  0.48658781  0.78713322  1
  La  La19  1  0.13705222  0.51297451  0.37920052  1
  La  La20  1  0.35927257  0.01260121  0.45289284  1
  La  La21  1  0.63192505  0.97973669  0.54491485  1
  La  La22  1  0.85678230  0.49186988  0.61858359  1
  La  La23  1  0.35700240  0.01477058  0.28561735  1
  La  La24  1  0.63715067  0.98518991  0.37917480  1
  La  La25  1  0.86133030  0.48373894  0.45363983  1
  La  La26  1  0.36003397  0.01360803  0.11999644  1
  La  La27  1  0.63602340  0.98288641  0.21248241  1
  La  La28  1  0.85734930  0.48675097  0.28568423  1
  La  La29  1  0.64108993  0.98102552  0.04751118  1
  La  La30  1  0.86351751  0.48755107  0.12121268  1
  O  O31  1  0.23968434  0.75063194  0.99542926  1
  O  O32  1  0.17749864  0.94913072  0.89238538  1
  O  O33  1  0.31356383  0.44267525  0.93766792  1
  O  O34  1  0.24119436  0.74427412  0.82879530  1
  O  O35  1  0.26682911  0.25692678  0.83759392  1
  O  O36  1  0.73318881  0.75066621  0.99552532  1
  O  O37  1  0.18366132  0.94455525  0.72766414  1
  O  O38  1  0.31025440  0.43245771  0.77062704  1
  O  O39  1  0.69269658  0.56577678  0.89642461  1
  O  O40  1  0.81293363  0.05612910  0.93816700  1
  O  O41  1  0.24417137  0.74346596  0.66348265  1
  O  O42  1  0.27123734  0.25482367  0.67235720  1
  O  O43  1  0.73144482  0.74393837  0.82875429  1
  O  O44  1  0.75771259  0.25650637  0.83755431  1
  O  O45  1  0.18777748  0.96542419  0.56065820  1
  O  O46  1  0.31994275  0.43320213  0.60718513  1
  O  O47  1  0.69092309  0.56688314  0.73012402  1
  O  O48  1  0.81915418  0.05381394  0.77342517  1
  O  O49  1  0.23896471  0.75032001  0.49505542  1
  O  O50  1  0.25873760  0.24304714  0.50130211  1
  O  O51  1  0.73649154  0.74365159  0.66345615  1
  O  O52  1  0.76244408  0.25475740  0.67227420  1
  O  O53  1  0.18286791  0.94347531  0.39417124  1
  O  O54  1  0.31197562  0.44531207  0.43753534  1
  O  O55  1  0.68694074  0.56606465  0.56223223  1
  O  O56  1  0.82306641  0.05083413  0.60739585  1
  O  O57  1  0.23704284  0.75101388  0.32968896  1
  O  O58  1  0.26085305  0.24819177  0.33758321  1
  O  O59  1  0.73163213  0.75018415  0.49516034  1
  O  O60  1  0.74888920  0.24255791  0.50150437  1
  O  O61  1  0.18701362  0.96877034  0.22816059  1
  O  O62  1  0.32829700  0.44790855  0.27630881  1
  O  O63  1  0.68373055  0.55424873  0.39427613  1
  O  O64  1  0.81132154  0.05556325  0.43753217  1
  O  O65  1  0.23896748  0.75343964  0.16288028  1
  O  O66  1  0.25878533  0.24160274  0.16898037  1
  O  O67  1  0.74068477  0.75122747  0.32964548  1
  O  O68  1  0.76442746  0.24834926  0.33752059  1
  O  O69  1  0.18541107  0.97466527  0.06082047  1
  O  O70  1  0.33247045  0.45680877  0.11070257  1
  O  O71  1  0.68278218  0.55377266  0.22764570  1
  O  O72  1  0.81572614  0.05611134  0.27178996  1
  O  O73  1  0.25927599  0.24514813  0.00146680  1
  O  O74  1  0.73787174  0.75370283  0.16294597  1
  O  O75  1  0.75473706  0.24141720  0.16906531  1
  O  O76  1  0.68782786  0.56027431  0.06252552  1
  O  O77  1  0.81637190  0.05356903  0.10526518  1
  O  O78  1  0.74966442  0.24485315  0.00163570  1
  Sr  Sr79  1  0.13697616  0.50307705  0.54577734  1
  Sr  Sr80  1  0.14039503  0.50291957  0.21357099  1
  Sr  Sr81  1  0.14481448  0.50198221  0.04835559  1
  Zn  Zn82  1  0.00514314  0.99855608  0.83510715  1
  Zn  Zn83  1  0.99161046  0.00314578  0.66385872  1
