# generated using pymatgen
data_Rb2ScAuF6
_symmetry_space_group_name_H-M   'P 1'
_cell_length_a   6.41268272
_cell_length_b   6.41268280
_cell_length_c   6.41268280
_cell_angle_alpha   59.99999969
_cell_angle_beta   59.99999957
_cell_angle_gamma   59.99999955
_symmetry_Int_Tables_number   1
_chemical_formula_structural   Rb2ScAuF6
_chemical_formula_sum   'Rb2 Sc1 Au1 F6'
_cell_volume   186.46798074
_cell_formula_units_Z   1
loop_
 _symmetry_equiv_pos_site_id
 _symmetry_equiv_pos_as_xyz
  1  'x, y, z'
loop_
 _atom_site_type_symbol
 _atom_site_label
 _atom_site_symmetry_multiplicity
 _atom_site_fract_x
 _atom_site_fract_y
 _atom_site_fract_z
 _atom_site_occupancy
  Rb  Rb0  1  0.25000000  0.25000000  0.25000000  1
  Rb  Rb1  1  0.75000000  0.75000000  0.75000000  1
  Sc  Sc2  1  -0.00000000  -0.00000000  -0.00000000  1
  Au  Au3  1  0.50000000  0.50000000  0.50000000  1
  F  F4  1  0.22415737  0.77584263  0.22415737  1
  F  F5  1  0.77584263  0.77584263  0.22415737  1
  F  F6  1  0.77584263  0.22415737  0.77584263  1
  F  F7  1  0.77584263  0.22415737  0.22415737  1
  F  F8  1  0.22415737  0.77584263  0.77584263  1
  F  F9  1  0.22415737  0.22415737  0.77584263  1
