# generated using pymatgen
data_Fe(PO3)4
_symmetry_space_group_name_H-M   'P 1'
_cell_length_a   7.47505360
_cell_length_b   7.47502719
_cell_length_c   9.95930040
_cell_angle_alpha   84.95965194
_cell_angle_beta   66.42000185
_cell_angle_gamma   110.48015654
_symmetry_Int_Tables_number   1
_chemical_formula_structural   Fe(PO3)4
_chemical_formula_sum   'Fe2 P8 O24'
_cell_volume   460.65863712
_cell_formula_units_Z   2
loop_
 _symmetry_equiv_pos_site_id
 _symmetry_equiv_pos_as_xyz
  1  'x, y, z'
loop_
 _atom_site_type_symbol
 _atom_site_label
 _atom_site_symmetry_multiplicity
 _atom_site_fract_x
 _atom_site_fract_y
 _atom_site_fract_z
 _atom_site_occupancy
  O  O0  1  0.49945902  0.14039213  0.62439965  1
  O  O1  1  0.96309490  0.35691484  0.84442235  1
  O  O2  1  0.03686913  0.64299110  0.15560944  1
  O  O3  1  0.12227430  0.31881476  0.05908340  1
  O  O4  1  0.12221671  0.81878114  0.55900385  1
  O  O5  1  0.17511815  0.64128139  0.34681907  1
  O  O6  1  0.03298845  0.15148221  0.65290797  1
  O  O7  1  0.22608923  0.52725999  0.56588118  1
  O  O8  1  0.40693074  0.20803399  0.06585592  1
  O  O9  1  0.48813439  0.52198794  0.15315290  1
  O  O10  1  0.50046221  0.85959499  0.37563349  1
  O  O11  1  0.29864382  0.19261273  0.34439476  1
  O  O12  1  0.30440706  0.68590714  0.84708742  1
  O  O13  1  0.73537397  0.87611664  0.12433602  1
  O  O14  1  0.26469691  0.12390220  0.87564982  1
  O  O15  1  0.87772429  0.18125628  0.44099062  1
  O  O16  1  0.70133778  0.80741953  0.65556376  1
  O  O17  1  0.87778666  0.68116852  0.94091643  1
  O  O18  1  0.51190697  0.47803037  0.84681577  1
  O  O19  1  0.59317145  0.79198592  0.93409609  1
  O  O20  1  0.77384375  0.47277169  0.43418621  1
  O  O21  1  0.96701949  0.84852950  0.34704986  1
  O  O22  1  0.82482035  0.35868172  0.65323202  1
  O  O23  1  0.69561327  0.31409308  0.15294339  1
  P  P24  1  0.30947722  0.27459028  0.96298079  1
  P  P25  1  0.73750155  0.27243658  0.53708291  1
  P  P26  1  0.98912944  0.66370217  0.31239779  1
  P  P27  1  0.26245365  0.72758409  0.46294617  1
  P  P28  1  0.69059007  0.72539541  0.03698546  1
  P  P29  1  0.47611024  0.30158926  0.18762863  1
  P  P30  1  0.52392356  0.69842237  0.81236109  1
  P  P31  1  0.01083822  0.33627092  0.68760960  1
  Fe  Fe32  1  0.99998238  0.00002348  0.49996321  1
  Fe  Fe33  1  0.00001469  0.49997465  1.00000995  1
