# generated using pymatgen
data_CaCr2Cu3(SbO6)2
_symmetry_space_group_name_H-M   'P 1'
_cell_length_a   7.56404164
_cell_length_b   7.56404164
_cell_length_c   7.56404164
_cell_angle_alpha   90.00000000
_cell_angle_beta   90.00000000
_cell_angle_gamma   90.00000000
_symmetry_Int_Tables_number   1
_chemical_formula_structural   CaCr2Cu3(SbO6)2
_chemical_formula_sum   'Ca2 Cr4 Cu6 Sb4 O24'
_cell_volume   432.77456937
_cell_formula_units_Z   2
loop_
 _symmetry_equiv_pos_site_id
 _symmetry_equiv_pos_as_xyz
  1  'x, y, z'
loop_
 _atom_site_type_symbol
 _atom_site_label
 _atom_site_symmetry_multiplicity
 _atom_site_fract_x
 _atom_site_fract_y
 _atom_site_fract_z
 _atom_site_occupancy
  O  O0  1  0.74924330  0.92490231  0.44607939  1
  O  O1  1  0.74924330  0.57509769  0.05392061  1
  O  O2  1  0.75075670  0.92490231  0.05392061  1
  O  O3  1  0.57509769  0.05392061  0.74924330  1
  O  O4  1  0.05392061  0.75075670  0.92490231  1
  O  O5  1  0.05392061  0.74924330  0.57509769  1
  O  O6  1  0.92490231  0.44607939  0.74924330  1
  O  O7  1  0.44607939  0.74924330  0.92490231  1
  O  O8  1  0.92490231  0.05392061  0.75075670  1
  O  O9  1  0.57509769  0.44607939  0.75075670  1
  O  O10  1  0.44607939  0.75075670  0.57509769  1
  O  O11  1  0.75075670  0.57509769  0.44607939  1
  O  O12  1  0.25075670  0.07509769  0.55392061  1
  O  O13  1  0.25075670  0.42490231  0.94607939  1
  O  O14  1  0.24924330  0.07509769  0.94607939  1
  O  O15  1  0.42490231  0.94607939  0.25075670  1
  O  O16  1  0.24924330  0.42490231  0.55392061  1
  O  O17  1  0.55392061  0.24924330  0.42490231  1
  O  O18  1  0.42490231  0.55392061  0.24924330  1
  O  O19  1  0.07509769  0.94607939  0.24924330  1
  O  O20  1  0.55392061  0.25075670  0.07509769  1
  O  O21  1  0.07509769  0.55392061  0.25075670  1
  O  O22  1  0.94607939  0.25075670  0.42490231  1
  O  O23  1  0.94607939  0.24924330  0.07509769  1
  Ca  Ca24  1  0.25000000  0.25000000  0.25000000  1
  Ca  Ca25  1  0.75000000  0.75000000  0.75000000  1
  Cr  Cr26  1  0.50000000  0.00000000  0.00000000  1
  Cr  Cr27  1  0.50000000  0.50000000  0.50000000  1
  Cr  Cr28  1  0.00000000  0.00000000  0.50000000  1
  Cr  Cr29  1  0.00000000  0.50000000  0.00000000  1
  Cu  Cu30  1  0.25000000  0.25000000  0.75000000  1
  Cu  Cu31  1  0.25000000  0.75000000  0.75000000  1
  Cu  Cu32  1  0.75000000  0.75000000  0.25000000  1
  Cu  Cu33  1  0.25000000  0.75000000  0.25000000  1
  Cu  Cu34  1  0.75000000  0.25000000  0.25000000  1
  Cu  Cu35  1  0.75000000  0.25000000  0.75000000  1
  Sb  Sb36  1  0.00000000  0.50000000  0.50000000  1
  Sb  Sb37  1  0.00000000  0.00000000  0.00000000  1
  Sb  Sb38  1  0.50000000  0.00000000  0.50000000  1
  Sb  Sb39  1  0.50000000  0.50000000  0.00000000  1
