# generated using pymatgen
data_TlNO2
_symmetry_space_group_name_H-M   'P 1'
_cell_length_a   5.70338461
_cell_length_b   5.70338461
_cell_length_c   7.57327373
_cell_angle_alpha   90.00000000
_cell_angle_beta   90.00000000
_cell_angle_gamma   119.99999996
_symmetry_Int_Tables_number   1
_chemical_formula_structural   TlNO2
_chemical_formula_sum   'Tl3 N3 O6'
_cell_volume   213.34359295
_cell_formula_units_Z   3
loop_
 _symmetry_equiv_pos_site_id
 _symmetry_equiv_pos_as_xyz
  1  'x, y, z'
loop_
 _atom_site_type_symbol
 _atom_site_label
 _atom_site_symmetry_multiplicity
 _atom_site_fract_x
 _atom_site_fract_y
 _atom_site_fract_z
 _atom_site_occupancy
  N  N0  1  0.69450848  0.00000000  0.83333333  1
  N  N1  1  0.00000000  0.69450848  0.16666667  1
  N  N2  1  0.30549152  0.30549152  0.50000000  1
  O  O3  1  0.88211157  0.51585099  0.04795941  1
  O  O4  1  0.48414901  0.36626058  0.38129274  1
  O  O5  1  0.63373942  0.11788843  0.71462608  1
  O  O6  1  0.36626058  0.48414901  0.61870726  1
  O  O7  1  0.51585099  0.88211157  0.95204059  1
  O  O8  1  0.11788843  0.63373942  0.28537392  1
  Tl  Tl9  1  0.00000000  0.70192145  0.66666667  1
  Tl  Tl10  1  0.70192145  0.00000000  0.33333333  1
  Tl  Tl11  1  0.29807855  0.29807855  0.00000000  1
