# generated using pymatgen
data_Ho2CdSe4
_symmetry_space_group_name_H-M   'P 1'
_cell_length_a   8.35748845
_cell_length_b   8.35748850
_cell_length_c   41.62866758
_cell_angle_alpha   59.87374966
_cell_angle_beta   59.87374944
_cell_angle_gamma   59.99999838
_symmetry_Int_Tables_number   1
_chemical_formula_structural   Ho2CdSe4
_chemical_formula_sum   'Ho20 Cd10 Se40'
_cell_volume   2052.09605555
_cell_formula_units_Z   10
loop_
 _symmetry_equiv_pos_site_id
 _symmetry_equiv_pos_as_xyz
  1  'x, y, z'
loop_
 _atom_site_type_symbol
 _atom_site_label
 _atom_site_symmetry_multiplicity
 _atom_site_fract_x
 _atom_site_fract_y
 _atom_site_fract_z
 _atom_site_occupancy
  Cd  Cd0  1  0.24771874  0.24771874  0.05136876  1
  Cd  Cd1  1  0.24723800  0.24723800  0.25165720  1
  Cd  Cd2  1  0.62097838  0.62097838  0.02741297  1
  Cd  Cd3  1  0.24671714  0.24671714  0.45196972  1
  Cd  Cd4  1  0.62185247  0.62185247  0.22688852  1
  Cd  Cd5  1  0.24907850  0.24907850  0.65055290  1
  Cd  Cd6  1  0.62156952  0.62156952  0.42705829  1
  Cd  Cd7  1  0.00079716  0.00079716  0.59952170  1
  Cd  Cd8  1  0.00029811  0.00029811  0.79982113  1
  Cd  Cd9  1  0.25062642  0.25062642  0.84962415  1
  Ho  Ho10  1  0.00181601  0.00181601  0.99891039  1
  Ho  Ho11  1  0.13137516  0.62290738  0.12456202  1
  Ho  Ho12  1  0.00273240  0.00273240  0.19836056  1
  Ho  Ho13  1  0.62290738  0.13137516  0.12456202  1
  Ho  Ho14  1  0.62290738  0.62290738  0.12456202  1
  Ho  Ho15  1  0.13123875  0.62304782  0.32453312  1
  Ho  Ho16  1  0.00278223  0.00278223  0.39833066  1
  Ho  Ho17  1  0.62304782  0.13123875  0.32453312  1
  Ho  Ho18  1  0.62304782  0.62304782  0.32453312  1
  Ho  Ho19  1  0.12919673  0.62309279  0.52492354  1
  Ho  Ho20  1  0.62309279  0.12919673  0.52492354  1
  Ho  Ho21  1  0.62309279  0.62309279  0.52492354  1
  Ho  Ho22  1  0.12507416  0.62527158  0.72487654  1
  Ho  Ho23  1  0.62527158  0.12507416  0.72487654  1
  Ho  Ho24  1  0.62560811  0.62560811  0.62463513  1
  Ho  Ho25  1  0.12693940  0.62492572  0.92464183  1
  Ho  Ho26  1  0.62527158  0.62527158  0.72487654  1
  Ho  Ho27  1  0.62492572  0.12693940  0.92464183  1
  Ho  Ho28  1  0.62564163  0.62564163  0.82461502  1
  Ho  Ho29  1  0.62492572  0.62492572  0.92464183  1
  Se  Se30  1  0.38141051  0.38141051  0.07662139  1
  Se  Se31  1  0.38141051  0.85407201  0.07662139  1
  Se  Se32  1  0.38148345  0.38148345  0.17110993  1
  Se  Se33  1  0.85407201  0.38141051  0.07662139  1
  Se  Se34  1  0.40096100  0.86695963  0.17302395  1
  Se  Se35  1  0.38147884  0.38147884  0.27665905  1
  Se  Se36  1  0.86777137  0.86777137  0.07933718  1
  Se  Se37  1  0.38147884  0.85374706  0.27665905  1
  Se  Se38  1  0.86695963  0.40096100  0.17302395  1
  Se  Se39  1  0.38130676  0.38130676  0.37121595  1
  Se  Se40  1  0.86695963  0.86695963  0.17302395  1
  Se  Se41  1  0.85374706  0.38147884  0.27665905  1
  Se  Se42  1  0.38131574  0.38131574  0.47690879  1
  Se  Se43  1  0.40095000  0.86688294  0.37305682  1
  Se  Se44  1  0.86809112  0.86809112  0.27914533  1
  Se  Se45  1  0.86688294  0.40095000  0.37305682  1
  Se  Se46  1  0.38142995  0.38142995  0.57114203  1
  Se  Se47  1  0.38131574  0.85282457  0.47690879  1
  Se  Se48  1  0.85282457  0.38131574  0.47690879  1
  Se  Se49  1  0.86688294  0.86688294  0.37305682  1
  Se  Se50  1  0.39787635  0.86747584  0.57343439  1
  Se  Se51  1  0.38236423  0.38236423  0.67659463  1
  Se  Se52  1  0.86794296  0.86794296  0.47923422  1
  Se  Se53  1  0.38236423  0.85229840  0.67659463  1
  Se  Se54  1  0.86747584  0.39787635  0.57343439  1
  Se  Se55  1  0.38250679  0.38250679  0.77049593  1
  Se  Se56  1  0.85229840  0.38236423  0.67659463  1
  Se  Se57  1  0.86747584  0.86747584  0.57343439  1
  Se  Se58  1  0.39705285  0.86752357  0.77358000  1
  Se  Se59  1  0.38260690  0.38260690  0.87625874  1
  Se  Se60  1  0.86777968  0.86777968  0.67933219  1
  Se  Se61  1  0.38260690  0.85349248  0.87625874  1
  Se  Se62  1  0.86752357  0.39705285  0.77358000  1
  Se  Se63  1  0.38222644  0.38222644  0.97066414  1
  Se  Se64  1  0.85349248  0.38260690  0.87625874  1
  Se  Se65  1  0.86752357  0.86752357  0.77358000  1
  Se  Se66  1  0.39975625  0.86745370  0.97306727  1
  Se  Se67  1  0.86771715  0.86771715  0.87936971  1
  Se  Se68  1  0.86745370  0.39975625  0.97306727  1
  Se  Se69  1  0.86745370  0.86745370  0.97306727  1
