# generated using pymatgen
data_Cr2(PO4)3
_symmetry_space_group_name_H-M   'P 1'
_cell_length_a   8.43345692
_cell_length_b   8.57279858
_cell_length_c   11.86597236
_cell_angle_alpha   90.00000000
_cell_angle_beta   89.11378643
_cell_angle_gamma   90.00000000
_symmetry_Int_Tables_number   1
_chemical_formula_structural   Cr2(PO4)3
_chemical_formula_sum   'Cr8 P12 O48'
_cell_volume   857.78733768
_cell_formula_units_Z   4
loop_
 _symmetry_equiv_pos_site_id
 _symmetry_equiv_pos_as_xyz
  1  'x, y, z'
loop_
 _atom_site_type_symbol
 _atom_site_label
 _atom_site_symmetry_multiplicity
 _atom_site_fract_x
 _atom_site_fract_y
 _atom_site_fract_z
 _atom_site_occupancy
  Cr  Cr0  1  0.25335324  0.03333696  0.88077120  1
  Cr  Cr1  1  0.24634269  0.96955134  0.38124231  1
  Cr  Cr2  1  0.74664676  0.96666304  0.11922880  1
  Cr  Cr3  1  0.75365731  0.03044866  0.61875769  1
  Cr  Cr4  1  0.74634269  0.53044866  0.88124231  1
  Cr  Cr5  1  0.25365731  0.46955134  0.11875769  1
  Cr  Cr6  1  0.24664676  0.53333696  0.61922880  1
  Cr  Cr7  1  0.75335324  0.46666304  0.38077120  1
  P  P8  1  0.38999304  0.88768588  0.64373619  1
  P  P9  1  0.11000696  0.38768588  0.85626381  1
  P  P10  1  0.03297848  0.25206448  0.50802249  1
  P  P11  1  0.46702152  0.75206448  0.99197751  1
  P  P12  1  0.89624380  0.88229951  0.85425618  1
  P  P13  1  0.53297848  0.24793552  0.00802249  1
  P  P14  1  0.88999304  0.61231412  0.14373619  1
  P  P15  1  0.61000696  0.11231412  0.35626381  1
  P  P16  1  0.10375620  0.11770049  0.14574382  1
  P  P17  1  0.60375620  0.38229951  0.64574382  1
  P  P18  1  0.96702152  0.74793552  0.49197751  1
  P  P19  1  0.39624380  0.61770049  0.35425618  1
  O  O20  1  0.07129109  0.92354052  0.82884413  1
  O  O21  1  0.59323166  0.37410870  0.92678087  1
  O  O22  1  0.42089111  0.31464290  0.10089687  1
  O  O23  1  0.35379726  0.00860695  0.73735663  1
  O  O24  1  0.67222710  0.16762241  0.06589808  1
  O  O25  1  0.14620274  0.50860695  0.76264337  1
  O  O26  1  0.37843520  0.79360060  0.33100157  1
  O  O27  1  0.79310105  0.98006729  0.77317710  1
  O  O28  1  0.35094880  0.57562552  0.47551230  1
  O  O29  1  0.64905120  0.42437448  0.52448770  1
  O  O30  1  0.85094880  0.92437448  0.97551230  1
  O  O31  1  0.83202848  0.77441738  0.17943088  1
  O  O32  1  0.90676834  0.87410870  0.57321913  1
  O  O33  1  0.09323166  0.12589130  0.42678087  1
  O  O34  1  0.85379726  0.49139305  0.23735663  1
  O  O35  1  0.14905120  0.07562552  0.02448770  1
  O  O36  1  0.07163370  0.61450347  0.12256437  1
  O  O37  1  0.32777290  0.83237759  0.93410192  1
  O  O38  1  0.87843520  0.70639940  0.83100157  1
  O  O39  1  0.82777290  0.66762241  0.43410192  1
  O  O40  1  0.92089111  0.18535710  0.60089687  1
  O  O41  1  0.16797152  0.22558262  0.82056912  1
  O  O42  1  0.70689895  0.48006729  0.72682290  1
  O  O43  1  0.64620274  0.99139305  0.26264337  1
  O  O44  1  0.17222710  0.33237759  0.56589808  1
  O  O45  1  0.55762351  0.87106710  0.06504522  1
  O  O46  1  0.40676834  0.62589130  0.07321913  1
  O  O47  1  0.57910889  0.68535710  0.89910313  1
  O  O48  1  0.80206483  0.56177078  0.03777285  1
  O  O49  1  0.20689895  0.01993271  0.22682290  1
  O  O50  1  0.30206483  0.93822922  0.53777285  1
  O  O51  1  0.57129109  0.57645948  0.32884413  1
  O  O52  1  0.69793517  0.06177078  0.46222715  1
  O  O53  1  0.42870891  0.42354052  0.67115587  1
  O  O54  1  0.05762351  0.62893290  0.56504522  1
  O  O55  1  0.94237649  0.37106710  0.43495478  1
  O  O56  1  0.92836630  0.38549653  0.87743563  1
  O  O57  1  0.62156480  0.20639940  0.66899843  1
  O  O58  1  0.66797152  0.27441738  0.32056912  1
  O  O59  1  0.12156480  0.29360060  0.16899843  1
  O  O60  1  0.07910889  0.81464290  0.39910313  1
  O  O61  1  0.29310105  0.51993271  0.27317710  1
  O  O62  1  0.92870891  0.07645948  0.17115587  1
  O  O63  1  0.57163370  0.88549653  0.62256437  1
  O  O64  1  0.42836630  0.11450347  0.37743563  1
  O  O65  1  0.19793517  0.43822922  0.96222715  1
  O  O66  1  0.33202848  0.72558262  0.67943088  1
  O  O67  1  0.44237649  0.12893290  0.93495478  1
