# generated using pymatgen
data_CoH4SeO5
_symmetry_space_group_name_H-M   'P 1'
_cell_length_a   6.58006266
_cell_length_b   7.40781887
_cell_length_c   10.12028983
_cell_angle_alpha   90.00000000
_cell_angle_beta   90.00000000
_cell_angle_gamma   101.48766545
_symmetry_Int_Tables_number   1
_chemical_formula_structural   CoH4SeO5
_chemical_formula_sum   'Co4 H16 Se4 O20'
_cell_volume   483.42048794
_cell_formula_units_Z   4
loop_
 _symmetry_equiv_pos_site_id
 _symmetry_equiv_pos_as_xyz
  1  'x, y, z'
loop_
 _atom_site_type_symbol
 _atom_site_label
 _atom_site_symmetry_multiplicity
 _atom_site_fract_x
 _atom_site_fract_y
 _atom_site_fract_z
 _atom_site_occupancy
  Co  Co0  1  0.64405315  0.48305663  0.37372180  1
  Co  Co1  1  0.85594685  0.01694337  0.87372180  1
  Co  Co2  1  0.35594685  0.51694337  0.62627820  1
  Co  Co3  1  0.14405315  0.98305663  0.12627820  1
  Se  Se4  1  0.41587023  0.17929920  0.87906968  1
  Se  Se5  1  0.08412977  0.32070080  0.37906968  1
  Se  Se6  1  0.58412977  0.82070080  0.12093032  1
  Se  Se7  1  0.91587023  0.67929920  0.62093032  1
  O  O8  1  0.24895493  0.04461524  0.53046786  1
  O  O9  1  0.25104507  0.45538476  0.03046786  1
  O  O10  1  0.75104507  0.95538476  0.46953214  1
  O  O11  1  0.74895493  0.54461524  0.96953214  1
  O  O12  1  0.32023834  0.46447418  0.42848108  1
  O  O13  1  0.17976166  0.03552582  0.92848108  1
  O  O14  1  0.67976166  0.53552582  0.57151892  1
  O  O15  1  0.82023834  0.96447418  0.07151892  1
  O  O16  1  0.54931308  0.01082342  0.82507850  1
  O  O17  1  0.95068692  0.48917658  0.32507850  1
  O  O18  1  0.45068692  0.98917658  0.17492150  1
  O  O19  1  0.04931308  0.51082342  0.67492150  1
  O  O20  1  0.57129434  0.20116269  0.37256726  1
  O  O21  1  0.92870566  0.29883731  0.87256726  1
  O  O22  1  0.42870566  0.79883731  0.62743274  1
  O  O23  1  0.07129434  0.70116269  0.12743274  1
  O  O24  1  0.84056764  0.77239473  0.76502458  1
  O  O25  1  0.65943236  0.72760527  0.26502458  1
  O  O26  1  0.15943236  0.22760527  0.23497542  1
  O  O27  1  0.34056764  0.27239473  0.73497542  1
  H  H28  1  0.36284721  0.10535891  0.47064013  1
  H  H29  1  0.13715279  0.39464109  0.97064013  1
  H  H30  1  0.63715279  0.89464109  0.52935987  1
  H  H31  1  0.86284721  0.60535891  0.02935987  1
  H  H32  1  0.52511283  0.13073596  0.28742164  1
  H  H33  1  0.97488717  0.36926404  0.78742164  1
  H  H34  1  0.47488717  0.86926404  0.71257836  1
  H  H35  1  0.02511283  0.63073596  0.21257836  1
  H  H36  1  0.66275448  0.12076209  0.41642737  1
  H  H37  1  0.83724552  0.37923791  0.91642737  1
  H  H38  1  0.33724552  0.87923791  0.58357263  1
  H  H39  1  0.16275448  0.62076209  0.08357263  1
  H  H40  1  0.23078861  0.37519689  0.11126854  1
  H  H41  1  0.26921139  0.12480311  0.61126854  1
  H  H42  1  0.76921139  0.62480311  0.88873146  1
  H  H43  1  0.73078861  0.87519689  0.38873146  1
