# generated using pymatgen
data_CaMg3Si3O10
_symmetry_space_group_name_H-M   'P 1'
_cell_length_a   8.93827141
_cell_length_b   9.84141961
_cell_length_c   10.39561973
_cell_angle_alpha   64.37536326
_cell_angle_beta   84.01415209
_cell_angle_gamma   65.87078236
_symmetry_Int_Tables_number   1
_chemical_formula_structural   CaMg3Si3O10
_chemical_formula_sum   'Ca4 Mg12 Si12 O40'
_cell_volume   749.54560614
_cell_formula_units_Z   4
loop_
 _symmetry_equiv_pos_site_id
 _symmetry_equiv_pos_as_xyz
  1  'x, y, z'
loop_
 _atom_site_type_symbol
 _atom_site_label
 _atom_site_symmetry_multiplicity
 _atom_site_fract_x
 _atom_site_fract_y
 _atom_site_fract_z
 _atom_site_occupancy
  Mg  Mg0  1  0.50000000  0.00000000  0.00000000  1
  Mg  Mg1  1  0.00000000  0.50000000  0.50000000  1
  Mg  Mg2  1  0.83186675  0.84731892  0.45969774  1
  Mg  Mg3  1  0.16813325  0.15268108  0.54030226  1
  Mg  Mg4  1  0.84709409  0.83344448  0.94964849  1
  Mg  Mg5  1  0.15290591  0.16655552  0.05035151  1
  Mg  Mg6  1  0.93297797  0.93016086  0.15888839  1
  Mg  Mg7  1  0.06702203  0.06983914  0.84111161  1
  Mg  Mg8  1  0.93519404  0.94171864  0.65511141  1
  Mg  Mg9  1  0.06480596  0.05828136  0.34488859  1
  Mg  Mg10  1  0.74252047  0.74373032  0.25301845  1
  Mg  Mg11  1  0.25747953  0.25626968  0.74698155  1
  Ca  Ca12  1  0.61693861  0.63362631  0.57223239  1
  Ca  Ca13  1  0.38306139  0.36637369  0.42776761  1
  Ca  Ca14  1  0.63393952  0.61890625  0.05015780  1
  Ca  Ca15  1  0.36606048  0.38109375  0.94984220  1
  Si  Si16  1  0.67069958  0.22953125  0.24315977  1
  Si  Si17  1  0.32930042  0.77046875  0.75684023  1
  Si  Si18  1  0.65999592  0.22633148  0.75098380  1
  Si  Si19  1  0.34000408  0.77366852  0.24901620  1
  Si  Si20  1  0.76640634  0.33681994  0.44934385  1
  Si  Si21  1  0.23359366  0.66318006  0.55065615  1
  Si  Si22  1  0.77960362  0.33348689  0.93768434  1
  Si  Si23  1  0.22039638  0.66651311  0.06231566  1
  Si  Si24  1  0.56116581  0.94775664  0.69558940  1
  Si  Si25  1  0.43883419  0.05224336  0.30441060  1
  Si  Si26  1  0.95205688  0.56359062  0.79812384  1
  Si  Si27  1  0.04794312  0.43640938  0.20187616  1
  O  O28  1  0.83719643  0.06725691  0.28786956  1
  O  O29  1  0.16280357  0.93274309  0.71213044  1
  O  O30  1  0.83066395  0.06508938  0.78538742  1
  O  O31  1  0.16933605  0.93491062  0.21461258  1
  O  O32  1  0.71239118  0.95488513  0.59445516  1
  O  O33  1  0.28760882  0.04511487  0.40554484  1
  O  O34  1  0.72908619  0.94221986  0.07492887  1
  O  O35  1  0.27091381  0.05778014  0.92507113  1
  O  O36  1  0.60093289  0.87633518  0.37619663  1
  O  O37  1  0.39906711  0.12366482  0.62380337  1
  O  O38  1  0.61587093  0.87424494  0.86756351  1
  O  O39  1  0.38412907  0.12575506  0.13243649  1
  O  O40  1  0.50281177  0.19987997  0.29804796  1
  O  O41  1  0.49718823  0.80012003  0.70195204  1
  O  O42  1  0.50932973  0.77757519  0.17827159  1
  O  O43  1  0.49067027  0.22242481  0.82172841  1
  O  O44  1  0.62611401  0.31831170  0.57122221  1
  O  O45  1  0.37388599  0.68168830  0.42877779  1
  O  O46  1  0.64168169  0.34004407  0.06312750  1
  O  O47  1  0.35831831  0.65995593  0.93687250  1
  O  O48  1  0.92998647  0.16797178  0.48321117  1
  O  O49  1  0.07001353  0.83202822  0.51678883  1
  O  O50  1  0.93679905  0.16299129  0.99140984  1
  O  O51  1  0.06320095  0.83700871  0.00859016  1
  O  O52  1  0.96061634  0.71496621  0.81920688  1
  O  O53  1  0.03938366  0.28503379  0.18079312  1
  O  O54  1  0.94020786  0.72959842  0.33978558  1
  O  O55  1  0.05979214  0.27040158  0.66021442  1
  O  O56  1  0.87695684  0.61566455  0.63705550  1
  O  O57  1  0.12304316  0.38433545  0.36294450  1
  O  O58  1  0.87249378  0.59985766  0.13631907  1
  O  O59  1  0.12750622  0.40014234  0.86368093  1
  O  O60  1  0.80786979  0.50038692  0.90219350  1
  O  O61  1  0.19213021  0.49961308  0.09780650  1
  O  O62  1  0.77486635  0.50687666  0.42628792  1
  O  O63  1  0.22513365  0.49312334  0.57371208  1
  O  O64  1  0.68176374  0.36784760  0.79259406  1
  O  O65  1  0.31823626  0.63215240  0.20740594  1
  O  O66  1  0.66178663  0.36583465  0.30330048  1
  O  O67  1  0.33821337  0.63416535  0.69669952  1
