# generated using pymatgen
data_VCuAgO4
_symmetry_space_group_name_H-M   'P 1'
_cell_length_a   5.44235369
_cell_length_b   6.92786069
_cell_length_c   9.28718706
_cell_angle_alpha   90.00000000
_cell_angle_beta   90.00000000
_cell_angle_gamma   90.00000000
_symmetry_Int_Tables_number   1
_chemical_formula_structural   VCuAgO4
_chemical_formula_sum   'V4 Cu4 Ag4 O16'
_cell_volume   350.16287677
_cell_formula_units_Z   4
loop_
 _symmetry_equiv_pos_site_id
 _symmetry_equiv_pos_as_xyz
  1  'x, y, z'
loop_
 _atom_site_type_symbol
 _atom_site_label
 _atom_site_symmetry_multiplicity
 _atom_site_fract_x
 _atom_site_fract_y
 _atom_site_fract_z
 _atom_site_occupancy
  Ag  Ag0  1  0.47300161  0.75000000  0.86171097  1
  Ag  Ag1  1  0.97300161  0.25000000  0.63828903  1
  Ag  Ag2  1  0.52699839  0.25000000  0.13828903  1
  Ag  Ag3  1  0.02699839  0.75000000  0.36171097  1
  Cu  Cu4  1  0.50000000  0.00000000  0.50000000  1
  Cu  Cu5  1  0.00000000  0.00000000  0.00000000  1
  Cu  Cu6  1  0.50000000  0.50000000  0.50000000  1
  Cu  Cu7  1  0.00000000  0.50000000  0.00000000  1
  V  V8  1  0.93062283  0.75000000  0.69019891  1
  V  V9  1  0.43062283  0.25000000  0.80980109  1
  V  V10  1  0.06937717  0.25000000  0.30980109  1
  V  V11  1  0.56937717  0.75000000  0.19019891  1
  O  O12  1  0.91737900  0.75000000  0.88979569  1
  O  O13  1  0.41737900  0.25000000  0.61020431  1
  O  O14  1  0.08262100  0.25000000  0.11020431  1
  O  O15  1  0.58262100  0.75000000  0.38979569  1
  O  O16  1  0.72809747  0.25000000  0.86917321  1
  O  O17  1  0.22809747  0.75000000  0.63082679  1
  O  O18  1  0.27190253  0.75000000  0.13082679  1
  O  O19  1  0.77190253  0.25000000  0.36917321  1
  O  O20  1  0.77652417  0.54590247  0.62485535  1
  O  O21  1  0.27652417  0.45409753  0.87514465  1
  O  O22  1  0.22347583  0.04590247  0.37514465  1
  O  O23  1  0.72347583  0.95409753  0.12485535  1
  O  O24  1  0.22347583  0.45409753  0.37514465  1
  O  O25  1  0.72347583  0.54590247  0.12485535  1
  O  O26  1  0.77652417  0.95409753  0.62485535  1
  O  O27  1  0.27652417  0.04590247  0.87514465  1
