# generated using pymatgen
data_Mn(PO3)3
_symmetry_space_group_name_H-M   'P 1'
_cell_length_a   7.38677736
_cell_length_b   7.20019670
_cell_length_c   6.99256041
_cell_angle_alpha   104.78343521
_cell_angle_beta   94.87761475
_cell_angle_gamma   83.70006704
_symmetry_Int_Tables_number   1
_chemical_formula_structural   Mn(PO3)3
_chemical_formula_sum   'Mn2 P6 O18'
_cell_volume   356.79548633
_cell_formula_units_Z   2
loop_
 _symmetry_equiv_pos_site_id
 _symmetry_equiv_pos_as_xyz
  1  'x, y, z'
loop_
 _atom_site_type_symbol
 _atom_site_label
 _atom_site_symmetry_multiplicity
 _atom_site_fract_x
 _atom_site_fract_y
 _atom_site_fract_z
 _atom_site_occupancy
  Mn  Mn0  1  0.17379495  0.15056845  0.43765961  1
  Mn  Mn1  1  0.82620505  0.84943155  0.56234039  1
  O  O2  1  0.03524494  0.32854486  0.29938469  1
  O  O3  1  0.14578456  0.34476522  0.68680161  1
  O  O4  1  0.18162393  0.61482004  0.98151111  1
  O  O5  1  0.16475181  0.94775915  0.20147947  1
  O  O6  1  0.22103171  0.95275019  0.59067078  1
  O  O7  1  0.31042567  0.62515424  0.65999755  1
  O  O8  1  0.32191756  0.66196371  0.31850499  1
  O  O9  1  0.44221600  0.19606076  0.41015713  1
  O  O10  1  0.52113962  0.21372984  0.93696126  1
  O  O11  1  0.47886038  0.78627016  0.06303874  1
  O  O12  1  0.55778400  0.80393924  0.58984287  1
  O  O13  1  0.67808244  0.33803629  0.68149501  1
  O  O14  1  0.68957433  0.37484576  0.34000245  1
  O  O15  1  0.77896829  0.04724981  0.40932922  1
  O  O16  1  0.83524819  0.05224085  0.79852053  1
  O  O17  1  0.81837607  0.38517996  0.01848889  1
  O  O18  1  0.85421544  0.65523478  0.31319839  1
  O  O19  1  0.96475506  0.67145514  0.70061531  1
  P  P20  1  0.14081751  0.56252527  0.74947917  1
  P  P21  1  0.30319527  0.76950489  0.13635315  1
  P  P22  1  0.36104424  0.77607846  0.54520816  1
  P  P23  1  0.63895576  0.22392154  0.45479184  1
  P  P24  1  0.69680473  0.23049511  0.86364685  1
  P  P25  1  0.85918249  0.43747473  0.25052083  1
