# generated using pymatgen
data_Li3Ni(PO4)2
_symmetry_space_group_name_H-M   'P 1'
_cell_length_a   8.27076840
_cell_length_b   5.42398374
_cell_length_c   6.24397648
_cell_angle_alpha   90.00000000
_cell_angle_beta   89.88737914
_cell_angle_gamma   90.00000000
_symmetry_Int_Tables_number   1
_chemical_formula_structural   Li3Ni(PO4)2
_chemical_formula_sum   'Li6 Ni2 P4 O16'
_cell_volume   280.10744877
_cell_formula_units_Z   2
loop_
 _symmetry_equiv_pos_site_id
 _symmetry_equiv_pos_as_xyz
  1  'x, y, z'
loop_
 _atom_site_type_symbol
 _atom_site_label
 _atom_site_symmetry_multiplicity
 _atom_site_fract_x
 _atom_site_fract_y
 _atom_site_fract_z
 _atom_site_occupancy
  Li  Li0  1  0.74947413  0.75000000  0.50104284  1
  Li  Li1  1  0.42298811  0.75000000  0.73448336  1
  Li  Li2  1  0.92345677  0.25000000  0.73205360  1
  Li  Li3  1  0.07654323  0.75000000  0.26794640  1
  Li  Li4  1  0.25052587  0.25000000  0.49895716  1
  Li  Li5  1  0.57701189  0.25000000  0.26551664  1
  Ni  Ni6  1  0.75000688  0.75000000  0.00032550  1
  Ni  Ni7  1  0.24999312  0.25000000  0.99967450  1
  P  P8  1  0.39411306  0.75000000  0.23638780  1
  P  P9  1  0.89440392  0.25000000  0.23592675  1
  P  P10  1  0.10559608  0.75000000  0.76407325  1
  P  P11  1  0.60588694  0.25000000  0.76361220  1
  O  O12  1  0.21920564  0.98091451  0.76203044  1
  O  O13  1  0.00243533  0.25000000  0.03246025  1
  O  O14  1  0.28069375  0.98120607  0.23807620  1
  O  O15  1  0.71930625  0.01879393  0.76192380  1
  O  O16  1  0.78079436  0.01908549  0.23796956  1
  O  O17  1  0.99756467  0.75000000  0.96753975  1
  O  O18  1  0.50092193  0.25000000  0.56015424  1
  O  O19  1  0.00012617  0.25000000  0.43755264  1
  O  O20  1  0.78079436  0.48091451  0.23796956  1
  O  O21  1  0.28069375  0.51879393  0.23807620  1
  O  O22  1  0.21920564  0.51908549  0.76203044  1
  O  O23  1  0.99987383  0.75000000  0.56244736  1
  O  O24  1  0.49728502  0.25000000  0.96581468  1
  O  O25  1  0.49907807  0.75000000  0.43984576  1
  O  O26  1  0.71930625  0.48120607  0.76192380  1
  O  O27  1  0.50271498  0.75000000  0.03418532  1
