# generated using pymatgen
data_Nb3SiNi2
_symmetry_space_group_name_H-M   'P 1'
_cell_length_a   7.94623673
_cell_length_b   7.94623673
_cell_length_c   7.94623673
_cell_angle_alpha   60.00000000
_cell_angle_beta   60.00000000
_cell_angle_gamma   60.00000000
_symmetry_Int_Tables_number   1
_chemical_formula_structural   Nb3SiNi2
_chemical_formula_sum   'Nb12 Si4 Ni8'
_cell_volume   354.78847236
_cell_formula_units_Z   4
loop_
 _symmetry_equiv_pos_site_id
 _symmetry_equiv_pos_as_xyz
  1  'x, y, z'
loop_
 _atom_site_type_symbol
 _atom_site_label
 _atom_site_symmetry_multiplicity
 _atom_site_fract_x
 _atom_site_fract_y
 _atom_site_fract_z
 _atom_site_occupancy
  Nb  Nb0  1  0.42247916  0.82752084  0.82752084  1
  Nb  Nb1  1  0.82752084  0.42247916  0.42247916  1
  Nb  Nb2  1  0.82752084  0.42247916  0.82752084  1
  Nb  Nb3  1  0.42247916  0.82752084  0.42247916  1
  Nb  Nb4  1  0.82752084  0.82752084  0.42247916  1
  Nb  Nb5  1  0.42247916  0.42247916  0.82752084  1
  Nb  Nb6  1  0.57752084  0.17247916  0.17247916  1
  Nb  Nb7  1  0.17247916  0.57752084  0.57752084  1
  Nb  Nb8  1  0.17247916  0.57752084  0.17247916  1
  Nb  Nb9  1  0.57752084  0.17247916  0.57752084  1
  Nb  Nb10  1  0.17247916  0.17247916  0.57752084  1
  Nb  Nb11  1  0.57752084  0.57752084  0.17247916  1
  Si  Si12  1  0.00000000  0.00000000  0.50000000  1
  Si  Si13  1  0.00000000  0.50000000  -0.00000000  1
  Si  Si14  1  0.50000000  0.00000000  -0.00000000  1
  Si  Si15  1  0.00000000  0.00000000  -0.00000000  1
  Ni  Ni16  1  0.20731414  0.20731414  0.87805759  1
  Ni  Ni17  1  0.20731414  0.87805759  0.20731414  1
  Ni  Ni18  1  0.87805759  0.20731414  0.20731414  1
  Ni  Ni19  1  0.20731414  0.20731414  0.20731414  1
  Ni  Ni20  1  0.79268586  0.79268586  0.12194241  1
  Ni  Ni21  1  0.79268586  0.12194241  0.79268586  1
  Ni  Ni22  1  0.12194241  0.79268586  0.79268586  1
  Ni  Ni23  1  0.79268586  0.79268586  0.79268586  1
