# generated using pymatgen
data_BrN(OF2)2
_symmetry_space_group_name_H-M   'P 1'
_cell_length_a   5.92798166
_cell_length_b   5.90705731
_cell_length_c   14.22465258
_cell_angle_alpha   90.00000000
_cell_angle_beta   90.00000000
_cell_angle_gamma   90.00000000
_symmetry_Int_Tables_number   1
_chemical_formula_structural   BrN(OF2)2
_chemical_formula_sum   'Br4 N4 O8 F16'
_cell_volume   498.10362666
_cell_formula_units_Z   4
loop_
 _symmetry_equiv_pos_site_id
 _symmetry_equiv_pos_as_xyz
  1  'x, y, z'
loop_
 _atom_site_type_symbol
 _atom_site_label
 _atom_site_symmetry_multiplicity
 _atom_site_fract_x
 _atom_site_fract_y
 _atom_site_fract_z
 _atom_site_occupancy
  Br  Br0  1  0.66786892  0.25000000  0.35361701  1
  Br  Br1  1  0.83213108  0.75000000  0.85361701  1
  Br  Br2  1  0.16786892  0.25000000  0.14638299  1
  Br  Br3  1  0.33213108  0.75000000  0.64638299  1
  N  N4  1  0.44002158  0.25000000  0.84949630  1
  N  N5  1  0.94002158  0.25000000  0.65050370  1
  N  N6  1  0.05997842  0.75000000  0.34949630  1
  N  N7  1  0.55997842  0.75000000  0.15050370  1
  O  O8  1  0.45314503  0.25000000  0.42200598  1
  O  O9  1  0.72671014  0.75000000  0.11536126  1
  O  O10  1  0.27328986  0.25000000  0.88463874  1
  O  O11  1  0.04685497  0.75000000  0.92200598  1
  O  O12  1  0.22671014  0.75000000  0.38463874  1
  O  O13  1  0.77328986  0.25000000  0.61536126  1
  O  O14  1  0.95314503  0.25000000  0.07799402  1
  O  O15  1  0.54685497  0.75000000  0.57799402  1
  F  F16  1  0.54052382  0.48266043  0.26928152  1
  F  F17  1  0.83189849  0.02311766  0.42349984  1
  F  F18  1  0.16810151  0.52311766  0.57650016  1
  F  F19  1  0.33189849  0.47688234  0.07650016  1
  F  F20  1  0.66810151  0.52311766  0.92349984  1
  F  F21  1  0.54052382  0.01733957  0.26928152  1
  F  F22  1  0.45947618  0.98266043  0.73071848  1
  F  F23  1  0.04052382  0.48266043  0.23071848  1
  F  F24  1  0.33189849  0.02311766  0.07650016  1
  F  F25  1  0.04052382  0.01733957  0.23071848  1
  F  F26  1  0.95947618  0.98266043  0.76928152  1
  F  F27  1  0.16810151  0.97688234  0.57650016  1
  F  F28  1  0.66810151  0.97688234  0.92349984  1
  F  F29  1  0.83189849  0.47688234  0.42349984  1
  F  F30  1  0.45947618  0.51733957  0.73071848  1
  F  F31  1  0.95947618  0.51733957  0.76928152  1
