# generated using pymatgen
data_ZnGaNO
_symmetry_space_group_name_H-M   'P 1'
_cell_length_a   6.50532304
_cell_length_b   6.50532293
_cell_length_c   10.60932849
_cell_angle_alpha   90.00000000
_cell_angle_beta   90.00000000
_cell_angle_gamma   119.64738475
_symmetry_Int_Tables_number   1
_chemical_formula_structural   ZnGaNO
_chemical_formula_sum   'Zn8 Ga8 N8 O8'
_cell_volume   390.20105924
_cell_formula_units_Z   8
loop_
 _symmetry_equiv_pos_site_id
 _symmetry_equiv_pos_as_xyz
  1  'x, y, z'
loop_
 _atom_site_type_symbol
 _atom_site_label
 _atom_site_symmetry_multiplicity
 _atom_site_fract_x
 _atom_site_fract_y
 _atom_site_fract_z
 _atom_site_occupancy
  Zn  Zn0  1  0.83921024  0.66078976  0.74498283  1
  Zn  Zn1  1  0.66078976  0.83921024  0.49498283  1
  Zn  Zn2  1  0.33921024  0.16078976  0.74498283  1
  Zn  Zn3  1  0.16078976  0.33921024  0.99498283  1
  Zn  Zn4  1  0.66078976  0.83921024  0.99498283  1
  Zn  Zn5  1  0.16078976  0.33921024  0.49498283  1
  Zn  Zn6  1  0.83921024  0.66078976  0.24498283  1
  Zn  Zn7  1  0.33921024  0.16078976  0.24498283  1
  Ga  Ga8  1  0.67395134  0.32604866  0.00375736  1
  Ga  Ga9  1  0.32604866  0.67395134  0.75375736  1
  Ga  Ga10  1  0.82604866  0.17395134  0.75375736  1
  Ga  Ga11  1  0.67395134  0.32604866  0.50375736  1
  Ga  Ga12  1  0.32604866  0.67395134  0.25375736  1
  Ga  Ga13  1  0.82604866  0.17395134  0.25375736  1
  Ga  Ga14  1  0.17395134  0.82604866  0.00375736  1
  Ga  Ga15  1  0.17395134  0.82604866  0.50375736  1
  N  N16  1  0.66970455  0.33029545  0.68327413  1
  N  N17  1  0.16970455  0.83029545  0.68327413  1
  N  N18  1  0.83029545  0.16970455  0.93327413  1
  N  N19  1  0.83029545  0.16970455  0.43327413  1
  N  N20  1  0.33029545  0.66970455  0.43327413  1
  N  N21  1  0.16970455  0.83029545  0.18327413  1
  N  N22  1  0.66970455  0.33029545  0.18327413  1
  N  N23  1  0.33029545  0.66970455  0.93327413  1
  O  O24  1  0.83921371  0.66078629  0.44498368  1
  O  O25  1  0.33921371  0.16078629  0.44498368  1
  O  O26  1  0.66078629  0.83921371  0.69498368  1
  O  O27  1  0.16078629  0.33921371  0.69498368  1
  O  O28  1  0.33921371  0.16078629  0.94498368  1
  O  O29  1  0.66078629  0.83921371  0.19498368  1
  O  O30  1  0.83921371  0.66078629  0.94498368  1
  O  O31  1  0.16078629  0.33921371  0.19498368  1
