# generated using pymatgen
data_NaNp3F13
_symmetry_space_group_name_H-M   'P 1'
_cell_length_a   8.16508817
_cell_length_b   8.16508836
_cell_length_c   16.43658954
_cell_angle_alpha   90.00000000
_cell_angle_beta   90.00000000
_cell_angle_gamma   119.99999926
_symmetry_Int_Tables_number   1
_chemical_formula_structural   NaNp3F13
_chemical_formula_sum   'Na4 Np12 F52'
_cell_volume   948.99541194
_cell_formula_units_Z   4
loop_
 _symmetry_equiv_pos_site_id
 _symmetry_equiv_pos_as_xyz
  1  'x, y, z'
loop_
 _atom_site_type_symbol
 _atom_site_label
 _atom_site_symmetry_multiplicity
 _atom_site_fract_x
 _atom_site_fract_y
 _atom_site_fract_z
 _atom_site_occupancy
  Na  Na0  1  0.66666700  0.33333300  0.12435618  1
  Na  Na1  1  0.33333300  0.66666700  0.62435618  1
  Na  Na2  1  0.33333300  0.66666700  0.87564382  1
  Na  Na3  1  0.66666700  0.33333300  0.37564382  1
  Np  Np4  1  0.83381616  0.66763233  0.88689467  1
  Np  Np5  1  0.16618384  0.83381616  0.11310533  1
  Np  Np6  1  0.66763233  0.83381616  0.11310533  1
  Np  Np7  1  0.33236767  0.16618384  0.88689467  1
  Np  Np8  1  0.83381616  0.16618384  0.88689467  1
  Np  Np9  1  0.16618384  0.33236767  0.11310533  1
  Np  Np10  1  0.83381616  0.16618384  0.61310533  1
  Np  Np11  1  0.16618384  0.33236767  0.38689467  1
  Np  Np12  1  0.33236767  0.16618384  0.61310533  1
  Np  Np13  1  0.16618384  0.83381616  0.38689467  1
  Np  Np14  1  0.66763233  0.83381616  0.38689467  1
  Np  Np15  1  0.83381616  0.66763233  0.61310533  1
  F  F16  1  0.32577016  0.32577016  0.00000000  1
  F  F17  1  1.00000000  0.67422984  0.00000000  1
  F  F18  1  1.00000000  0.67422984  0.50000000  1
  F  F19  1  0.91906129  0.45953065  0.65880652  1
  F  F20  1  0.33333300  0.66666700  0.75000000  1
  F  F21  1  0.91906129  0.45953065  0.84119348  1
  F  F22  1  0.32577016  0.00000000  0.00000000  1
  F  F23  1  0.85786178  0.14213822  0.75000000  1
  F  F24  1  0.08093871  0.54046935  0.34119348  1
  F  F25  1  0.33333300  0.66666700  0.04889358  1
  F  F26  1  0.67422984  0.67422984  0.50000000  1
  F  F27  1  0.71572356  0.85786178  0.25000000  1
  F  F28  1  0.28427644  0.14213822  0.75000000  1
  F  F29  1  0.15698578  0.84301422  0.85981620  1
  F  F30  1  0.66666700  0.33333300  0.95110642  1
  F  F31  1  0.14213822  0.28427644  0.25000000  1
  F  F32  1  0.00000000  0.32577016  0.00000000  1
  F  F33  1  0.68602844  0.84301422  0.85981620  1
  F  F34  1  0.14213822  0.85786178  0.25000000  1
  F  F35  1  0.15698578  0.84301422  0.64018380  1
  F  F36  1  0.00000000  0.00000000  0.07746169  1
  F  F37  1  0.84301422  0.15698578  0.35981620  1
  F  F38  1  0.84301422  0.15698578  0.14018380  1
  F  F39  1  0.33333300  0.66666700  0.45110642  1
  F  F40  1  0.54046935  0.45953065  0.65880652  1
  F  F41  1  0.45953065  0.91906129  0.34119348  1
  F  F42  1  0.45953065  0.54046935  0.34119348  1
  F  F43  1  0.84301422  0.68602844  0.14018380  1
  F  F44  1  0.54046935  0.45953065  0.84119348  1
  F  F45  1  0.00000000  0.00000000  0.42253831  1
  F  F46  1  0.31397156  0.15698578  0.14018380  1
  F  F47  1  0.00000000  0.00000000  0.92253831  1
  F  F48  1  0.45953065  0.54046935  0.15880652  1
  F  F49  1  0.32577016  0.32577016  0.50000000  1
  F  F50  1  0.00000000  0.00000000  0.57746169  1
  F  F51  1  0.08093871  0.54046935  0.15880652  1
  F  F52  1  0.15698578  0.31397156  0.85981620  1
  F  F53  1  0.67422984  0.00000000  0.00000000  1
  F  F54  1  0.66666700  0.33333300  0.54889358  1
  F  F55  1  0.15698578  0.31397156  0.64018380  1
  F  F56  1  0.54046935  0.08093871  0.65880652  1
  F  F57  1  0.67422984  0.00000000  0.50000000  1
  F  F58  1  0.68602844  0.84301422  0.64018380  1
  F  F59  1  0.54046935  0.08093871  0.84119348  1
  F  F60  1  0.32577016  0.00000000  0.50000000  1
  F  F61  1  0.67422984  0.67422984  0.00000000  1
  F  F62  1  0.00000000  0.32577016  0.50000000  1
  F  F63  1  0.84301422  0.68602844  0.35981620  1
  F  F64  1  0.66666700  0.33333300  0.25000000  1
  F  F65  1  0.31397156  0.15698578  0.35981620  1
  F  F66  1  0.85786178  0.71572356  0.75000000  1
  F  F67  1  0.45953065  0.91906129  0.15880652  1
