# generated using pymatgen
data_MoS3(NCl4)2
_symmetry_space_group_name_H-M   'P 1'
_cell_length_a   7.67620150
_cell_length_b   12.18914390
_cell_length_c   16.69256585
_cell_angle_alpha   90.00000000
_cell_angle_beta   90.00000000
_cell_angle_gamma   101.95722067
_symmetry_Int_Tables_number   1
_chemical_formula_structural   MoS3(NCl4)2
_chemical_formula_sum   'Mo4 S12 N8 Cl32'
_cell_volume   1527.97363329
_cell_formula_units_Z   4
loop_
 _symmetry_equiv_pos_site_id
 _symmetry_equiv_pos_as_xyz
  1  'x, y, z'
loop_
 _atom_site_type_symbol
 _atom_site_label
 _atom_site_symmetry_multiplicity
 _atom_site_fract_x
 _atom_site_fract_y
 _atom_site_fract_z
 _atom_site_occupancy
  Mo  Mo0  1  0.14769661  0.21002064  0.17736433  1
  Mo  Mo1  1  0.35230339  0.28997936  0.67736433  1
  Mo  Mo2  1  0.64769661  0.71002064  0.32263567  1
  Mo  Mo3  1  0.85230339  0.78997936  0.82263567  1
  S  S4  1  0.66296616  0.52604580  0.65562042  1
  S  S5  1  0.76021880  0.22803460  0.87364562  1
  S  S6  1  0.73978120  0.27196540  0.37364562  1
  S  S7  1  0.85260255  0.20143760  0.53512411  1
  S  S8  1  0.16296616  0.02604580  0.84437958  1
  S  S9  1  0.26021880  0.72803460  0.62635438  1
  S  S10  1  0.33703384  0.47395420  0.34437958  1
  S  S11  1  0.83703384  0.97395420  0.15562042  1
  S  S12  1  0.64739745  0.29856240  0.03512411  1
  S  S13  1  0.35260255  0.70143760  0.96487589  1
  S  S14  1  0.23978120  0.77196540  0.12635438  1
  S  S15  1  0.14739745  0.79856240  0.46487589  1
  N  N16  1  0.02903258  0.91157736  0.83365168  1
  N  N17  1  0.52903258  0.41157736  0.66634832  1
  N  N18  1  0.68925911  0.23555563  0.95951622  1
  N  N19  1  0.31074089  0.76444437  0.04048378  1
  N  N20  1  0.97096742  0.08842264  0.16634832  1
  N  N21  1  0.47096742  0.58842264  0.33365168  1
  N  N22  1  0.81074089  0.26444437  0.45951622  1
  N  N23  1  0.18925911  0.73555563  0.54048378  1
  Cl  Cl24  1  0.58858763  0.63082393  0.81256051  1
  Cl  Cl25  1  0.13924195  0.26252791  0.04166719  1
  Cl  Cl26  1  0.17185922  0.19178298  0.31607161  1
  Cl  Cl27  1  0.67185922  0.69178298  0.18392839  1
  Cl  Cl28  1  0.63924195  0.76252791  0.45833281  1
  Cl  Cl29  1  0.12994389  0.61831171  0.16930746  1
  Cl  Cl30  1  0.72931882  0.46618691  0.01912665  1
  Cl  Cl31  1  0.85993006  0.59863675  0.35001693  1
  Cl  Cl32  1  0.73292479  0.98310967  0.04009935  1
  Cl  Cl33  1  0.95313364  0.33956732  0.20233696  1
  Cl  Cl34  1  0.22931882  0.96618691  0.48087335  1
  Cl  Cl35  1  0.86075805  0.73747209  0.95833281  1
  Cl  Cl36  1  0.54686636  0.16043268  0.70233696  1
  Cl  Cl37  1  0.45313364  0.83956732  0.29766304  1
  Cl  Cl38  1  0.76707521  0.51689033  0.54009935  1
  Cl  Cl39  1  0.77068118  0.03381309  0.51912665  1
  Cl  Cl40  1  0.04686636  0.66043268  0.79766304  1
  Cl  Cl41  1  0.64006994  0.90136325  0.85001693  1
  Cl  Cl42  1  0.08858763  0.13082393  0.68743949  1
  Cl  Cl43  1  0.62994389  0.11831171  0.33069254  1
  Cl  Cl44  1  0.36075805  0.23747209  0.54166719  1
  Cl  Cl45  1  0.14006994  0.40136325  0.64998307  1
  Cl  Cl46  1  0.32814078  0.30821702  0.81607161  1
  Cl  Cl47  1  0.35993006  0.09863675  0.14998307  1
  Cl  Cl48  1  0.41141237  0.36917607  0.18743949  1
  Cl  Cl49  1  0.27068118  0.53381309  0.98087335  1
  Cl  Cl50  1  0.23292479  0.48310967  0.45990065  1
  Cl  Cl51  1  0.26707521  0.01689033  0.95990065  1
  Cl  Cl52  1  0.91141237  0.86917607  0.31256051  1
  Cl  Cl53  1  0.87005611  0.38168829  0.83069254  1
  Cl  Cl54  1  0.82814078  0.80821702  0.68392839  1
  Cl  Cl55  1  0.37005611  0.88168829  0.66930746  1
