# generated using pymatgen
data_CdCu2(BO3)2
_symmetry_space_group_name_H-M   'P 1'
_cell_length_a   3.56526551
_cell_length_b   9.51937647
_cell_length_c   15.24658513
_cell_angle_alpha   90.00000000
_cell_angle_beta   90.00000000
_cell_angle_gamma   95.64897062
_symmetry_Int_Tables_number   1
_chemical_formula_structural   CdCu2(BO3)2
_chemical_formula_sum   'Cd4 Cu8 B8 O24'
_cell_volume   514.94249376
_cell_formula_units_Z   4
loop_
 _symmetry_equiv_pos_site_id
 _symmetry_equiv_pos_as_xyz
  1  'x, y, z'
loop_
 _atom_site_type_symbol
 _atom_site_label
 _atom_site_symmetry_multiplicity
 _atom_site_fract_x
 _atom_site_fract_y
 _atom_site_fract_z
 _atom_site_occupancy
  Cd  Cd0  1  0.21246742  0.38617908  0.13311964  1
  Cd  Cd1  1  0.78753258  0.11382092  0.63311964  1
  Cd  Cd2  1  0.21246742  0.88617908  0.36688036  1
  Cd  Cd3  1  0.78753258  0.61382092  0.86688036  1
  Cu  Cu4  1  0.68738417  0.13760682  0.04097968  1
  Cu  Cu5  1  0.68738417  0.63760682  0.45902032  1
  Cu  Cu6  1  0.31261583  0.36239318  0.54097968  1
  Cu  Cu7  1  0.31261583  0.86239318  0.95902032  1
  Cu  Cu8  1  0.31968955  0.36437676  0.75352054  1
  Cu  Cu9  1  0.68031045  0.13562324  0.25352054  1
  Cu  Cu10  1  0.31968955  0.86437676  0.74647946  1
  Cu  Cu11  1  0.68031045  0.63562324  0.24647946  1
  B  B12  1  0.21179191  0.41976263  0.34896159  1
  B  B13  1  0.89169686  0.68530823  0.08835744  1
  B  B14  1  0.21179191  0.91976263  0.15103841  1
  B  B15  1  0.78820809  0.58023737  0.65103841  1
  B  B16  1  0.89169686  0.18530823  0.41164256  1
  B  B17  1  0.10830314  0.31469177  0.91164256  1
  B  B18  1  0.78820809  0.08023737  0.84896159  1
  B  B19  1  0.10830314  0.81469177  0.58835744  1
  O  O20  1  0.71773826  0.56312665  0.12447455  1
  O  O21  1  0.31913428  0.76264540  0.85093101  1
  O  O22  1  0.71773826  0.06312665  0.37552545  1
  O  O23  1  0.68086572  0.73735460  0.35093101  1
  O  O24  1  0.95967279  0.21047903  0.49724132  1
  O  O25  1  0.26715601  0.99000939  0.22830752  1
  O  O26  1  0.73284399  0.50999061  0.72830752  1
  O  O27  1  0.04032721  0.28952097  0.99724132  1
  O  O28  1  0.28226174  0.43687335  0.87552545  1
  O  O29  1  0.31913428  0.26264540  0.64906899  1
  O  O30  1  0.00012003  0.21438016  0.84453787  1
  O  O31  1  0.68086572  0.23735460  0.14906899  1
  O  O32  1  0.65416970  0.03171907  0.92921883  1
  O  O33  1  0.95967279  0.71047903  0.00275868  1
  O  O34  1  0.73284399  0.00999061  0.77169248  1
  O  O35  1  0.00012003  0.71438016  0.65546213  1
  O  O36  1  0.99987997  0.28561984  0.34453787  1
  O  O37  1  0.28226174  0.93687335  0.62447455  1
  O  O38  1  0.65416970  0.53171907  0.57078117  1
  O  O39  1  0.26715601  0.49000939  0.27169248  1
  O  O40  1  0.34583030  0.46828093  0.42921883  1
  O  O41  1  0.34583030  0.96828093  0.07078117  1
  O  O42  1  0.99987997  0.78561984  0.15546213  1
  O  O43  1  0.04032721  0.78952097  0.50275868  1
