# generated using pymatgen
data_Na3Fe5O9
_symmetry_space_group_name_H-M   'P 1'
_cell_length_a   5.41239585
_cell_length_b   9.18325883
_cell_length_c   9.18325905
_cell_angle_alpha   84.00392090
_cell_angle_beta   90.45749729
_cell_angle_gamma   90.45750437
_symmetry_Int_Tables_number   1
_chemical_formula_structural   Na3Fe5O9
_chemical_formula_sum   'Na6 Fe10 O18'
_cell_volume   453.91612638
_cell_formula_units_Z   2
loop_
 _symmetry_equiv_pos_site_id
 _symmetry_equiv_pos_as_xyz
  1  'x, y, z'
loop_
 _atom_site_type_symbol
 _atom_site_label
 _atom_site_symmetry_multiplicity
 _atom_site_fract_x
 _atom_site_fract_y
 _atom_site_fract_z
 _atom_site_occupancy
  Na  Na0  1  0.73603095  0.68124614  0.83721852  1
  Na  Na1  1  0.76396905  0.16278148  0.31875386  1
  Na  Na2  1  0.26396905  0.31875386  0.16278148  1
  Na  Na3  1  0.23603095  0.83721852  0.68124614  1
  Na  Na4  1  0.75000000  0.40884125  0.59115875  1
  Na  Na5  1  0.25000000  0.59115875  0.40884125  1
  Fe  Fe6  1  0.71500422  0.56533815  0.20272813  1
  Fe  Fe7  1  0.78499578  0.79727187  0.43466185  1
  Fe  Fe8  1  0.28499578  0.43466185  0.79727187  1
  Fe  Fe9  1  0.21500422  0.20272813  0.56533815  1
  Fe  Fe10  1  0.78212029  0.30015349  0.97958590  1
  Fe  Fe11  1  0.71787971  0.02041410  0.69984651  1
  Fe  Fe12  1  0.21787971  0.69984651  0.02041410  1
  Fe  Fe13  1  0.28212029  0.97958590  0.30015349  1
  Fe  Fe14  1  0.75000000  0.93610640  0.06389360  1
  Fe  Fe15  1  0.25000000  0.06389360  0.93610640  1
  O  O16  1  0.88062816  0.72310760  0.08505706  1
  O  O17  1  0.61937184  0.91494294  0.27689240  1
  O  O18  1  0.11937184  0.27689240  0.91494294  1
  O  O19  1  0.38062816  0.08505706  0.72310760  1
  O  O20  1  0.63225934  0.43252634  0.83468176  1
  O  O21  1  0.86774066  0.16531824  0.56747366  1
  O  O22  1  0.36774066  0.56747366  0.16531824  1
  O  O23  1  0.13225934  0.83468176  0.43252634  1
  O  O24  1  0.82512884  0.37798242  0.16388073  1
  O  O25  1  0.67487116  0.83611927  0.62201758  1
  O  O26  1  0.17487116  0.62201758  0.83611927  1
  O  O27  1  0.32512884  0.16388073  0.37798242  1
  O  O28  1  0.57086756  0.13397493  0.02948093  1
  O  O29  1  0.92913244  0.97051907  0.86602507  1
  O  O30  1  0.42913244  0.86602507  0.97051907  1
  O  O31  1  0.07086756  0.02948093  0.13397493  1
  O  O32  1  0.75000000  0.59529076  0.40470924  1
  O  O33  1  0.25000000  0.40470924  0.59529076  1
