# generated using pymatgen
data_Sb2OsC4(OF3)4
_symmetry_space_group_name_H-M   'P 1'
_cell_length_a   9.00271453
_cell_length_b   10.67607865
_cell_length_c   16.34168797
_cell_angle_alpha   90.00000000
_cell_angle_beta   90.00000000
_cell_angle_gamma   90.00000000
_symmetry_Int_Tables_number   1
_chemical_formula_structural   Sb2OsC4(OF3)4
_chemical_formula_sum   'Sb8 Os4 C16 O16 F48'
_cell_volume   1570.65990525
_cell_formula_units_Z   4
loop_
 _symmetry_equiv_pos_site_id
 _symmetry_equiv_pos_as_xyz
  1  'x, y, z'
loop_
 _atom_site_type_symbol
 _atom_site_label
 _atom_site_symmetry_multiplicity
 _atom_site_fract_x
 _atom_site_fract_y
 _atom_site_fract_z
 _atom_site_occupancy
  Sb  Sb0  1  0.29597800  0.58880440  0.88667383  1
  Sb  Sb1  1  0.51768939  0.11679035  0.89341232  1
  Sb  Sb2  1  0.79597800  0.41119560  0.11332617  1
  Sb  Sb3  1  0.29597800  0.91119560  0.38667383  1
  Sb  Sb4  1  0.01768939  0.88320965  0.10658768  1
  Sb  Sb5  1  0.01768939  0.61679035  0.60658768  1
  Sb  Sb6  1  0.51768939  0.38320965  0.39341232  1
  Sb  Sb7  1  0.79597800  0.08880440  0.61332617  1
  Os  Os8  1  0.43340024  0.81559629  0.16644387  1
  Os  Os9  1  0.93340024  0.31559629  0.33355613  1
  Os  Os10  1  0.43340024  0.68440371  0.66644387  1
  Os  Os11  1  0.93340024  0.18440371  0.83355613  1
  C  C12  1  0.09838754  0.22479524  0.76612591  1
  C  C13  1  0.50533791  0.99298333  0.15675595  1
  C  C14  1  0.00533791  0.00701667  0.84324405  1
  C  C15  1  0.09838754  0.27520476  0.26612591  1
  C  C16  1  0.00533791  0.49298333  0.34324405  1
  C  C17  1  0.59838754  0.77520476  0.23387409  1
  C  C18  1  0.54188338  0.73604816  0.57232614  1
  C  C19  1  0.35029444  0.85665727  0.68035686  1
  C  C20  1  0.85029444  0.14334273  0.31964314  1
  C  C21  1  0.54188338  0.76395184  0.07232614  1
  C  C22  1  0.35029444  0.64334273  0.18035686  1
  C  C23  1  0.85029444  0.35665727  0.81964314  1
  C  C24  1  0.04188338  0.26395184  0.42767386  1
  C  C25  1  0.04188338  0.23604816  0.92767386  1
  C  C26  1  0.50533791  0.50701667  0.65675595  1
  C  C27  1  0.59838754  0.72479524  0.73387409  1
  O  O28  1  0.69755431  0.75296830  0.27555737  1
  O  O29  1  0.10507694  0.23291728  0.48513261  1
  O  O30  1  0.54188063  0.09519010  0.15564534  1
  O  O31  1  0.10507694  0.26708272  0.98513261  1
  O  O32  1  0.04188063  0.59519010  0.34435466  1
  O  O33  1  0.80388770  0.45507309  0.81034001  1
  O  O34  1  0.69755431  0.74703170  0.77555737  1
  O  O35  1  0.80388770  0.04492691  0.31034001  1
  O  O36  1  0.04188063  0.90480990  0.84435466  1
  O  O37  1  0.60507694  0.73291728  0.01486739  1
  O  O38  1  0.30388770  0.95507309  0.68965999  1
  O  O39  1  0.19755431  0.24703170  0.72444263  1
  O  O40  1  0.54188063  0.40480990  0.65564534  1
  O  O41  1  0.60507694  0.76708272  0.51486739  1
  O  O42  1  0.19755431  0.25296830  0.22444263  1
  O  O43  1  0.30388770  0.54492691  0.18965999  1
  F  F44  1  0.00430871  0.43385821  0.12955873  1
  F  F45  1  0.29398613  0.88274494  0.26168548  1
  F  F46  1  0.26764480  0.41549731  0.86284800  1
  F  F47  1  0.80781444  0.60077046  0.62069127  1
  F  F48  1  0.52614702  0.99829797  0.98077461  1
  F  F49  1  0.50239677  0.25336082  0.47181169  1
  F  F50  1  0.24476473  0.62926606  0.59435979  1
  F  F51  1  0.02614702  0.49829797  0.51922539  1
  F  F52  1  0.80684309  0.43179137  0.99791839  1
  F  F53  1  0.74476473  0.12926606  0.90564021  1
  F  F54  1  0.29398613  0.61725506  0.76168548  1
  F  F55  1  0.55358293  0.51581038  0.31792824  1
  F  F56  1  0.02614702  0.00170203  0.01922539  1
  F  F57  1  0.03944747  0.76215992  0.19144007  1
  F  F58  1  0.00239677  0.75336082  0.02818831  1
  F  F59  1  0.30781444  0.39922954  0.37930873  1
  F  F60  1  0.55358293  0.98418962  0.81792824  1
  F  F61  1  0.82541484  0.26545265  0.60709038  1
  F  F62  1  0.24476473  0.87073394  0.09435979  1
  F  F63  1  0.52614702  0.50170203  0.48077461  1
  F  F64  1  0.80781444  0.89922954  0.12069127  1
  F  F65  1  0.30684309  0.56820863  0.00208161  1
  F  F66  1  0.79398613  0.38274494  0.23831452  1
  F  F67  1  0.00239677  0.74663918  0.52818831  1
  F  F68  1  0.05358293  0.01581038  0.18207176  1
  F  F69  1  0.58705859  0.10878876  0.61857215  1
  F  F70  1  0.82541484  0.23454735  0.10709038  1
  F  F71  1  0.76764480  0.58450269  0.13715200  1
  F  F72  1  0.26764480  0.08450269  0.36284800  1
  F  F73  1  0.79398613  0.11725506  0.73831452  1
  F  F74  1  0.32541484  0.73454735  0.39290962  1
  F  F75  1  0.03944747  0.73784008  0.69144007  1
  F  F76  1  0.30781444  0.10077046  0.87930873  1
  F  F77  1  0.05358293  0.48418962  0.68207176  1
  F  F78  1  0.50239677  0.24663918  0.97181169  1
  F  F79  1  0.76764480  0.91549731  0.63715200  1
  F  F80  1  0.30684309  0.93179137  0.50208161  1
  F  F81  1  0.58705859  0.39121124  0.11857215  1
  F  F82  1  0.08705859  0.89121124  0.38142785  1
  F  F83  1  0.53944747  0.23784008  0.80855993  1
  F  F84  1  0.50430871  0.56614179  0.87044127  1
  F  F85  1  0.74476473  0.37073394  0.40564021  1
  F  F86  1  0.00430871  0.06614179  0.62955873  1
  F  F87  1  0.08705859  0.60878876  0.88142785  1
  F  F88  1  0.50430871  0.93385821  0.37044127  1
  F  F89  1  0.53944747  0.26215992  0.30855993  1
  F  F90  1  0.32541484  0.76545265  0.89290962  1
  F  F91  1  0.80684309  0.06820863  0.49791839  1
