# generated using pymatgen
data_Y2CrS4
_symmetry_space_group_name_H-M   'P 1'
_cell_length_a   7.52054483
_cell_length_b   12.58706025
_cell_length_c   12.58420571
_cell_angle_alpha   90.00000000
_cell_angle_beta   90.00000000
_cell_angle_gamma   90.00000000
_symmetry_Int_Tables_number   1
_chemical_formula_structural   Y2CrS4
_chemical_formula_sum   'Y16 Cr8 S32'
_cell_volume   1191.24042920
_cell_formula_units_Z   8
loop_
 _symmetry_equiv_pos_site_id
 _symmetry_equiv_pos_as_xyz
  1  'x, y, z'
loop_
 _atom_site_type_symbol
 _atom_site_label
 _atom_site_symmetry_multiplicity
 _atom_site_fract_x
 _atom_site_fract_y
 _atom_site_fract_z
 _atom_site_occupancy
  Y  Y0  1  0.63125904  0.50665421  0.36541123  1
  Y  Y1  1  0.13149115  0.50760274  0.36494217  1
  Y  Y2  1  0.63125904  1.00665421  0.13458877  1
  Y  Y3  1  0.36874096  1.00665421  0.63458877  1
  Y  Y4  1  0.86850885  0.50760274  0.86494217  1
  Y  Y5  1  0.36874096  0.50665421  0.86541123  1
  Y  Y6  1  0.61487468  0.17432583  0.87370470  1
  Y  Y7  1  0.38512532  0.67432583  0.12629530  1
  Y  Y8  1  0.88675489  0.31409243  0.10869079  1
  Y  Y9  1  0.88675489  0.81409243  0.39130921  1
  Y  Y10  1  0.11324511  0.31409243  0.60869079  1
  Y  Y11  1  0.38512532  0.17432583  0.37370470  1
  Y  Y12  1  0.61487468  0.67432583  0.62629530  1
  Y  Y13  1  0.11324511  0.81409243  0.89130921  1
  Y  Y14  1  0.86850885  0.00760274  0.63505783  1
  Y  Y15  1  0.13149115  0.00760274  0.13505783  1
  Cr  Cr16  1  0.88063412  0.17813243  0.37392280  1
  Cr  Cr17  1  0.88063412  0.67813243  0.12607720  1
  Cr  Cr18  1  0.61591665  0.30619685  0.61230108  1
  Cr  Cr19  1  0.11936588  0.17813243  0.87392280  1
  Cr  Cr20  1  0.38408335  0.80619685  0.38769892  1
  Cr  Cr21  1  0.61591665  0.80619685  0.88769892  1
  Cr  Cr22  1  0.38408335  0.30619685  0.11230108  1
  Cr  Cr23  1  0.11936588  0.67813243  0.62607720  1
  S  S24  1  0.85912607  0.72899761  0.76988714  1
  S  S25  1  0.61404852  0.36984235  0.97356664  1
  S  S26  1  0.38213623  0.97588606  0.29021159  1
  S  S27  1  0.88497103  0.12105714  0.00915827  1
  S  S28  1  0.88497103  0.62105714  0.49084173  1
  S  S29  1  0.14087393  0.72899761  0.26988714  1
  S  S30  1  0.62602263  0.13339633  0.52728094  1
  S  S31  1  0.38213623  0.47588606  0.20978841  1
  S  S32  1  0.88208521  0.50409960  0.20811939  1
  S  S33  1  0.38595148  0.86984235  0.02643336  1
  S  S34  1  0.62602263  0.63339633  0.97271906  1
  S  S35  1  0.87598736  0.85921316  0.04944273  1
  S  S36  1  0.61404852  0.86984235  0.52643336  1
  S  S37  1  0.61786377  0.97588606  0.79021159  1
  S  S38  1  0.11502897  0.12105714  0.50915827  1
  S  S39  1  0.11791479  0.50409960  0.70811939  1
  S  S40  1  0.35642532  0.22350327  0.73756066  1
  S  S41  1  0.11502897  0.62105714  0.99084173  1
  S  S42  1  0.12401264  0.35921316  0.95055727  1
  S  S43  1  0.14087393  0.22899761  0.23011286  1
  S  S44  1  0.88208521  0.00409960  0.29188061  1
  S  S45  1  0.61786377  0.47588606  0.70978841  1
  S  S46  1  0.11791479  0.00409960  0.79188061  1
  S  S47  1  0.38595148  0.36984235  0.47356664  1
  S  S48  1  0.85912607  0.22899761  0.73011286  1
  S  S49  1  0.12401264  0.85921316  0.54944273  1
  S  S50  1  0.64357468  0.22350327  0.23756066  1
  S  S51  1  0.64357468  0.72350327  0.26243934  1
  S  S52  1  0.35642532  0.72350327  0.76243934  1
  S  S53  1  0.37397737  0.63339633  0.47271906  1
  S  S54  1  0.37397737  0.13339633  0.02728094  1
  S  S55  1  0.87598736  0.35921316  0.45055727  1
