# generated using pymatgen
data_ZnB4O7
_symmetry_space_group_name_H-M   'P 1'
_cell_length_a   5.22112821
_cell_length_b   6.36384359
_cell_length_c   6.36384383
_cell_angle_alpha   118.06881242
_cell_angle_beta   90.00000000
_cell_angle_gamma   90.00000000
_symmetry_Int_Tables_number   1
_chemical_formula_structural   ZnB4O7
_chemical_formula_sum   'Zn2 B8 O14'
_cell_volume   186.57805426
_cell_formula_units_Z   2
loop_
 _symmetry_equiv_pos_site_id
 _symmetry_equiv_pos_as_xyz
  1  'x, y, z'
loop_
 _atom_site_type_symbol
 _atom_site_label
 _atom_site_symmetry_multiplicity
 _atom_site_fract_x
 _atom_site_fract_y
 _atom_site_fract_z
 _atom_site_occupancy
  Zn  Zn0  1  0.75000000  0.76610294  0.76610294  1
  Zn  Zn1  1  0.25000000  0.23389706  0.23389706  1
  B  B2  1  0.50000000  0.29757081  0.70242919  1
  B  B3  1  0.00000000  0.70242919  0.29757081  1
  B  B4  1  0.00000000  0.29757081  0.70242919  1
  B  B5  1  0.25000000  0.92463140  0.68956409  1
  B  B6  1  0.25000000  0.68956409  0.92463140  1
  B  B7  1  0.50000000  0.70242919  0.29757081  1
  B  B8  1  0.75000000  0.31043591  0.07536860  1
  B  B9  1  0.75000000  0.07536860  0.31043591  1
  O  O10  1  0.25000000  0.92034115  0.92034115  1
  O  O11  1  0.97694051  0.18930675  0.44580599  1
  O  O12  1  0.75000000  0.07965885  0.07965885  1
  O  O13  1  0.02305949  0.81069325  0.55419401  1
  O  O14  1  0.47694051  0.55419401  0.81069325  1
  O  O15  1  0.25000000  0.75492610  0.19550267  1
  O  O16  1  0.52305949  0.18930675  0.44580599  1
  O  O17  1  0.97694051  0.44580599  0.18930675  1
  O  O18  1  0.75000000  0.80449733  0.24507390  1
  O  O19  1  0.02305949  0.55419401  0.81069325  1
  O  O20  1  0.25000000  0.19550267  0.75492610  1
  O  O21  1  0.52305949  0.44580599  0.18930675  1
  O  O22  1  0.75000000  0.24507390  0.80449733  1
  O  O23  1  0.47694051  0.81069325  0.55419401  1
