# generated using pymatgen
data_CaTi2O4
_symmetry_space_group_name_H-M   'P 1'
_cell_length_a   6.38430044
_cell_length_b   6.15028243
_cell_length_c   24.68463412
_cell_angle_alpha   60.11183878
_cell_angle_beta   60.95529500
_cell_angle_gamma   61.20531493
_symmetry_Int_Tables_number   1
_chemical_formula_structural   CaTi2O4
_chemical_formula_sum   'Ca8 Ti16 O32'
_cell_volume   696.93933700
_cell_formula_units_Z   8
loop_
 _symmetry_equiv_pos_site_id
 _symmetry_equiv_pos_as_xyz
  1  'x, y, z'
loop_
 _atom_site_type_symbol
 _atom_site_label
 _atom_site_symmetry_multiplicity
 _atom_site_fract_x
 _atom_site_fract_y
 _atom_site_fract_z
 _atom_site_occupancy
  Ca  Ca0  1  0.12456254  0.13272793  0.02749590  1
  Ca  Ca1  1  0.00725899  0.49839921  0.12398515  1
  Ca  Ca2  1  0.11420560  0.12713942  0.28287864  1
  Ca  Ca3  1  0.00469109  0.49783433  0.37491006  1
  Ca  Ca4  1  0.99994903  0.49931942  0.62535278  1
  Ca  Ca5  1  0.50161636  0.50068006  0.49925613  1
  Ca  Ca6  1  0.00374481  0.49834930  0.87488915  1
  Ca  Ca7  1  0.50577151  0.48843265  0.75434030  1
  Ti  Ti8  1  0.49707539  0.50375211  0.12589693  1
  Ti  Ti9  1  0.49334551  0.51492105  0.24420285  1
  Ti  Ti10  1  0.49707539  0.99558480  0.12589693  1
  Ti  Ti11  1  0.12987169  0.11858339  0.53324013  1
  Ti  Ti12  1  0.49652888  0.50697896  0.37221996  1
  Ti  Ti13  1  0.85631237  0.88268328  0.21958027  1
  Ti  Ti14  1  0.13351523  0.11671116  0.78326561  1
  Ti  Ti15  1  0.49652888  0.00761332  0.37221996  1
  Ti  Ti16  1  0.49932357  0.50342178  0.62580418  1
  Ti  Ti17  1  0.86599107  0.88379488  0.46660454  1
  Ti  Ti18  1  0.49932357  0.99403794  0.62580418  1
  Ti  Ti19  1  0.49969977  0.95884245  0.88156509  1
  Ti  Ti20  1  0.49969977  0.51519742  0.88156509  1
  Ti  Ti21  1  0.87079641  0.88125858  0.71667111  1
  Ti  Ti22  1  0.49527673  0.50710992  0.99762611  1
  Ti  Ti23  1  0.85430776  0.88082797  0.97100883  1
  O  O24  1  0.30263072  0.24387940  0.06238426  1
  O  O25  1  0.30066168  0.24798887  0.17584015  1
  O  O26  1  0.30263072  0.70395483  0.06238426  1
  O  O27  1  0.70115096  0.26543534  0.06699484  1
  O  O28  1  0.22495919  0.75750165  0.19000888  1
  O  O29  1  0.29963801  0.25441820  0.31129371  1
  O  O30  1  0.72898036  0.25620505  0.18934009  1
  O  O31  1  0.27075644  0.23825572  0.43818253  1
  O  O32  1  0.29963801  0.70076895  0.31129371  1
  O  O33  1  0.73163902  0.75661982  0.06378008  1
  O  O34  1  0.69209595  0.27477851  0.31458726  1
  O  O35  1  0.72898036  0.75745423  0.18934009  1
  O  O36  1  0.26294577  0.22084234  0.56590925  1
  O  O37  1  0.23850310  0.77049848  0.43012474  1
  O  O38  1  0.73554405  0.25122068  0.43072752  1
  O  O39  1  0.27113091  0.23845626  0.68798939  1
  O  O40  1  0.26294577  0.75257389  0.56590925  1
  O  O41  1  0.72976004  0.75887234  0.31312357  1
  O  O42  1  0.76297293  0.23870676  0.56490339  1
  O  O43  1  0.73554405  0.79032619  0.43072752  1
  O  O44  1  0.24064080  0.75908286  0.68529812  1
  O  O45  1  0.26166183  0.21271967  0.81768368  1
  O  O46  1  0.73521023  0.24762638  0.68435767  1
  O  O47  1  0.31752046  0.25210344  0.91956766  1
  O  O48  1  0.26166183  0.75488176  0.81768368  1
  O  O49  1  0.72730516  0.76151254  0.56241769  1
  O  O50  1  0.77869509  0.22854520  0.81605363  1
  O  O51  1  0.73521023  0.77973470  0.68435767  1
  O  O52  1  0.22240059  0.74889659  0.94495181  1
  O  O53  1  0.73091128  0.25364333  0.94163673  1
  O  O54  1  0.72829227  0.75939820  0.81322758  1
  O  O55  1  0.73091128  0.74889748  0.94163673  1
