# generated using pymatgen
data_Ce2Fe17N3
_symmetry_space_group_name_H-M   'P 1'
_cell_length_a   6.52917309
_cell_length_b   6.52917309
_cell_length_c   6.52917308
_cell_angle_alpha   83.31387380
_cell_angle_beta   83.31387374
_cell_angle_gamma   83.31387382
_symmetry_Int_Tables_number   1
_chemical_formula_structural   Ce2Fe17N3
_chemical_formula_sum   'Ce2 Fe17 N3'
_cell_volume   273.06897121
_cell_formula_units_Z   1
loop_
 _symmetry_equiv_pos_site_id
 _symmetry_equiv_pos_as_xyz
  1  'x, y, z'
loop_
 _atom_site_type_symbol
 _atom_site_label
 _atom_site_symmetry_multiplicity
 _atom_site_fract_x
 _atom_site_fract_y
 _atom_site_fract_z
 _atom_site_occupancy
  N  N0  1  0.50000000  0.00000000  0.50000000  1
  N  N1  1  0.00000000  0.50000000  0.50000000  1
  N  N2  1  0.50000000  0.50000000  0.00000000  1
  Fe  Fe3  1  0.90506405  0.90506405  0.90506405  1
  Fe  Fe4  1  0.00000000  0.00000000  0.50000000  1
  Fe  Fe5  1  0.50000000  0.00000000  0.00000000  1
  Fe  Fe6  1  0.00000000  0.50000000  0.00000000  1
  Fe  Fe7  1  0.28136754  0.71863246  0.00000000  1
  Fe  Fe8  1  0.00000000  0.28136754  0.71863246  1
  Fe  Fe9  1  0.71863246  0.00000000  0.28136754  1
  Fe  Fe10  1  0.71863246  0.28136754  0.00000000  1
  Fe  Fe11  1  0.00000000  0.71863246  0.28136754  1
  Fe  Fe12  1  0.28136754  0.00000000  0.71863246  1
  Fe  Fe13  1  0.65786285  0.14262711  0.65786285  1
  Fe  Fe14  1  0.65786285  0.65786285  0.14262711  1
  Fe  Fe15  1  0.14262711  0.65786285  0.65786285  1
  Fe  Fe16  1  0.85737289  0.34213715  0.34213715  1
  Fe  Fe17  1  0.34213715  0.85737289  0.34213715  1
  Fe  Fe18  1  0.34213715  0.34213715  0.85737289  1
  Fe  Fe19  1  0.09493595  0.09493595  0.09493595  1
  Ce  Ce20  1  0.65697502  0.65697502  0.65697502  1
  Ce  Ce21  1  0.34302498  0.34302498  0.34302498  1
