# generated using pymatgen
data_BPBr2NCl3
_symmetry_space_group_name_H-M   'P 1'
_cell_length_a   9.30525944
_cell_length_b   9.30525958
_cell_length_c   10.49192312
_cell_angle_alpha   90.00000000
_cell_angle_beta   90.00000000
_cell_angle_gamma   95.08229895
_symmetry_Int_Tables_number   1
_chemical_formula_structural   BPBr2NCl3
_chemical_formula_sum   'B4 P4 Br8 N4 Cl12'
_cell_volume   904.90143453
_cell_formula_units_Z   4
loop_
 _symmetry_equiv_pos_site_id
 _symmetry_equiv_pos_as_xyz
  1  'x, y, z'
loop_
 _atom_site_type_symbol
 _atom_site_label
 _atom_site_symmetry_multiplicity
 _atom_site_fract_x
 _atom_site_fract_y
 _atom_site_fract_z
 _atom_site_occupancy
  B  B0  1  0.58024532  0.41975468  0.00000000  1
  B  B1  1  0.91975468  0.08024532  0.50000000  1
  B  B2  1  0.41975468  0.58024532  0.00000000  1
  B  B3  1  0.08024532  0.91975468  0.50000000  1
  P  P4  1  0.99921936  0.99921936  0.24651142  1
  P  P5  1  0.00078064  0.00078064  0.75348858  1
  P  P6  1  0.49921936  0.49921936  0.25348858  1
  P  P7  1  0.50078064  0.50078064  0.74651142  1
  Br  Br8  1  0.29686185  0.96591847  0.48002698  1
  Br  Br9  1  0.20313815  0.53408153  0.98002698  1
  Br  Br10  1  0.53408153  0.20313815  0.98002698  1
  Br  Br11  1  0.79686185  0.46591847  0.01997302  1
  Br  Br12  1  0.46591847  0.79686185  0.01997302  1
  Br  Br13  1  0.70313815  0.03408153  0.51997302  1
  Br  Br14  1  0.03408153  0.70313815  0.51997302  1
  Br  Br15  1  0.96591847  0.29686185  0.48002698  1
  N  N16  1  0.48877095  0.48877095  0.10390504  1
  N  N17  1  0.01122905  0.01122905  0.60390504  1
  N  N18  1  0.51122905  0.51122905  0.89609496  1
  N  N19  1  0.98877095  0.98877095  0.39609496  1
  Cl  Cl20  1  0.45207752  0.68561145  0.67142003  1
  Cl  Cl21  1  0.35308784  0.35308784  0.67485921  1
  Cl  Cl22  1  0.18561145  0.95207752  0.82857997  1
  Cl  Cl23  1  0.64691216  0.64691216  0.32514079  1
  Cl  Cl24  1  0.81438855  0.04792248  0.17142003  1
  Cl  Cl25  1  0.54792248  0.31438855  0.32857997  1
  Cl  Cl26  1  0.95207752  0.18561145  0.82857997  1
  Cl  Cl27  1  0.04792248  0.81438855  0.17142003  1
  Cl  Cl28  1  0.14691216  0.14691216  0.17485921  1
  Cl  Cl29  1  0.68561145  0.45207752  0.67142003  1
  Cl  Cl30  1  0.85308784  0.85308784  0.82514079  1
  Cl  Cl31  1  0.31438855  0.54792248  0.32857997  1
