# generated using pymatgen
data_FeWClO4
_symmetry_space_group_name_H-M   'P 1'
_cell_length_a   5.57651428
_cell_length_b   6.79911593
_cell_length_c   6.79911593
_cell_angle_alpha   90.00000000
_cell_angle_beta   90.00000000
_cell_angle_gamma   90.00000000
_symmetry_Int_Tables_number   1
_chemical_formula_structural   FeWClO4
_chemical_formula_sum   'Fe2 W2 Cl2 O8'
_cell_volume   257.79097627
_cell_formula_units_Z   2
loop_
 _symmetry_equiv_pos_site_id
 _symmetry_equiv_pos_as_xyz
  1  'x, y, z'
loop_
 _atom_site_type_symbol
 _atom_site_label
 _atom_site_symmetry_multiplicity
 _atom_site_fract_x
 _atom_site_fract_y
 _atom_site_fract_z
 _atom_site_occupancy
  Fe  Fe0  1  0.27242520  0.25000000  0.25000000  1
  Fe  Fe1  1  0.72757480  0.75000000  0.75000000  1
  W  W2  1  0.00000000  0.25000000  0.75000000  1
  W  W3  1  0.00000000  0.75000000  0.25000000  1
  Cl  Cl4  1  0.32552001  0.75000000  0.75000000  1
  Cl  Cl5  1  0.67447999  0.25000000  0.25000000  1
  O  O6  1  0.18973820  0.25000000  0.53376481  1
  O  O7  1  0.18973820  0.96623519  0.25000000  1
  O  O8  1  0.81026180  0.03376481  0.75000000  1
  O  O9  1  0.81026180  0.46623519  0.75000000  1
  O  O10  1  0.81026180  0.75000000  0.46623519  1
  O  O11  1  0.18973820  0.53376481  0.25000000  1
  O  O12  1  0.18973820  0.25000000  0.96623519  1
  O  O13  1  0.81026180  0.75000000  0.03376481  1
