# generated using pymatgen
data_Ca3Fe2Cl2O5
_symmetry_space_group_name_H-M   'P 1'
_cell_length_a   3.91603553
_cell_length_b   3.91603421
_cell_length_c   12.14261014
_cell_angle_alpha   99.27956372
_cell_angle_beta   99.27956067
_cell_angle_gamma   90.00000519
_symmetry_Int_Tables_number   1
_chemical_formula_structural   Ca3Fe2Cl2O5
_chemical_formula_sum   'Ca3 Fe2 Cl2 O5'
_cell_volume   181.30439790
_cell_formula_units_Z   1
loop_
 _symmetry_equiv_pos_site_id
 _symmetry_equiv_pos_as_xyz
  1  'x, y, z'
loop_
 _atom_site_type_symbol
 _atom_site_label
 _atom_site_symmetry_multiplicity
 _atom_site_fract_x
 _atom_site_fract_y
 _atom_site_fract_z
 _atom_site_occupancy
  Ca  Ca0  1  0.34755713  0.34755713  0.69511425  1
  Ca  Ca1  1  0.65244287  0.65244287  0.30488575  1
  Ca  Ca2  1  0.50000000  0.50000000  0.00000000  1
  Fe  Fe3  1  0.08137517  0.08137517  0.16274934  1
  Fe  Fe4  1  0.91862483  0.91862483  0.83725066  1
  Cl  Cl5  1  0.20236308  0.20236308  0.40472616  1
  Cl  Cl6  1  0.79763692  0.79763692  0.59527384  1
  O  O7  1  0.40759747  0.90759747  0.81519394  1
  O  O8  1  0.90759747  0.40759747  0.81519394  1
  O  O9  1  0.59240253  0.09240253  0.18480606  1
  O  O10  1  0.09240253  0.59240253  0.18480606  1
  O  O11  1  0.00000000  0.00000000  0.00000000  1
