# generated using pymatgen
data_CaMg(SiO3)2
_symmetry_space_group_name_H-M   'P 1'
_cell_length_a   5.51826764
_cell_length_b   7.03863471
_cell_length_c   7.03863513
_cell_angle_alpha   88.63825283
_cell_angle_beta   75.83256315
_cell_angle_gamma   75.83256154
_symmetry_Int_Tables_number   1
_chemical_formula_structural   CaMg(SiO3)2
_chemical_formula_sum   'Ca2 Mg2 Si4 O12'
_cell_volume   256.82062350
_cell_formula_units_Z   2
loop_
 _symmetry_equiv_pos_site_id
 _symmetry_equiv_pos_as_xyz
  1  'x, y, z'
loop_
 _atom_site_type_symbol
 _atom_site_label
 _atom_site_symmetry_multiplicity
 _atom_site_fract_x
 _atom_site_fract_y
 _atom_site_fract_z
 _atom_site_occupancy
  Ca  Ca0  1  0.75000000  0.89156992  0.10843008  1
  Ca  Ca1  1  0.25000000  0.10843008  0.89156992  1
  Mg  Mg2  1  0.25000000  0.75943297  0.24056703  1
  Mg  Mg3  1  0.75000000  0.24056703  0.75943297  1
  Si  Si4  1  0.29004288  0.61759158  0.78292795  1
  Si  Si5  1  0.20995712  0.21707205  0.38240842  1
  Si  Si6  1  0.70995712  0.38240842  0.21707205  1
  Si  Si7  1  0.79004288  0.78292795  0.61759158  1
  O  O8  1  0.39125867  0.39177166  0.83503131  1
  O  O9  1  0.95659740  0.36514644  0.32019911  1
  O  O10  1  0.54340260  0.67980089  0.63485356  1
  O  O11  1  0.31715354  0.02995995  0.22347955  1
  O  O12  1  0.18284646  0.77652045  0.97004005  1
  O  O13  1  0.10874133  0.16496869  0.60822834  1
  O  O14  1  0.81715354  0.22347955  0.02995995  1
  O  O15  1  0.89125867  0.83503131  0.39177166  1
  O  O16  1  0.45659740  0.32019911  0.36514644  1
  O  O17  1  0.60874133  0.60822834  0.16496869  1
  O  O18  1  0.68284646  0.97004005  0.77652045  1
  O  O19  1  0.04340260  0.63485356  0.67980089  1
