# generated using pymatgen
data_BaTbMn2O6
_symmetry_space_group_name_H-M   'P 1'
_cell_length_a   5.57074043
_cell_length_b   5.57073884
_cell_length_c   7.80752805
_cell_angle_alpha   90.00000000
_cell_angle_beta   90.00000000
_cell_angle_gamma   88.95506551
_symmetry_Int_Tables_number   1
_chemical_formula_structural   BaTbMn2O6
_chemical_formula_sum   'Ba2 Tb2 Mn4 O12'
_cell_volume   242.25181868
_cell_formula_units_Z   2
loop_
 _symmetry_equiv_pos_site_id
 _symmetry_equiv_pos_as_xyz
  1  'x, y, z'
loop_
 _atom_site_type_symbol
 _atom_site_label
 _atom_site_symmetry_multiplicity
 _atom_site_fract_x
 _atom_site_fract_y
 _atom_site_fract_z
 _atom_site_occupancy
  Tb  Tb0  1  0.23467969  0.23467969  0.50000000  1
  Tb  Tb1  1  0.76532031  0.76532031  0.50000000  1
  Ba  Ba2  1  0.24573708  0.24573708  0.00000000  1
  Ba  Ba3  1  0.75426292  0.75426292  0.00000000  1
  Mn  Mn4  1  0.74859964  0.25140036  0.25830617  1
  Mn  Mn5  1  0.25140036  0.74859964  0.25830617  1
  Mn  Mn6  1  0.25140036  0.74859964  0.74169383  1
  Mn  Mn7  1  0.74859964  0.25140036  0.74169383  1
  O  O8  1  0.50000000  0.00000000  0.28681415  1
  O  O9  1  0.27174461  0.72825539  0.00000000  1
  O  O10  1  0.19001533  0.80998467  0.50000000  1
  O  O11  1  0.50000000  0.50000000  0.31311779  1
  O  O12  1  0.80998467  0.19001533  0.50000000  1
  O  O13  1  0.00000000  0.50000000  0.28681415  1
  O  O14  1  0.50000000  0.50000000  0.68688221  1
  O  O15  1  0.00000000  0.00000000  0.76140187  1
  O  O16  1  0.50000000  0.00000000  0.71318585  1
  O  O17  1  0.72825539  0.27174461  0.00000000  1
  O  O18  1  0.00000000  0.00000000  0.23859813  1
  O  O19  1  0.00000000  0.50000000  0.71318585  1
