# generated using pymatgen
data_Sr2Co(ClO)2
_symmetry_space_group_name_H-M   'P 1'
_cell_length_a   4.01505833
_cell_length_b   4.26154064
_cell_length_c   8.17182810
_cell_angle_alpha   105.08343918
_cell_angle_beta   104.22441856
_cell_angle_gamma   89.99331858
_symmetry_Int_Tables_number   1
_chemical_formula_structural   Sr2Co(ClO)2
_chemical_formula_sum   'Sr2 Co1 Cl2 O2'
_cell_volume   130.56170055
_cell_formula_units_Z   1
loop_
 _symmetry_equiv_pos_site_id
 _symmetry_equiv_pos_as_xyz
  1  'x, y, z'
loop_
 _atom_site_type_symbol
 _atom_site_label
 _atom_site_symmetry_multiplicity
 _atom_site_fract_x
 _atom_site_fract_y
 _atom_site_fract_z
 _atom_site_occupancy
  Sr  Sr0  1  0.39426188  0.39424863  0.78851601  1
  Sr  Sr1  1  0.60573825  0.60575167  0.21148416  1
  Co  Co2  1  0.99999952  1.00000004  0.99999929  1
  Cl  Cl3  1  0.82180328  0.82188554  0.64359226  1
  Cl  Cl4  1  0.17819654  0.17811362  0.35640755  1
  O  O5  1  0.49999948  0.00000011  0.99999943  1
  O  O6  1  0.00000005  0.50000039  0.00000030  1
