# generated using pymatgen
data_Sr2Cu3O5
_symmetry_space_group_name_H-M   'P 1'
_cell_length_a   3.45973344
_cell_length_b   3.95161996
_cell_length_c   9.71127687
_cell_angle_alpha   101.73908411
_cell_angle_beta   100.26083841
_cell_angle_gamma   89.99999998
_symmetry_Int_Tables_number   1
_chemical_formula_structural   Sr2Cu3O5
_chemical_formula_sum   'Sr2 Cu3 O5'
_cell_volume   127.82179575
_cell_formula_units_Z   1
loop_
 _symmetry_equiv_pos_site_id
 _symmetry_equiv_pos_as_xyz
  1  'x, y, z'
loop_
 _atom_site_type_symbol
 _atom_site_label
 _atom_site_symmetry_multiplicity
 _atom_site_fract_x
 _atom_site_fract_y
 _atom_site_fract_z
 _atom_site_occupancy
  O  O0  1  0.10383290  0.10383290  0.20766580  1
  O  O1  1  0.89616710  0.89616710  0.79233420  1
  O  O2  1  0.00000000  0.50000000  0.00000000  1
  O  O3  1  0.78082402  0.28082402  0.56164804  1
  O  O4  1  0.21917598  0.71917598  0.43835196  1
  Cu  Cu5  1  0.00000000  0.00000000  0.00000000  1
  Cu  Cu6  1  0.78793821  0.78793821  0.57587642  1
  Cu  Cu7  1  0.21206179  0.21206179  0.42412358  1
  Sr  Sr8  1  0.39422489  0.39422489  0.78844978  1
  Sr  Sr9  1  0.60577511  0.60577511  0.21155022  1
