# generated using pymatgen
data_Tl2ZnN12
_symmetry_space_group_name_H-M   'P 1'
_cell_length_a   6.66731333
_cell_length_b   7.13904426
_cell_length_c   20.88356078
_cell_angle_alpha   90.00000000
_cell_angle_beta   90.00000000
_cell_angle_gamma   90.00000000
_symmetry_Int_Tables_number   1
_chemical_formula_structural   Tl2ZnN12
_chemical_formula_sum   'Tl8 Zn4 N48'
_cell_volume   994.02084161
_cell_formula_units_Z   4
loop_
 _symmetry_equiv_pos_site_id
 _symmetry_equiv_pos_as_xyz
  1  'x, y, z'
loop_
 _atom_site_type_symbol
 _atom_site_label
 _atom_site_symmetry_multiplicity
 _atom_site_fract_x
 _atom_site_fract_y
 _atom_site_fract_z
 _atom_site_occupancy
  Tl  Tl0  1  0.31526808  0.85551182  0.49037165  1
  Tl  Tl1  1  0.29548493  0.62602796  0.30252907  1
  Tl  Tl2  1  0.68473192  0.85551182  0.99037165  1
  Tl  Tl3  1  0.70451507  0.12602796  0.69747093  1
  Tl  Tl4  1  0.68473192  0.35551182  0.50962835  1
  Tl  Tl5  1  0.29548493  0.12602796  0.19747093  1
  Tl  Tl6  1  0.70451507  0.62602796  0.80252907  1
  Tl  Tl7  1  0.31526808  0.35551182  0.00962835  1
  Zn  Zn8  1  0.06618227  0.60416176  0.63317541  1
  Zn  Zn9  1  0.06618227  0.10416176  0.86682459  1
  Zn  Zn10  1  0.93381773  0.60416176  0.13317541  1
  Zn  Zn11  1  0.93381773  0.10416176  0.36682459  1
  N  N12  1  0.06112836  0.70473997  0.05061891  1
  N  N13  1  0.51661089  0.59584748  0.63381769  1
  N  N14  1  0.93887164  0.20473997  0.94938109  1
  N  N15  1  0.06112836  0.20473997  0.44938109  1
  N  N16  1  0.33246204  0.55873904  0.15986860  1
  N  N17  1  0.03948891  0.77256661  0.71038181  1
  N  N18  1  0.83228789  0.72404107  0.38729727  1
  N  N19  1  0.51661089  0.09584748  0.86618231  1
  N  N20  1  0.48338911  0.59584748  0.13381769  1
  N  N21  1  0.69956912  0.12199884  0.10110573  1
  N  N22  1  0.72062311  0.46709595  0.94393394  1
  N  N23  1  0.63367652  0.13153447  0.39508731  1
  N  N24  1  0.17071161  0.83857537  0.05380232  1
  N  N25  1  0.80444990  0.33527677  0.26916293  1
  N  N26  1  0.19555010  0.83527677  0.73083707  1
  N  N27  1  0.65745874  0.39756245  0.24809997  1
  N  N28  1  0.93887164  0.70473997  0.55061891  1
  N  N29  1  0.63367652  0.63153447  0.10491269  1
  N  N30  1  0.72062311  0.96709595  0.55606606  1
  N  N31  1  0.16771211  0.22404107  0.61270273  1
  N  N32  1  0.36632348  0.63153447  0.60491269  1
  N  N33  1  0.97208185  0.82452046  0.37511698  1
  N  N34  1  0.36632348  0.13153447  0.89508731  1
  N  N35  1  0.19555010  0.33527677  0.76916293  1
  N  N36  1  0.27937689  0.46709595  0.44393394  1
  N  N37  1  0.16771211  0.72404107  0.88729727  1
  N  N38  1  0.03948891  0.27256661  0.78961819  1
  N  N39  1  0.02791815  0.82452046  0.87511698  1
  N  N40  1  0.34254126  0.39756245  0.74809997  1
  N  N41  1  0.02791815  0.32452046  0.62488302  1
  N  N42  1  0.34254126  0.89756245  0.75190003  1
  N  N43  1  0.66753796  0.05873904  0.84013140  1
  N  N44  1  0.48338911  0.09584748  0.36618231  1
  N  N45  1  0.30043088  0.62199884  0.89889427  1
  N  N46  1  0.65745874  0.89756245  0.25190003  1
  N  N47  1  0.17071161  0.33857537  0.44619768  1
  N  N48  1  0.27937689  0.96709595  0.05606606  1
  N  N49  1  0.69956912  0.62199884  0.39889427  1
  N  N50  1  0.80444990  0.83527677  0.23083707  1
  N  N51  1  0.96051109  0.27256661  0.28961819  1
  N  N52  1  0.33246204  0.05873904  0.34013140  1
  N  N53  1  0.82928839  0.33857537  0.94619768  1
  N  N54  1  0.82928839  0.83857537  0.55380232  1
  N  N55  1  0.97208185  0.32452046  0.12488302  1
  N  N56  1  0.83228789  0.22404107  0.11270273  1
  N  N57  1  0.66753796  0.55873904  0.65986860  1
  N  N58  1  0.96051109  0.77256661  0.21038181  1
  N  N59  1  0.30043088  0.12199884  0.60110573  1
