# generated using pymatgen
data_La2Ti3(AgO5)2
_symmetry_space_group_name_H-M   'P 1'
_cell_length_a   3.86394725
_cell_length_b   3.86394725
_cell_length_c   14.88329316
_cell_angle_alpha   97.45850952
_cell_angle_beta   97.45850953
_cell_angle_gamma   90.00000009
_symmetry_Int_Tables_number   1
_chemical_formula_structural   La2Ti3(AgO5)2
_chemical_formula_sum   'La2 Ti3 Ag2 O10'
_cell_volume   218.43253538
_cell_formula_units_Z   1
loop_
 _symmetry_equiv_pos_site_id
 _symmetry_equiv_pos_as_xyz
  1  'x, y, z'
loop_
 _atom_site_type_symbol
 _atom_site_label
 _atom_site_symmetry_multiplicity
 _atom_site_fract_x
 _atom_site_fract_y
 _atom_site_fract_z
 _atom_site_occupancy
  O  O0  1  0.79336113  0.79336113  0.58672226  1
  O  O1  1  0.20663887  0.20663887  0.41327774  1
  O  O2  1  0.86927598  0.36927598  0.73855197  1
  O  O3  1  0.36927598  0.86927598  0.73855197  1
  O  O4  1  0.13072402  0.63072402  0.26144803  1
  O  O5  1  0.63072402  0.13072402  0.26144803  1
  O  O6  1  0.93342747  0.93342747  0.86685494  1
  O  O7  1  0.50000000  0.00000000  0.00000000  1
  O  O8  1  0.00000000  0.50000000  0.00000000  1
  O  O9  1  0.06657253  0.06657253  0.13314506  1
  Ti  Ti10  1  0.85410647  0.85410647  0.70821294  1
  Ti  Ti11  1  0.14589353  0.14589353  0.29178706  1
  Ti  Ti12  1  0.00000000  0.00000000  0.00000000  1
  Ag  Ag13  1  0.28536892  0.28536892  0.57073784  1
  Ag  Ag14  1  0.71463108  0.71463108  0.42926216  1
  La  La15  1  0.42574857  0.42574857  0.85149714  1
  La  La16  1  0.57425143  0.57425143  0.14850286  1
