# generated using pymatgen
data_Sr(CrAs)2
_symmetry_space_group_name_H-M   'P 1'
_cell_length_a   4.10426403
_cell_length_b   4.10426327
_cell_length_c   6.78295204
_cell_angle_alpha   107.61038891
_cell_angle_beta   107.61038678
_cell_angle_gamma   89.99999636
_symmetry_Int_Tables_number   1
_chemical_formula_structural   Sr(CrAs)2
_chemical_formula_sum   'Sr1 Cr2 As2'
_cell_volume   103.27215115
_cell_formula_units_Z   1
loop_
 _symmetry_equiv_pos_site_id
 _symmetry_equiv_pos_as_xyz
  1  'x, y, z'
loop_
 _atom_site_type_symbol
 _atom_site_label
 _atom_site_symmetry_multiplicity
 _atom_site_fract_x
 _atom_site_fract_y
 _atom_site_fract_z
 _atom_site_occupancy
  Sr  Sr0  1  -0.00000000  -0.00000000  -0.00000000  1
  Cr  Cr1  1  0.25000000  0.75000000  0.50000000  1
  Cr  Cr2  1  0.75000000  0.25000000  0.50000000  1
  As  As3  1  0.35844692  0.35844692  0.71689385  1
  As  As4  1  0.64155308  0.64155308  0.28310615  1
