# generated using pymatgen
data_Mn4(PO4)3
_symmetry_space_group_name_H-M   'P 1'
_cell_length_a   8.49943689
_cell_length_b   9.87267329
_cell_length_c   8.49943719
_cell_angle_alpha   64.40912961
_cell_angle_beta   60.18361678
_cell_angle_gamma   64.40912742
_symmetry_Int_Tables_number   1
_chemical_formula_structural   Mn4(PO4)3
_chemical_formula_sum   'Mn8 P6 O24'
_cell_volume   536.16773614
_cell_formula_units_Z   2
loop_
 _symmetry_equiv_pos_site_id
 _symmetry_equiv_pos_as_xyz
  1  'x, y, z'
loop_
 _atom_site_type_symbol
 _atom_site_label
 _atom_site_symmetry_multiplicity
 _atom_site_fract_x
 _atom_site_fract_y
 _atom_site_fract_z
 _atom_site_occupancy
  Mn  Mn0  1  0.71129105  0.86833214  0.70779955  1
  Mn  Mn1  1  0.73114083  0.53185759  0.53822955  1
  Mn  Mn2  1  0.53588133  0.53976871  0.19409028  1
  Mn  Mn3  1  0.19409815  0.53490291  0.73318281  1
  Mn  Mn4  1  0.69409028  0.03976871  0.03588133  1
  Mn  Mn5  1  0.23318281  0.03490291  0.69409815  1
  Mn  Mn6  1  0.20779955  0.36833214  0.21129105  1
  Mn  Mn7  1  0.03822955  0.03185759  0.23114083  1
  P  P8  1  0.92068504  0.14932096  0.59984532  1
  P  P9  1  0.82717217  0.65538259  0.09180391  1
  P  P10  1  0.42127030  0.65772833  0.83081459  1
  P  P11  1  0.33081459  0.15772833  0.92127030  1
  P  P12  1  0.59180391  0.15538259  0.32717217  1
  P  P13  1  0.09984532  0.64932096  0.42068504  1
  O  O14  1  0.98344979  0.67994534  0.62081325  1
  O  O15  1  0.71089819  0.68713494  0.97597687  1
  O  O16  1  0.93520505  0.05813722  0.79963120  1
  O  O17  1  0.61838622  0.69251214  0.70890376  1
  O  O18  1  0.81901675  0.80489682  0.10805514  1
  O  O19  1  0.76302199  0.29937693  0.61081024  1
  O  O20  1  0.90123373  0.03784027  0.52762123  1
  O  O21  1  0.71274061  0.55820177  0.28952262  1
  O  O22  1  0.25984566  0.80585584  0.82930207  1
  O  O23  1  0.42787916  0.55771817  0.72575041  1
  O  O24  1  0.53671500  0.05045442  0.90701394  1
  O  O25  1  0.78952262  0.05820177  0.21274061  1
  O  O26  1  0.60805514  0.30489682  0.31901675  1
  O  O27  1  0.32930207  0.30585584  0.75984566  1
  O  O28  1  0.51437976  0.04770590  0.53191548  1
  O  O29  1  0.29963120  0.55813622  0.43520505  1
  O  O30  1  0.22575041  0.05771817  0.92787916  1
  O  O31  1  0.40701394  0.55045442  0.03671500  1
  O  O32  1  0.47597687  0.18713494  0.21089819  1
  O  O33  1  0.11081024  0.79937693  0.26302199  1
  O  O34  1  0.02762123  0.53784027  0.40123373  1
  O  O35  1  0.12081325  0.17994534  0.48344979  1
  O  O36  1  0.20890376  0.19251214  0.11838622  1
  O  O37  1  0.03191548  0.54770590  0.01437976  1
