# generated using pymatgen
data_SnH16C4(NCl3)2
_symmetry_space_group_name_H-M   'P 1'
_cell_length_a   7.38859263
_cell_length_b   7.50292086
_cell_length_c   14.69345761
_cell_angle_alpha   90.00000000
_cell_angle_beta   90.00000000
_cell_angle_gamma   90.00000000
_symmetry_Int_Tables_number   1
_chemical_formula_structural   SnH16C4(NCl3)2
_chemical_formula_sum   'Sn2 H32 C8 N4 Cl12'
_cell_volume   814.54689471
_cell_formula_units_Z   2
loop_
 _symmetry_equiv_pos_site_id
 _symmetry_equiv_pos_as_xyz
  1  'x, y, z'
loop_
 _atom_site_type_symbol
 _atom_site_label
 _atom_site_symmetry_multiplicity
 _atom_site_fract_x
 _atom_site_fract_y
 _atom_site_fract_z
 _atom_site_occupancy
  Sn  Sn0  1  0.00000000  0.00000000  0.00000000  1
  Sn  Sn1  1  0.50000000  0.50000000  0.50000000  1
  H  H2  1  0.87917492  0.65482857  0.23897678  1
  H  H3  1  0.12082508  0.65482857  0.23897678  1
  H  H4  1  0.00000000  0.94158437  0.43427488  1
  H  H5  1  0.50000000  0.55841563  0.93427488  1
  H  H6  1  0.87857118  0.06535922  0.67120822  1
  H  H7  1  0.62142882  0.56535922  0.82879178  1
  H  H8  1  0.50000000  0.96433797  0.21771730  1
  H  H9  1  0.12142882  0.93464078  0.32879178  1
  H  H10  1  0.38855900  0.85214395  0.90434016  1
  H  H11  1  0.37857118  0.56535922  0.82879178  1
  H  H12  1  0.62082508  0.15482857  0.26102322  1
  H  H13  1  0.61144100  0.14785605  0.09565984  1
  H  H14  1  0.11144100  0.64785605  0.40434016  1
  H  H15  1  0.61144100  0.85214395  0.90434016  1
  H  H16  1  0.88855900  0.64785605  0.40434016  1
  H  H17  1  0.12082508  0.34517143  0.76102322  1
  H  H18  1  0.11144100  0.35214395  0.59565984  1
  H  H19  1  0.50000000  0.44158437  0.06572512  1
  H  H20  1  0.87857118  0.93464078  0.32879178  1
  H  H21  1  0.38855900  0.14785605  0.09565984  1
  H  H22  1  0.62142882  0.43464078  0.17120822  1
  H  H23  1  0.37917492  0.15482857  0.26102322  1
  H  H24  1  0.00000000  0.46433797  0.28228270  1
  H  H25  1  0.37917492  0.84517143  0.73897678  1
  H  H26  1  0.12142882  0.06535922  0.67120822  1
  H  H27  1  0.00000000  0.05841563  0.56572512  1
  H  H28  1  0.87917492  0.34517143  0.76102322  1
  H  H29  1  0.50000000  0.03566203  0.78228270  1
  H  H30  1  0.62082508  0.84517143  0.73897678  1
  H  H31  1  0.37857118  0.43464078  0.17120822  1
  H  H32  1  0.88855900  0.35214395  0.59565984  1
  H  H33  1  0.00000000  0.53566203  0.71771730  1
  C  C34  1  0.00000000  0.60944372  0.27533603  1
  C  C35  1  0.00000000  0.10990067  0.63523825  1
  C  C36  1  0.50000000  0.89055628  0.77533603  1
  C  C37  1  0.50000000  0.10944372  0.22466397  1
  C  C38  1  0.50000000  0.60990067  0.86476175  1
  C  C39  1  0.00000000  0.89009933  0.36476175  1
  C  C40  1  0.50000000  0.39009933  0.13523825  1
  C  C41  1  0.00000000  0.39055628  0.72466397  1
  N  N42  1  0.00000000  0.69151051  0.36773560  1
  N  N43  1  0.00000000  0.30848949  0.63226440  1
  N  N44  1  0.50000000  0.19151051  0.13226440  1
  N  N45  1  0.50000000  0.80848949  0.86773560  1
  Cl  Cl46  1  0.25811594  0.30804261  0.43662643  1
  Cl  Cl47  1  0.75811594  0.19195739  0.93662643  1
  Cl  Cl48  1  0.50000000  0.32155553  0.64185158  1
  Cl  Cl49  1  0.75811594  0.80804261  0.06337357  1
  Cl  Cl50  1  0.50000000  0.67844447  0.35814842  1
  Cl  Cl51  1  0.25811594  0.69195739  0.56337357  1
  Cl  Cl52  1  0.74188406  0.69195739  0.56337357  1
  Cl  Cl53  1  0.24188406  0.19195739  0.93662643  1
  Cl  Cl54  1  0.00000000  0.82155553  0.85814842  1
  Cl  Cl55  1  0.24188406  0.80804261  0.06337357  1
  Cl  Cl56  1  0.74188406  0.30804261  0.43662643  1
  Cl  Cl57  1  0.00000000  0.17844447  0.14185158  1
