# generated using pymatgen
data_LiBi2(PO4)3
_symmetry_space_group_name_H-M   'P 1'
_cell_length_a   8.98111858
_cell_length_b   12.77225579
_cell_length_c   9.31979303
_cell_angle_alpha   90.00000000
_cell_angle_beta   90.00000000
_cell_angle_gamma   91.19143588
_symmetry_Int_Tables_number   1
_chemical_formula_structural   LiBi2(PO4)3
_chemical_formula_sum   'Li4 Bi8 P12 O48'
_cell_volume   1068.83434945
_cell_formula_units_Z   4
loop_
 _symmetry_equiv_pos_site_id
 _symmetry_equiv_pos_as_xyz
  1  'x, y, z'
loop_
 _atom_site_type_symbol
 _atom_site_label
 _atom_site_symmetry_multiplicity
 _atom_site_fract_x
 _atom_site_fract_y
 _atom_site_fract_z
 _atom_site_occupancy
  Li  Li0  1  0.71248104  0.68234196  0.72238070  1
  Li  Li1  1  0.78751896  0.81765804  0.22238070  1
  Li  Li2  1  0.21248104  0.18234196  0.77761930  1
  Li  Li3  1  0.28751896  0.31765804  0.27761930  1
  Bi  Bi4  1  0.74792585  0.89419726  0.54252587  1
  Bi  Bi5  1  0.25207415  0.10580274  0.45747413  1
  Bi  Bi6  1  0.75207415  0.60580274  0.04252587  1
  Bi  Bi7  1  0.25229049  0.87891347  0.03838380  1
  Bi  Bi8  1  0.24792585  0.39419726  0.95747413  1
  Bi  Bi9  1  0.24770951  0.62108653  0.53838380  1
  Bi  Bi10  1  0.74770951  0.12108653  0.96161620  1
  Bi  Bi11  1  0.75229049  0.37891347  0.46161620  1
  P  P12  1  0.54217131  0.99483060  0.24410455  1
  P  P13  1  0.40393177  0.66099204  0.87022350  1
  P  P14  1  0.60457897  0.64470760  0.40281008  1
  P  P15  1  0.04217131  0.49483060  0.25589545  1
  P  P16  1  0.39542103  0.35529240  0.59718992  1
  P  P17  1  0.10457897  0.14470760  0.09718992  1
  P  P18  1  0.59606823  0.33900796  0.12977650  1
  P  P19  1  0.95782869  0.50516940  0.74410455  1
  P  P20  1  0.09606823  0.83900796  0.37022350  1
  P  P21  1  0.45782869  0.00516940  0.75589545  1
  P  P22  1  0.90393177  0.16099204  0.62977650  1
  P  P23  1  0.89542103  0.85529240  0.90281008  1
  O  O24  1  0.57037415  0.35083166  0.61569858  1
  O  O25  1  0.84214309  0.78449406  0.02749325  1
  O  O26  1  0.83195769  0.81535382  0.75789075  1
  O  O27  1  0.41954541  0.92968551  0.88280529  1
  O  O28  1  0.42962585  0.64916834  0.38430142  1
  O  O29  1  0.92962585  0.14916834  0.11569858  1
  O  O30  1  0.18835368  0.78117930  0.48777026  1
  O  O31  1  0.47460960  0.06256053  0.36203878  1
  O  O32  1  0.35380321  0.46969920  0.56562472  1
  O  O33  1  0.13619665  0.80098147  0.21469604  1
  O  O34  1  0.07184259  0.18435502  0.61407715  1
  O  O35  1  0.81164632  0.21882070  0.51222974  1
  O  O36  1  0.97460960  0.56256053  0.13796122  1
  O  O37  1  0.66804231  0.68464618  0.25789075  1
  O  O38  1  0.13171678  0.95551106  0.39091974  1
  O  O39  1  0.86380335  0.19901853  0.78530496  1
  O  O40  1  0.85380321  0.96969920  0.93437528  1
  O  O41  1  0.52539040  0.93743947  0.63796122  1
  O  O42  1  0.14619679  0.03030080  0.06562472  1
  O  O43  1  0.65785691  0.71550594  0.52749325  1
  O  O44  1  0.43076441  0.90532524  0.19457199  1
  O  O45  1  0.63171678  0.45551106  0.10908026  1
  O  O46  1  0.15785691  0.21550594  0.97250675  1
  O  O47  1  0.68013831  0.93708829  0.29940621  1
  O  O48  1  0.91954541  0.42968551  0.61719471  1
  O  O49  1  0.64619679  0.53030080  0.43437528  1
  O  O50  1  0.33195769  0.31535382  0.74210925  1
  O  O51  1  0.86828322  0.04448894  0.60908026  1
  O  O52  1  0.16804231  0.18464618  0.24210925  1
  O  O53  1  0.34214309  0.28449406  0.47250675  1
  O  O54  1  0.93076441  0.40532524  0.30542801  1
  O  O55  1  0.31164632  0.71882070  0.98777026  1
  O  O56  1  0.06923559  0.59467476  0.69457199  1
  O  O57  1  0.56923559  0.09467476  0.80542801  1
  O  O58  1  0.07037415  0.85083166  0.88430142  1
  O  O59  1  0.58045459  0.07031449  0.11719471  1
  O  O60  1  0.18013831  0.43708829  0.20059379  1
  O  O61  1  0.92815741  0.81564498  0.38592285  1
  O  O62  1  0.02539040  0.43743947  0.86203878  1
  O  O63  1  0.57184259  0.68435502  0.88592285  1
  O  O64  1  0.36828322  0.54448894  0.89091974  1
  O  O65  1  0.42815741  0.31564498  0.11407715  1
  O  O66  1  0.36380335  0.69901853  0.71469504  1
  O  O67  1  0.08045459  0.57031449  0.38280529  1
  O  O68  1  0.81986169  0.56291171  0.79940621  1
  O  O69  1  0.63619665  0.30098147  0.28530496  1
  O  O70  1  0.31986169  0.06291171  0.70059379  1
  O  O71  1  0.68835368  0.28117930  0.01222974  1
