# generated using pymatgen
data_K2LiMoI6
_symmetry_space_group_name_H-M   'P 1'
_cell_length_a   8.19790289
_cell_length_b   8.19790331
_cell_length_c   8.19790328
_cell_angle_alpha   59.99999873
_cell_angle_beta   59.99999809
_cell_angle_gamma   59.99999815
_symmetry_Int_Tables_number   1
_chemical_formula_structural   K2LiMoI6
_chemical_formula_sum   'K2 Li1 Mo1 I6'
_cell_volume   389.57702515
_cell_formula_units_Z   1
loop_
 _symmetry_equiv_pos_site_id
 _symmetry_equiv_pos_as_xyz
  1  'x, y, z'
loop_
 _atom_site_type_symbol
 _atom_site_label
 _atom_site_symmetry_multiplicity
 _atom_site_fract_x
 _atom_site_fract_y
 _atom_site_fract_z
 _atom_site_occupancy
  K  K0  1  0.25000000  0.25000000  0.25000000  1
  K  K1  1  0.75000000  0.75000000  0.75000000  1
  Li  Li2  1  0.50000000  0.50000000  0.50000000  1
  Mo  Mo3  1  -0.00000000  0.00000000  0.00000000  1
  I  I4  1  0.24304020  0.75695980  0.24304020  1
  I  I5  1  0.75695980  0.75695980  0.24304020  1
  I  I6  1  0.75695980  0.24304020  0.75695980  1
  I  I7  1  0.75695980  0.24304020  0.24304020  1
  I  I8  1  0.24304020  0.75695980  0.75695980  1
  I  I9  1  0.24304020  0.24304020  0.75695980  1
