# generated using pymatgen
data_MnFeBiO5
_symmetry_space_group_name_H-M   'P 1'
_cell_length_a   5.97600935
_cell_length_b   7.59124517
_cell_length_c   8.66831668
_cell_angle_alpha   90.00000000
_cell_angle_beta   90.00000000
_cell_angle_gamma   90.00000000
_symmetry_Int_Tables_number   1
_chemical_formula_structural   MnFeBiO5
_chemical_formula_sum   'Mn4 Fe4 Bi4 O20'
_cell_volume   393.24123842
_cell_formula_units_Z   4
loop_
 _symmetry_equiv_pos_site_id
 _symmetry_equiv_pos_as_xyz
  1  'x, y, z'
loop_
 _atom_site_type_symbol
 _atom_site_label
 _atom_site_symmetry_multiplicity
 _atom_site_fract_x
 _atom_site_fract_y
 _atom_site_fract_z
 _atom_site_occupancy
  Mn  Mn0  1  0.50000000  0.89622009  0.14531868  1
  Mn  Mn1  1  0.50000000  0.60377991  0.64531868  1
  Mn  Mn2  1  0.50000000  0.39622009  0.35468132  1
  Mn  Mn3  1  0.50000000  0.10377991  0.85468132  1
  Fe  Fe4  1  0.74352201  0.50000000  0.00000000  1
  Fe  Fe5  1  0.25647799  0.50000000  0.00000000  1
  Fe  Fe6  1  0.74352201  0.00000000  0.50000000  1
  Fe  Fe7  1  0.25647799  0.00000000  0.50000000  1
  Bi  Bi8  1  0.00000000  0.83884899  0.82999616  1
  Bi  Bi9  1  0.00000000  0.33884899  0.67000384  1
  Bi  Bi10  1  0.00000000  0.16115101  0.17000384  1
  Bi  Bi11  1  0.00000000  0.66115101  0.32999616  1
  O  O12  1  0.50000000  0.65638234  0.08066474  1
  O  O13  1  0.00000000  0.16252613  0.44391673  1
  O  O14  1  0.25563490  0.88247908  0.29238275  1
  O  O15  1  0.71004221  0.00000000  0.00000000  1
  O  O16  1  0.74436510  0.61752092  0.79238275  1
  O  O17  1  0.74436510  0.11752092  0.70761725  1
  O  O18  1  0.50000000  0.34361766  0.91933526  1
  O  O19  1  0.28995779  0.50000000  0.50000000  1
  O  O20  1  0.00000000  0.83747387  0.55608327  1
  O  O21  1  0.25563490  0.11752092  0.70761725  1
  O  O22  1  0.00000000  0.66252613  0.05608327  1
  O  O23  1  0.74436510  0.38247908  0.20761725  1
  O  O24  1  0.74436510  0.88247908  0.29238275  1
  O  O25  1  0.25563490  0.61752092  0.79238275  1
  O  O26  1  0.28995779  0.00000000  0.00000000  1
  O  O27  1  0.50000000  0.84361766  0.58066474  1
  O  O28  1  0.50000000  0.15638234  0.41933526  1
  O  O29  1  0.71004221  0.50000000  0.50000000  1
  O  O30  1  0.25563490  0.38247908  0.20761725  1
  O  O31  1  0.00000000  0.33747387  0.94391673  1
