# generated using pymatgen
data_CsLi2F3
_symmetry_space_group_name_H-M   'P 1'
_cell_length_a   4.05684120
_cell_length_b   4.05683661
_cell_length_c   5.88873150
_cell_angle_alpha   110.15495940
_cell_angle_beta   110.15492790
_cell_angle_gamma   89.99884057
_symmetry_Int_Tables_number   1
_chemical_formula_structural   CsLi2F3
_chemical_formula_sum   'Cs1 Li2 F3'
_cell_volume   84.63202216
_cell_formula_units_Z   1
loop_
 _symmetry_equiv_pos_site_id
 _symmetry_equiv_pos_as_xyz
  1  'x, y, z'
loop_
 _atom_site_type_symbol
 _atom_site_label
 _atom_site_symmetry_multiplicity
 _atom_site_fract_x
 _atom_site_fract_y
 _atom_site_fract_z
 _atom_site_occupancy
  Cs  Cs0  1  0.99999993  0.00000003  0.99999993  1
  Li  Li1  1  0.69073627  0.69073683  0.38142255  1
  Li  Li2  1  0.30926410  0.30926327  0.61857733  1
  F  F3  1  0.25001197  0.74998723  0.49999997  1
  F  F4  1  0.50000035  0.50000019  0.00000012  1
  F  F5  1  0.74998739  0.25001244  0.50000011  1
