# generated using pymatgen
data_VHO3
_symmetry_space_group_name_H-M   'P 1'
_cell_length_a   5.11584834
_cell_length_b   8.57039439
_cell_length_c   8.29087954
_cell_angle_alpha   90.00000000
_cell_angle_beta   99.37840353
_cell_angle_gamma   90.00000000
_symmetry_Int_Tables_number   1
_chemical_formula_structural   VHO3
_chemical_formula_sum   'V6 H6 O18'
_cell_volume   358.65343868
_cell_formula_units_Z   6
loop_
 _symmetry_equiv_pos_site_id
 _symmetry_equiv_pos_as_xyz
  1  'x, y, z'
loop_
 _atom_site_type_symbol
 _atom_site_label
 _atom_site_symmetry_multiplicity
 _atom_site_fract_x
 _atom_site_fract_y
 _atom_site_fract_z
 _atom_site_occupancy
  V  V0  1  0.45445864  0.44578284  0.17768550  1
  V  V1  1  0.54554136  0.94578284  0.82231450  1
  V  V2  1  0.55809679  0.55593769  0.82701539  1
  V  V3  1  0.44190321  0.05593769  0.17298461  1
  V  V4  1  0.92964243  0.24623979  0.07082599  1
  V  V5  1  0.07035757  0.74623979  0.92917401  1
  H  H6  1  0.78062507  0.63110232  0.36753604  1
  H  H7  1  0.21937493  0.13110232  0.63246396  1
  H  H8  1  0.83160185  0.22209269  0.56442692  1
  H  H9  1  0.07378982  0.34049091  0.60112321  1
  H  H10  1  0.16839815  0.72209269  0.43557308  1
  H  H11  1  0.92621018  0.84049091  0.39887679  1
  O  O12  1  0.67725241  0.41237909  0.00949471  1
  O  O13  1  0.32274759  0.91237909  0.99050529  1
  O  O14  1  0.33114256  0.59233324  0.99957228  1
  O  O15  1  0.66885744  0.09233324  0.00042772  1
  O  O16  1  0.13387859  0.40434739  0.20996634  1
  O  O17  1  0.86612141  0.90434739  0.79003366  1
  O  O18  1  0.88371182  0.60008770  0.78610586  1
  O  O19  1  0.11628818  0.10008770  0.21389414  1
  O  O20  1  0.58437593  0.25168391  0.24372212  1
  O  O21  1  0.41562407  0.75168391  0.75627788  1
  O  O22  1  0.10595470  0.24729466  0.92477443  1
  O  O23  1  0.89404530  0.74729466  0.07522557  1
  O  O24  1  0.59890844  0.56565255  0.33208311  1
  O  O25  1  0.40109156  0.06565255  0.66791689  1
  O  O26  1  0.42166012  0.44042409  0.68270037  1
  O  O27  1  0.57833988  0.94042409  0.31729963  1
  O  O28  1  0.01918034  0.23521112  0.56110924  1
  O  O29  1  0.98081966  0.73521112  0.43889076  1
