# generated using pymatgen
data_CoH14C3NCl3O2
_symmetry_space_group_name_H-M   'P 1'
_cell_length_a   7.28117076
_cell_length_b   8.24599213
_cell_length_c   16.87670816
_cell_angle_alpha   90.05162203
_cell_angle_beta   90.04743480
_cell_angle_gamma   89.98935280
_symmetry_Int_Tables_number   1
_chemical_formula_structural   CoH14C3NCl3O2
_chemical_formula_sum   'Co4 H56 C12 N4 Cl12 O8'
_cell_volume   1013.28482913
_cell_formula_units_Z   4
loop_
 _symmetry_equiv_pos_site_id
 _symmetry_equiv_pos_as_xyz
  1  'x, y, z'
loop_
 _atom_site_type_symbol
 _atom_site_label
 _atom_site_symmetry_multiplicity
 _atom_site_fract_x
 _atom_site_fract_y
 _atom_site_fract_z
 _atom_site_occupancy
  Co  Co0  1  0.49999991  0.00000020  0.99999994  1
  Co  Co1  1  0.00000024  -0.00000004  0.00000011  1
  Co  Co2  1  0.50000028  0.49999969  0.50000015  1
  Co  Co3  1  0.00000008  0.50000018  0.50000008  1
  H  H4  1  0.07407474  0.68877191  0.96117635  1
  H  H5  1  0.57391287  0.69412382  0.71546932  1
  H  H6  1  0.46191210  0.78850179  0.31060675  1
  H  H7  1  0.75016824  0.74453439  0.37121430  1
  H  H8  1  0.75014573  0.75563714  0.87121515  1
  H  H9  1  0.46190328  0.71158005  0.81059470  1
  H  H10  1  0.92592511  0.31122802  0.03882363  1
  H  H11  1  0.87385862  0.49109485  0.86595411  1
  H  H12  1  0.92579140  0.80576493  0.21552724  1
  H  H13  1  0.53809665  0.28841991  0.18940526  1
  H  H14  1  0.25002028  0.54377755  0.22496234  1
  H  H15  1  0.12616033  0.99098516  0.63400254  1
  H  H16  1  0.03814140  0.71153625  0.81065938  1
  H  H17  1  0.07972736  0.11728478  0.23036337  1
  H  H18  1  0.37374339  0.99098993  0.63404148  1
  H  H19  1  0.57397507  0.18858442  0.53911145  1
  H  H20  1  0.96185854  0.28846381  0.18934063  1
  H  H21  1  0.42602533  0.81141512  0.46088854  1
  H  H22  1  0.57414253  0.31119937  0.03884166  1
  H  H23  1  0.07416163  0.30593694  0.28449208  1
  H  H24  1  0.03811635  0.78849052  0.31066972  1
  H  H25  1  0.10055727  0.31410756  0.98377242  1
  H  H26  1  0.92032637  0.61720995  0.26957559  1
  H  H27  1  0.62625666  0.00901016  0.36595852  1
  H  H28  1  0.74997963  0.45622238  0.77503763  1
  H  H29  1  0.96188366  0.21150950  0.68933029  1
  H  H30  1  0.74995486  0.04363568  0.27508741  1
  H  H31  1  0.53808792  0.21149818  0.68939328  1
  H  H32  1  0.24983171  0.25546569  0.62878573  1
  H  H33  1  0.57962699  0.88275781  0.76959936  1
  H  H34  1  0.07967352  0.38279009  0.73042439  1
  H  H35  1  0.57964534  0.61719691  0.26954361  1
  H  H36  1  0.62628667  0.49116001  0.86591060  1
  H  H37  1  0.92603579  0.18874974  0.53903827  1
  H  H38  1  0.07396409  0.81125029  0.46096170  1
  H  H39  1  0.92583837  0.69406314  0.71550790  1
  H  H40  1  0.42585718  0.68880056  0.96115839  1
  H  H41  1  0.07420856  0.19423519  0.78447278  1
  H  H42  1  0.25004518  0.95636439  0.72491257  1
  H  H43  1  0.89980091  0.81413031  0.51627123  1
  H  H44  1  0.42037283  0.11724221  0.23040061  1
  H  H45  1  0.10019905  0.18586973  0.48372879  1
  H  H46  1  0.60028118  0.81427909  0.51628094  1
  H  H47  1  0.92027264  0.88271530  0.76963666  1
  H  H48  1  0.24985414  0.24436288  0.12878484  1
  H  H49  1  0.87383963  0.00901491  0.36599745  1
  H  H50  1  0.60068619  0.68591203  0.01623413  1
  H  H51  1  0.42607237  0.19428339  0.78451138  1
  H  H52  1  0.39971901  0.18572091  0.48371913  1
  H  H53  1  0.89944265  0.68589240  0.01622759  1
  H  H54  1  0.12614135  0.50890515  0.13404587  1
  H  H55  1  0.37371330  0.50884002  0.13408941  1
  H  H56  1  0.57392773  0.80571670  0.21548860  1
  H  H57  1  0.42608700  0.30587620  0.28453062  1
  H  H58  1  0.42035480  0.38280310  0.73045636  1
  H  H59  1  0.39931368  0.31408815  0.98376581  1
  C  C60  1  0.42146509  0.25050183  0.72556529  1
  C  C61  1  0.92140289  0.74950405  0.27445986  1
  C  C62  1  0.75002128  0.52041429  0.83195771  1
  C  C63  1  0.92140432  0.75043331  0.77447866  1
  C  C64  1  0.25000263  0.02035558  0.66800449  1
  C  C65  1  0.24997873  0.47958559  0.16804228  1
  C  C66  1  0.42147752  0.24953778  0.22555533  1
  C  C67  1  0.57853511  0.74949815  0.27443468  1
  C  C68  1  0.74999748  0.97964456  0.33199551  1
  C  C69  1  0.57852221  0.75046215  0.77444461  1
  C  C70  1  0.07859706  0.25049599  0.72554023  1
  C  C71  1  0.07859565  0.24956682  0.22552133  1
  N  N72  1  0.24997299  0.19863223  0.68387261  1
  N  N73  1  0.75002692  0.80136780  0.31612725  1
  N  N74  1  0.75003213  0.69864154  0.81610507  1
  N  N75  1  0.24996779  0.30135856  0.18389491  1
  Cl  Cl76  1  0.24988523  0.00204136  0.41816236  1
  Cl  Cl77  1  0.75006591  0.50212286  0.08167802  1
  Cl  Cl78  1  0.75009693  0.43528513  0.40482024  1
  Cl  Cl79  1  0.74987200  0.06519825  0.90507136  1
  Cl  Cl80  1  0.24978083  0.49439079  0.40307963  1
  Cl  Cl81  1  0.25012789  0.93480221  0.09492844  1
  Cl  Cl82  1  0.24990378  0.56471439  0.59517991  1
  Cl  Cl83  1  0.75021989  0.50560904  0.59692022  1
  Cl  Cl84  1  0.24984553  0.00574547  0.90274341  1
  Cl  Cl85  1  0.75015343  0.99425400  0.09725644  1
  Cl  Cl86  1  0.75011481  0.99795904  0.58183786  1
  Cl  Cl87  1  0.24993414  0.49787725  0.91832230  1
  O  O88  1  0.53765231  0.74849846  0.47507179  1
  O  O89  1  0.96232215  0.75167658  0.97522894  1
  O  O90  1  0.03767753  0.24832339  0.02477110  1
  O  O91  1  0.03781241  0.25152014  0.52498289  1
  O  O92  1  0.53759513  0.75173767  0.97525518  1
  O  O93  1  0.46240480  0.24826236  0.02474479  1
  O  O94  1  0.96218832  0.74847989  0.47501701  1
  O  O95  1  0.46234747  0.25150114  0.52492814  1
