# generated using pymatgen
data_VHO3
_symmetry_space_group_name_H-M   'P 1'
_cell_length_a   5.18999173
_cell_length_b   8.62758789
_cell_length_c   8.18530362
_cell_angle_alpha   90.34693040
_cell_angle_beta   97.77032464
_cell_angle_gamma   87.94920301
_symmetry_Int_Tables_number   1
_chemical_formula_structural   VHO3
_chemical_formula_sum   'V6 H6 O18'
_cell_volume   362.91603152
_cell_formula_units_Z   6
loop_
 _symmetry_equiv_pos_site_id
 _symmetry_equiv_pos_as_xyz
  1  'x, y, z'
loop_
 _atom_site_type_symbol
 _atom_site_label
 _atom_site_symmetry_multiplicity
 _atom_site_fract_x
 _atom_site_fract_y
 _atom_site_fract_z
 _atom_site_occupancy
  V  V0  1  0.44372437  0.45458112  0.18016878  1
  V  V1  1  0.55133511  0.94441923  0.81926672  1
  V  V2  1  0.58527833  0.56022474  0.82898361  1
  V  V3  1  0.44856373  0.06490612  0.17597980  1
  V  V4  1  0.91525424  0.24459588  0.06290978  1
  V  V5  1  0.08317622  0.75837643  0.93868527  1
  H  H6  1  0.01939208  0.25842193  0.71793329  1
  H  H7  1  0.36832212  0.64913910  0.38252255  1
  H  H8  1  0.16272801  0.16260487  0.58562988  1
  H  H9  1  0.84832540  0.21735298  0.53445603  1
  H  H10  1  0.09711844  0.72779311  0.52847552  1
  H  H11  1  -0.00006271  0.74297483  0.33586195  1
  O  O12  1  0.69039342  0.41970199  0.01675246  1
  O  O13  1  0.33040319  0.91965526  0.99528807  1
  O  O14  1  0.34639644  0.60014456  0.99859270  1
  O  O15  1  0.67415366  0.09430789  0.00248697  1
  O  O16  1  0.13216182  0.40904263  0.19179973  1
  O  O17  1  0.88192752  0.90258960  0.79348854  1
  O  O18  1  0.90815413  0.60665005  0.79990596  1
  O  O19  1  0.12117102  0.11908403  0.21455572  1
  O  O20  1  0.58785904  0.25908945  0.24739587  1
  O  O21  1  0.43268453  0.75319341  0.75131457  1
  O  O22  1  0.06793295  0.24248256  0.89838262  1
  O  O23  1  0.91788808  0.75960642  0.09398576  1
  O  O24  1  0.52768981  0.58250336  0.33944069  1
  O  O25  1  0.42060425  0.06576231  0.67341403  1
  O  O26  1  0.48502544  0.43529061  0.68798035  1
  O  O27  1  0.58442518  0.94999411  0.31938617  1
  O  O28  1  0.01967477  0.24650464  0.59055795  1
  O  O29  1  0.15286343  0.74101479  0.42006364  1
