# generated using pymatgen
data_RbPbF3
_symmetry_space_group_name_H-M   'P 1'
_cell_length_a   4.68513935
_cell_length_b   4.94802668
_cell_length_c   17.83619454
_cell_angle_alpha   89.01064099
_cell_angle_beta   95.20667963
_cell_angle_gamma   90.08586577
_symmetry_Int_Tables_number   1
_chemical_formula_structural   RbPbF3
_chemical_formula_sum   'Rb4 Pb4 F12'
_cell_volume   411.71464270
_cell_formula_units_Z   4
loop_
 _symmetry_equiv_pos_site_id
 _symmetry_equiv_pos_as_xyz
  1  'x, y, z'
loop_
 _atom_site_type_symbol
 _atom_site_label
 _atom_site_symmetry_multiplicity
 _atom_site_fract_x
 _atom_site_fract_y
 _atom_site_fract_z
 _atom_site_occupancy
  Rb  Rb0  1  0.18291736  -0.19078452  0.32117316  1
  Rb  Rb1  1  0.32246962  0.32695285  0.18405043  1
  Rb  Rb2  1  0.81318741  0.19313517  0.67833889  1
  Rb  Rb3  1  0.68106824  0.67247974  0.81709286  1
  Pb  Pb4  1  0.24381312  0.17796088  0.92792201  1
  Pb  Pb5  1  0.74892893  0.29143663  0.43302490  1
  Pb  Pb6  1  0.25452844  0.70833831  0.56660215  1
  Pb  Pb7  1  0.75267604  0.82321509  0.07279103  1
  F  F8  1  0.78175455  0.81988446  0.19623991  1
  F  F9  1  0.20967609  0.18449379  0.80382596  1
  F  F10  1  0.76085333  0.33361977  0.08535617  1
  F  F11  1  0.25689222  0.84355716  0.10396655  1
  F  F12  1  0.29200035  0.68890731  0.69036338  1
  F  F13  1  0.71746635  0.31016574  0.30945416  1
  F  F14  1  0.74250339  0.80359659  0.41821985  1
  F  F15  1  0.76279755  0.69500532  0.59859042  1
  F  F16  1  0.23917864  0.66361056  0.91449026  1
  F  F17  1  0.24236264  0.30204906  0.40081373  1
  F  F18  1  0.73774048  0.15487440  -0.10326285  1
  F  F19  1  0.25718525  0.19750169  0.58094702  1
