# generated using pymatgen
data_Re(Te4Cl3)2
_symmetry_space_group_name_H-M   'P 1'
_cell_length_a   8.09809753
_cell_length_b   8.09809759
_cell_length_c   32.32337779
_cell_angle_alpha   90.36291762
_cell_angle_beta   90.36291761
_cell_angle_gamma   77.39490667
_symmetry_Int_Tables_number   1
_chemical_formula_structural   Re(Te4Cl3)2
_chemical_formula_sum   'Re4 Te32 Cl24'
_cell_volume   2068.58127864
_cell_formula_units_Z   4
loop_
 _symmetry_equiv_pos_site_id
 _symmetry_equiv_pos_as_xyz
  1  'x, y, z'
loop_
 _atom_site_type_symbol
 _atom_site_label
 _atom_site_symmetry_multiplicity
 _atom_site_fract_x
 _atom_site_fract_y
 _atom_site_fract_z
 _atom_site_occupancy
  Re  Re0  1  0.57818337  0.42181663  0.75000000  1
  Re  Re1  1  0.50000000  0.50000000  0.50000000  1
  Re  Re2  1  0.50000000  0.50000000  0.00000000  1
  Re  Re3  1  0.42181663  0.57818337  0.25000000  1
  Te  Te4  1  0.29048099  0.05469753  0.35965317  1
  Te  Te5  1  0.88589465  0.08194642  0.43670889  1
  Te  Te6  1  0.97960707  0.25008347  0.58195984  1
  Te  Te7  1  0.71166999  0.72469685  0.87977967  1
  Te  Te8  1  0.17668297  0.21598445  0.43302105  1
  Te  Te9  1  0.16180126  0.14218606  0.68876400  1
  Te  Te10  1  0.94210954  0.72332603  0.68705432  1
  Te  Te11  1  0.94530247  0.70951901  0.14034683  1
  Te  Te12  1  0.27530315  0.28833001  0.62022033  1
  Te  Te13  1  0.81404973  0.23670230  0.16032423  1
  Te  Te14  1  0.08194642  0.88589465  0.93670889  1
  Te  Te15  1  0.72332603  0.94210954  0.18705432  1
  Te  Te16  1  0.91805358  0.11410535  0.06329111  1
  Te  Te17  1  0.70951901  0.94530247  0.64034683  1
  Te  Te18  1  0.05789046  0.27667397  0.31294568  1
  Te  Te19  1  0.83819874  0.85781394  0.31123600  1
  Te  Te20  1  0.74991653  0.02039293  0.91804016  1
  Te  Te21  1  0.05469753  0.29048099  0.85965317  1
  Te  Te22  1  0.85781394  0.83819874  0.81123600  1
  Te  Te23  1  0.72469685  0.71166999  0.37977967  1
  Te  Te24  1  0.82331703  0.78401555  0.56697895  1
  Te  Te25  1  0.78401555  0.82331703  0.06697895  1
  Te  Te26  1  0.28833001  0.27530315  0.12022033  1
  Te  Te27  1  0.02039293  0.74991653  0.41804016  1
  Te  Te28  1  0.14218606  0.16180126  0.18876400  1
  Te  Te29  1  0.25008347  0.97960707  0.08195984  1
  Te  Te30  1  0.76329770  0.18595027  0.33967577  1
  Te  Te31  1  0.11410535  0.91805358  0.56329111  1
  Te  Te32  1  0.23670230  0.81404973  0.66032423  1
  Te  Te33  1  0.27667397  0.05789046  0.81294568  1
  Te  Te34  1  0.21598445  0.17668297  0.93302105  1
  Te  Te35  1  0.18595027  0.76329770  0.83967577  1
  Cl  Cl36  1  0.12708546  0.60909424  0.24062168  1
  Cl  Cl37  1  0.54013625  0.72110013  0.75637611  1
  Cl  Cl38  1  0.27889987  0.45986375  0.74362389  1
  Cl  Cl39  1  0.56593973  0.21564787  0.52253136  1
  Cl  Cl40  1  0.48239978  0.79080715  0.98596215  1
  Cl  Cl41  1  0.39467441  0.55140440  0.32231715  1
  Cl  Cl42  1  0.55140440  0.39467441  0.82231715  1
  Cl  Cl43  1  0.87291454  0.39090576  0.75937832  1
  Cl  Cl44  1  0.53450260  0.58940124  0.56920465  1
  Cl  Cl45  1  0.58940124  0.53450260  0.06920465  1
  Cl  Cl46  1  0.46549740  0.41059876  0.43079535  1
  Cl  Cl47  1  0.41059876  0.46549740  0.93079535  1
  Cl  Cl48  1  0.21564787  0.56593973  0.02253136  1
  Cl  Cl49  1  0.78435213  0.43406027  0.97746864  1
  Cl  Cl50  1  0.20919285  0.51760022  0.51403785  1
  Cl  Cl51  1  0.79080715  0.48239978  0.48596215  1
  Cl  Cl52  1  0.39090576  0.87291454  0.25937832  1
  Cl  Cl53  1  0.60909424  0.12708546  0.74062168  1
  Cl  Cl54  1  0.51760022  0.20919285  0.01403785  1
  Cl  Cl55  1  0.45986375  0.27889987  0.24362389  1
  Cl  Cl56  1  0.44859560  0.60532559  0.17768285  1
  Cl  Cl57  1  0.72110013  0.54013625  0.25637611  1
  Cl  Cl58  1  0.43406027  0.78435213  0.47746864  1
  Cl  Cl59  1  0.60532559  0.44859560  0.67768285  1
