# generated using pymatgen
data_CuHClO
_symmetry_space_group_name_H-M   'P 1'
_cell_length_a   6.00858561
_cell_length_b   6.82727539
_cell_length_c   5.67381312
_cell_angle_alpha   90.00000000
_cell_angle_beta   114.37592895
_cell_angle_gamma   90.00000000
_symmetry_Int_Tables_number   1
_chemical_formula_structural   CuHClO
_chemical_formula_sum   'Cu4 H4 Cl4 O4'
_cell_volume   212.00444436
_cell_formula_units_Z   4
loop_
 _symmetry_equiv_pos_site_id
 _symmetry_equiv_pos_as_xyz
  1  'x, y, z'
loop_
 _atom_site_type_symbol
 _atom_site_label
 _atom_site_symmetry_multiplicity
 _atom_site_fract_x
 _atom_site_fract_y
 _atom_site_fract_z
 _atom_site_occupancy
  Cu  Cu0  1  0.01138163  0.37852954  0.77075928  1
  Cu  Cu1  1  0.98861837  0.87852954  0.72924072  1
  Cu  Cu2  1  0.98861837  0.62147046  0.22924072  1
  Cu  Cu3  1  0.01138163  0.12147046  0.27075928  1
  H  H4  1  0.69865297  0.35947288  0.99403235  1
  H  H5  1  0.30134703  0.85947288  0.50596765  1
  H  H6  1  0.30134703  0.64052712  0.00596765  1
  H  H7  1  0.69865297  0.14052712  0.49403235  1
  Cl  Cl8  1  0.31553371  0.40689772  0.62984726  1
  Cl  Cl9  1  0.68446629  0.90689772  0.87015274  1
  Cl  Cl10  1  0.68446629  0.59310228  0.37015274  1
  Cl  Cl11  1  0.31553371  0.09310228  0.12984726  1
  O  O12  1  0.87809875  0.36133768  0.05513289  1
  O  O13  1  0.12190125  0.86133768  0.44486711  1
  O  O14  1  0.12190125  0.63866232  0.94486711  1
  O  O15  1  0.87809875  0.13866232  0.55513289  1
