# generated using pymatgen
data_CaCu(GeO3)2
_symmetry_space_group_name_H-M   'P 1'
_cell_length_a   5.44908880
_cell_length_b   6.93759955
_cell_length_c   6.93759955
_cell_angle_alpha   83.01392450
_cell_angle_beta   77.22233314
_cell_angle_gamma   77.22233305
_symmetry_Int_Tables_number   1
_chemical_formula_structural   CaCu(GeO3)2
_chemical_formula_sum   'Ca2 Cu2 Ge4 O12'
_cell_volume   248.70729538
_cell_formula_units_Z   2
loop_
 _symmetry_equiv_pos_site_id
 _symmetry_equiv_pos_as_xyz
  1  'x, y, z'
loop_
 _atom_site_type_symbol
 _atom_site_label
 _atom_site_symmetry_multiplicity
 _atom_site_fract_x
 _atom_site_fract_y
 _atom_site_fract_z
 _atom_site_occupancy
  O  O0  1  0.52493180  0.32819302  0.38713940  1
  O  O1  1  0.97506820  0.61286060  0.67180698  1
  O  O2  1  0.47506820  0.67180698  0.61286060  1
  O  O3  1  0.02493180  0.38713940  0.32819302  1
  O  O4  1  0.16139978  0.09893887  0.61961550  1
  O  O5  1  0.33860022  0.38038450  0.90106113  1
  O  O6  1  0.83860022  0.90106113  0.38038450  1
  O  O7  1  0.66139978  0.61961550  0.09893887  1
  O  O8  1  0.88106920  0.19850298  0.01195698  1
  O  O9  1  0.61893080  0.98804302  0.80149702  1
  O  O10  1  0.11893080  0.80149702  0.98804302  1
  O  O11  1  0.38106920  0.01195698  0.19850298  1
  Ca  Ca12  1  0.75000000  0.30080510  0.69919490  1
  Ca  Ca13  1  0.25000000  0.69919490  0.30080510  1
  Cu  Cu14  1  0.75000000  0.90238931  0.09761069  1
  Cu  Cu15  1  0.25000000  0.09761069  0.90238931  1
  Ge  Ge16  1  0.78824914  0.38054037  0.18422885  1
  Ge  Ge17  1  0.71175086  0.81577115  0.61945963  1
  Ge  Ge18  1  0.21175086  0.61945963  0.81577115  1
  Ge  Ge19  1  0.28824914  0.18422885  0.38054037  1
