# generated using pymatgen
data_Na2Si4O9
_symmetry_space_group_name_H-M   'P 1'
_cell_length_a   9.43720320
_cell_length_b   10.99478322
_cell_length_c   19.42047323
_cell_angle_alpha   90.23727307
_cell_angle_beta   90.00000000
_cell_angle_gamma   90.00000000
_symmetry_Int_Tables_number   1
_chemical_formula_structural   Na2Si4O9
_chemical_formula_sum   'Na24 Si48 O108'
_cell_volume   2015.05108927
_cell_formula_units_Z   12
loop_
 _symmetry_equiv_pos_site_id
 _symmetry_equiv_pos_as_xyz
  1  'x, y, z'
loop_
 _atom_site_type_symbol
 _atom_site_label
 _atom_site_symmetry_multiplicity
 _atom_site_fract_x
 _atom_site_fract_y
 _atom_site_fract_z
 _atom_site_occupancy
  Na  Na0  1  0.46344154  0.48362496  0.38406117  1
  Na  Na1  1  0.44864712  0.43823862  0.79559337  1
  Na  Na2  1  0.54187379  0.66969763  0.92745842  1
  Na  Na3  1  0.53655846  0.51637504  0.61593883  1
  Na  Na4  1  0.95812621  0.16969763  0.42745842  1
  Na  Na5  1  0.95532500  0.56361470  0.61391793  1
  Na  Na6  1  0.02337600  0.42741377  0.77223409  1
  Na  Na7  1  0.45812621  0.33030237  0.07254158  1
  Na  Na8  1  0.52619290  0.10507826  0.42271691  1
  Na  Na9  1  0.05135288  0.93823862  0.29559337  1
  Na  Na10  1  0.03655846  0.98362496  0.88406117  1
  Na  Na11  1  0.97380710  0.60507826  0.92271691  1
  Na  Na12  1  0.04467500  0.43638530  0.38608207  1
  Na  Na13  1  0.97662400  0.57258623  0.22776591  1
  Na  Na14  1  0.96344154  0.01637504  0.11593883  1
  Na  Na15  1  0.55135288  0.56176138  0.20440663  1
  Na  Na16  1  0.54467500  0.06361470  0.11391793  1
  Na  Na17  1  0.47380710  0.89492174  0.57728309  1
  Na  Na18  1  0.45532500  0.93638530  0.88608207  1
  Na  Na19  1  0.47662400  0.92741377  0.27223409  1
  Na  Na20  1  0.94864712  0.06176138  0.70440663  1
  Na  Na21  1  0.02619290  0.39492174  0.07728309  1
  Na  Na22  1  0.04187379  0.83030237  0.57254158  1
  Na  Na23  1  0.52337600  0.07258623  0.72776591  1
  Si  Si24  1  0.00265621  0.27222601  0.24156904  1
  Si  Si25  1  0.76459999  0.78101735  0.19672066  1
  Si  Si26  1  0.24332356  0.87601139  0.16054952  1
  Si  Si27  1  0.00062174  0.28223799  0.92097088  1
  Si  Si28  1  0.50522924  0.78112935  0.08701772  1
  Si  Si29  1  0.25924203  0.66323983  0.84678760  1
  Si  Si30  1  0.27219163  0.44034591  0.95654733  1
  Si  Si31  1  0.22780837  0.94034591  0.45654733  1
  Si  Si32  1  0.73871020  0.69337700  0.51736125  1
  Si  Si33  1  0.27545007  0.44138291  0.24555284  1
  Si  Si34  1  0.73540001  0.28101735  0.69672066  1
  Si  Si35  1  0.26078000  0.59643631  0.49029067  1
  Si  Si36  1  0.25667644  0.37601139  0.66054952  1
  Si  Si37  1  0.77545007  0.05861709  0.25444716  1
  Si  Si38  1  0.50062174  0.21776201  0.57902912  1
  Si  Si39  1  0.24075797  0.16323983  0.34678760  1
  Si  Si40  1  0.73922000  0.40356369  0.50970933  1
  Si  Si41  1  0.75812632  0.84924867  0.84459963  1
  Si  Si42  1  0.76078000  0.90356369  0.00970933  1
  Si  Si43  1  0.22520968  0.06737593  0.60669012  1
  Si  Si44  1  0.23540001  0.21898265  0.80327934  1
  Si  Si45  1  0.50265621  0.22777399  0.25843096  1
  Si  Si46  1  0.75924203  0.83676017  0.65321240  1
  Si  Si47  1  0.24187368  0.15075133  0.15540037  1
  Si  Si48  1  0.27479032  0.56737593  0.10669012  1
  Si  Si49  1  0.26459999  0.71898265  0.30327934  1
  Si  Si50  1  0.25812632  0.65075133  0.65540037  1
  Si  Si51  1  0.26128980  0.30662300  0.48263875  1
  Si  Si52  1  0.74332356  0.62398861  0.33945048  1
  Si  Si53  1  0.72520968  0.43262407  0.89330988  1
  Si  Si54  1  0.76128980  0.19337700  0.01736125  1
  Si  Si55  1  0.74187368  0.34924867  0.34459963  1
  Si  Si56  1  0.99477076  0.28112935  0.58701772  1
  Si  Si57  1  0.75667644  0.12398861  0.83945048  1
  Si  Si58  1  0.77219163  0.05965409  0.54345267  1
  Si  Si59  1  0.23922000  0.09643631  0.99029067  1
  Si  Si60  1  0.72780837  0.55965409  0.04345267  1
  Si  Si61  1  0.74075797  0.33676017  0.15321240  1
  Si  Si62  1  0.00522924  0.71887065  0.41298228  1
  Si  Si63  1  0.49734379  0.77222601  0.74156904  1
  Si  Si64  1  0.99734379  0.72777399  0.75843096  1
  Si  Si65  1  0.99937826  0.71776201  0.07902912  1
  Si  Si66  1  0.49937826  0.78223799  0.42097088  1
  Si  Si67  1  0.23871020  0.80662300  0.98263875  1
  Si  Si68  1  0.72454993  0.55861709  0.75444716  1
  Si  Si69  1  0.49477076  0.21887065  0.91298228  1
  Si  Si70  1  0.77479032  0.93262407  0.39330988  1
  Si  Si71  1  0.22454993  0.94138291  0.74555284  1
  O  O72  1  0.10982113  0.17029340  0.62427548  1
  O  O73  1  0.39338573  0.35458223  0.27958062  1
  O  O74  1  0.61040703  0.25661362  0.33302132  1
  O  O75  1  0.19100249  0.00066680  0.53275205  1
  O  O76  1  0.88999627  0.82423308  0.70588811  1
  O  O77  1  0.39366053  0.22424379  0.83391760  1
  O  O78  1  0.89451253  0.83505617  0.04251718  1
  O  O79  1  0.10813373  0.59787836  0.11869918  1
  O  O80  1  0.10264766  0.69063308  0.68317106  1
  O  O81  1  0.60260391  0.10270318  0.87400896  1
  O  O82  1  0.31264326  0.45656286  0.16275887  1
  O  O83  1  0.89739609  0.60270318  0.37400896  1
  O  O84  1  0.80950774  0.92256194  0.21853389  1
  O  O85  1  0.19114469  0.01591733  0.18379218  1
  O  O86  1  0.88959297  0.75661362  0.83302132  1
  O  O87  1  0.10260391  0.39729682  0.62599104  1
  O  O88  1  0.60620935  0.09785853  0.54137526  1
  O  O89  1  0.60813373  0.90212164  0.38130082  1
  O  O90  1  0.81264326  0.04343714  0.33724113  1
  O  O91  1  0.89381221  0.37010049  0.18693337  1
  O  O92  1  0.30899751  0.50066680  0.03275205  1
  O  O93  1  0.89245647  0.71847247  0.15450428  1
  O  O94  1  0.39379065  0.90214147  0.45862474  1
  O  O95  1  0.80621043  0.95651934  0.60433940  1
  O  O96  1  0.31025091  0.45084521  0.48756923  1
  O  O97  1  0.38610871  0.33246729  0.95134306  1
  O  O98  1  0.60661427  0.64541777  0.72041938  1
  O  O99  1  0.39735234  0.19063308  0.18317106  1
  O  O100  1  0.38772932  0.33083922  0.61484424  1
  O  O101  1  0.89735234  0.30936692  0.31682894  1
  O  O102  1  0.39381221  0.12989951  0.31306663  1
  O  O103  1  0.19378957  0.04348066  0.39566060  1
  O  O104  1  0.10116242  0.28335619  0.50974787  1
  O  O105  1  0.11000373  0.17576692  0.29411189  1
  O  O106  1  0.23193749  0.64164294  0.57064199  1
  O  O107  1  0.18974909  0.95084521  0.98756923  1
  O  O108  1  0.89338573  0.14541777  0.22041938  1
  O  O109  1  0.61000373  0.32423308  0.20588811  1
  O  O110  1  0.76806251  0.35835706  0.42935801  1
  O  O111  1  0.73193749  0.85835706  0.92935801  1
  O  O112  1  0.88870925  0.59283088  0.73797684  1
  O  O113  1  0.25369563  0.80697341  0.23481364  1
  O  O114  1  0.38999627  0.67576692  0.79411189  1
  O  O115  1  0.88813871  0.28573611  0.99582754  1
  O  O116  1  0.61472934  0.89824563  0.05312378  1
  O  O117  1  0.89017887  0.82970660  0.37572452  1
  O  O118  1  0.60754353  0.21847247  0.65450428  1
  O  O119  1  0.38959297  0.74338638  0.66697868  1
  O  O120  1  0.80899751  0.99933320  0.46724795  1
  O  O121  1  0.30950774  0.57743806  0.28146611  1
  O  O122  1  0.39186627  0.09787836  0.61869918  1
  O  O123  1  0.60548747  0.33505617  0.54251718  1
  O  O124  1  0.61129075  0.09283088  0.23797684  1
  O  O125  1  0.74164351  0.21594492  0.10216334  1
  O  O126  1  0.10661427  0.85458223  0.77958062  1
  O  O127  1  0.68735674  0.54343714  0.83724113  1
  O  O128  1  0.10620935  0.40214147  0.95862474  1
  O  O129  1  0.88527066  0.39824563  0.55312378  1
  O  O130  1  0.60982113  0.32970660  0.87572452  1
  O  O131  1  0.11129075  0.40716912  0.26202316  1
  O  O132  1  0.61227068  0.66916078  0.38515576  1
  O  O133  1  0.18735674  0.95656286  0.66275887  1
  O  O134  1  0.24164351  0.28405508  0.39783666  1
  O  O135  1  0.60116242  0.21664381  0.99025213  1
  O  O136  1  0.30885531  0.51591733  0.68379218  1
  O  O137  1  0.11472934  0.60175437  0.44687622  1
  O  O138  1  0.38813871  0.21426389  0.50417246  1
  O  O139  1  0.68974909  0.54915479  0.51243077  1
  O  O140  1  0.11227068  0.83083922  0.11484424  1
  O  O141  1  0.39451253  0.66494383  0.45748282  1
  O  O142  1  0.39883758  0.78335619  0.00974787  1
  O  O143  1  0.39245647  0.78152753  0.34549572  1
  O  O144  1  0.10633947  0.72424379  0.33391760  1
  O  O145  1  0.38527066  0.10175437  0.94687622  1
  O  O146  1  0.24630437  0.30697341  0.73481364  1
  O  O147  1  0.69049226  0.42256194  0.71853389  1
  O  O148  1  0.11040703  0.24338638  0.16697868  1
  O  O149  1  0.30621043  0.54348066  0.89566060  1
  O  O150  1  0.60633947  0.77575621  0.16608240  1
  O  O151  1  0.88772932  0.16916078  0.88515576  1
  O  O152  1  0.69378957  0.45651934  0.10433940  1
  O  O153  1  0.89186627  0.40212164  0.88130082  1
  O  O154  1  0.60618779  0.87010049  0.68693337  1
  O  O155  1  0.80885531  0.98408267  0.81620782  1
  O  O156  1  0.26806251  0.14164294  0.07064199  1
  O  O157  1  0.60264766  0.80936692  0.81682894  1
  O  O158  1  0.74630437  0.19302659  0.76518636  1
  O  O159  1  0.89366053  0.27575621  0.66608240  1
  O  O160  1  0.61186129  0.78573611  0.49582754  1
  O  O161  1  0.61389129  0.66753271  0.04865694  1
  O  O162  1  0.11186129  0.71426389  0.00417246  1
  O  O163  1  0.39739609  0.89729682  0.12599104  1
  O  O164  1  0.89379065  0.59785853  0.04137526  1
  O  O165  1  0.39017887  0.67029340  0.12427548  1
  O  O166  1  0.11389129  0.83246729  0.45134306  1
  O  O167  1  0.10548747  0.16494383  0.95748282  1
  O  O168  1  0.19049226  0.07743806  0.78146611  1
  O  O169  1  0.69114469  0.48408267  0.31620782  1
  O  O170  1  0.88610871  0.16753271  0.54865694  1
  O  O171  1  0.38870925  0.90716912  0.76202316  1
  O  O172  1  0.81025091  0.04915479  0.01243077  1
  O  O173  1  0.69100249  0.49933320  0.96724795  1
  O  O174  1  0.89883758  0.71664381  0.49025213  1
  O  O175  1  0.10754353  0.28152753  0.84549572  1
  O  O176  1  0.25835649  0.78405508  0.89783666  1
  O  O177  1  0.75369563  0.69302659  0.26518636  1
  O  O178  1  0.75835649  0.71594492  0.60216334  1
  O  O179  1  0.10618779  0.62989951  0.81306663  1
