# generated using pymatgen
data_Al(HO)3
_symmetry_space_group_name_H-M   'P 1'
_cell_length_a   8.82420951
_cell_length_b   5.12133892
_cell_length_c   9.47645848
_cell_angle_alpha   88.08024288
_cell_angle_beta   92.21994485
_cell_angle_gamma   86.89492860
_symmetry_Int_Tables_number   1
_chemical_formula_structural   Al(HO)3
_chemical_formula_sum   'Al8 H24 O24'
_cell_volume   427.03619878
_cell_formula_units_Z   8
loop_
 _symmetry_equiv_pos_site_id
 _symmetry_equiv_pos_as_xyz
  1  'x, y, z'
loop_
 _atom_site_type_symbol
 _atom_site_label
 _atom_site_symmetry_multiplicity
 _atom_site_fract_x
 _atom_site_fract_y
 _atom_site_fract_z
 _atom_site_occupancy
  Al  Al0  1  0.35065366  0.95915694  0.49651986  1
  Al  Al1  1  0.67885673  0.03251874  0.49244615  1
  Al  Al2  1  0.83362809  0.49555498  0.48947171  1
  Al  Al3  1  0.17897635  0.47642922  0.49501268  1
  Al  Al4  1  0.80785276  0.00803915  0.00006363  1
  Al  Al5  1  0.16901459  0.06496715  0.99013264  1
  Al  Al6  1  0.32051734  0.54028771  0.99136606  1
  Al  Al7  1  0.65306828  0.51908138  0.99181470  1
  H  H8  1  0.01412178  0.47509065  0.68952029  1
  H  H9  1  0.00659692  0.25852273  0.31117232  1
  H  H10  1  0.55767947  0.66909736  0.38835550  1
  H  H11  1  0.47439228  0.30149847  0.61288404  1
  H  H12  1  0.10662314  0.06965878  0.61830009  1
  H  H13  1  0.93173476  0.90672864  0.42944727  1
  H  H14  1  0.36183190  0.63682171  0.70414846  1
  H  H15  1  0.81468659  0.19285874  0.70605182  1
  H  H16  1  0.21494069  0.79879415  0.28989664  1
  H  H17  1  0.42126159  0.35801062  0.37795580  1
  H  H18  1  0.61640551  0.63653904  0.64114997  1
  H  H19  1  0.95264072  0.35365222  0.91929306  1
  H  H20  1  0.92721093  0.80751235  0.22983239  1
  H  H21  1  0.01520802  0.64634318  0.11381749  1
  H  H22  1  0.51357580  0.35953279  0.19263433  1
  H  H23  1  0.47323434  0.85410781  0.86319233  1
  H  H24  1  0.60488534  0.17492621  0.80400088  1
  H  H25  1  0.39909356  0.91787625  0.13417188  1
  H  H26  1  0.22635215  0.32261846  0.20396500  1
  H  H27  1  0.78524926  0.71886132  0.78875556  1
  H  H28  1  0.75806919  0.30262403  0.21099492  1
  H  H29  1  0.10659893  0.73489004  0.80824237  1
  H  H30  1  0.27218607  0.22867374  0.77546138  1
  H  H31  1  0.64491614  0.84115119  0.19594013  1
  O  O32  1  0.02099349  0.60203123  0.61133831  1
  O  O33  1  0.00733336  0.37230933  0.39046920  1
  O  O34  1  0.52328533  0.85768478  0.38768530  1
  O  O35  1  0.50744104  0.11527759  0.61075475  1
  O  O36  1  0.20378148  0.15064588  0.60827221  1
  O  O37  1  0.83859479  0.83546856  0.39102324  1
  O  O38  1  0.67736436  0.34684151  0.38654073  1
  O  O39  1  0.34544955  0.63274642  0.60083079  1
  O  O40  1  0.83316185  0.18481713  0.60498300  1
  O  O41  1  0.19804932  0.79744077  0.39195917  1
  O  O42  1  0.32129320  0.28381475  0.38236040  1
  O  O43  1  0.71178660  0.70613568  0.61324192  1
  O  O44  1  0.97840488  0.16505908  0.91515698  1
  O  O45  1  0.97290166  0.82408276  0.13405151  1
  O  O46  1  0.49038365  0.39052547  0.09211994  1
  O  O47  1  0.47736723  0.66376803  0.87414380  1
  O  O48  1  0.68029402  0.22642399  0.87451644  1
  O  O49  1  0.30230688  0.84686199  0.10632800  1
  O  O50  1  0.18079693  0.35535508  0.10731984  1
  O  O51  1  0.80447646  0.70351423  0.89319390  1
  O  O52  1  0.79355201  0.30602164  0.11190739  1
  O  O53  1  0.16326214  0.75187624  0.89723717  1
  O  O54  1  0.29485296  0.24480626  0.87837329  1
  O  O55  1  0.66208995  0.82662887  0.09558036  1
