# generated using pymatgen
data_Sr(H8O5)2
_symmetry_space_group_name_H-M   'P 1'
_cell_length_a   6.69338465
_cell_length_b   6.55082937
_cell_length_c   5.93870340
_cell_angle_alpha   88.57747017
_cell_angle_beta   88.14594326
_cell_angle_gamma   86.96959699
_symmetry_Int_Tables_number   1
_chemical_formula_structural   Sr(H8O5)2
_chemical_formula_sum   'Sr1 H16 O10'
_cell_volume   259.82566838
_cell_formula_units_Z   1
loop_
 _symmetry_equiv_pos_site_id
 _symmetry_equiv_pos_as_xyz
  1  'x, y, z'
loop_
 _atom_site_type_symbol
 _atom_site_label
 _atom_site_symmetry_multiplicity
 _atom_site_fract_x
 _atom_site_fract_y
 _atom_site_fract_z
 _atom_site_occupancy
  Sr  Sr0  1  0.00048040  0.99798776  0.00367141  1
  H  H1  1  0.32438507  0.32887089  0.74824101  1
  H  H2  1  0.19976558  0.20997439  0.59131833  1
  H  H3  1  0.65480516  0.67440817  0.69095061  1
  H  H4  1  0.68638719  0.91733819  0.72134747  1
  H  H5  1  0.64613751  0.30979332  0.72917196  1
  H  H6  1  0.79236303  0.18971859  0.57285933  1
  H  H7  1  0.31406548  0.64854558  0.69557406  1
  H  H8  1  0.07299332  0.65020552  0.71604414  1
  H  H9  1  0.80172105  0.78544516  0.41742715  1
  H  H10  1  0.67671932  0.66929157  0.25829825  1
  H  H11  1  0.34329406  0.32411992  0.31732859  1
  H  H12  1  0.31333306  0.08137001  0.28547028  1
  H  H13  1  0.20864673  0.81086057  0.43589287  1
  H  H14  1  0.35411874  0.68815351  0.28131234  1
  H  H15  1  0.68495098  0.34791965  0.31145993  1
  H  H16  1  0.92541912  0.34662243  0.28645337  1
  O  O17  1  0.49934825  0.51157945  0.63066828  1
  O  O18  1  0.49914479  0.48628320  0.37879768  1
  O  O19  1  0.21273088  0.23400104  0.75472963  1
  O  O20  1  0.75835232  0.78187787  0.71515897  1
  O  O21  1  0.74324423  0.18659912  0.73305699  1
  O  O22  1  0.18344994  0.74063898  0.72336516  1
  O  O23  1  0.79044479  0.76124622  0.25370596  1
  O  O24  1  0.24029499  0.21627880  0.29260962  1
  O  O25  1  0.25841065  0.81263276  0.27589305  1
  O  O26  1  0.81499435  0.25566930  0.28364155  1
