# generated using pymatgen
data_ReTe3Br5
_symmetry_space_group_name_H-M   'P 1'
_cell_length_a   8.89390668
_cell_length_b   11.63370909
_cell_length_c   12.74504488
_cell_angle_alpha   106.01155754
_cell_angle_beta   90.00000000
_cell_angle_gamma   90.00000000
_symmetry_Int_Tables_number   1
_chemical_formula_structural   ReTe3Br5
_chemical_formula_sum   'Re4 Te12 Br20'
_cell_volume   1267.56034512
_cell_formula_units_Z   4
loop_
 _symmetry_equiv_pos_site_id
 _symmetry_equiv_pos_as_xyz
  1  'x, y, z'
loop_
 _atom_site_type_symbol
 _atom_site_label
 _atom_site_symmetry_multiplicity
 _atom_site_fract_x
 _atom_site_fract_y
 _atom_site_fract_z
 _atom_site_occupancy
  Re  Re0  1  0.86099458  0.77729255  0.21248124  1
  Re  Re1  1  0.07974017  0.63495907  0.28159624  1
  Re  Re2  1  0.57974017  0.36504093  0.71840376  1
  Re  Re3  1  0.36099458  0.22270745  0.78751876  1
  Te  Te4  1  0.81577611  0.92870306  0.08163432  1
  Te  Te5  1  0.28351117  0.36155386  0.65445003  1
  Te  Te6  1  0.45539737  0.43320243  0.91484061  1
  Te  Te7  1  0.26031988  0.61241744  0.45006288  1
  Te  Te8  1  0.96568613  0.83320142  0.42141653  1
  Te  Te9  1  0.78351117  0.63844614  0.34554997  1
  Te  Te10  1  0.15116445  0.80833041  0.19049037  1
  Te  Te11  1  0.46568613  0.16679858  0.57858347  1
  Te  Te12  1  0.65116445  0.19166959  0.80950963  1
  Te  Te13  1  0.31577611  0.07129694  0.91836568  1
  Te  Te14  1  0.76031988  0.38758256  0.54993712  1
  Te  Te15  1  0.95539737  0.56679757  0.08515939  1
  Br  Br16  1  0.98840309  0.11259926  0.14306785  1
  Br  Br17  1  0.56957059  0.57992798  0.68136695  1
  Br  Br18  1  0.62249209  0.72441255  0.08327921  1
  Br  Br19  1  0.93802866  0.20522173  0.49287179  1
  Br  Br20  1  0.59385942  0.33342274  0.37397993  1
  Br  Br21  1  0.09385942  0.66657726  0.62602007  1
  Br  Br22  1  0.43802866  0.79477827  0.50712821  1
  Br  Br23  1  0.68257380  0.96266270  0.29843031  1
  Br  Br24  1  0.95510801  0.83677574  0.89817152  1
  Br  Br25  1  0.23414345  0.00542245  0.35116688  1
  Br  Br26  1  0.45510801  0.16322426  0.10182848  1
  Br  Br27  1  0.12249209  0.27558745  0.91672079  1
  Br  Br28  1  0.48840309  0.88740074  0.85693215  1
  Br  Br29  1  0.35497845  0.55376445  0.22173821  1
  Br  Br30  1  0.18257380  0.03733730  0.70156969  1
  Br  Br31  1  0.74844258  0.40659305  0.10502581  1
  Br  Br32  1  0.73414345  0.99457755  0.64883312  1
  Br  Br33  1  0.24844258  0.59340695  0.89497419  1
  Br  Br34  1  0.85497845  0.44623555  0.77826179  1
  Br  Br35  1  0.06957059  0.42007202  0.31863305  1
