# generated using pymatgen
data_RuC3Br2O3
_symmetry_space_group_name_H-M   'P 1'
_cell_length_a   6.60668648
_cell_length_b   6.60668637
_cell_length_c   9.56670161
_cell_angle_alpha   76.59644356
_cell_angle_beta   76.59644378
_cell_angle_gamma   69.20835841
_symmetry_Int_Tables_number   1
_chemical_formula_structural   RuC3Br2O3
_chemical_formula_sum   'Ru2 C6 Br4 O6'
_cell_volume   374.57581077
_cell_formula_units_Z   2
loop_
 _symmetry_equiv_pos_site_id
 _symmetry_equiv_pos_as_xyz
  1  'x, y, z'
loop_
 _atom_site_type_symbol
 _atom_site_label
 _atom_site_symmetry_multiplicity
 _atom_site_fract_x
 _atom_site_fract_y
 _atom_site_fract_z
 _atom_site_occupancy
  Ru  Ru0  1  0.06339735  0.06339735  0.78870566  1
  Ru  Ru1  1  0.93660265  0.93660265  0.21129434  1
  C  C2  1  0.09107027  0.72144411  0.35224781  1
  C  C3  1  0.72144411  0.09107027  0.35224781  1
  C  C4  1  0.90892973  0.27855589  0.64775219  1
  C  C5  1  0.76222758  0.76222758  0.20239338  1
  C  C6  1  0.27855589  0.90892973  0.64775219  1
  C  C7  1  0.23777242  0.23777242  0.79760662  1
  Br  Br8  1  0.82896158  0.82896158  0.77446588  1
  Br  Br9  1  0.23725767  0.76274233  0.00000000  1
  Br  Br10  1  0.17103842  0.17103842  0.22553412  1
  Br  Br11  1  0.76274233  0.23725767  0.00000000  1
  O  O12  1  0.65561074  0.65561074  0.20554271  1
  O  O13  1  0.34438926  0.34438926  0.79445729  1
  O  O14  1  0.80873961  0.40981388  0.56540410  1
  O  O15  1  0.40981388  0.80873961  0.56540410  1
  O  O16  1  0.59018612  0.19126039  0.43459590  1
  O  O17  1  0.19126039  0.59018612  0.43459590  1
