# generated using pymatgen
data_ZnSiO3
_symmetry_space_group_name_H-M   'P 1'
_cell_length_a   5.29931461
_cell_length_b   9.31241562
_cell_length_c   9.42866296
_cell_angle_alpha   90.00000000
_cell_angle_beta   100.51128590
_cell_angle_gamma   90.00000000
_symmetry_Int_Tables_number   1
_chemical_formula_structural   ZnSiO3
_chemical_formula_sum   'Zn8 Si8 O24'
_cell_volume   457.49086336
_cell_formula_units_Z   8
loop_
 _symmetry_equiv_pos_site_id
 _symmetry_equiv_pos_as_xyz
  1  'x, y, z'
loop_
 _atom_site_type_symbol
 _atom_site_label
 _atom_site_symmetry_multiplicity
 _atom_site_fract_x
 _atom_site_fract_y
 _atom_site_fract_z
 _atom_site_occupancy
  Zn  Zn0  1  0.02970122  0.99518073  0.25519241  1
  Zn  Zn1  1  0.47029878  0.49518073  0.74480759  1
  Zn  Zn2  1  0.02296178  0.64599943  0.25015239  1
  Zn  Zn3  1  0.52296178  0.85400057  0.25015239  1
  Zn  Zn4  1  0.97703822  0.35400057  0.74984761  1
  Zn  Zn5  1  0.52970122  0.50481927  0.25519241  1
  Zn  Zn6  1  0.97029878  0.00481927  0.74480759  1
  Zn  Zn7  1  0.47703822  0.14599943  0.74984761  1
  Si  Si8  1  0.74741716  0.83709634  0.95373293  1
  Si  Si9  1  0.31289916  0.83314186  0.55569124  1
  Si  Si10  1  0.75258284  0.33709634  0.04626707  1
  Si  Si11  1  0.68710084  0.16685814  0.44430876  1
  Si  Si12  1  0.81289916  0.66685814  0.55569124  1
  Si  Si13  1  0.25258284  0.16290366  0.04626707  1
  Si  Si14  1  0.18710084  0.33314186  0.44430876  1
  Si  Si15  1  0.24741716  0.66290366  0.95373293  1
  O  O16  1  0.30284168  0.66352654  0.13201508  1
  O  O17  1  0.87608928  0.29608875  0.39776065  1
  O  O18  1  0.25156638  0.84027643  0.37734229  1
  O  O19  1  0.22161962  0.50646057  0.87575366  1
  O  O20  1  0.75156638  0.65972357  0.37734229  1
  O  O21  1  0.27838038  0.00646057  0.12424634  1
  O  O22  1  0.19715832  0.16352654  0.86798492  1
  O  O23  1  0.50799188  0.26128999  0.10323261  1
  O  O24  1  0.49200812  0.73871001  0.89676739  1
  O  O25  1  0.77838038  0.49353943  0.12424634  1
  O  O26  1  0.75317597  0.02189526  0.36212261  1
  O  O27  1  0.62391072  0.79608875  0.60223935  1
  O  O28  1  0.12391072  0.70391125  0.60223935  1
  O  O29  1  0.24682403  0.97810474  0.63787739  1
  O  O30  1  0.99200812  0.76128999  0.89676739  1
  O  O31  1  0.24843362  0.34027643  0.62265771  1
  O  O32  1  0.25317597  0.47810474  0.36212261  1
  O  O33  1  0.74843362  0.15972357  0.62265771  1
  O  O34  1  0.80284168  0.83647346  0.13201508  1
  O  O35  1  0.00799188  0.23871001  0.10323261  1
  O  O36  1  0.74682403  0.52189526  0.63787739  1
  O  O37  1  0.72161962  0.99353943  0.87575366  1
  O  O38  1  0.69715832  0.33647346  0.86798492  1
  O  O39  1  0.37608928  0.20391125  0.39776065  1
