# generated using pymatgen
data_LiSn2P3O10
_symmetry_space_group_name_H-M   'P 1'
_cell_length_a   5.07929578
_cell_length_b   9.21871725
_cell_length_c   10.05103732
_cell_angle_alpha   90.00000000
_cell_angle_beta   94.63393568
_cell_angle_gamma   90.00000000
_symmetry_Int_Tables_number   1
_chemical_formula_structural   LiSn2P3O10
_chemical_formula_sum   'Li2 Sn4 P6 O20'
_cell_volume   469.09730511
_cell_formula_units_Z   2
loop_
 _symmetry_equiv_pos_site_id
 _symmetry_equiv_pos_as_xyz
  1  'x, y, z'
loop_
 _atom_site_type_symbol
 _atom_site_label
 _atom_site_symmetry_multiplicity
 _atom_site_fract_x
 _atom_site_fract_y
 _atom_site_fract_z
 _atom_site_occupancy
  Li  Li0  1  0.00000000  0.00000000  0.00000000  1
  Li  Li1  1  0.00000000  0.50000000  0.00000000  1
  Sn  Sn2  1  0.97261636  0.55786058  0.67361741  1
  Sn  Sn3  1  0.02738364  0.44213942  0.32638259  1
  Sn  Sn4  1  0.02738364  0.05786058  0.32638259  1
  Sn  Sn5  1  0.97261636  0.94213942  0.67361741  1
  P  P6  1  0.29193788  0.25000000  0.83695726  1
  P  P7  1  0.55929512  0.25000000  0.56779291  1
  P  P8  1  0.44070488  0.75000000  0.43220709  1
  P  P9  1  0.41761528  0.25000000  0.12368655  1
  P  P10  1  0.70806212  0.75000000  0.16304274  1
  P  P11  1  0.58238472  0.75000000  0.87631345  1
  O  O12  1  0.27863367  0.88895044  0.44413713  1
  O  O13  1  0.75015254  0.88908715  0.86210017  1
  O  O14  1  0.27863367  0.61104956  0.44413713  1
  O  O15  1  0.50464090  0.75000000  0.03262223  1
  O  O16  1  0.49535910  0.25000000  0.96737777  1
  O  O17  1  0.72136633  0.38895044  0.55586287  1
  O  O18  1  0.72136633  0.11104956  0.55586287  1
  O  O19  1  0.68074959  0.25000000  0.20404005  1
  O  O20  1  0.86979852  0.61087295  0.16374416  1
  O  O21  1  0.50506594  0.75000000  0.27243492  1
  O  O22  1  0.75015254  0.61091285  0.86210017  1
  O  O23  1  0.13020148  0.11087295  0.83625584  1
  O  O24  1  0.29846161  0.25000000  0.48240289  1
  O  O25  1  0.70153839  0.75000000  0.51759711  1
  O  O26  1  0.24984746  0.38908715  0.13789983  1
  O  O27  1  0.31925041  0.75000000  0.79595995  1
  O  O28  1  0.13020148  0.38912705  0.83625584  1
  O  O29  1  0.86979852  0.88912705  0.16374416  1
  O  O30  1  0.49493406  0.25000000  0.72756508  1
  O  O31  1  0.24984746  0.11091285  0.13789983  1
