# generated using pymatgen
data_CaMgSiO4
_symmetry_space_group_name_H-M   'P 1'
_cell_length_a   5.24078533
_cell_length_b   6.86954807
_cell_length_c   9.13477404
_cell_angle_alpha   90.00000000
_cell_angle_beta   90.00000000
_cell_angle_gamma   90.00000000
_symmetry_Int_Tables_number   1
_chemical_formula_structural   CaMgSiO4
_chemical_formula_sum   'Ca4 Mg4 Si4 O16'
_cell_volume   328.86855238
_cell_formula_units_Z   4
loop_
 _symmetry_equiv_pos_site_id
 _symmetry_equiv_pos_as_xyz
  1  'x, y, z'
loop_
 _atom_site_type_symbol
 _atom_site_label
 _atom_site_symmetry_multiplicity
 _atom_site_fract_x
 _atom_site_fract_y
 _atom_site_fract_z
 _atom_site_occupancy
  Ca  Ca0  1  0.03604927  0.75000000  0.64998669  1
  Ca  Ca1  1  0.96395073  0.25000000  0.35001331  1
  Ca  Ca2  1  0.53604927  0.25000000  0.85001331  1
  Ca  Ca3  1  0.46395073  0.75000000  0.14998669  1
  Mg  Mg4  1  0.50000000  0.00000000  0.50000000  1
  Mg  Mg5  1  -0.00000000  -0.00000000  0.00000000  1
  Mg  Mg6  1  -0.00000000  0.50000000  0.00000000  1
  Mg  Mg7  1  0.50000000  0.50000000  0.50000000  1
  Si  Si8  1  0.04264769  0.25000000  0.68285943  1
  Si  Si9  1  0.45735231  0.25000000  0.18285943  1
  Si  Si10  1  0.54264769  0.75000000  0.81714057  1
  Si  Si11  1  0.95735231  0.75000000  0.31714057  1
  O  O12  1  0.74938590  0.25000000  0.61603890  1
  O  O13  1  0.19925611  0.44181265  0.62588672  1
  O  O14  1  0.24938590  0.75000000  0.88396110  1
  O  O15  1  0.19925611  0.05818735  0.62588672  1
  O  O16  1  0.69925611  0.55818735  0.87411328  1
  O  O17  1  0.75061410  0.25000000  0.11603890  1
  O  O18  1  0.80074389  0.55818735  0.37411328  1
  O  O19  1  0.25061410  0.75000000  0.38396110  1
  O  O20  1  0.93836230  0.75000000  0.13587476  1
  O  O21  1  0.80074389  0.94181265  0.37411328  1
  O  O22  1  0.30074389  0.05818735  0.12588672  1
  O  O23  1  0.06163770  0.25000000  0.86412524  1
  O  O24  1  0.43836230  0.25000000  0.36412524  1
  O  O25  1  0.30074389  0.44181265  0.12588672  1
  O  O26  1  0.69925611  0.94181265  0.87411328  1
  O  O27  1  0.56163770  0.75000000  0.63587476  1
