# generated using pymatgen
data_Zr3Sc4O12
_symmetry_space_group_name_H-M   'P 1'
_cell_length_a   6.23209779
_cell_length_b   6.24987621
_cell_length_c   12.39775338
_cell_angle_alpha   99.37639718
_cell_angle_beta   99.43096805
_cell_angle_gamma   99.67259461
_symmetry_Int_Tables_number   1
_chemical_formula_structural   Zr3Sc4O12
_chemical_formula_sum   'Zr6 Sc8 O24'
_cell_volume   460.49797442
_cell_formula_units_Z   2
loop_
 _symmetry_equiv_pos_site_id
 _symmetry_equiv_pos_as_xyz
  1  'x, y, z'
loop_
 _atom_site_type_symbol
 _atom_site_label
 _atom_site_symmetry_multiplicity
 _atom_site_fract_x
 _atom_site_fract_y
 _atom_site_fract_z
 _atom_site_occupancy
  Zr  Zr0  1  0.14164084  0.61259768  0.15627741  1
  Zr  Zr1  1  0.99355617  0.99671496  0.00095956  1
  Zr  Zr2  1  0.31565163  0.14274674  0.80669883  1
  Zr  Zr3  1  0.68434837  0.85725326  0.69330117  1
  Zr  Zr4  1  0.00644383  0.00328504  0.49904044  1
  Zr  Zr5  1  0.85835916  0.38740232  0.34372259  1
  Sc  Sc6  1  0.13778405  0.60361043  0.65682385  1
  Sc  Sc7  1  0.39506004  0.67888451  0.93073886  1
  Sc  Sc8  1  0.39150062  0.68306995  0.42930060  1
  Sc  Sc9  1  0.32320664  0.14129132  0.30482708  1
  Sc  Sc10  1  0.60493996  0.32111549  0.56926114  1
  Sc  Sc11  1  0.67679336  0.85870868  0.19517292  1
  Sc  Sc12  1  0.86221595  0.39638957  0.84317615  1
  Sc  Sc13  1  0.60849938  0.31693005  0.07069940  1
  O  O14  1  0.06393434  0.67555819  0.95925400  1
  O  O15  1  0.08907685  0.93846658  0.66164925  1
  O  O16  1  0.05830500  0.68076850  0.44994679  1
  O  O17  1  0.17857082  0.41878923  0.78684587  1
  O  O18  1  0.09765634  0.94095111  0.16202912  1
  O  O19  1  0.32003847  0.09747048  0.96955844  1
  O  O20  1  0.17782782  0.41798338  0.28675474  1
  O  O21  1  0.42587686  0.82280317  0.79035039  1
  O  O22  1  0.42030956  0.58119770  0.59092389  1
  O  O23  1  0.32424813  0.09806364  0.47099769  1
  O  O24  1  0.41823062  0.81884405  0.28877834  1
  O  O25  1  0.57969044  0.41880230  0.90907611  1
  O  O26  1  0.42088550  0.57334068  0.08994260  1
  O  O27  1  0.57412314  0.17719683  0.70964961  1
  O  O28  1  0.67996153  0.90252952  0.53044156  1
  O  O29  1  0.57911450  0.42665932  0.41005740  1
  O  O30  1  0.58176938  0.18115595  0.21122166  1
  O  O31  1  0.82142918  0.58121077  0.71315413  1
  O  O32  1  0.67575187  0.90193636  0.02900231  1
  O  O33  1  0.91092315  0.06153342  0.83835075  1
  O  O34  1  0.82217218  0.58201662  0.21324526  1
  O  O35  1  0.93606566  0.32444181  0.54074600  1
  O  O36  1  0.90234366  0.05904889  0.33797088  1
  O  O37  1  0.94169500  0.31923150  0.05005321  1
