# generated using pymatgen
data_MgZr4O9
_symmetry_space_group_name_H-M   'P 1'
_cell_length_a   3.46523056
_cell_length_b   6.99469602
_cell_length_c   19.25819560
_cell_angle_alpha   61.54657334
_cell_angle_beta   63.26668488
_cell_angle_gamma   60.30332597
_symmetry_Int_Tables_number   1
_chemical_formula_structural   MgZr4O9
_chemical_formula_sum   'Mg2 Zr8 O18'
_cell_volume   342.24314193
_cell_formula_units_Z   2
loop_
 _symmetry_equiv_pos_site_id
 _symmetry_equiv_pos_as_xyz
  1  'x, y, z'
loop_
 _atom_site_type_symbol
 _atom_site_label
 _atom_site_symmetry_multiplicity
 _atom_site_fract_x
 _atom_site_fract_y
 _atom_site_fract_z
 _atom_site_occupancy
  Mg  Mg0  1  0.00000000  0.00000000  0.20000000  1
  Mg  Mg1  1  0.00000000  0.50000000  0.20000000  1
  Zr  Zr2  1  0.92765016  0.97176527  0.04023383  1
  Zr  Zr3  1  0.98793672  0.51231834  -0.00010202  1
  Zr  Zr4  1  0.07234984  0.02823473  0.35976617  1
  Zr  Zr5  1  0.99308636  0.97676457  0.61205963  1
  Zr  Zr6  1  0.01206328  0.48768166  0.40010202  1
  Zr  Zr7  1  0.00691364  0.02323543  0.78794037  1
  Zr  Zr8  1  0.03152322  0.52720114  0.57651026  1
  Zr  Zr9  1  0.96847678  0.47279886  0.82348974  1
  O  O10  1  0.14411610  0.16281630  0.07722704  1
  O  O11  1  0.24585156  0.16955587  0.23383703  1
  O  O12  1  0.26284164  0.56377805  0.06935212  1
  O  O13  1  0.34959935  0.12180382  0.41143874  1
  O  O14  1  0.73715836  0.43622195  0.33064788  1
  O  O15  1  0.19210682  0.16287594  0.65800689  1
  O  O16  1  0.75414844  0.83044413  0.16616297  1
  O  O17  1  0.22614604  0.65796379  0.44635607  1
  O  O18  1  0.30025911  0.09361269  0.84245128  1
  O  O19  1  0.85588390  0.83718370  0.32277296  1
  O  O20  1  0.83149310  0.34057029  0.53117465  1
  O  O21  1  0.32500554  0.59938802  0.63024258  1
  O  O22  1  0.16850690  0.65942971  0.86882535  1
  O  O23  1  0.67499446  0.40061198  0.76975742  1
  O  O24  1  0.69974089  0.90638731  0.55754872  1
  O  O25  1  0.77385396  0.34203621  0.95364393  1
  O  O26  1  0.80789318  0.83712406  0.74199311  1
  O  O27  1  0.65040065  0.87819618  0.98856126  1
