# generated using pymatgen
data_Sn5(Mo3S4)12
_symmetry_space_group_name_H-M   'P 1'
_cell_length_a   13.11875743
_cell_length_b   19.68429611
_cell_length_c   11.45719721
_cell_angle_alpha   54.40721292
_cell_angle_beta   54.41010708
_cell_angle_gamma   89.54074085
_symmetry_Int_Tables_number   1
_chemical_formula_structural   Sn5(Mo3S4)12
_chemical_formula_sum   'Sn5 Mo36 S48'
_cell_volume   1694.23401450
_cell_formula_units_Z   1
loop_
 _symmetry_equiv_pos_site_id
 _symmetry_equiv_pos_as_xyz
  1  'x, y, z'
loop_
 _atom_site_type_symbol
 _atom_site_label
 _atom_site_symmetry_multiplicity
 _atom_site_fract_x
 _atom_site_fract_y
 _atom_site_fract_z
 _atom_site_occupancy
  Sn  Sn0  1  0.00020642  0.33332173  0.99972465  1
  Sn  Sn1  1  0.99979358  0.66667827  0.00027535  1
  Sn  Sn2  1  0.50000000  0.00000000  0.00000000  1
  Sn  Sn3  1  0.49956612  0.33315460  0.00065865  1
  Sn  Sn4  1  0.50043388  0.66684540  0.99934135  1
  Mo  Mo5  1  0.09537875  0.11095504  0.22424806  1
  Mo  Mo6  1  0.09572807  0.44512744  0.22519506  1
  Mo  Mo7  1  0.09724210  0.78075886  0.21999415  1
  Mo  Mo8  1  0.07264457  0.26936203  0.41596545  1
  Mo  Mo9  1  0.07193986  0.60279627  0.41642279  1
  Mo  Mo10  1  0.07099654  0.93639353  0.41508085  1
  Mo  Mo11  1  0.16655351  0.04728811  0.44300264  1
  Mo  Mo12  1  0.16908813  0.38150596  0.43925508  1
  Mo  Mo13  1  0.16795626  0.71500125  0.43902852  1
  Mo  Mo14  1  0.32902263  0.28409797  0.56221340  1
  Mo  Mo15  1  0.33259554  0.61878135  0.56047586  1
  Mo  Mo16  1  0.33191982  0.95179134  0.56052293  1
  Mo  Mo17  1  0.59656708  0.11269350  0.22252601  1
  Mo  Mo18  1  0.59562687  0.44509050  0.22520184  1
  Mo  Mo19  1  0.59607474  0.77914499  0.22374208  1
  Mo  Mo20  1  0.42635126  0.06475416  0.58524905  1
  Mo  Mo21  1  0.42755690  0.39702919  0.58401539  1
  Mo  Mo22  1  0.42770927  0.73128612  0.58387838  1
  Mo  Mo23  1  0.57229073  0.26871388  0.41612162  1
  Mo  Mo24  1  0.57244310  0.60297081  0.41598461  1
  Mo  Mo25  1  0.57364874  0.93524584  0.41475095  1
  Mo  Mo26  1  0.40392526  0.22085501  0.77625792  1
  Mo  Mo27  1  0.40437313  0.55490950  0.77479816  1
  Mo  Mo28  1  0.40343292  0.88730650  0.77747399  1
  Mo  Mo29  1  0.66808018  0.04820866  0.43947707  1
  Mo  Mo30  1  0.66740446  0.38121865  0.43952414  1
  Mo  Mo31  1  0.67097737  0.71590203  0.43778660  1
  Mo  Mo32  1  0.83204374  0.28499875  0.56097148  1
  Mo  Mo33  1  0.83091187  0.61849404  0.56074492  1
  Mo  Mo34  1  0.83344649  0.95271189  0.55699736  1
  Mo  Mo35  1  0.92900346  0.06360647  0.58491915  1
  Mo  Mo36  1  0.92806014  0.39720373  0.58357721  1
  Mo  Mo37  1  0.92735543  0.73063797  0.58403455  1
  Mo  Mo38  1  0.90275790  0.21924114  0.78000585  1
  Mo  Mo39  1  0.90427193  0.55487256  0.77480494  1
  Mo  Mo40  1  0.90462125  0.88904496  0.77575194  1
  S  S41  1  0.18070937  0.20464285  0.25856434  1
  S  S42  1  0.18096193  0.53836620  0.25826861  1
  S  S43  1  0.18089904  0.87183463  0.25771663  1
  S  S44  1  0.30699809  0.08432773  0.12745322  1
  S  S45  1  0.30786258  0.41759186  0.12629422  1
  S  S46  1  0.30659711  0.75079231  0.12728419  1
  S  S47  1  0.00016603  0.33318735  0.75864648  1
  S  S48  1  0.00023449  0.66674171  0.75805907  1
  S  S49  1  0.99993031  0.99995633  0.76271335  1
  S  S50  1  0.12733312  0.21528484  0.61704173  1
  S  S51  1  0.12587782  0.54565106  0.62123651  1
  S  S52  1  0.12656171  0.87971222  0.61957400  1
  S  S53  1  0.37280030  0.12046326  0.38122668  1
  S  S54  1  0.37386226  0.45370732  0.37955270  1
  S  S55  1  0.37364798  0.78760494  0.37923525  1
  S  S56  1  0.50058900  0.00019735  0.24059941  1
  S  S57  1  0.49987838  0.33318108  0.24163277  1
  S  S58  1  0.49997541  0.66652912  0.24174384  1
  S  S59  1  0.19225454  0.24887972  0.87297718  1
  S  S60  1  0.19241714  0.58229858  0.87347397  1
  S  S61  1  0.19577561  0.91511251  0.87153219  1
  S  S62  1  0.32309529  0.13041937  0.73690499  1
  S  S63  1  0.31850133  0.46169413  0.74181999  1
  S  S64  1  0.31967556  0.79551758  0.74058845  1
  S  S65  1  0.68032444  0.20448242  0.25941155  1
  S  S66  1  0.68149867  0.53830587  0.25818001  1
  S  S67  1  0.67690471  0.86958063  0.26309501  1
  S  S68  1  0.80422439  0.08488749  0.12846781  1
  S  S69  1  0.80758286  0.41770142  0.12652603  1
  S  S70  1  0.80774546  0.75112028  0.12702282  1
  S  S71  1  0.50002459  0.33347088  0.75825616  1
  S  S72  1  0.50012162  0.66681892  0.75836723  1
  S  S73  1  0.49941100  0.99980265  0.75940059  1
  S  S74  1  0.62635202  0.21239506  0.62076475  1
  S  S75  1  0.62613774  0.54629268  0.62044730  1
  S  S76  1  0.62719970  0.87953674  0.61877332  1
  S  S77  1  0.87343829  0.12028778  0.38042600  1
  S  S78  1  0.87412218  0.45434894  0.37876349  1
  S  S79  1  0.87266688  0.78471516  0.38295827  1
  S  S80  1  0.00006969  0.00004367  0.23728665  1
  S  S81  1  0.99976551  0.33325829  0.24194093  1
  S  S82  1  0.99983397  0.66681265  0.24135352  1
  S  S83  1  0.69340289  0.24920769  0.87271581  1
  S  S84  1  0.69213742  0.58240814  0.87370578  1
  S  S85  1  0.69300191  0.91567227  0.87254678  1
  S  S86  1  0.81910096  0.12816537  0.74228337  1
  S  S87  1  0.81903807  0.46163380  0.74173139  1
  S  S88  1  0.81929063  0.79535715  0.74143566  1
