# generated using pymatgen
data_Cu27Se20
_symmetry_space_group_name_H-M   'P 1'
_cell_length_a   4.02215124
_cell_length_b   4.02215119
_cell_length_c   79.83886729
_cell_angle_alpha   59.74936522
_cell_angle_beta   59.74936564
_cell_angle_gamma   60.00000492
_symmetry_Int_Tables_number   1
_chemical_formula_structural   Cu27Se20
_chemical_formula_sum   'Cu27 Se20'
_cell_volume   909.83049051
_cell_formula_units_Z   1
loop_
 _symmetry_equiv_pos_site_id
 _symmetry_equiv_pos_as_xyz
  1  'x, y, z'
loop_
 _atom_site_type_symbol
 _atom_site_label
 _atom_site_symmetry_multiplicity
 _atom_site_fract_x
 _atom_site_fract_y
 _atom_site_fract_z
 _atom_site_occupancy
  Cu  Cu0  1  0.24603288  0.24603288  0.06309507  1
  Cu  Cu1  1  0.75459878  0.75459878  0.03681018  1
  Cu  Cu2  1  0.24456913  0.24456913  0.16331463  1
  Cu  Cu3  1  0.74455731  0.74455731  0.08831640  1
  Cu  Cu4  1  0.75515103  0.75515103  0.13672735  1
  Cu  Cu5  1  0.74424645  0.74424645  0.18836303  1
  Cu  Cu6  1  0.74186596  0.74186596  0.23872011  1
  Cu  Cu7  1  0.74988012  0.74988012  0.28751798  1
  Cu  Cu8  1  0.74957195  0.74957195  0.33756421  1
  Cu  Cu9  1  0.74943043  0.74943043  0.38758544  1
  Cu  Cu10  1  0.74953259  0.74953259  0.43757011  1
  Cu  Cu11  1  0.74958936  0.74958936  0.48756160  1
  Cu  Cu12  1  0.74931583  0.74931583  0.53760263  1
  Cu  Cu13  1  0.24603561  0.24603561  0.66309466  1
  Cu  Cu14  1  0.74977727  0.74977727  0.58753341  1
  Cu  Cu15  1  0.76308831  0.76308831  0.63553675  1
  Cu  Cu16  1  0.74413429  0.74413429  0.68837986  1
  Cu  Cu17  1  0.24553470  0.24553470  0.76316979  1
  Cu  Cu18  1  0.75465234  0.75465234  0.73680215  1
  Cu  Cu19  1  0.74381367  0.74381367  0.78842795  1
  Cu  Cu20  1  0.25394118  0.25394118  0.86190882  1
  Cu  Cu21  1  0.75431990  0.75431990  0.83685201  1
  Cu  Cu22  1  0.24998502  0.24998502  0.91250225  1
  Cu  Cu23  1  0.24368512  0.24368512  0.96344723  1
  Cu  Cu24  1  0.75811319  0.75811319  0.88628302  1
  Cu  Cu25  1  0.74935661  0.74935661  0.93759651  1
  Cu  Cu26  1  0.73521342  0.73521342  0.98971799  1
  Se  Se27  1  0.99767435  0.99767435  0.00034885  1
  Se  Se28  1  0.00797884  0.00797884  0.04880317  1
  Se  Se29  1  0.99742627  0.99742627  0.10038606  1
  Se  Se30  1  0.00741032  0.00741032  0.14888845  1
  Se  Se31  1  0.99429669  0.99429669  0.20085550  1
  Se  Se32  1  0.00083006  0.00083006  0.24987549  1
  Se  Se33  1  0.99990093  0.99990093  0.30001486  1
  Se  Se34  1  0.00031621  0.00031621  0.34995257  1
  Se  Se35  1  0.00050606  0.00050606  0.39992409  1
  Se  Se36  1  0.00017550  0.00017550  0.44997367  1
  Se  Se37  1  0.00045011  0.00045011  0.49993248  1
  Se  Se38  1  0.00090289  0.00090289  0.54986457  1
  Se  Se39  1  0.00514679  0.00514679  0.59922798  1
  Se  Se40  1  0.00658698  0.00658698  0.64901195  1
  Se  Se41  1  0.99741017  0.99741017  0.70038847  1
  Se  Se42  1  0.00777522  0.00777522  0.74883372  1
  Se  Se43  1  0.99702750  0.99702750  0.80044587  1
  Se  Se44  1  0.00906832  0.00906832  0.84863975  1
  Se  Se45  1  0.00019965  0.00019965  0.89997005  1
  Se  Se46  1  0.99892470  0.99892470  0.95016130  1
