# generated using pymatgen
data_Zr3Sc4O12
_symmetry_space_group_name_H-M   'P 1'
_cell_length_a   6.21679978
_cell_length_b   6.24143210
_cell_length_c   12.45693650
_cell_angle_alpha   99.53755233
_cell_angle_beta   99.41430054
_cell_angle_gamma   99.54795569
_symmetry_Int_Tables_number   1
_chemical_formula_structural   Zr3Sc4O12
_chemical_formula_sum   'Zr6 Sc8 O24'
_cell_volume   460.90590226
_cell_formula_units_Z   2
loop_
 _symmetry_equiv_pos_site_id
 _symmetry_equiv_pos_as_xyz
  1  'x, y, z'
loop_
 _atom_site_type_symbol
 _atom_site_label
 _atom_site_symmetry_multiplicity
 _atom_site_fract_x
 _atom_site_fract_y
 _atom_site_fract_z
 _atom_site_occupancy
  Zr  Zr0  1  0.13947573  0.60736385  0.65787529  1
  Zr  Zr1  1  0.99841389  0.99403085  0.99961187  1
  Zr  Zr2  1  0.68590294  0.86858070  0.69617165  1
  Zr  Zr3  1  0.31453306  0.13751470  0.30602110  1
  Zr  Zr4  1  0.61008990  0.31656269  0.06899720  1
  Zr  Zr5  1  0.99691728  0.99564369  0.49650003  1
  Sc  Sc6  1  0.14025148  0.60679032  0.15945523  1
  Sc  Sc7  1  0.39278293  0.68205575  0.93188922  1
  Sc  Sc8  1  0.32040754  0.14677269  0.80467974  1
  Sc  Sc9  1  0.39338726  0.67212492  0.42743175  1
  Sc  Sc10  1  0.60802274  0.32006939  0.57004763  1
  Sc  Sc11  1  0.67840826  0.85600910  0.19649491  1
  Sc  Sc12  1  0.86188026  0.39565083  0.84219414  1
  Sc  Sc13  1  0.86199443  0.39546189  0.34013918  1
  O  O14  1  0.06032851  0.67987960  0.94982820  1
  O  O15  1  0.08674207  0.93579451  0.66218733  1
  O  O16  1  0.06416787  0.67521218  0.45611791  1
  O  O17  1  0.17964713  0.42137731  0.78538214  1
  O  O18  1  0.10060903  0.93989462  0.16025591  1
  O  O19  1  0.32113734  0.09969956  0.96985010  1
  O  O20  1  0.42520710  0.82238287  0.78917453  1
  O  O21  1  0.17931917  0.41638633  0.28685954  1
  O  O22  1  0.42137302  0.57778014  0.59059365  1
  O  O23  1  0.32100720  0.10133125  0.47117190  1
  O  O24  1  0.42254838  0.82031759  0.29243465  1
  O  O25  1  0.41972529  0.57303114  0.08956094  1
  O  O26  1  0.58120394  0.42395957  0.91017107  1
  O  O27  1  0.57621921  0.18084062  0.70827719  1
  O  O28  1  0.67601237  0.90103018  0.53017102  1
  O  O29  1  0.58146738  0.41811995  0.40957595  1
  O  O30  1  0.81936007  0.58448093  0.71228601  1
  O  O31  1  0.57146462  0.17751016  0.20993169  1
  O  O32  1  0.67609311  0.91186327  0.03218342  1
  O  O33  1  0.90415002  0.06291066  0.83930712  1
  O  O34  1  0.81942382  0.57911312  0.21091322  1
  O  O35  1  0.94158896  0.31836420  0.55145563  1
  O  O36  1  0.91078825  0.06094928  0.33804921  1
  O  O37  1  0.93794842  0.32313959  0.04675274  1
