# generated using pymatgen
data_Mg(Mo3Se4)2
_symmetry_space_group_name_H-M   'P 1'
_cell_length_a   6.83772678
_cell_length_b   6.85580000
_cell_length_c   13.66240275
_cell_angle_alpha   90.79340254
_cell_angle_beta   94.33811997
_cell_angle_gamma   94.47281332
_symmetry_Int_Tables_number   1
_chemical_formula_structural   Mg(Mo3Se4)2
_chemical_formula_sum   'Mg2 Mo12 Se16'
_cell_volume   636.56178525
_cell_formula_units_Z   2
loop_
 _symmetry_equiv_pos_site_id
 _symmetry_equiv_pos_as_xyz
  1  'x, y, z'
loop_
 _atom_site_type_symbol
 _atom_site_label
 _atom_site_symmetry_multiplicity
 _atom_site_fract_x
 _atom_site_fract_y
 _atom_site_fract_z
 _atom_site_occupancy
  Mg  Mg0  1  0.11666919  0.91675283  0.99841814  1
  Mg  Mg1  1  0.88333081  0.08324717  0.50158186  1
  Mo  Mo2  1  0.23074406  0.41123288  0.77146431  1
  Mo  Mo3  1  0.23619080  0.41326010  0.27339346  1
  Mo  Mo4  1  0.41295488  0.55160013  0.61842225  1
  Mo  Mo5  1  0.45634028  0.76588473  0.79057174  1
  Mo  Mo6  1  0.41722859  0.55207385  0.11706519  1
  Mo  Mo7  1  0.45704776  0.76646548  0.28985406  1
  Mo  Mo8  1  0.54365972  0.23411527  0.70942826  1
  Mo  Mo9  1  0.58704512  0.44839987  0.88157775  1
  Mo  Mo10  1  0.54295224  0.23353452  0.21014594  1
  Mo  Mo11  1  0.58277141  0.44792615  0.38293481  1
  Mo  Mo12  1  0.76925594  0.58876712  0.72853569  1
  Mo  Mo13  1  0.76380920  0.58673990  0.22660654  1
  Se  Se14  1  0.13166057  0.73399857  0.68506147  1
  Se  Se15  1  0.12861383  0.73842815  0.18357454  1
  Se  Se16  1  0.26860373  0.60913591  0.93170432  1
  Se  Se17  1  0.21135194  0.21562853  0.60889361  1
  Se  Se18  1  0.27167280  0.61942533  0.43256358  1
  Se  Se19  1  0.20792092  0.22690281  0.10819754  1
  Se  Se20  1  0.37052125  0.11985339  0.86849221  1
  Se  Se21  1  0.37493756  0.11885833  0.36826710  1
  Se  Se22  1  0.62947875  0.88014661  0.63150779  1
  Se  Se23  1  0.62506244  0.88114167  0.13173290  1
  Se  Se24  1  0.78864806  0.78437147  0.89110639  1
  Se  Se25  1  0.73139627  0.39086409  0.56829568  1
  Se  Se26  1  0.79207908  0.77309719  0.39180246  1
  Se  Se27  1  0.72832720  0.38057467  0.06743642  1
  Se  Se28  1  0.86833943  0.26600143  0.81493853  1
  Se  Se29  1  0.87138617  0.26157185  0.31642546  1
