# generated using pymatgen
data_CuH8C2NCl3
_symmetry_space_group_name_H-M   'P 1'
_cell_length_a   8.59670417
_cell_length_b   9.71333287
_cell_length_c   10.67580448
_cell_angle_alpha   73.35580117
_cell_angle_beta   68.68533249
_cell_angle_gamma   64.77558657
_symmetry_Int_Tables_number   1
_chemical_formula_structural   CuH8C2NCl3
_chemical_formula_sum   'Cu4 H32 C8 N4 Cl12'
_cell_volume   742.08562713
_cell_formula_units_Z   4
loop_
 _symmetry_equiv_pos_site_id
 _symmetry_equiv_pos_as_xyz
  1  'x, y, z'
loop_
 _atom_site_type_symbol
 _atom_site_label
 _atom_site_symmetry_multiplicity
 _atom_site_fract_x
 _atom_site_fract_y
 _atom_site_fract_z
 _atom_site_occupancy
  Cu  Cu0  1  0.14584595  0.85614796  0.08709193  1
  Cu  Cu1  1  0.85415405  0.14385204  0.91290807  1
  Cu  Cu2  1  0.07925244  0.65135950  0.42858860  1
  Cu  Cu3  1  0.92074756  0.34864050  0.57141140  1
  H  H4  1  0.77846631  0.98257873  0.56934995  1
  H  H5  1  0.22153369  0.01742127  0.43065005  1
  H  H6  1  0.70486640  0.05906452  0.71105981  1
  H  H7  1  0.29513360  0.94093548  0.28894019  1
  H  H8  1  0.60617951  0.49065443  0.33537588  1
  H  H9  1  0.39382049  0.50934557  0.66462412  1
  H  H10  1  0.51889714  0.58749300  0.20502328  1
  H  H11  1  0.48110286  0.41250700  0.79497672  1
  H  H12  1  0.43809143  0.99421835  0.78585048  1
  H  H13  1  0.56190857  0.00578165  0.21414952  1
  H  H14  1  0.45863771  0.12243296  0.62776585  1
  H  H15  1  0.54136229  0.87756704  0.37223415  1
  H  H16  1  0.51522817  0.92267556  0.62789701  1
  H  H17  1  0.48477183  0.07732444  0.37210299  1
  H  H18  1  0.78676715  0.73120233  0.70440526  1
  H  H19  1  0.21323285  0.26879767  0.29559474  1
  H  H20  1  0.93051858  0.80519924  0.72868361  1
  H  H21  1  0.06948142  0.19480076  0.27131639  1
  H  H22  1  0.72032659  0.81644301  0.85343081  1
  H  H23  1  0.27967341  0.18355699  0.14656919  1
  H  H24  1  0.73615074  0.25181470  0.23954191  1
  H  H25  1  0.26384926  0.74818530  0.76045809  1
  H  H26  1  0.49640174  0.33459104  0.28603897  1
  H  H27  1  0.50359826  0.66540896  0.71396103  1
  H  H28  1  0.62194070  0.35817108  0.11092783  1
  H  H29  1  0.37805930  0.64182892  0.88907217  1
  H  H30  1  0.81626397  0.52057402  0.04459805  1
  H  H31  1  0.18373603  0.47942598  0.95540195  1
  H  H32  1  0.78301171  0.63250619  0.16619147  1
  H  H33  1  0.21698829  0.36749381  0.83380853  1
  H  H34  1  0.90469661  0.43011268  0.18828950  1
  H  H35  1  0.09530339  0.56988732  0.81171050  1
  C  C36  1  0.51546135  0.00531373  0.67887328  1
  C  C37  1  0.48453865  0.99468627  0.32112672  1
  C  C38  1  0.79148373  0.82025089  0.74497262  1
  C  C39  1  0.20851627  0.17974911  0.25502738  1
  C  C40  1  0.61997648  0.34875736  0.21603456  1
  C  C41  1  0.38002352  0.65124264  0.78396544  1
  C  C42  1  0.79427930  0.52127711  0.15204745  1
  C  C43  1  0.20572070  0.47872289  0.84795255  1
  N  N44  1  0.70394744  0.97392418  0.67107083  1
  N  N45  1  0.29605256  0.02607582  0.32892917  1
  N  N46  1  0.62499937  0.49378560  0.23279321  1
  N  N47  1  0.37500063  0.50621440  0.76720679  1
  Cl  Cl48  1  0.42106521  0.83164546  0.08321826  1
  Cl  Cl49  1  0.57893479  0.16835454  0.91678174  1
  Cl  Cl50  1  0.08348747  0.11710867  0.99159437  1
  Cl  Cl51  1  0.91651253  0.88289133  0.00840563  1
  Cl  Cl52  1  0.19718674  0.60013205  0.17334625  1
  Cl  Cl53  1  0.80281326  0.39986795  0.82665375  1
  Cl  Cl54  1  0.94753648  0.91227566  0.35517234  1
  Cl  Cl55  1  0.05246352  0.08772434  0.64482766  1
  Cl  Cl56  1  0.29706691  0.68639150  0.47540647  1
  Cl  Cl57  1  0.70293309  0.31360850  0.52459353  1
  Cl  Cl58  1  0.81127846  0.61163218  0.48010696  1
  Cl  Cl59  1  0.18872154  0.38836782  0.51989304  1
