# generated using pymatgen
data_Cr14MoO24
_symmetry_space_group_name_H-M   'P 1'
_cell_length_a   5.47201418
_cell_length_b   5.45046357
_cell_length_c   21.66715232
_cell_angle_alpha   55.96841943
_cell_angle_beta   55.95983268
_cell_angle_gamma   55.97415760
_symmetry_Int_Tables_number   1
_chemical_formula_structural   Cr14MoO24
_chemical_formula_sum   'Cr14 Mo1 O24'
_cell_volume   414.25345928
_cell_formula_units_Z   1
loop_
 _symmetry_equiv_pos_site_id
 _symmetry_equiv_pos_as_xyz
  1  'x, y, z'
loop_
 _atom_site_type_symbol
 _atom_site_label
 _atom_site_symmetry_multiplicity
 _atom_site_fract_x
 _atom_site_fract_y
 _atom_site_fract_z
 _atom_site_occupancy
  Cr  Cr0  1  0.13082191  0.14803164  0.04340488  1
  Cr  Cr1  1  0.36409199  0.34987784  0.08433713  1
  Cr  Cr2  1  0.15082002  0.15056971  0.28679795  1
  Cr  Cr3  1  0.35005217  0.35063989  0.33738931  1
  Cr  Cr4  1  0.65327455  0.64846627  0.16197131  1
  Cr  Cr5  1  0.14907032  0.15218395  0.53687116  1
  Cr  Cr6  1  0.85092968  0.84781605  0.21312884  1
  Cr  Cr7  1  0.34672545  0.35153373  0.58802869  1
  Cr  Cr8  1  0.64994783  0.64936011  0.41261069  1
  Cr  Cr9  1  0.18009433  0.17057169  0.78474498  1
  Cr  Cr10  1  0.84917998  0.84943029  0.46320205  1
  Cr  Cr11  1  0.63590801  0.65012216  0.66566287  1
  Cr  Cr12  1  0.86917809  0.85196836  0.70659512  1
  Cr  Cr13  1  0.81990567  0.82942831  0.96525502  1
  Mo  Mo14  1  0.50000000  0.50000000  0.87500000  1
  O  O15  1  0.05367843  0.74343843  0.11237808  1
  O  O16  1  0.45425352  0.05153165  0.18599521  1
  O  O17  1  0.74931064  0.43469277  0.02142759  1
  O  O18  1  0.25176637  0.55003522  0.23694748  1
  O  O19  1  0.54985936  0.94562905  0.06261243  1
  O  O20  1  0.04949395  0.75082959  0.36226123  1
  O  O21  1  0.95634267  0.24423494  0.13979137  1
  O  O22  1  0.45053130  0.04974430  0.43760817  1
  O  O23  1  0.74951151  0.45029530  0.26285415  1
  O  O24  1  0.25048849  0.54970470  0.48714585  1
  O  O25  1  0.54946870  0.95025570  0.31239183  1
  O  O26  1  0.04365733  0.75576506  0.61020863  1
  O  O27  1  0.95050605  0.24917041  0.38773877  1
  O  O28  1  0.45014064  0.05437095  0.68738757  1
  O  O29  1  0.74823363  0.44996478  0.51305252  1
  O  O30  1  0.25068936  0.56530723  0.72857241  1
  O  O31  1  0.54574648  0.94846835  0.56400479  1
  O  O32  1  0.10396458  0.75084821  0.85969652  1
  O  O33  1  0.94632157  0.25656157  0.63762192  1
  O  O34  1  0.43087244  0.09624142  0.93796033  1
  O  O35  1  0.75729321  0.44935038  0.76657388  1
  O  O36  1  0.24270679  0.55064962  0.98342612  1
  O  O37  1  0.56912756  0.90375858  0.81203967  1
  O  O38  1  0.89603542  0.24915179  0.89030348  1
