# generated using pymatgen
data_CuH8C2NCl3
_symmetry_space_group_name_H-M   'P 1'
_cell_length_a   9.93599677
_cell_length_b   9.93599677
_cell_length_c   12.14922153
_cell_angle_alpha   58.99738089
_cell_angle_beta   121.00261911
_cell_angle_gamma   127.60135355
_symmetry_Int_Tables_number   1
_chemical_formula_structural   CuH8C2NCl3
_chemical_formula_sum   'Cu4 H32 C8 N4 Cl12'
_cell_volume   778.09872145
_cell_formula_units_Z   4
loop_
 _symmetry_equiv_pos_site_id
 _symmetry_equiv_pos_as_xyz
  1  'x, y, z'
loop_
 _atom_site_type_symbol
 _atom_site_label
 _atom_site_symmetry_multiplicity
 _atom_site_fract_x
 _atom_site_fract_y
 _atom_site_fract_z
 _atom_site_occupancy
  Cu  Cu0  1  0.41842654  0.34934479  0.92102737  1
  Cu  Cu1  1  0.34934479  0.41842654  0.57897263  1
  Cu  Cu2  1  0.58157346  0.65065521  0.07897263  1
  Cu  Cu3  1  0.65065521  0.58157346  0.42102737  1
  H  H4  1  0.23303205  0.95621867  0.84292258  1
  H  H5  1  0.95621867  0.23303205  0.65707742  1
  H  H6  1  0.76696795  0.04378133  0.15707742  1
  H  H7  1  0.04378133  0.76696795  0.34292258  1
  H  H8  1  0.11331143  0.94845918  0.68990265  1
  H  H9  1  0.94845918  0.11331143  0.81009735  1
  H  H10  1  0.88668857  0.05154082  0.31009735  1
  H  H11  1  0.05154082  0.88668857  0.18990265  1
  H  H12  1  0.08358880  0.63660361  0.93466489  1
  H  H13  1  0.63660361  0.08358880  0.56533511  1
  H  H14  1  0.91641120  0.36339639  0.06533511  1
  H  H15  1  0.36339639  0.91641120  0.43466489  1
  H  H16  1  0.93766726  0.73435289  0.83709532  1
  H  H17  1  0.73435289  0.93766726  0.66290468  1
  H  H18  1  0.06233274  0.26564711  0.16290468  1
  H  H19  1  0.26564711  0.06233274  0.33709532  1
  H  H20  1  0.94849124  0.62481987  0.76572676  1
  H  H21  1  0.62481987  0.94849124  0.73427324  1
  H  H22  1  0.05150876  0.37518013  0.23427324  1
  H  H23  1  0.37518013  0.05150876  0.26572676  1
  H  H24  1  0.23500423  0.77048195  0.71364817  1
  H  H25  1  0.77048195  0.23500423  0.78635183  1
  H  H26  1  0.76499577  0.22951805  0.28635183  1
  H  H27  1  0.22951805  0.76499577  0.21364817  1
  H  H28  1  0.37977980  0.00010191  0.70809841  1
  H  H29  1  0.00010191  0.37977980  0.79190159  1
  H  H30  1  0.62022020  -0.00010191  0.29190159  1
  H  H31  1  -0.00010191  0.62022020  0.20809841  1
  H  H32  1  0.38959346  0.83001065  0.86614200  1
  H  H33  1  0.83001065  0.38959346  0.63385800  1
  H  H34  1  0.61040654  0.16998935  0.13385800  1
  H  H35  1  0.16998935  0.61040654  0.36614200  1
  C  C36  1  0.02510000  0.70501855  0.83373175  1
  C  C37  1  0.70501855  0.02510000  0.66626825  1
  C  C38  1  0.97490000  0.29498145  0.16626825  1
  C  C39  1  0.29498145  0.97490000  0.33373175  1
  C  C40  1  0.30256561  0.86704593  0.76674678  1
  C  C41  1  0.86704593  0.30256561  0.73325322  1
  C  C42  1  0.69743439  0.13295407  0.23325322  1
  C  C43  1  0.13295407  0.69743439  0.26674678  1
  N  N44  1  0.16954007  0.87742943  0.78157187  1
  N  N45  1  0.87742943  0.16954007  0.71842813  1
  N  N46  1  0.83045993  0.12257057  0.21842813  1
  N  N47  1  0.12257057  0.83045993  0.28157187  1
  Cl  Cl48  1  0.53757073  0.29706060  0.83935002  1
  Cl  Cl49  1  0.29706060  0.53757073  0.66064998  1
  Cl  Cl50  1  0.46242927  0.70293940  0.16064998  1
  Cl  Cl51  1  0.70293940  0.46242927  0.33935002  1
  Cl  Cl52  1  0.68396454  0.58646043  0.98666189  1
  Cl  Cl53  1  0.58646043  0.68396454  0.51333811  1
  Cl  Cl54  1  0.31603546  0.41353957  0.01333811  1
  Cl  Cl55  1  0.41353957  0.31603546  0.48666189  1
  Cl  Cl56  1  0.19473745  0.06408417  0.95164583  1
  Cl  Cl57  1  0.06408417  0.19473745  0.54835417  1
  Cl  Cl58  1  0.80526255  0.93591583  0.04835417  1
  Cl  Cl59  1  0.93591583  0.80526255  0.45164583  1
