# generated using pymatgen
data_Mn(SbO3)2
_symmetry_space_group_name_H-M   'P 1'
_cell_length_a   9.58630682
_cell_length_b   5.77925834
_cell_length_c   5.77925842
_cell_angle_alpha   73.94096703
_cell_angle_beta   56.54431290
_cell_angle_gamma   56.54431242
_symmetry_Int_Tables_number   1
_chemical_formula_structural   Mn(SbO3)2
_chemical_formula_sum   'Mn2 Sb4 O12'
_cell_volume   222.69929199
_cell_formula_units_Z   2
loop_
 _symmetry_equiv_pos_site_id
 _symmetry_equiv_pos_as_xyz
  1  'x, y, z'
loop_
 _atom_site_type_symbol
 _atom_site_label
 _atom_site_symmetry_multiplicity
 _atom_site_fract_x
 _atom_site_fract_y
 _atom_site_fract_z
 _atom_site_occupancy
  Mn  Mn0  1  0.17048670  0.50161975  0.50161975  1
  Mn  Mn1  1  0.49618030  0.49838025  0.49838025  1
  Sb  Sb2  1  0.01255190  0.99280458  0.99280459  1
  Sb  Sb3  1  0.33333300  0.00000000  0.00000000  1
  Sb  Sb4  1  0.65411510  0.00719542  0.00719541  1
  Sb  Sb5  1  0.83333300  0.50000000  0.50000000  1
  O  O6  1  0.85762641  0.70128291  0.70128291  1
  O  O7  1  0.17206836  0.18521864  0.81243309  1
  O  O8  1  0.17206836  0.81243310  0.18521865  1
  O  O9  1  0.19642368  0.70459821  0.70459821  1
  O  O10  1  0.47024332  0.29540179  0.29540179  1
  O  O11  1  0.49459864  0.81478136  0.18756691  1
  O  O12  1  0.49459864  0.18756690  0.81478135  1
  O  O13  1  0.80903959  0.29871709  0.29871709  1
  O  O14  1  0.54565695  0.69261592  0.69261593  1
  O  O15  1  0.83333300  0.80759076  0.19240925  1
  O  O16  1  0.83333300  0.19240924  0.80759075  1
  O  O17  1  0.12101005  0.30738408  0.30738407  1
