# generated using pymatgen
data_MnGe4H24C8(S5N)2
_symmetry_space_group_name_H-M   'P 1'
_cell_length_a   9.99998524
_cell_length_b   9.99998524
_cell_length_c   9.99998524
_cell_angle_alpha   122.01154805
_cell_angle_beta   122.01154805
_cell_angle_gamma   86.54983479
_symmetry_Int_Tables_number   1
_chemical_formula_structural   MnGe4H24C8(S5N)2
_chemical_formula_sum   'Mn1 Ge4 H24 C8 S10 N2'
_cell_volume   684.25420326
_cell_formula_units_Z   1
loop_
 _symmetry_equiv_pos_site_id
 _symmetry_equiv_pos_as_xyz
  1  'x, y, z'
loop_
 _atom_site_type_symbol
 _atom_site_label
 _atom_site_symmetry_multiplicity
 _atom_site_fract_x
 _atom_site_fract_y
 _atom_site_fract_z
 _atom_site_occupancy
  Mn  Mn0  1  0.25000000  0.75000000  0.50000000  1
  Ge  Ge1  1  0.48032059  0.58626342  0.24351753  1
  Ge  Ge2  1  0.34274588  0.23680306  0.75648247  1
  Ge  Ge3  1  0.76319694  0.51967941  0.10594282  1
  Ge  Ge4  1  0.41373658  0.65725412  0.89405718  1
  H  H5  1  0.00157342  0.39569159  0.69412648  1
  H  H6  1  0.70156511  0.30744695  0.30587352  1
  H  H7  1  0.69255305  0.99842658  0.39411816  1
  H  H8  1  0.60430841  0.29843489  0.60588184  1
  H  H9  1  0.89371190  0.43999947  0.80401649  1
  H  H10  1  0.63598298  0.08969541  0.19598351  1
  H  H11  1  0.91030459  0.10628810  0.54628757  1
  H  H12  1  0.56000053  0.36401702  0.45371243  1
  H  H13  1  0.85154263  0.50372699  0.64992487  1
  H  H14  1  0.85380211  0.20161776  0.35007513  1
  H  H15  1  0.79838224  0.14845737  0.65218436  1
  H  H16  1  0.49627301  0.14619789  0.34781564  1
  H  H17  1  0.84412926  0.75489166  0.80740368  1
  H  H18  1  0.94748799  0.03672559  0.19259632  1
  H  H19  1  0.96327441  0.15587074  0.91076240  1
  H  H20  1  0.24510834  0.05251201  0.08923760  1
  H  H21  1  0.02500310  0.80841087  0.03725074  1
  H  H22  1  0.77116013  0.98775236  0.96274926  1
  H  H23  1  0.01224764  0.97499690  0.78340777  1
  H  H24  1  0.19158913  0.22883987  0.21659223  1
  H  H25  1  0.04647744  0.77581910  0.85519074  1
  H  H26  1  0.92062836  0.19128670  0.14480926  1
  H  H27  1  0.80871330  0.95352256  0.72934165  1
  H  H28  1  0.22418090  0.07937164  0.27065835  1
  C  C29  1  0.88484420  0.40997095  0.67629283  1
  C  C30  1  0.73367812  0.20855137  0.32370717  1
  C  C31  1  0.79144863  0.11515580  0.52512675  1
  C  C32  1  0.59002905  0.26632188  0.47487325  1
  C  C33  1  0.97720541  0.82039393  0.91823963  1
  C  C34  1  0.90215429  0.05896578  0.08176037  1
  C  C35  1  0.94103422  0.02279459  0.84318851  1
  C  C36  1  0.17960607  0.09784571  0.15681149  1
  S  S37  1  0.48569311  0.67151170  0.49874752  1
  S  S38  1  0.17276418  0.98694559  0.50125248  1
  S  S39  1  0.01305441  0.51430689  0.18581859  1
  S  S40  1  0.32848830  0.82723582  0.81418141  1
  S  S41  1  0.75037031  0.61318936  0.35853989  1
  S  S42  1  0.25464947  0.39183041  0.64146011  1
  S  S43  1  0.60816959  0.24962969  0.86281906  1
  S  S44  1  0.38681064  0.74535053  0.13718094  1
  S  S45  1  0.31898546  0.31898546  0.00000000  1
  S  S46  1  0.68101454  0.68101454  0.00000000  1
  N  N47  1  0.75000000  0.25000000  0.50000000  1
  N  N48  1  0.00000000  0.00000000  0.00000000  1
