# generated using pymatgen
data_NaYb3Ti2(SbO7)2
_symmetry_space_group_name_H-M   'P 1'
_cell_length_a   7.34188847
_cell_length_b   14.65437438
_cell_length_c   12.72321514
_cell_angle_alpha   29.75573257
_cell_angle_beta   54.37184629
_cell_angle_gamma   59.61796369
_symmetry_Int_Tables_number   1
_chemical_formula_structural   NaYb3Ti2(SbO7)2
_chemical_formula_sum   'Na2 Yb6 Ti4 Sb4 O28'
_cell_volume   552.21813135
_cell_formula_units_Z   2
loop_
 _symmetry_equiv_pos_site_id
 _symmetry_equiv_pos_as_xyz
  1  'x, y, z'
loop_
 _atom_site_type_symbol
 _atom_site_label
 _atom_site_symmetry_multiplicity
 _atom_site_fract_x
 _atom_site_fract_y
 _atom_site_fract_z
 _atom_site_occupancy
  Yb  Yb0  1  0.00100905  0.00088666  0.99711144  1
  Yb  Yb1  1  0.49948347  0.99921811  0.00048995  1
  Yb  Yb2  1  0.99883103  0.49565070  0.00446352  1
  Yb  Yb3  1  0.49942232  0.50025297  -0.00042834  1
  Yb  Yb4  1  0.00081917  0.74980109  0.49962712  1
  Yb  Yb5  1  0.99697977  0.74965818  -0.00017443  1
  Na  Na6  1  0.99638989  0.24921009  0.99968226  1
  Na  Na7  1  0.99611414  0.24848940  0.50242049  1
  Ti  Ti8  1  0.99944167  0.98947861  0.51045480  1
  Ti  Ti9  1  0.99918422  0.51000368  0.48881820  1
  Ti  Ti10  1  0.50126654  0.74995709  0.99932508  1
  Ti  Ti11  1  0.50017121  0.74955947  0.50029894  1
  Sb  Sb12  1  0.49935358  0.24926700  0.00046147  1
  Sb  Sb13  1  0.50074103  0.99592117  0.50343814  1
  Sb  Sb14  1  0.49877611  0.24958751  0.50007707  1
  Sb  Sb15  1  0.49807509  0.50331021  0.49672025  1
  O  O16  1  0.12726002  0.98576001  0.13395193  1
  O  O17  1  0.17450639  0.20002903  0.18046691  1
  O  O18  1  0.57630791  0.99798436  0.17549281  1
  O  O19  1  0.12673999  0.51093765  0.10975319  1
  O  O20  1  0.57085399  0.20552180  0.17321768  1
  O  O21  1  0.18120225  0.69493899  0.17824222  1
  O  O22  1  0.42814641  0.20652680  0.41377110  1
  O  O23  1  0.17410164  0.29845800  0.58149860  1
  O  O24  1  0.82453118  0.98845954  0.43765776  1
  O  O25  1  0.57667713  0.50155157  0.17179490  1
  O  O26  1  0.17294800  0.51051956  0.56284809  1
  O  O27  1  0.57611358  0.70334578  0.17019731  1
  O  O28  1  0.82281627  0.19911560  0.42074017  1
  O  O29  1  0.57027060  0.29409346  0.58511008  1
  O  O30  1  0.42053587  0.70341010  0.42411669  1
  O  O31  1  0.42540669  0.29320782  0.82803248  1
  O  O32  1  0.18215284  0.80388889  0.57015237  1
  O  O33  1  0.87064105  0.98495951  0.89386345  1
  O  O34  1  0.82177853  0.50983118  0.41765764  1
  O  O35  1  0.42362721  0.50121201  0.82455068  1
  O  O36  1  0.17479332  0.98874939  0.58397100  1
  O  O37  1  0.82278179  0.29955576  0.82015415  1
  O  O38  1  0.81907324  0.69624779  0.42884951  1
  O  O39  1  0.57760024  0.79516765  0.57777227  1
  O  O40  1  0.42146191  0.79593046  0.83109363  1
  O  O41  1  0.87207850  0.51241253  0.86646487  1
  O  O42  1  0.42356574  0.99823985  0.82712297  1
  O  O43  1  0.81948243  0.80230099  0.82321457  1
