# generated using pymatgen
data_La4FeSe6O
_symmetry_space_group_name_H-M   'P 1'
_cell_length_a   9.79436701
_cell_length_b   9.79436684
_cell_length_c   7.11446128
_cell_angle_alpha   90.00000000
_cell_angle_beta   90.00000000
_cell_angle_gamma   120.00000062
_symmetry_Int_Tables_number   1
_chemical_formula_structural   La4FeSe6O
_chemical_formula_sum   'La8 Fe2 Se12 O2'
_cell_volume   591.05158820
_cell_formula_units_Z   2
loop_
 _symmetry_equiv_pos_site_id
 _symmetry_equiv_pos_as_xyz
  1  'x, y, z'
loop_
 _atom_site_type_symbol
 _atom_site_label
 _atom_site_symmetry_multiplicity
 _atom_site_fract_x
 _atom_site_fract_y
 _atom_site_fract_z
 _atom_site_occupancy
  La  La0  1  0.80061332  0.60122665  0.16013140  1
  La  La1  1  0.33333300  0.66666700  0.20842642  1
  La  La2  1  0.39877335  0.19938668  0.16013140  1
  La  La3  1  0.19938668  0.80061332  0.66013140  1
  La  La4  1  0.60122665  0.80061332  0.66013140  1
  La  La5  1  0.19938668  0.39877335  0.66013140  1
  La  La6  1  0.66666700  0.33333300  0.70842642  1
  La  La7  1  0.80061332  0.19938668  0.16013140  1
  Fe  Fe8  1  0.00000000  0.00000000  0.99257011  1
  Fe  Fe9  1  0.00000000  0.00000000  0.49257011  1
  Se  Se10  1  0.12316138  0.24632276  0.26442614  1
  Se  Se11  1  0.12316138  0.87683862  0.26442614  1
  Se  Se12  1  0.52939762  0.47060238  0.44637847  1
  Se  Se13  1  0.94120475  0.47060238  0.44637847  1
  Se  Se14  1  0.87683862  0.12316138  0.76442614  1
  Se  Se15  1  0.75367724  0.87683862  0.26442614  1
  Se  Se16  1  0.52939762  0.05879525  0.44637847  1
  Se  Se17  1  0.24632276  0.12316138  0.76442614  1
  Se  Se18  1  0.05879525  0.52939762  0.94637847  1
  Se  Se19  1  0.47060238  0.94120475  0.94637847  1
  Se  Se20  1  0.47060238  0.52939762  0.94637847  1
  Se  Se21  1  0.87683862  0.75367724  0.76442614  1
  O  O22  1  0.66666700  0.33333300  0.04367543  1
  O  O23  1  0.33333300  0.66666700  0.54367543  1
