# generated using pymatgen
data_LiMnP2O7
_symmetry_space_group_name_H-M   'P 1'
_cell_length_a   8.41833624
_cell_length_b   13.35484354
_cell_length_c   5.04960005
_cell_angle_alpha   90.00000000
_cell_angle_beta   92.63144718
_cell_angle_gamma   90.00000000
_symmetry_Int_Tables_number   1
_chemical_formula_structural   LiMnP2O7
_chemical_formula_sum   'Li4 Mn4 P8 O28'
_cell_volume   567.10549800
_cell_formula_units_Z   4
loop_
 _symmetry_equiv_pos_site_id
 _symmetry_equiv_pos_as_xyz
  1  'x, y, z'
loop_
 _atom_site_type_symbol
 _atom_site_label
 _atom_site_symmetry_multiplicity
 _atom_site_fract_x
 _atom_site_fract_y
 _atom_site_fract_z
 _atom_site_occupancy
  Li  Li0  1  0.34169755  0.37543608  0.34913400  1
  Li  Li1  1  0.65830245  0.62456392  0.65086600  1
  Li  Li2  1  0.84169755  0.12456392  0.84913400  1
  Li  Li3  1  0.15830245  0.87543608  0.15086600  1
  Mn  Mn4  1  0.24619004  0.16357663  0.20089639  1
  Mn  Mn5  1  0.75380996  0.83642337  0.79910361  1
  Mn  Mn6  1  0.25380996  0.66357663  0.29910361  1
  Mn  Mn7  1  0.74619004  0.33642337  0.70089639  1
  P  P8  1  0.03810210  0.67597254  0.76891112  1
  P  P9  1  0.77516924  0.97044374  0.29228919  1
  P  P10  1  0.53810210  0.82402746  0.26891112  1
  P  P11  1  0.96189790  0.32402746  0.23108888  1
  P  P12  1  0.46189790  0.17597254  0.73108888  1
  P  P13  1  0.27516924  0.52955626  0.79228919  1
  P  P14  1  0.22483076  0.02955626  0.70771081  1
  P  P15  1  0.72483076  0.47044374  0.20771081  1
  O  O16  1  0.13678590  0.31124077  0.18326179  1
  O  O17  1  0.58309895  0.94214553  0.26538308  1
  O  O18  1  0.85413759  0.27729770  0.00720094  1
  O  O19  1  0.36321410  0.81124077  0.31673821  1
  O  O20  1  0.70428572  0.57471475  0.30296271  1
  O  O21  1  0.14189503  0.11011231  0.88069641  1
  O  O22  1  0.35810497  0.61011231  0.61930359  1
  O  O23  1  0.82187972  0.95342765  0.59064634  1
  O  O24  1  0.64189503  0.38988769  0.38069641  1
  O  O25  1  0.35413759  0.22270230  0.50720094  1
  O  O26  1  0.29571428  0.42528525  0.69703729  1
  O  O27  1  0.07975071  0.71779248  0.49737381  1
  O  O28  1  0.17812028  0.04657235  0.40935366  1
  O  O29  1  0.79571428  0.07471475  0.19703729  1
  O  O30  1  0.64586241  0.77729770  0.49279906  1
  O  O31  1  0.85810497  0.88988769  0.11930359  1
  O  O32  1  0.14586241  0.72270230  0.99279906  1
  O  O33  1  0.63678590  0.18875923  0.68326179  1
  O  O34  1  0.67812028  0.45342765  0.90935366  1
  O  O35  1  0.86321410  0.68875923  0.81673821  1
  O  O36  1  0.32187972  0.54657235  0.09064634  1
  O  O37  1  0.41690105  0.05785447  0.73461692  1
  O  O38  1  0.20428572  0.92528525  0.80296271  1
  O  O39  1  0.92024929  0.28220752  0.50262619  1
  O  O40  1  0.57975071  0.78220752  0.99737381  1
  O  O41  1  0.42024929  0.21779248  0.00262619  1
  O  O42  1  0.91690105  0.44214553  0.23461692  1
  O  O43  1  0.08309895  0.55785447  0.76538308  1
