# generated using pymatgen
data_Na2Li5Al7Si29O72
_symmetry_space_group_name_H-M   'P 1'
_cell_length_a   9.45667729
_cell_length_b   9.39002705
_cell_length_c   28.18988240
_cell_angle_alpha   93.60190573
_cell_angle_beta   92.98624468
_cell_angle_gamma   93.66936127
_symmetry_Int_Tables_number   1
_chemical_formula_structural   Na2Li5Al7Si29O72
_chemical_formula_sum   'Na2 Li5 Al7 Si29 O72'
_cell_volume   2489.19126060
_cell_formula_units_Z   1
loop_
 _symmetry_equiv_pos_site_id
 _symmetry_equiv_pos_as_xyz
  1  'x, y, z'
loop_
 _atom_site_type_symbol
 _atom_site_label
 _atom_site_symmetry_multiplicity
 _atom_site_fract_x
 _atom_site_fract_y
 _atom_site_fract_z
 _atom_site_occupancy
  Na  Na0  1  0.98491873  0.47168565  0.95921750  1
  Na  Na1  1  0.99308363  0.46986766  0.62624590  1
  Li  Li2  1  0.38258211  0.36677339  0.78863854  1
  Li  Li3  1  0.37607673  0.37126480  0.45749805  1
  Li  Li4  1  0.63047984  0.62853147  0.87305282  1
  Li  Li5  1  0.62639907  0.62958852  0.54203509  1
  Li  Li6  1  0.62899300  0.62741552  0.20620776  1
  Al  Al7  1  0.37819237  0.60221815  0.60921944  1
  Al  Al8  1  0.62731509  0.17212515  0.79809691  1
  Al  Al9  1  0.82604656  0.60183654  0.79142650  1
  Al  Al10  1  0.82623413  0.37224654  0.86646463  1
  Al  Al11  1  0.82214411  0.37148286  0.53177231  1
  Al  Al12  1  0.82697282  0.60641172  0.45837670  1
  Al  Al13  1  0.83010209  0.60212995  0.12392842  1
  Si  Si14  1  0.17788453  0.39929135  0.87596848  1
  Si  Si15  1  0.17643497  0.62234432  0.80165541  1
  Si  Si16  1  0.17398726  0.39945087  0.54057802  1
  Si  Si17  1  0.17645677  0.62433915  0.46635492  1
  Si  Si18  1  0.17111423  0.39852240  0.20778720  1
  Si  Si19  1  0.17693900  0.62273939  0.13318158  1
  Si  Si20  1  0.38075586  0.82913482  0.86720430  1
  Si  Si21  1  0.38122631  0.60260796  0.94313314  1
  Si  Si22  1  0.40030788  0.17468220  0.87370587  1
  Si  Si23  1  0.40121158  0.61993700  0.72546262  1
  Si  Si24  1  0.37896373  0.83150873  0.53290576  1
  Si  Si25  1  0.40288908  0.17636601  0.53991784  1
  Si  Si26  1  0.40140683  0.62197718  0.39033086  1
  Si  Si27  1  0.37668363  0.82884962  0.20054280  1
  Si  Si28  1  0.37662707  0.59770956  0.27540789  1
  Si  Si29  1  0.39586423  0.17335732  0.20765342  1
  Si  Si30  1  0.40281996  0.62398197  0.05798151  1
  Si  Si31  1  0.60106499  0.82761214  0.79201204  1
  Si  Si32  1  0.60175877  0.37269458  0.94316560  1
  Si  Si33  1  0.62318673  0.39826989  0.72267501  1
  Si  Si34  1  0.60388522  0.37771717  0.60775487  1
  Si  Si35  1  0.60058467  0.82991808  0.45664221  1
  Si  Si36  1  0.62470430  0.39846076  0.38999429  1
  Si  Si37  1  0.61907984  0.17128745  0.46399819  1
  Si  Si38  1  0.59828298  0.37230381  0.27540188  1
  Si  Si39  1  0.60082236  0.83148777  0.12492034  1
  Si  Si40  1  0.62132238  0.39837548  0.05741616  1
  Si  Si41  1  0.62128791  0.17611491  0.13343136  1
  Si  Si42  1  0.82665699  0.37553573  0.20077527  1
  O  O43  1  0.01089362  0.61674912  0.79429660  1
  O  O44  1  0.01074041  0.62097913  0.45913324  1
  O  O45  1  0.01092419  0.62698712  0.12484177  1
  O  O46  1  0.24039148  0.76443390  0.83526424  1
  O  O47  1  0.23920872  0.50146585  0.92464890  1
  O  O48  1  0.23284450  0.47567612  0.82798639  1
  O  O49  1  0.24489856  0.24433558  0.87744741  1
  O  O50  1  0.24915709  0.61252047  0.75079943  1
  O  O51  1  0.24318803  0.76691377  0.49793230  1
  O  O52  1  0.22269377  0.49602066  0.58900761  1
  O  O53  1  0.23043909  0.47798218  0.49201733  1
  O  O54  1  0.25098836  0.24787145  0.53757260  1
  O  O55  1  0.25055532  0.61371177  0.41467766  1
  O  O56  1  0.24205088  0.76586923  0.16616479  1
  O  O57  1  0.23638881  0.49668300  0.25552729  1
  O  O58  1  0.38352297  0.75514383  0.91904900  1
  O  O59  1  0.21814835  0.48016857  0.16109052  1
  O  O60  1  0.24319118  0.24481918  0.20705642  1
  O  O61  1  0.25002469  0.61841459  0.08192548  1
  O  O62  1  0.37757206  0.00105066  0.87671780  1
  O  O63  1  0.37217912  0.61994367  0.66967370  1
  O  O64  1  0.38231318  0.76669532  0.58376338  1
  O  O65  1  0.37712835  0.00428931  0.53715982  1
  O  O66  1  0.37184874  0.00034854  0.21002575  1
  O  O67  1  0.37799797  0.62234611  0.33250593  1
  O  O68  1  0.38326596  0.75120815  0.25093437  1
  O  O69  1  0.47693739  0.47482690  0.74188281  1
  O  O70  1  0.46772077  0.23097151  0.82637534  1
  O  O71  1  0.50012705  0.23594906  0.92104670  1
  O  O72  1  0.49827389  0.75745724  0.74704446  1
  O  O73  1  0.52471869  0.77422334  0.84307791  1
  O  O74  1  0.52600172  0.52420808  0.92787770  1
  O  O75  1  0.37497937  0.62803398  0.00056736  1
  O  O76  1  0.47411025  0.47320560  0.40490996  1
  O  O77  1  0.47491901  0.22691214  0.49026921  1
  O  O78  1  0.50563164  0.23392397  0.58563888  1
  O  O79  1  0.50008892  0.76160223  0.40991624  1
  O  O80  1  0.52548208  0.78255876  0.50649842  1
  O  O81  1  0.53045312  0.51915198  0.58792690  1
  O  O82  1  0.48076304  0.48205857  0.07238392  1
  O  O83  1  0.47870572  0.21674201  0.16079924  1
  O  O84  1  0.49385434  0.23549644  0.25475369  1
  O  O85  1  0.49723960  0.76870172  0.07899792  1
  O  O86  1  0.52538452  0.78630403  0.17568323  1
  O  O87  1  0.52568792  0.52326839  0.25934031  1
  O  O88  1  0.60873547  0.24310837  0.74275868  1
  O  O89  1  0.60166918  0.38418712  0.66482296  1
  O  O90  1  0.58596401  0.99232954  0.79232136  1
  O  O91  1  0.60655595  0.24349430  0.41258748  1
  O  O92  1  0.59409485  0.00080178  0.45347705  1
  O  O93  1  0.61098676  0.36928514  0.33209113  1
  O  O94  1  0.76156205  0.38468514  0.92650568  1
  O  O95  1  0.75548917  0.76957470  0.79249142  1
  O  O96  1  0.76873481  0.52909237  0.84390607  1
  O  O97  1  0.61637250  0.24521069  0.08237612  1
  O  O98  1  0.61597865  0.00387875  0.12479212  1
  O  O99  1  0.60387262  0.36525170  0.00048182  1
  O  O100  1  0.76377629  0.49774100  0.73918979  1
  O  O101  1  0.77614239  0.21836076  0.83406724  1
  O  O102  1  0.76581447  0.37225209  0.59119089  1
  O  O103  1  0.75516235  0.77422171  0.45665128  1
  O  O104  1  0.76415800  0.52843964  0.50902995  1
  O  O105  1  0.76188749  0.49731152  0.40728264  1
  O  O106  1  0.75898278  0.21920167  0.49624360  1
  O  O107  1  0.75285748  0.37228466  0.25240712  1
  O  O108  1  0.75041625  0.76408779  0.12782199  1
  O  O109  1  0.77926306  0.52227232  0.17789815  1
  O  O110  1  0.76528395  0.49277274  0.07409391  1
  O  O111  1  0.76401683  0.23498598  0.16656018  1
  O  O112  1  0.01147989  0.39317942  0.88202943  1
  O  O113  1  0.00612119  0.37327787  0.54068638  1
  O  O114  1  0.99903677  0.37213247  0.20915322  1
