# generated using pymatgen
data_Mg11(Fe15O28)2
_symmetry_space_group_name_H-M   'P 1'
_cell_length_a   6.02469962
_cell_length_b   6.02406843
_cell_length_c   42.18868909
_cell_angle_alpha   59.92459385
_cell_angle_beta   59.93187553
_cell_angle_gamma   59.94654088
_symmetry_Int_Tables_number   1
_chemical_formula_structural   Mg11(Fe15O28)2
_chemical_formula_sum   'Mg11 Fe30 O56'
_cell_volume   1081.08288152
_cell_formula_units_Z   1
loop_
 _symmetry_equiv_pos_site_id
 _symmetry_equiv_pos_as_xyz
  1  'x, y, z'
loop_
 _atom_site_type_symbol
 _atom_site_label
 _atom_site_symmetry_multiplicity
 _atom_site_fract_x
 _atom_site_fract_y
 _atom_site_fract_z
 _atom_site_occupancy
  Mg  Mg0  1  0.00075016  0.50107603  0.21379359  1
  Mg  Mg1  1  0.50116796  0.00072408  0.21377089  1
  Mg  Mg2  1  0.99981556  0.50046074  0.50001425  1
  Mg  Mg3  1  0.50046495  0.99981436  0.50001309  1
  Mg  Mg4  1  0.50010769  0.00043737  0.35707810  1
  Mg  Mg5  1  0.00041212  0.50009016  0.35708044  1
  Mg  Mg6  1  0.99958721  0.49972475  0.64303381  1
  Mg  Mg7  1  0.99995877  0.49986452  0.78574231  1
  Mg  Mg8  1  0.49968739  0.99953596  0.64304844  1
  Mg  Mg9  1  0.99966504  0.49610898  0.92987310  1
  Mg  Mg10  1  0.50000586  0.99938415  0.78580417  1
  Fe  Fe11  1  0.49299145  0.49422142  0.00266309  1
  Fe  Fe12  1  0.12766264  0.12765670  0.16140093  1
  Fe  Fe13  1  0.49930961  0.50043560  0.06964774  1
  Fe  Fe14  1  0.49921415  0.01173561  0.06955611  1
  Fe  Fe15  1  0.50019810  0.50060254  0.14260808  1
  Fe  Fe16  1  0.13287933  0.13291928  0.30256682  1
  Fe  Fe17  1  0.01023802  0.50027195  0.06962924  1
  Fe  Fe18  1  0.50100851  0.50100141  0.21415898  1
  Fe  Fe19  1  0.13280205  0.13289469  0.44548688  1
  Fe  Fe20  1  0.87588778  0.87613627  0.12403697  1
  Fe  Fe21  1  0.50157433  0.50162590  0.28537049  1
  Fe  Fe22  1  0.49978601  0.49978959  0.35713362  1
  Fe  Fe23  1  0.13237500  0.13247076  0.58854421  1
  Fe  Fe24  1  0.49947592  0.49947824  0.42862605  1
  Fe  Fe25  1  0.86772748  0.86756740  0.26877041  1
  Fe  Fe26  1  0.50033029  0.50031460  0.49982257  1
  Fe  Fe27  1  0.86781535  0.86790788  0.41140720  1
  Fe  Fe28  1  0.49984865  0.49981579  0.57150582  1
  Fe  Fe29  1  0.13212979  0.13260240  0.73134506  1
  Fe  Fe30  1  0.49971699  0.49975589  0.64311168  1
  Fe  Fe31  1  0.13793342  0.12531064  0.87360306  1
  Fe  Fe32  1  0.49977773  0.49952015  0.71443779  1
  Fe  Fe33  1  0.86726339  0.86717042  0.55449541  1
  Fe  Fe34  1  0.49956457  0.49967195  0.78569374  1
  Fe  Fe35  1  0.86709538  0.86707457  0.69745896  1
  Fe  Fe36  1  0.50002312  0.50016424  0.85719363  1
  Fe  Fe37  1  0.49457588  0.49260839  0.93012011  1
  Fe  Fe38  1  0.86637344  0.86751092  0.84060252  1
  Fe  Fe39  1  0.49431560  0.00262471  0.93028570  1
  Fe  Fe40  1  0.86481753  0.87833177  0.98267084  1
  O  O41  1  0.25752947  0.25969345  0.03900802  1
  O  O42  1  0.25292369  0.25283666  0.10597446  1
  O  O43  1  0.25746445  0.70816988  0.03916157  1
  O  O44  1  0.70662042  0.26018961  0.03891520  1
  O  O45  1  0.27142442  0.74139113  0.10677561  1
  O  O46  1  0.26186455  0.26202699  0.17831220  1
  O  O47  1  0.74082521  0.27163068  0.10678943  1
  O  O48  1  0.73980685  0.74165294  0.03937440  1
  O  O49  1  0.26081753  0.26077755  0.24708113  1
  O  O50  1  0.26322742  0.73155944  0.17903030  1
  O  O51  1  0.73143757  0.26339141  0.17900461  1
  O  O52  1  0.74029706  0.74124151  0.10638633  1
  O  O53  1  0.26892941  0.73941221  0.24921285  1
  O  O54  1  0.26205030  0.26217897  0.32135703  1
  O  O55  1  0.73944621  0.26872676  0.24923133  1
  O  O56  1  0.74250795  0.74232665  0.18015878  1
  O  O57  1  0.26032267  0.26041139  0.38991871  1
  O  O58  1  0.26216061  0.73318494  0.32178552  1
  O  O59  1  0.73305879  0.26213947  0.32179629  1
  O  O60  1  0.74050733  0.74043001  0.24936690  1
  O  O61  1  0.26752054  0.73899588  0.39216904  1
  O  O62  1  0.26105602  0.26116721  0.46434204  1
  O  O63  1  0.73892290  0.26739798  0.39218275  1
  O  O64  1  0.74023493  0.74017310  0.32414649  1
  O  O65  1  0.26077294  0.26082850  0.53282552  1
  O  O66  1  0.26240278  0.73251086  0.46445309  1
  O  O67  1  0.73908225  0.73896913  0.39254158  1
  O  O68  1  0.73238513  0.26238595  0.46446592  1
  O  O69  1  0.26857608  0.73805856  0.53513523  1
  O  O70  1  0.26085435  0.26092958  0.60728258  1
  O  O71  1  0.73804748  0.26844558  0.53515053  1
  O  O72  1  0.74020155  0.74013128  0.46681067  1
  O  O73  1  0.26049886  0.26059773  0.67578118  1
  O  O74  1  0.26192822  0.73178578  0.60766300  1
  O  O75  1  0.73165470  0.26188995  0.60768128  1
  O  O76  1  0.73923682  0.73913142  0.53560044  1
  O  O77  1  0.26826056  0.73800365  0.67814094  1
  O  O78  1  0.26092140  0.26079603  0.75007838  1
  O  O79  1  0.73811776  0.26816097  0.67813180  1
  O  O80  1  0.73933403  0.73927876  0.61006855  1
  O  O81  1  0.26164557  0.73187034  0.75041939  1
  O  O82  1  0.26212291  0.26046359  0.81812725  1
  O  O83  1  0.73908411  0.73891883  0.67856098  1
  O  O84  1  0.73157414  0.26178256  0.75042866  1
  O  O85  1  0.26751824  0.73651554  0.82112393  1
  O  O86  1  0.26441331  0.25494899  0.89281829  1
  O  O87  1  0.73828555  0.26784535  0.82078746  1
  O  O88  1  0.28081186  0.26370509  0.95620293  1
  O  O89  1  0.73889637  0.73954425  0.75292315  1
  O  O90  1  0.26382289  0.73240531  0.89241022  1
  O  O91  1  0.73989929  0.73798932  0.82161364  1
  O  O92  1  0.73791061  0.25570137  0.89265947  1
  O  O93  1  0.26582885  0.74570537  0.96327723  1
  O  O94  1  0.73812488  0.27019926  0.96388703  1
  O  O95  1  0.73750393  0.74343171  0.89640580  1
  O  O96  1  0.73799207  0.74455076  0.96400000  1
