# generated using pymatgen
data_Ca4Mn4O11
_symmetry_space_group_name_H-M   'P 1'
_cell_length_a   10.86538744
_cell_length_b   5.47929098
_cell_length_c   7.54896286
_cell_angle_alpha   90.00000000
_cell_angle_beta   90.13965764
_cell_angle_gamma   90.00000000
_symmetry_Int_Tables_number   1
_chemical_formula_structural   Ca4Mn4O11
_chemical_formula_sum   'Ca8 Mn8 O22'
_cell_volume   449.42329570
_cell_formula_units_Z   2
loop_
 _symmetry_equiv_pos_site_id
 _symmetry_equiv_pos_as_xyz
  1  'x, y, z'
loop_
 _atom_site_type_symbol
 _atom_site_label
 _atom_site_symmetry_multiplicity
 _atom_site_fract_x
 _atom_site_fract_y
 _atom_site_fract_z
 _atom_site_occupancy
  Ca  Ca0  1  0.98981198  0.02246012  0.76084416  1
  Ca  Ca1  1  0.25808038  0.55282148  0.75072367  1
  Ca  Ca2  1  0.25539545  0.49039406  0.23440115  1
  Ca  Ca3  1  0.49460455  0.99039406  0.26559885  1
  Ca  Ca4  1  0.49191962  0.05282148  0.74927633  1
  Ca  Ca5  1  0.76018802  0.52246012  0.73915584  1
  Ca  Ca6  1  0.75359892  0.44174548  0.26783522  1
  Ca  Ca7  1  0.99640108  0.94174548  0.23216478  1
  Mn  Mn8  1  0.00294625  0.49318947  0.99397399  1
  Mn  Mn9  1  0.99831274  0.51313960  0.50132318  1
  Mn  Mn10  1  0.25556983  0.99785898  0.50082158  1
  Mn  Mn11  1  0.24613051  0.00987577  0.99593273  1
  Mn  Mn12  1  0.50386949  0.50987577  0.50406727  1
  Mn  Mn13  1  0.49443017  0.49785898  0.99917842  1
  Mn  Mn14  1  0.74705375  0.99318947  0.50602601  1
  Mn  Mn15  1  0.75168726  0.01313960  0.99867682  1
  O  O16  1  0.04864306  0.46460284  0.74199650  1
  O  O17  1  0.13983882  0.72121245  0.03527747  1
  O  O18  1  0.13710350  0.73170815  0.44891855  1
  O  O19  1  0.10610898  0.21373319  0.04767357  1
  O  O20  1  0.20370466  0.98826742  0.74423542  1
  O  O21  1  0.28135920  0.04451064  0.25176142  1
  O  O22  1  0.39592384  0.79660979  0.96158167  1
  O  O23  1  0.40095360  0.78415236  0.54298997  1
  O  O24  1  0.34904640  0.28415236  0.95701003  1
  O  O25  1  0.35407616  0.29660979  0.53841833  1
  O  O26  1  0.46864080  0.54451064  0.24823858  1
  O  O27  1  0.54629534  0.48826742  0.75576458  1
  O  O28  1  0.64389102  0.71373319  0.45232643  1
  O  O29  1  0.61016118  0.22121245  0.46472253  1
  O  O30  1  0.61289650  0.23170815  0.05108145  1
  O  O31  1  0.70135694  0.96460284  0.75800350  1
  O  O32  1  0.78389728  0.99273122  0.24933589  1
  O  O33  1  0.88362511  0.76388161  0.96180471  1
  O  O34  1  0.88205607  0.78050535  0.54816053  1
  O  O35  1  0.86794393  0.28050535  0.95183947  1
  O  O36  1  0.86637489  0.26388161  0.53819529  1
  O  O37  1  0.96610272  0.49273122  0.25066411  1
