# generated using pymatgen
data_Mg16Si8HO32
_symmetry_space_group_name_H-M   'P 1'
_cell_length_a   10.39727458
_cell_length_b   6.10296190
_cell_length_c   9.63574747
_cell_angle_alpha   90.73067867
_cell_angle_beta   90.16461045
_cell_angle_gamma   90.64687311
_symmetry_Int_Tables_number   1
_chemical_formula_structural   Mg16Si8HO32
_chemical_formula_sum   'Mg16 Si8 H1 O32'
_cell_volume   611.33689819
_cell_formula_units_Z   1
loop_
 _symmetry_equiv_pos_site_id
 _symmetry_equiv_pos_as_xyz
  1  'x, y, z'
loop_
 _atom_site_type_symbol
 _atom_site_label
 _atom_site_symmetry_multiplicity
 _atom_site_fract_x
 _atom_site_fract_y
 _atom_site_fract_z
 _atom_site_occupancy
  Mg  Mg0  1  0.99863501  0.00610310  0.99835184  1
  Mg  Mg1  1  0.50226930  0.00183096  0.24789210  1
  Mg  Mg2  1  0.98967413  0.50289227  0.99431707  1
  Mg  Mg3  1  0.51378324  0.50258580  0.24346285  1
  Mg  Mg4  1  0.27450924  0.22623340  0.50812730  1
  Mg  Mg5  1  0.21371248  0.78954620  0.23633594  1
  Mg  Mg6  1  0.72190065  0.75230679  0.00144921  1
  Mg  Mg7  1  0.78020576  0.25004270  0.25474339  1
  Mg  Mg8  1  0.99683857  0.99860662  0.50249039  1
  Mg  Mg9  1  0.50062456  0.99676743  0.74964681  1
  Mg  Mg10  1  0.99939697  0.49911189  0.50112736  1
  Mg  Mg11  1  0.49966548  0.49665712  0.74990871  1
  Mg  Mg12  1  0.28175595  0.25002743  0.99500710  1
  Mg  Mg13  1  0.22024429  0.74695166  0.74813538  1
  Mg  Mg14  1  0.72176528  0.74763105  0.50421014  1
  Mg  Mg15  1  0.77642351  0.25023612  0.75251526  1
  Si  Si16  1  0.09639460  0.25484496  0.21881483  1
  Si  Si17  1  0.40299417  0.74424331  0.46144041  1
  Si  Si18  1  0.90510322  0.75081116  0.28593935  1
  Si  Si19  1  0.59746296  0.24773160  0.03410344  1
  Si  Si20  1  0.09300130  0.25194907  0.71679486  1
  Si  Si21  1  0.40526232  0.75054388  0.96398163  1
  Si  Si22  1  0.90381761  0.75285946  0.78475406  1
  Si  Si23  1  0.59439220  0.24655328  0.53497990  1
  H  H24  1  0.27918738  0.47872858  0.29863184  1
  O  O25  1  0.09236283  0.24067918  0.38826977  1
  O  O26  1  0.40721567  0.75329436  0.13449202  1
  O  O27  1  0.90902474  0.75430743  0.11590336  1
  O  O28  1  0.59367882  0.24828347  0.36512874  1
  O  O29  1  0.45173669  0.25148334  0.10915952  1
  O  O30  1  0.05213166  0.75022690  0.35949690  1
  O  O31  1  0.54769389  0.74663254  0.38854242  1
  O  O32  1  0.95343451  0.26901605  0.14124881  1
  O  O33  1  0.16020901  0.04542117  0.13223294  1
  O  O34  1  0.32889147  0.94971895  0.38728335  1
  O  O35  1  0.83540517  0.53649423  0.36110913  1
  O  O36  1  0.66838687  0.46541414  0.10834897  1
  O  O37  1  0.83763721  0.96808670  0.36009284  1
  O  O38  1  0.66484687  0.03416571  0.10970958  1
  O  O39  1  0.18858015  0.46418568  0.17005449  1
  O  O40  1  0.33995333  0.50384322  0.38550573  1
  O  O41  1  0.09214065  0.25883107  0.88693955  1
  O  O42  1  0.40370210  0.74040523  0.63000818  1
  O  O43  1  0.90588225  0.75002732  0.61513497  1
  O  O44  1  0.59303137  0.24803973  0.86448820  1
  O  O45  1  0.44757696  0.24271734  0.60843553  1
  O  O46  1  0.04987440  0.75085555  0.85972111  1
  O  O47  1  0.55109084  0.74881299  0.88923552  1
  O  O48  1  0.94716627  0.25086953  0.64199571  1
  O  O49  1  0.16096631  0.03249118  0.64410261  1
  O  O50  1  0.33770720  0.96482950  0.88864508  1
  O  O51  1  0.83334347  0.53778566  0.85851969  1
  O  O52  1  0.66150811  0.46555699  0.61016500  1
  O  O53  1  0.83655220  0.96898181  0.86040218  1
  O  O54  1  0.66247644  0.03230859  0.60932818  1
  O  O55  1  0.16404306  0.46291891  0.63929498  1
  O  O56  1  0.33496928  0.53321971  0.88989374  1
