# generated using pymatgen
data_Li3Cr4P9O32
_symmetry_space_group_name_H-M   'P 1'
_cell_length_a   13.77032946
_cell_length_b   13.77032946
_cell_length_c   6.25750701
_cell_angle_alpha   90.00000000
_cell_angle_beta   90.00000000
_cell_angle_gamma   90.00000000
_symmetry_Int_Tables_number   1
_chemical_formula_structural   Li3Cr4P9O32
_chemical_formula_sum   'Li6 Cr8 P18 O64'
_cell_volume   1186.56082803
_cell_formula_units_Z   2
loop_
 _symmetry_equiv_pos_site_id
 _symmetry_equiv_pos_as_xyz
  1  'x, y, z'
loop_
 _atom_site_type_symbol
 _atom_site_label
 _atom_site_symmetry_multiplicity
 _atom_site_fract_x
 _atom_site_fract_y
 _atom_site_fract_z
 _atom_site_occupancy
  Li  Li0  1  0.50000000  0.00000000  0.35420581  1
  Li  Li1  1  0.00000000  0.50000000  0.64579419  1
  Li  Li2  1  0.50000000  0.00000000  0.85420581  1
  Li  Li3  1  0.50000000  0.50000000  0.50000000  1
  Li  Li4  1  0.00000000  0.50000000  0.14579419  1
  Li  Li5  1  0.00000000  0.00000000  0.00000000  1
  Cr  Cr6  1  0.30500352  0.37973520  0.12308165  1
  Cr  Cr7  1  0.69499648  0.62026480  0.12308165  1
  Cr  Cr8  1  0.19499648  0.87973520  0.37691835  1
  Cr  Cr9  1  0.62026480  0.30500352  0.87691835  1
  Cr  Cr10  1  0.37973520  0.69499648  0.87691835  1
  Cr  Cr11  1  0.80500352  0.12026480  0.37691835  1
  Cr  Cr12  1  0.12026480  0.19499648  0.62308165  1
  Cr  Cr13  1  0.87973520  0.80500352  0.62308165  1
  P  P14  1  0.94130941  0.30397178  0.39032831  1
  P  P15  1  0.25230170  0.39253804  0.63336673  1
  P  P16  1  0.69602822  0.94130941  0.60967169  1
  P  P17  1  0.10746196  0.24769830  0.13336673  1
  P  P18  1  0.60746196  0.25230170  0.36663327  1
  P  P19  1  0.75230170  0.10746196  0.86663327  1
  P  P20  1  0.89253804  0.75230170  0.13336673  1
  P  P21  1  0.80397178  0.44130941  0.89032831  1
  P  P22  1  0.55869059  0.80397178  0.10967169  1
  P  P23  1  0.50000000  0.50000000  0.00000000  1
  P  P24  1  0.19602822  0.55869059  0.89032831  1
  P  P25  1  0.44130941  0.19602822  0.10967169  1
  P  P26  1  0.05869059  0.69602822  0.39032831  1
  P  P27  1  0.00000000  0.00000000  0.50000000  1
  P  P28  1  0.30397178  0.05869059  0.60967169  1
  P  P29  1  0.39253804  0.74769830  0.36663327  1
  P  P30  1  0.74769830  0.60746196  0.63336673  1
  P  P31  1  0.24769830  0.89253804  0.86663327  1
  O  O32  1  0.31204565  0.39348055  0.42731788  1
  O  O33  1  0.39348055  0.68795435  0.57268212  1
  O  O34  1  0.32019115  0.36628551  0.81973870  1
  O  O35  1  0.77637319  0.49629577  0.66737595  1
  O  O36  1  0.55712856  0.91282438  0.09483516  1
  O  O37  1  0.84016610  0.25663816  0.36026545  1
  O  O38  1  0.06264487  0.06291492  0.65280990  1
  O  O39  1  0.56291492  0.56264487  0.15280990  1
  O  O40  1  0.24988334  0.00568379  0.42835624  1
  O  O41  1  0.65903240  0.16585405  0.87730619  1
  O  O42  1  0.18795435  0.89348055  0.07268212  1
  O  O43  1  0.25663816  0.15983390  0.63973455  1
  O  O44  1  0.43708508  0.43735513  0.15280990  1
  O  O45  1  0.50568379  0.74988334  0.92835624  1
  O  O46  1  0.22362681  0.50370423  0.66737595  1
  O  O47  1  0.74988334  0.49431621  0.07164376  1
  O  O48  1  0.58717562  0.94287144  0.59483516  1
  O  O49  1  0.74336184  0.84016610  0.63973455  1
  O  O50  1  0.15983390  0.74336184  0.36026545  1
  O  O51  1  0.91282438  0.44287144  0.90516484  1
  O  O52  1  0.99629577  0.27637319  0.16737595  1
  O  O53  1  0.25011666  0.50568379  0.07164376  1
  O  O54  1  0.41282438  0.05712856  0.59483516  1
  O  O55  1  0.60651945  0.31204565  0.57268212  1
  O  O56  1  0.13371449  0.17980885  0.31973870  1
  O  O57  1  0.44287144  0.08717562  0.09483516  1
  O  O58  1  0.36628551  0.67980885  0.18026130  1
  O  O59  1  0.63371449  0.32019115  0.18026130  1
  O  O60  1  0.86628551  0.82019115  0.31973870  1
  O  O61  1  0.72362681  0.99629577  0.83262405  1
  O  O62  1  0.84096760  0.66585405  0.62269381  1
  O  O63  1  0.56264487  0.43708508  0.84719010  1
  O  O64  1  0.93708508  0.06264487  0.34719010  1
  O  O65  1  0.65983390  0.75663816  0.13973455  1
  O  O66  1  0.34096760  0.83414595  0.87730619  1
  O  O67  1  0.67980885  0.63371449  0.81973870  1
  O  O68  1  0.89348055  0.81204565  0.92731788  1
  O  O69  1  0.16585405  0.34096760  0.12269381  1
  O  O70  1  0.43735513  0.56291492  0.84719010  1
  O  O71  1  0.82019115  0.13371449  0.68026130  1
  O  O72  1  0.34016610  0.24336184  0.13973455  1
  O  O73  1  0.66585405  0.15903240  0.37730619  1
  O  O74  1  0.83414595  0.65903240  0.12269381  1
  O  O75  1  0.93735513  0.93708508  0.65280990  1
  O  O76  1  0.10651945  0.18795435  0.92731788  1
  O  O77  1  0.81204565  0.10651945  0.07268212  1
  O  O78  1  0.75663816  0.34016610  0.86026545  1
  O  O79  1  0.05712856  0.58717562  0.40516484  1
  O  O80  1  0.33414595  0.84096760  0.37730619  1
  O  O81  1  0.75011666  0.99431621  0.42835624  1
  O  O82  1  0.06291492  0.93735513  0.34719010  1
  O  O83  1  0.17980885  0.86628551  0.68026130  1
  O  O84  1  0.99431621  0.24988334  0.57164376  1
  O  O85  1  0.00568379  0.75011666  0.57164376  1
  O  O86  1  0.24336184  0.65983390  0.86026545  1
  O  O87  1  0.49629577  0.22362681  0.33262405  1
  O  O88  1  0.49431621  0.25011666  0.92835624  1
  O  O89  1  0.27637319  0.00370423  0.83262405  1
  O  O90  1  0.15903240  0.33414595  0.62269381  1
  O  O91  1  0.94287144  0.41282438  0.40516484  1
  O  O92  1  0.68795435  0.60651945  0.42731788  1
  O  O93  1  0.00370423  0.72362681  0.16737595  1
  O  O94  1  0.50370423  0.77637319  0.33262405  1
  O  O95  1  0.08717562  0.55712856  0.90516484  1
