# generated using pymatgen
data_Rb10Al24Cd7(SiO4)24
_symmetry_space_group_name_H-M   'P 1'
_cell_length_a   17.83688891
_cell_length_b   17.82631059
_cell_length_c   17.82216722
_cell_angle_alpha   60.03464132
_cell_angle_beta   60.06538802
_cell_angle_gamma   60.10388915
_symmetry_Int_Tables_number   1
_chemical_formula_structural   Rb10Al24Cd7(SiO4)24
_chemical_formula_sum   'Rb10 Al24 Cd7 Si24 O96'
_cell_volume   4013.23203240
_cell_formula_units_Z   1
loop_
 _symmetry_equiv_pos_site_id
 _symmetry_equiv_pos_as_xyz
  1  'x, y, z'
loop_
 _atom_site_type_symbol
 _atom_site_label
 _atom_site_symmetry_multiplicity
 _atom_site_fract_x
 _atom_site_fract_y
 _atom_site_fract_z
 _atom_site_occupancy
  Rb  Rb0  1  0.72703360  0.25929870  0.25914548  1
  Rb  Rb1  1  0.41112041  0.84526687  0.41025154  1
  Rb  Rb2  1  0.41229398  0.40928408  0.84387411  1
  Rb  Rb3  1  0.84235899  0.40860394  0.40858742  1
  Rb  Rb4  1  0.74924013  0.24949586  0.74947278  1
  Rb  Rb5  1  0.74897725  0.74969662  0.24947776  1
  Rb  Rb6  1  0.41249015  0.83831809  0.83920947  1
  Rb  Rb7  1  0.83645455  0.84477145  0.40952923  1
  Rb  Rb8  1  0.83636798  0.41054454  0.84478268  1
  Rb  Rb9  1  0.74967098  0.75044824  0.75061469  1
  Al  Al10  1  0.03610496  0.21202655  0.39258221  1
  Al  Al11  1  0.21143984  0.39198588  0.03509667  1
  Al  Al12  1  0.39277727  0.03667888  0.21130374  1
  Al  Al13  1  0.03103758  0.86138364  0.21096365  1
  Al  Al14  1  0.21095466  0.03119142  0.86094395  1
  Al  Al15  1  0.03047378  0.39790536  0.86088028  1
  Al  Al16  1  0.13920487  0.60180330  0.78570480  1
  Al  Al17  1  0.21096519  0.86209223  0.39811704  1
  Al  Al18  1  0.39755061  0.86272787  0.02993212  1
  Al  Al19  1  0.14065899  0.97295945  0.60109780  1
  Al  Al20  1  0.39840323  0.21041756  0.86056099  1
  Al  Al21  1  0.86280895  0.21029225  0.03345683  1
  Al  Al22  1  0.13986712  0.78385369  0.97358767  1
  Al  Al23  1  0.60383093  0.78477258  0.13997669  1
  Al  Al24  1  0.86141023  0.03383718  0.39466730  1
  Al  Al25  1  0.60316106  0.14200062  0.97058724  1
  Al  Al26  1  0.78582893  0.14029406  0.60351097  1
  Al  Al27  1  0.86120684  0.39500832  0.21076372  1
  Al  Al28  1  0.96956775  0.60308088  0.14131906  1
  Al  Al29  1  0.78389678  0.97005455  0.14174582  1
  Al  Al30  1  0.97039817  0.14045929  0.78444750  1
  Al  Al31  1  0.60457271  0.97108998  0.78414227  1
  Al  Al32  1  0.78525928  0.60370934  0.97017096  1
  Al  Al33  1  0.97026191  0.78584332  0.60413002  1
  Cd  Cd34  1  0.99250347  0.00103853  0.00181807  1
  Cd  Cd35  1  0.99722391  0.49798773  0.00592169  1
  Cd  Cd36  1  0.99751446  0.00725415  0.49763386  1
  Cd  Cd37  1  0.50546829  0.00116741  0.00049934  1
  Cd  Cd38  1  0.22290627  0.22454178  0.83249840  1
  Cd  Cd39  1  0.21989154  0.84323832  0.22078155  1
  Cd  Cd40  1  0.14586290  0.78391998  0.78479948  1
  Si  Si41  1  0.03617029  0.39584176  0.21067227  1
  Si  Si42  1  0.21079540  0.03581976  0.39509954  1
  Si  Si43  1  0.39555133  0.21086452  0.03518066  1
  Si  Si44  1  0.03513944  0.21120429  0.85808011  1
  Si  Si45  1  0.21076300  0.86141655  0.03363404  1
  Si  Si46  1  0.03400070  0.85915721  0.39639662  1
  Si  Si47  1  0.21194121  0.39530880  0.85903302  1
  Si  Si48  1  0.14353308  0.78912691  0.60299597  1
  Si  Si49  1  0.39660823  0.03424927  0.85724555  1
  Si  Si50  1  0.14473427  0.60079321  0.96463524  1
  Si  Si51  1  0.39601327  0.85983833  0.21128286  1
  Si  Si52  1  0.85874368  0.03515052  0.21027936  1
  Si  Si53  1  0.14327295  0.96353841  0.78985081  1
  Si  Si54  1  0.60236865  0.14512147  0.78908923  1
  Si  Si55  1  0.85876336  0.39617301  0.03509004  1
  Si  Si56  1  0.60015468  0.96332396  0.14700438  1
  Si  Si57  1  0.85818303  0.21114408  0.39601922  1
  Si  Si58  1  0.78908119  0.60125727  0.14566267  1
  Si  Si59  1  0.96379021  0.14587769  0.60045869  1
  Si  Si60  1  0.78963027  0.14625255  0.96300296  1
  Si  Si61  1  0.96320192  0.78967179  0.14475287  1
  Si  Si62  1  0.60194132  0.78979589  0.96260235  1
  Si  Si63  1  0.78993314  0.96303617  0.60077302  1
  Si  Si64  1  0.96311208  0.60228720  0.78977866  1
  O  O65  1  0.01638780  0.32145904  0.31300510  1
  O  O66  1  0.03072551  0.04158311  0.58960839  1
  O  O67  1  0.04185442  0.59092133  0.02898818  1
  O  O68  1  0.99850550  0.49508857  0.22294411  1
  O  O69  1  0.14874416  0.14142669  0.36738916  1
  O  O70  1  0.14181154  0.36788531  0.14725660  1
  O  O71  1  0.22544798  0.99351924  0.49462117  1
  O  O72  1  0.03097160  0.83946789  0.04180413  1
  O  O73  1  0.04204067  0.02903549  0.83945553  1
  O  O74  1  0.31261671  0.01366228  0.32076186  1
  O  O75  1  0.32111263  0.31324594  0.01267339  1
  O  O76  1  0.00485268  0.21929051  0.78216858  1
  O  O77  1  0.36614623  0.14898180  0.14124833  1
  O  O78  1  0.02473876  0.31229684  0.84494435  1
  O  O79  1  0.02466315  0.84634700  0.31786168  1
  O  O80  1  0.22095487  0.78664976  0.99976382  1
  O  O81  1  0.49415511  0.22458285  0.99620582  1
  O  O82  1  0.59029873  0.03097273  0.04282327  1
  O  O83  1  0.00377258  0.78224342  0.49394171  1
  O  O84  1  0.15095473  0.84695821  0.14529445  1
  O  O85  1  0.14778520  0.15092482  0.84274153  1
  O  O86  1  0.31203890  0.84992362  0.02054593  1
  O  O87  1  0.03031774  0.58733024  0.83986225  1
  O  O88  1  0.15031416  0.36059156  0.84293684  1
  O  O89  1  0.14564296  0.84537961  0.35999036  1
  O  O90  1  0.04230573  0.83888923  0.58953735  1
  O  O91  1  0.31903244  0.02158797  0.84577416  1
  O  O92  1  0.15577844  0.68969078  0.68175967  1
  O  O93  1  0.15937282  0.40092036  0.96350112  1
  O  O94  1  0.15697706  0.97320290  0.40593892  1
  O  O95  1  0.35808174  0.84758183  0.14902528  1
  O  O96  1  0.35946181  0.14609682  0.84224727  1
  O  O97  1  0.22216758  0.49393975  0.78368778  1
  O  O98  1  0.22466766  0.78550704  0.50481365  1
  O  O99  1  0.83669232  0.04248122  0.03103116  1
  O  O100  1  0.78513124  0.99702341  0.22383254  1
  O  O101  1  0.49406613  0.00180400  0.78177750  1
  O  O102  1  0.31200365  0.31690779  0.84332891  1
  O  O103  1  0.31721249  0.84460333  0.31195827  1
  O  O104  1  0.15046930  0.64211243  0.85378913  1
  O  O105  1  0.15001343  0.85299037  0.64305201  1
  O  O106  1  0.22493678  0.50214033  0.98212152  1
  O  O107  1  0.40255028  0.96421207  0.15893144  1
  O  O108  1  0.40490940  0.15745579  0.97265213  1
  O  O109  1  0.15848483  0.67977809  0.97171488  1
  O  O110  1  0.15642721  0.97175672  0.69031203  1
  O  O111  1  0.84265769  0.14297478  0.14883597  1
  O  O112  1  0.49309004  0.78214823  0.22037947  1
  O  O113  1  0.50306673  0.22444588  0.78146353  1
  O  O114  1  0.15011798  0.85334406  0.85428754  1
  O  O115  1  0.84946293  0.01840997  0.31247880  1
  O  O116  1  0.85001215  0.31975189  0.01803296  1
  O  O117  1  0.58768111  0.83837885  0.03027517  1
  O  O118  1  0.58835108  0.04247992  0.83811122  1
  O  O119  1  0.78529160  0.49420723  0.99597414  1
  O  O120  1  0.84182854  0.14857175  0.36655338  1
  O  O121  1  0.84131027  0.36652826  0.14297947  1
  O  O122  1  0.67893454  0.15763121  0.68806211  1
  O  O123  1  0.68768334  0.67790747  0.15860704  1
  O  O124  1  0.50034503  0.98805180  0.22598505  1
  O  O125  1  0.22392505  0.98374418  0.78801198  1
  O  O126  1  0.15777320  0.96598826  0.97489361  1
  O  O127  1  0.78350447  0.22308596  0.49479123  1
  O  O128  1  0.78395664  0.50186910  0.22496063  1
  O  O129  1  0.63145146  0.85704922  0.15470428  1
  O  O130  1  0.63284080  0.15405788  0.85579183  1
  O  O131  1  0.83781355  0.03008221  0.58888082  1
  O  O132  1  0.83734781  0.58950360  0.04207524  1
  O  O133  1  0.84377375  0.31338799  0.32009361  1
  O  O134  1  0.67708173  0.97328971  0.16127504  1
  O  O135  1  0.96398335  0.16037467  0.40246433  1
  O  O136  1  0.85766877  0.15261929  0.63428012  1
  O  O137  1  0.85512012  0.63431746  0.15312044  1
  O  O138  1  0.97310632  0.40464158  0.15869799  1
  O  O139  1  0.68830339  0.16062647  0.97392258  1
  O  O140  1  0.85754569  0.85568219  0.15346225  1
  O  O141  1  0.85651984  0.15427028  0.85672987  1
  O  O142  1  0.98969125  0.22442902  0.50124772  1
  O  O143  1  0.40156209  0.97652977  0.96278328  1
  O  O144  1  0.50162481  0.78447987  0.98858229  1
  O  O145  1  0.78773554  0.22487505  0.98710677  1
  O  O146  1  0.97714859  0.15649201  0.67770089  1
  O  O147  1  0.97722855  0.68916786  0.15439160  1
  O  O148  1  0.63135702  0.85631828  0.85624932  1
  O  O149  1  0.99162944  0.78311135  0.22302794  1
  O  O150  1  0.67842700  0.68872618  0.97332918  1
  O  O151  1  0.68853441  0.97375952  0.67732477  1
  O  O152  1  0.96485254  0.97381337  0.15783200  1
  O  O153  1  0.97735104  0.15837716  0.96348827  1
  O  O154  1  0.78578464  0.98686590  0.50092594  1
  O  O155  1  0.85700986  0.63367125  0.85499140  1
  O  O156  1  0.85581232  0.85634280  0.63259280  1
  O  O157  1  0.99043533  0.50297960  0.78234358  1
  O  O158  1  0.96493758  0.40294473  0.97376019  1
  O  O159  1  0.97522348  0.96374187  0.40229858  1
  O  O160  1  0.97686171  0.67890783  0.68861151  1
