# generated using pymatgen
data_Li2(CoO2)3
_symmetry_space_group_name_H-M   'P 1'
_cell_length_a   9.96051660
_cell_length_b   29.86308652
_cell_length_c   19.71918477
_cell_angle_alpha   8.18465761
_cell_angle_beta   14.12402112
_cell_angle_gamma   16.27482258
_symmetry_Int_Tables_number   1
_chemical_formula_structural   Li2(CoO2)3
_chemical_formula_sum   'Li4 Co6 O12'
_cell_volume   203.76679088
_cell_formula_units_Z   2
loop_
 _symmetry_equiv_pos_site_id
 _symmetry_equiv_pos_as_xyz
  1  'x, y, z'
loop_
 _atom_site_type_symbol
 _atom_site_label
 _atom_site_symmetry_multiplicity
 _atom_site_fract_x
 _atom_site_fract_y
 _atom_site_fract_z
 _atom_site_occupancy
  Li  Li0  1  0.08397580  0.99918530  0.08538636  1
  Li  Li1  1  0.08589746  0.66678066  0.08459005  1
  Li  Li2  1  0.91391826  0.33349108  0.91621827  1
  Li  Li3  1  0.92093797  0.66812096  0.90960294  1
  Co  Co4  1  0.99184630  0.99911697  0.00127993  1
  Co  Co5  1  0.00828875  0.33074549  0.00588836  1
  Co  Co6  1  0.49624176  0.00183109  0.49911341  1
  Co  Co7  1  0.00482140  0.66745160  0.99593321  1
  Co  Co8  1  0.50364428  0.33148910  0.50086648  1
  Co  Co9  1  0.50001781  0.66670568  0.49995197  1
  O  O10  1  0.19339452  -0.00129849  0.20618023  1
  O  O11  1  0.39138640  0.98324979  0.38301900  1
  O  O12  1  0.21300600  0.34333772  0.18014509  1
  O  O13  1  0.34062960  0.32974517  0.38698488  1
  O  O14  1  0.19913162  0.66140058  0.20877442  1
  O  O15  1  0.61554161  0.34212676  0.62704775  1
  O  O16  1  0.37263752  0.68387491  0.33945323  1
  O  O17  1  0.80608435  0.33502407  0.79329564  1
  O  O18  1  0.62012874  0.65999840  0.64582803  1
  O  O19  1  0.80167108  0.67182750  0.79096700  1
  O  O20  1  0.65028804  0.00282167  0.61895875  1
  O  O21  1  0.78651074  0.98964098  0.82051499  1
