# generated using pymatgen
data_H14RuS2(N2O3)2
_symmetry_space_group_name_H-M   'P 1'
_cell_length_a   6.35564671
_cell_length_b   6.93418866
_cell_length_c   10.95388964
_cell_angle_alpha   90.00000000
_cell_angle_beta   97.55321887
_cell_angle_gamma   90.00000000
_symmetry_Int_Tables_number   1
_chemical_formula_structural   H14RuS2(N2O3)2
_chemical_formula_sum   'H28 Ru2 S4 N8 O12'
_cell_volume   478.56290397
_cell_formula_units_Z   2
loop_
 _symmetry_equiv_pos_site_id
 _symmetry_equiv_pos_as_xyz
  1  'x, y, z'
loop_
 _atom_site_type_symbol
 _atom_site_label
 _atom_site_symmetry_multiplicity
 _atom_site_fract_x
 _atom_site_fract_y
 _atom_site_fract_z
 _atom_site_occupancy
  H  H0  1  0.61391887  0.97323948  0.41355246  1
  H  H1  1  0.88608113  0.47323948  0.08644754  1
  H  H2  1  0.38608113  0.02676052  0.58644754  1
  H  H3  1  0.11391887  0.52676052  0.91355246  1
  H  H4  1  0.40434349  0.63887543  0.71373882  1
  H  H5  1  0.09565651  0.13887543  0.78626118  1
  H  H6  1  0.59565651  0.36112457  0.28626118  1
  H  H7  1  0.90434349  0.86112457  0.21373882  1
  H  H8  1  0.42961347  0.40393185  0.73275569  1
  H  H9  1  0.07038653  0.90393185  0.76724431  1
  H  H10  1  0.57038653  0.59606815  0.26724431  1
  H  H11  1  0.92961347  0.09606815  0.23275569  1
  H  H12  1  0.20898179  0.49888501  0.65908287  1
  H  H13  1  0.29101821  0.99888501  0.84091713  1
  H  H14  1  0.79101821  0.50111499  0.34091713  1
  H  H15  1  0.70898179  0.00111499  0.15908287  1
  H  H16  1  0.16332766  0.61500703  0.34259395  1
  H  H17  1  0.33667234  0.11500703  0.15740605  1
  H  H18  1  0.83667234  0.38499297  0.65740605  1
  H  H19  1  0.66332766  0.88499297  0.84259395  1
  H  H20  1  0.13273531  0.71566730  0.47648282  1
  H  H21  1  0.36726469  0.21566730  0.02351718  1
  H  H22  1  0.86726469  0.28433270  0.52351718  1
  H  H23  1  0.63273531  0.78433270  0.97648282  1
  H  H24  1  0.28788687  0.81560277  0.38596104  1
  H  H25  1  0.21211313  0.31560277  0.11403896  1
  H  H26  1  0.71211313  0.18439723  0.61403896  1
  H  H27  1  0.78788687  0.68439723  0.88596104  1
  Ru  Ru28  1  0.50000000  0.50000000  0.50000000  1
  Ru  Ru29  1  -0.00000000  -0.00000000  0.00000000  1
  S  S30  1  0.70149490  0.76345201  0.56126529  1
  S  S31  1  0.79850510  0.26345201  0.93873471  1
  S  S32  1  0.29850510  0.23654799  0.43873471  1
  S  S33  1  0.20149490  0.73654799  0.06126529  1
  N  N34  1  0.37119323  0.50912414  0.67122567  1
  N  N35  1  0.12880677  0.00912414  0.82877433  1
  N  N36  1  0.62880677  0.49087586  0.32877433  1
  N  N37  1  0.87119323  0.99087586  0.17122567  1
  N  N38  1  0.24235346  0.68485631  0.41773299  1
  N  N39  1  0.25764654  0.18485631  0.08226701  1
  N  N40  1  0.75764654  0.31514369  0.58226701  1
  N  N41  1  0.74235346  0.81514369  0.91773299  1
  O  O42  1  0.74582114  0.89288931  0.44222984  1
  O  O43  1  0.75417886  0.39288931  0.05777016  1
  O  O44  1  0.25417886  0.10711069  0.55777016  1
  O  O45  1  0.24582114  0.60711069  0.94222984  1
  O  O46  1  0.59182031  0.90555324  0.63807053  1
  O  O47  1  0.90817969  0.40555324  0.86192947  1
  O  O48  1  0.40817969  0.09444676  0.36192947  1
  O  O49  1  0.09182031  0.59444676  0.13807053  1
  O  O50  1  0.92081848  0.72601373  0.62284933  1
  O  O51  1  0.57918152  0.22601373  0.87715067  1
  O  O52  1  0.07918152  0.27398627  0.37715067  1
  O  O53  1  0.42081848  0.77398627  0.12284933  1
