# generated using pymatgen
data_CsH7(C2O5)2
_symmetry_space_group_name_H-M   'P 1'
_cell_length_a   6.45301904
_cell_length_b   7.49638979
_cell_length_c   10.93740604
_cell_angle_alpha   94.01292994
_cell_angle_beta   99.85411517
_cell_angle_gamma   96.46472187
_symmetry_Int_Tables_number   1
_chemical_formula_structural   CsH7(C2O5)2
_chemical_formula_sum   'Cs2 H14 C8 O20'
_cell_volume   515.81238300
_cell_formula_units_Z   2
loop_
 _symmetry_equiv_pos_site_id
 _symmetry_equiv_pos_as_xyz
  1  'x, y, z'
loop_
 _atom_site_type_symbol
 _atom_site_label
 _atom_site_symmetry_multiplicity
 _atom_site_fract_x
 _atom_site_fract_y
 _atom_site_fract_z
 _atom_site_occupancy
  Cs  Cs0  1  0.84499992  0.84912067  0.71999662  1
  Cs  Cs1  1  0.15500008  0.15087933  0.28000338  1
  H  H2  1  0.84778002  0.35138299  0.74271177  1
  H  H3  1  0.15221998  0.64861701  0.25728823  1
  H  H4  1  0.38784117  0.08727786  0.76798248  1
  H  H5  1  0.61215883  0.91272214  0.23201752  1
  H  H6  1  0.34526473  0.56653273  0.76688470  1
  H  H7  1  0.65473527  0.43346727  0.23311530  1
  H  H8  1  0.26069807  0.20881924  0.61920703  1
  H  H9  1  0.73930193  0.79118076  0.38079297  1
  H  H10  1  0.28387875  0.99978245  0.58914860  1
  H  H11  1  0.71612125  0.00021755  0.41085140  1
  H  H12  1  0.83918817  0.22702969  0.91939754  1
  H  H13  1  0.16081183  0.77297031  0.08060246  1
  H  H14  1  0.07007489  0.31768131  0.90991541  1
  H  H15  1  0.92992511  0.68231869  0.09008459  1
  C  C16  1  0.72015917  0.43700527  0.44339356  1
  C  C17  1  0.27984083  0.56299473  0.55660644  1
  C  C18  1  0.75027678  0.32213888  0.55763125  1
  C  C19  1  0.24972322  0.67786112  0.44236875  1
  C  C20  1  0.41909550  0.99631840  0.93855063  1
  C  C21  1  0.58090450  0.00368160  0.06144937  1
  C  C22  1  0.50901426  0.54666082  0.93957875  1
  C  C23  1  0.49098574  0.45333918  0.06042125  1
  O  O24  1  0.74678198  0.60564870  0.46406496  1
  O  O25  1  0.25321802  0.39435130  0.53593504  1
  O  O26  1  0.67207352  0.34309347  0.33840728  1
  O  O27  1  0.32792648  0.65690653  0.66159272  1
  O  O28  1  0.81000228  0.42209288  0.66454135  1
  O  O29  1  0.18999772  0.57790712  0.33545865  1
  O  O30  1  0.72114746  0.15582526  0.54544164  1
  O  O31  1  0.27885254  0.84417474  0.45455836  1
  O  O32  1  0.24021795  0.91064328  0.92596625  1
  O  O33  1  0.75978205  0.08935672  0.07403375  1
  O  O34  1  0.49688759  0.08787146  0.85545220  1
  O  O35  1  0.50311241  0.91212854  0.14454780  1
  O  O36  1  0.66529535  0.65487689  0.93333779  1
  O  O37  1  0.33470465  0.34512311  0.06666221  1
  O  O38  1  0.34391417  0.49668846  0.85181431  1
  O  O39  1  0.65608583  0.50331154  0.14818569  1
  O  O40  1  0.25501540  0.08871482  0.65360769  1
  O  O41  1  0.74498460  0.91128518  0.34639231  1
  O  O42  1  0.92848448  0.27310941  0.86162339  1
  O  O43  1  0.07151552  0.72689059  0.13837661  1
