# generated using pymatgen
data_Mn4(PO4)3
_symmetry_space_group_name_H-M   'P 1'
_cell_length_a   8.49052711
_cell_length_b   9.83717943
_cell_length_c   8.49052660
_cell_angle_alpha   64.44613476
_cell_angle_beta   60.02024327
_cell_angle_gamma   64.44613732
_symmetry_Int_Tables_number   1
_chemical_formula_structural   Mn4(PO4)3
_chemical_formula_sum   'Mn8 P6 O24'
_cell_volume   532.63050555
_cell_formula_units_Z   2
loop_
 _symmetry_equiv_pos_site_id
 _symmetry_equiv_pos_as_xyz
  1  'x, y, z'
loop_
 _atom_site_type_symbol
 _atom_site_label
 _atom_site_symmetry_multiplicity
 _atom_site_fract_x
 _atom_site_fract_y
 _atom_site_fract_z
 _atom_site_occupancy
  Mn  Mn0  1  0.71150215  0.86604866  0.71114287  1
  Mn  Mn1  1  0.21114287  0.36604866  0.21150215  1
  Mn  Mn2  1  0.73295271  0.53669521  0.53682753  1
  Mn  Mn3  1  0.69360441  0.03679291  0.03659903  1
  Mn  Mn4  1  0.03682753  0.03669521  0.23295271  1
  Mn  Mn5  1  0.23320182  0.03670714  0.69345579  1
  Mn  Mn6  1  0.53659903  0.53679291  0.19360441  1
  Mn  Mn7  1  0.19345579  0.53670714  0.73320182  1
  P  P8  1  0.09577134  0.65423518  0.42019607  1
  P  P9  1  0.92019607  0.15423518  0.59577134  1
  P  P10  1  0.32963681  0.15424437  0.92026410  1
  P  P11  1  0.42026410  0.65424437  0.82963681  1
  P  P12  1  0.59586281  0.15433904  0.32970220  1
  P  P13  1  0.82970220  0.65433904  0.09586281  1
  O  O14  1  0.40224476  0.54371504  0.03454997  1
  O  O15  1  0.79438302  0.06026429  0.21167069  1
  O  O16  1  0.82570778  0.80377544  0.10865497  1
  O  O17  1  0.26195934  0.80365227  0.82571615  1
  O  O18  1  0.03423724  0.54365233  0.01989477  1
  O  O19  1  0.60865497  0.30377544  0.32570778  1
  O  O20  1  0.90231942  0.04354143  0.51964807  1
  O  O21  1  0.29423532  0.56017072  0.43371416  1
  O  O22  1  0.47910593  0.18531356  0.21472785  1
  O  O23  1  0.21212406  0.05993000  0.93379553  1
  O  O24  1  0.76204671  0.30363901  0.60834026  1
  O  O25  1  0.01964807  0.54354143  0.40231942  1
  O  O26  1  0.21484058  0.18521735  0.12077805  1
  O  O27  1  0.12080762  0.18513904  0.47917312  1
  O  O28  1  0.71472785  0.68531356  0.97910593  1
  O  O29  1  0.62077805  0.68521735  0.71484058  1
  O  O30  1  0.97917312  0.68513904  0.62080762  1
  O  O31  1  0.93371416  0.06017072  0.79423532  1
  O  O32  1  0.10834026  0.80363901  0.26204671  1
  O  O33  1  0.53454997  0.04371504  0.90224476  1
  O  O34  1  0.71167069  0.56026429  0.29438302  1
  O  O35  1  0.51989477  0.04365233  0.53423724  1
  O  O36  1  0.43379553  0.55993000  0.71212406  1
  O  O37  1  0.32571615  0.30365227  0.76195934  1
