# generated using pymatgen
data_Li2B12H26O7
_symmetry_space_group_name_H-M   'P 1'
_cell_length_a   7.67797274
_cell_length_b   7.67797274
_cell_length_c   14.78118641
_cell_angle_alpha   90.00000000
_cell_angle_beta   90.00000000
_cell_angle_gamma   104.76325576
_symmetry_Int_Tables_number   1
_chemical_formula_structural   Li2B12H26O7
_chemical_formula_sum   'Li4 B24 H52 O14'
_cell_volume   842.60312477
_cell_formula_units_Z   2
loop_
 _symmetry_equiv_pos_site_id
 _symmetry_equiv_pos_as_xyz
  1  'x, y, z'
loop_
 _atom_site_type_symbol
 _atom_site_label
 _atom_site_symmetry_multiplicity
 _atom_site_fract_x
 _atom_site_fract_y
 _atom_site_fract_z
 _atom_site_occupancy
  Li  Li0  1  0.09095670  0.81486912  0.25000000  1
  Li  Li1  1  0.18513088  0.90904330  0.75000000  1
  Li  Li2  1  0.90904330  0.18513088  0.75000000  1
  Li  Li3  1  0.81486912  0.09095670  0.25000000  1
  B  B4  1  0.32039118  0.32039118  0.98474604  1
  B  B5  1  0.67960882  0.67960882  0.01525396  1
  B  B6  1  0.32039118  0.32039118  0.51525396  1
  B  B7  1  0.67960882  0.67960882  0.48474604  1
  B  B8  1  0.39866940  0.39866940  0.09447910  1
  B  B9  1  0.60133060  0.60133060  0.90552090  1
  B  B10  1  0.39866940  0.39866940  0.40552090  1
  B  B11  1  0.60133060  0.60133060  0.59447910  1
  B  B12  1  0.63635880  0.48974271  0.08909042  1
  B  B13  1  0.51025729  0.36364120  0.91090958  1
  B  B14  1  0.63635880  0.48974271  0.41090958  1
  B  B15  1  0.51025729  0.36364120  0.58909042  1
  B  B16  1  0.36364120  0.51025729  0.91090958  1
  B  B17  1  0.48974271  0.63635880  0.08909042  1
  B  B18  1  0.36364120  0.51025729  0.58909042  1
  B  B19  1  0.48974271  0.63635880  0.41090958  1
  B  B20  1  0.29514839  0.53173059  0.02437750  1
  B  B21  1  0.46826941  0.70485161  0.97562250  1
  B  B22  1  0.29514839  0.53173059  0.47562250  1
  B  B23  1  0.46826941  0.70485161  0.52437750  1
  B  B24  1  0.70485161  0.46826941  0.97562250  1
  B  B25  1  0.53173059  0.29514839  0.02437750  1
  B  B26  1  0.70485161  0.46826941  0.52437750  1
  B  B27  1  0.53173059  0.29514839  0.47562250  1
  H  H28  1  0.76237245  0.76237245  0.19765613  1
  H  H29  1  0.23762755  0.23762755  0.80234387  1
  H  H30  1  0.76237245  0.76237245  0.30234387  1
  H  H31  1  0.23762755  0.23762755  0.69765613  1
  H  H32  1  0.52144887  0.16221792  0.19756872  1
  H  H33  1  0.83778208  0.47855113  0.80243128  1
  H  H34  1  0.52144887  0.16221792  0.30243128  1
  H  H35  1  0.83778208  0.47855113  0.69756872  1
  H  H36  1  0.47855113  0.83778208  0.80243128  1
  H  H37  1  0.16221792  0.52144887  0.19756872  1
  H  H38  1  0.47855113  0.83778208  0.69756872  1
  H  H39  1  0.16221792  0.52144887  0.30243128  1
  H  H40  1  0.03624993  0.21363957  0.39350068  1
  H  H41  1  0.78636043  0.96375007  0.60649932  1
  H  H42  1  0.03624993  0.21363957  0.10649932  1
  H  H43  1  0.78636043  0.96375007  0.89350068  1
  H  H44  1  0.96375007  0.78636043  0.60649932  1
  H  H45  1  0.21363957  0.03624993  0.39350068  1
  H  H46  1  0.96375007  0.78636043  0.89350068  1
  H  H47  1  0.21363957  0.03624993  0.10649932  1
  H  H48  1  0.84646608  0.24414105  0.40640232  1
  H  H49  1  0.75585895  0.15353392  0.59359768  1
  H  H50  1  0.84646608  0.24414105  0.09359768  1
  H  H51  1  0.75585895  0.15353392  0.90640232  1
  H  H52  1  0.15353392  0.75585895  0.59359768  1
  H  H53  1  0.24414105  0.84646608  0.40640232  1
  H  H54  1  0.15353392  0.75585895  0.90640232  1
  H  H55  1  0.24414105  0.84646608  0.09359768  1
  H  H56  1  0.19304704  0.19304704  0.97391466  1
  H  H57  1  0.80695296  0.80695296  0.02608534  1
  H  H58  1  0.19304704  0.19304704  0.52608534  1
  H  H59  1  0.80695296  0.80695296  0.47391466  1
  H  H60  1  0.32524399  0.32524399  0.16189238  1
  H  H61  1  0.67475601  0.67475601  0.83810762  1
  H  H62  1  0.32524399  0.32524399  0.33810762  1
  H  H63  1  0.67475601  0.67475601  0.66189238  1
  H  H64  1  0.73297909  0.48009982  0.15172958  1
  H  H65  1  0.51990018  0.26702091  0.84827042  1
  H  H66  1  0.73297909  0.48009982  0.34827042  1
  H  H67  1  0.51990018  0.26702091  0.65172958  1
  H  H68  1  0.26702091  0.51990018  0.84827042  1
  H  H69  1  0.48009982  0.73297909  0.15172958  1
  H  H70  1  0.26702091  0.51990018  0.65172958  1
  H  H71  1  0.48009982  0.73297909  0.34827042  1
  H  H72  1  0.14984360  0.55660002  0.04135188  1
  H  H73  1  0.44339998  0.85015640  0.95864812  1
  H  H74  1  0.14984360  0.55660002  0.45864812  1
  H  H75  1  0.44339998  0.85015640  0.54135188  1
  H  H76  1  0.85015640  0.44339998  0.95864812  1
  H  H77  1  0.55660002  0.14984360  0.04135188  1
  H  H78  1  0.85015640  0.44339998  0.54135188  1
  H  H79  1  0.55660002  0.14984360  0.45864812  1
  O  O80  1  0.82680020  0.82680020  0.25000000  1
  O  O81  1  0.17319980  0.17319980  0.75000000  1
  O  O82  1  0.56911578  0.11259732  0.25000000  1
  O  O83  1  0.88740268  0.43088422  0.75000000  1
  O  O84  1  0.43088422  0.88740268  0.75000000  1
  O  O85  1  0.11259732  0.56911578  0.25000000  1
  O  O86  1  0.91425851  0.17994951  0.36892602  1
  O  O87  1  0.82005049  0.08574149  0.63107398  1
  O  O88  1  0.91425851  0.17994951  0.13107398  1
  O  O89  1  0.82005049  0.08574149  0.86892602  1
  O  O90  1  0.08574149  0.82005049  0.63107398  1
  O  O91  1  0.17994951  0.91425851  0.36892602  1
  O  O92  1  0.08574149  0.82005049  0.86892602  1
  O  O93  1  0.17994951  0.91425851  0.13107398  1
