# generated using pymatgen
data_BaSr2I6
_symmetry_space_group_name_H-M   'P 1'
_cell_length_a   9.98836254
_cell_length_b   9.98115783
_cell_length_c   16.34282624
_cell_angle_alpha   90.00000000
_cell_angle_beta   83.92439502
_cell_angle_gamma   90.00000000
_symmetry_Int_Tables_number   1
_chemical_formula_structural   BaSr2I6
_chemical_formula_sum   'Ba4 Sr8 I24'
_cell_volume   1620.15332831
_cell_formula_units_Z   4
loop_
 _symmetry_equiv_pos_site_id
 _symmetry_equiv_pos_as_xyz
  1  'x, y, z'
loop_
 _atom_site_type_symbol
 _atom_site_label
 _atom_site_symmetry_multiplicity
 _atom_site_fract_x
 _atom_site_fract_y
 _atom_site_fract_z
 _atom_site_occupancy
  Ba  Ba0  1  0.17150612  0.80991741  0.91466949  1
  Ba  Ba1  1  0.32849388  0.30991741  0.58533051  1
  Ba  Ba2  1  0.67150612  0.69008259  0.41466949  1
  Ba  Ba3  1  0.82849388  0.19008259  0.08533051  1
  Sr  Sr4  1  0.10623699  0.83621443  0.58143615  1
  Sr  Sr5  1  0.13106680  0.54046776  0.24339169  1
  Sr  Sr6  1  0.36893320  0.04046776  0.25660831  1
  Sr  Sr7  1  0.39376301  0.33621443  0.91856385  1
  Sr  Sr8  1  0.60623699  0.66378557  0.08143615  1
  Sr  Sr9  1  0.63106680  0.95953224  0.74339169  1
  Sr  Sr10  1  0.86893320  0.45953224  0.75660831  1
  Sr  Sr11  1  0.89376301  0.16378557  0.41856385  1
  I  I12  1  0.11287981  0.15365494  0.93680683  1
  I  I13  1  0.08270592  0.19401697  0.22393101  1
  I  I14  1  0.00752233  0.83013530  0.37811959  1
  I  I15  1  0.18427511  0.52864192  0.04299414  1
  I  I16  1  0.13405095  0.40565600  0.42224747  1
  I  I17  1  0.19081744  0.48119936  0.77405614  1
  I  I18  1  0.30918256  0.98119936  0.72594386  1
  I  I19  1  0.31572489  0.02864192  0.45700586  1
  I  I20  1  0.36594905  0.90565600  0.07775253  1
  I  I21  1  0.49247767  0.33013530  0.12188041  1
  I  I22  1  0.41729408  0.69401697  0.27606899  1
  I  I23  1  0.38712019  0.65365494  0.56319317  1
  I  I24  1  0.61287981  0.34634506  0.43680683  1
  I  I25  1  0.58270592  0.30598303  0.72393101  1
  I  I26  1  0.50752233  0.66986470  0.87811959  1
  I  I27  1  0.63405095  0.09434400  0.92224747  1
  I  I28  1  0.68427511  0.97135808  0.54299414  1
  I  I29  1  0.69081744  0.01880064  0.27405614  1
  I  I30  1  0.80918256  0.51880064  0.22594386  1
  I  I31  1  0.86594905  0.59434400  0.57775253  1
  I  I32  1  0.81572489  0.47135808  0.95700586  1
  I  I33  1  0.99247767  0.16986470  0.62188041  1
  I  I34  1  0.91729408  0.80598303  0.77606899  1
  I  I35  1  0.88712019  0.84634506  0.06319317  1
