# generated using pymatgen
data_LiCuF2
_symmetry_space_group_name_H-M   'P 1'
_cell_length_a   6.27579616
_cell_length_b   5.71136481
_cell_length_c   5.24499339
_cell_angle_alpha   90.00000000
_cell_angle_beta   90.00000000
_cell_angle_gamma   90.76661199
_symmetry_Int_Tables_number   1
_chemical_formula_structural   LiCuF2
_chemical_formula_sum   'Li4 Cu4 F8'
_cell_volume   187.98136558
_cell_formula_units_Z   4
loop_
 _symmetry_equiv_pos_site_id
 _symmetry_equiv_pos_as_xyz
  1  'x, y, z'
loop_
 _atom_site_type_symbol
 _atom_site_label
 _atom_site_symmetry_multiplicity
 _atom_site_fract_x
 _atom_site_fract_y
 _atom_site_fract_z
 _atom_site_occupancy
  Li  Li0  1  0.40795562  0.64907482  0.82149989  1
  Li  Li1  1  0.40795562  0.14907482  0.67850011  1
  Li  Li2  1  0.59204438  0.85092518  0.32149989  1
  Li  Li3  1  0.59204438  0.35092518  0.17850011  1
  Cu  Cu4  1  0.08243281  0.60443384  0.24320778  1
  Cu  Cu5  1  0.08243281  0.10443384  0.25679222  1
  Cu  Cu6  1  0.91756719  0.89556616  0.74320778  1
  Cu  Cu7  1  0.91756719  0.39556616  0.75679222  1
  F  F8  1  0.21148714  0.90497525  0.77746344  1
  F  F9  1  0.21148714  0.40497525  0.72253656  1
  F  F10  1  0.37969949  0.62063435  0.19500418  1
  F  F11  1  0.37969949  0.12063435  0.30499582  1
  F  F12  1  0.62030051  0.87936565  0.69500418  1
  F  F13  1  0.62030051  0.37936565  0.80499582  1
  F  F14  1  0.78851286  0.59502475  0.27746344  1
  F  F15  1  0.78851286  0.09502475  0.22253656  1
