# generated using pymatgen
data_KPH5C2SN3O4
_symmetry_space_group_name_H-M   'P 1'
_cell_length_a   6.20993849
_cell_length_b   6.92508216
_cell_length_c   10.81269119
_cell_angle_alpha   88.10689559
_cell_angle_beta   103.39105396
_cell_angle_gamma   101.55351500
_symmetry_Int_Tables_number   1
_chemical_formula_structural   KPH5C2SN3O4
_chemical_formula_sum   'K2 P2 H10 C4 S2 N6 O8'
_cell_volume   443.14142033
_cell_formula_units_Z   2
loop_
 _symmetry_equiv_pos_site_id
 _symmetry_equiv_pos_as_xyz
  1  'x, y, z'
loop_
 _atom_site_type_symbol
 _atom_site_label
 _atom_site_symmetry_multiplicity
 _atom_site_fract_x
 _atom_site_fract_y
 _atom_site_fract_z
 _atom_site_occupancy
  K  K0  1  0.98647750  0.18068903  0.68309777  1
  K  K1  1  0.01352250  0.81931097  0.31690223  1
  P  P2  1  0.44025150  0.74428359  0.72808573  1
  P  P3  1  0.55974850  0.25571641  0.27191427  1
  H  H4  1  0.40334584  0.92175167  0.90247066  1
  H  H5  1  0.59665416  0.07824833  0.09752934  1
  H  H6  1  0.49468181  0.42297161  0.68537661  1
  H  H7  1  0.50531819  0.57702839  0.31462339  1
  H  H8  1  0.07533609  0.36800235  0.97710139  1
  H  H9  1  0.92466391  0.63199765  0.02289861  1
  H  H10  1  0.63702505  0.79940925  0.50808370  1
  H  H11  1  0.36297495  0.20059075  0.49191630  1
  H  H12  1  0.45259994  0.09421641  0.61472185  1
  H  H13  1  0.54740006  0.90578359  0.38527815  1
  C  C14  1  0.71942436  0.50693037  0.85369776  1
  C  C15  1  0.28057564  0.49306963  0.14630224  1
  C  C16  1  0.66636222  0.78503542  0.97628271  1
  C  C17  1  0.33363778  0.21496458  0.02371729  1
  S  S18  1  0.11708259  0.68780969  0.64910398  1
  S  S19  1  0.88291741  0.31219031  0.35089602  1
  N  N20  1  0.48661911  0.81307935  0.88374966  1
  N  N21  1  0.51338089  0.18692065  0.11625034  1
  N  N22  1  0.54650259  0.53350098  0.75515718  1
  N  N23  1  0.45349741  0.46649902  0.24484282  1
  N  N24  1  0.77847521  0.64015804  0.95460970  1
  N  N25  1  0.22152479  0.35984196  0.04539030  1
  O  O26  1  0.59323755  0.89297328  0.66329156  1
  O  O27  1  0.40676245  0.10702672  0.33670844  1
  O  O28  1  0.82132460  0.36810575  0.85728305  1
  O  O29  1  0.17867540  0.63189425  0.14271695  1
  O  O30  1  0.26829219  0.12065194  0.92054582  1
  O  O31  1  0.73170781  0.87934806  0.07945418  1
  O  O32  1  0.37496217  0.20524520  0.58444321  1
  O  O33  1  0.62503783  0.79475480  0.41555679  1
