# generated using pymatgen
data_LiCu2F4
_symmetry_space_group_name_H-M   'P 1'
_cell_length_a   3.01857457
_cell_length_b   5.28836984
_cell_length_c   9.86276076
_cell_angle_alpha   89.98780643
_cell_angle_beta   89.98379425
_cell_angle_gamma   84.35998327
_symmetry_Int_Tables_number   1
_chemical_formula_structural   LiCu2F4
_chemical_formula_sum   'Li2 Cu4 F8'
_cell_volume   156.68040266
_cell_formula_units_Z   2
loop_
 _symmetry_equiv_pos_site_id
 _symmetry_equiv_pos_as_xyz
  1  'x, y, z'
loop_
 _atom_site_type_symbol
 _atom_site_label
 _atom_site_symmetry_multiplicity
 _atom_site_fract_x
 _atom_site_fract_y
 _atom_site_fract_z
 _atom_site_occupancy
  Li  Li0  1  0.03888999  0.77754490  0.74985150  1
  Li  Li1  1  0.96478062  0.22117912  0.24994162  1
  Cu  Cu2  1  0.36049416  0.26442606  0.92539399  1
  Cu  Cu3  1  0.35978694  0.26479312  0.57458508  1
  Cu  Cu4  1  0.63980733  0.73518209  0.42527374  1
  Cu  Cu5  1  0.63939566  0.73475631  0.07478738  1
  F  F6  1  0.32627916  0.41789821  0.38303884  1
  F  F7  1  0.32839947  0.41807072  0.11720955  1
  F  F8  1  0.42804085  0.07006735  0.74985213  1
  F  F9  1  0.57108148  0.92994659  0.24990005  1
  F  F10  1  0.67316778  0.58313400  0.88283148  1
  F  F11  1  0.66998560  0.58312242  0.61749638  1
  F  F12  1  0.99962519  0.99988742  0.50000015  1
  F  F13  1  0.00026676  0.99999270  -0.00016089  1
