# generated using pymatgen
data_CaGd2O4
_symmetry_space_group_name_H-M   'P 1'
_cell_length_a   6.88665348
_cell_length_b   6.94034682
_cell_length_c   6.88668811
_cell_angle_alpha   60.25540088
_cell_angle_beta   90.00003453
_cell_angle_gamma   119.74442973
_symmetry_Int_Tables_number   1
_chemical_formula_structural   CaGd2O4
_chemical_formula_sum   'Ca2 Gd4 O8'
_cell_volume   234.53353873
_cell_formula_units_Z   2
loop_
 _symmetry_equiv_pos_site_id
 _symmetry_equiv_pos_as_xyz
  1  'x, y, z'
loop_
 _atom_site_type_symbol
 _atom_site_label
 _atom_site_symmetry_multiplicity
 _atom_site_fract_x
 _atom_site_fract_y
 _atom_site_fract_z
 _atom_site_occupancy
  Ca  Ca0  1  0.00000089  0.00000279  0.99999911  1
  Ca  Ca1  1  0.74999911  0.49999721  0.75000089  1
  Gd  Gd2  1  0.37500000  0.25000000  0.37500000  1
  Gd  Gd3  1  0.87500000  0.25000000  0.37500000  1
  Gd  Gd4  1  0.37500000  0.75000000  0.37500000  1
  Gd  Gd5  1  0.37500000  0.75000000  0.87500000  1
  O  O6  1  0.13950682  0.27901353  0.13168531  1
  O  O7  1  0.61049329  0.22098647  0.16069884  1
  O  O8  1  0.58930150  0.72098680  0.13950633  1
  O  O9  1  0.13168431  0.72098680  0.13950786  1
  O  O10  1  0.61049318  0.22098647  0.61831469  1
  O  O11  1  0.13950671  0.27901353  0.58930116  1
  O  O12  1  0.16069850  0.77901320  0.61049367  1
  O  O13  1  0.61831569  0.77901320  0.61049214  1
