# generated using pymatgen
data_Li6CuO4
_symmetry_space_group_name_H-M   'P 1'
_cell_length_a   4.58955884
_cell_length_b   6.63326456
_cell_length_c   6.63330112
_cell_angle_alpha   90.03751679
_cell_angle_beta   90.00064165
_cell_angle_gamma   90.00083822
_symmetry_Int_Tables_number   1
_chemical_formula_structural   Li6CuO4
_chemical_formula_sum   'Li12 Cu2 O8'
_cell_volume   201.94257083
_cell_formula_units_Z   2
loop_
 _symmetry_equiv_pos_site_id
 _symmetry_equiv_pos_as_xyz
  1  'x, y, z'
loop_
 _atom_site_type_symbol
 _atom_site_label
 _atom_site_symmetry_multiplicity
 _atom_site_fract_x
 _atom_site_fract_y
 _atom_site_fract_z
 _atom_site_occupancy
  Li  Li0  1  0.74998762  0.96830566  0.46830134  1
  Li  Li1  1  0.75149409  0.96756094  0.03013823  1
  Li  Li2  1  0.68744736  0.74856940  0.74920058  1
  Li  Li3  1  0.18745104  0.74920572  0.74856821  1
  Li  Li4  1  0.74849759  0.53015903  0.46755431  1
  Li  Li5  1  0.75000566  0.53268052  0.03267263  1
  Li  Li6  1  0.25000335  0.46831123  0.96830819  1
  Li  Li7  1  0.24849134  0.46755358  0.53016336  1
  Li  Li8  1  0.31254905  0.24855939  0.24918267  1
  Li  Li9  1  0.81255595  0.24919051  0.24855841  1
  Li  Li10  1  0.25149679  0.03015171  0.96755004  1
  Li  Li11  1  0.24998754  0.03267838  0.53267415  1
  Cu  Cu12  1  0.24998307  0.74998904  0.24998859  1
  Cu  Cu13  1  0.74992927  0.24997356  0.74995659  1
  O  O14  1  0.94724472  0.98241169  0.74978644  1
  O  O15  1  0.44724280  0.74980084  0.98241274  1
  O  O16  1  0.44737141  0.74960538  0.51650301  1
  O  O17  1  0.94737016  0.51649772  0.74960259  1
  O  O18  1  0.05276925  0.48238944  0.24980631  1
  O  O19  1  0.55275162  0.24980223  0.48238364  1
  O  O20  1  0.55262155  0.24961153  0.01647768  1
  O  O21  1  0.05261376  0.01648548  0.24960326  1
