# generated using pymatgen
data_PuCoH24C4N6O13
_symmetry_space_group_name_H-M   'P 1'
_cell_length_a   8.27777336
_cell_length_b   8.55841990
_cell_length_c   14.60870246
_cell_angle_alpha   102.20258153
_cell_angle_beta   100.75694354
_cell_angle_gamma   107.32606496
_symmetry_Int_Tables_number   1
_chemical_formula_structural   PuCoH24C4N6O13
_chemical_formula_sum   'Pu2 Co2 H48 C8 N12 O26'
_cell_volume   930.47562516
_cell_formula_units_Z   2
loop_
 _symmetry_equiv_pos_site_id
 _symmetry_equiv_pos_as_xyz
  1  'x, y, z'
loop_
 _atom_site_type_symbol
 _atom_site_label
 _atom_site_symmetry_multiplicity
 _atom_site_fract_x
 _atom_site_fract_y
 _atom_site_fract_z
 _atom_site_occupancy
  Pu  Pu0  1  0.64023311  0.48777649  0.63548663  1
  Pu  Pu1  1  0.35976689  0.51222351  0.36451337  1
  Co  Co2  1  0.00000000  0.00000000  0.50000000  1
  Co  Co3  1  0.50000000  0.50000000  0.00000000  1
  H  H4  1  0.30501918  0.92502661  0.86190037  1
  H  H5  1  0.69498082  0.07497339  0.13809963  1
  H  H6  1  0.28171914  0.94714592  0.97074368  1
  H  H7  1  0.71828086  0.05285408  0.02925632  1
  H  H8  1  0.15290469  0.76350398  0.02828741  1
  H  H9  1  0.84709531  0.23649602  0.97171259  1
  H  H10  1  0.21387969  0.93396939  0.11232680  1
  H  H11  1  0.78612031  0.06603061  0.88767320  1
  H  H12  1  0.86390558  0.86548197  0.77112127  1
  H  H13  1  0.13609442  0.13451803  0.22887873  1
  H  H14  1  0.04034782  0.96864399  0.85255425  1
  H  H15  1  0.95965218  0.03135601  0.14744575  1
  H  H16  1  0.90913925  0.70764156  0.52660534  1
  H  H17  1  0.09086075  0.29235844  0.47339466  1
  H  H18  1  0.80325584  0.69375391  0.41630926  1
  H  H19  1  0.19674416  0.30624609  0.58369074  1
  H  H20  1  0.01025234  0.70307257  0.43662089  1
  H  H21  1  0.98974766  0.29692743  0.56337911  1
  H  H22  1  0.67681066  0.92536003  0.49120077  1
  H  H23  1  0.32318934  0.07463997  0.50879923  1
  H  H24  1  0.78162414  0.90860018  0.59437431  1
  H  H25  1  0.21837586  0.09139982  0.40562569  1
  H  H26  1  0.78991634  0.10181792  0.58220584  1
  H  H27  1  0.21008366  0.89818208  0.41779416  1
  H  H28  1  0.74668716  0.89111801  0.34988940  1
  H  H29  1  0.25331284  0.10888199  0.65011060  1
  H  H30  1  0.85068701  0.09161328  0.36113564  1
  H  H31  1  0.14931299  0.90838672  0.63886436  1
  H  H32  1  0.92971625  0.94247169  0.31529539  1
  H  H33  1  0.07028375  0.05752831  0.68470461  1
  H  H34  1  0.21716052  0.38909685  0.05039559  1
  H  H35  1  0.78283948  0.61090315  0.94960441  1
  H  H36  1  0.16916792  0.38632495  0.93418978  1
  H  H37  1  0.83083208  0.61367505  0.06581022  1
  H  H38  1  0.23559375  0.23567185  0.96660299  1
  H  H39  1  0.76440625  0.76432815  0.03339701  1
  H  H40  1  0.48642421  0.78077380  0.97946670  1
  H  H41  1  0.51357579  0.21922620  0.02053330  1
  H  H42  1  0.47007399  0.65967590  0.87082402  1
  H  H43  1  0.52992601  0.34032410  0.12917598  1
  H  H44  1  0.29687903  0.62700597  0.91582316  1
  H  H45  1  0.70312097  0.37299403  0.08417684  1
  H  H46  1  0.57516089  0.40600392  0.84106535  1
  H  H47  1  0.42483911  0.59399608  0.15893465  1
  H  H48  1  0.48283492  0.23508059  0.87407045  1
  H  H49  1  0.51716508  0.76491941  0.12592955  1
  H  H50  1  0.35963103  0.33459351  0.82502213  1
  H  H51  1  0.64036897  0.66540649  0.17497787  1
  C  C52  1  0.98070980  0.40208925  0.74616703  1
  C  C53  1  0.01929020  0.59791075  0.25383297  1
  C  C54  1  0.93906497  0.51375979  0.83117076  1
  C  C55  1  0.06093503  0.48624021  0.16882924  1
  C  C56  1  0.40697704  0.72820291  0.70700057  1
  C  C57  1  0.59302296  0.27179709  0.29299943  1
  C  C58  1  0.36848242  0.70216527  0.59511715  1
  C  C59  1  0.63151758  0.29783473  0.40488285  1
  N  N60  1  0.92352247  0.74810720  0.46622034  1
  N  N61  1  0.07647753  0.25189280  0.53377966  1
  N  N62  1  0.78854099  0.98339265  0.54775446  1
  N  N63  1  0.21145901  0.01660735  0.45224554  1
  N  N64  1  0.87044113  0.98076491  0.36713956  1
  N  N65  1  0.12955887  0.01923509  0.63286044  1
  N  N66  1  0.25322945  0.36319787  0.98660413  1
  N  N67  1  0.74677055  0.63680213  0.01339587  1
  N  N68  1  0.43138644  0.65841064  0.93416334  1
  N  N69  1  0.56861356  0.34158936  0.06583666  1
  N  N70  1  0.47745514  0.35201037  0.87112732  1
  N  N71  1  0.52254486  0.64798963  0.12887268  1
  O  O72  1  0.46886875  0.28799012  0.63071140  1
  O  O73  1  0.53113125  0.71200988  0.36928860  1
  O  O74  1  0.80864810  0.69192184  0.64210227  1
  O  O75  1  0.19135190  0.30807816  0.35789773  1
  O  O76  1  0.86969718  0.36240780  0.66280064  1
  O  O77  1  0.13030282  0.63759220  0.33719936  1
  O  O78  1  0.79154787  0.53669645  0.81107231  1
  O  O79  1  0.20845213  0.46330355  0.18892769  1
  O  O80  1  0.11129850  0.35805781  0.76304856  1
  O  O81  1  0.88870150  0.64194219  0.23695144  1
  O  O82  1  0.04865053  0.57149322  0.91293998  1
  O  O83  1  0.95134947  0.42850678  0.08706002  1
  O  O84  1  0.50926738  0.65495960  0.74150376  1
  O  O85  1  0.49073262  0.34504040  0.25849624  1
  O  O86  1  0.42046943  0.58715640  0.54859691  1
  O  O87  1  0.57953057  0.41284360  0.45140309  1
  O  O88  1  0.33520988  0.81509383  0.75295486  1
  O  O89  1  0.66479012  0.18490617  0.24704514  1
  O  O90  1  0.29266172  0.78517959  0.55614770  1
  O  O91  1  0.70733828  0.21482041  0.44385230  1
  O  O92  1  0.28071564  -0.00036882  0.91558890  1
  O  O93  1  0.71928436  0.00036882  0.08441110  1
  O  O94  1  0.25691480  0.86377805  0.06667090  1
  O  O95  1  0.74308520  0.13622195  0.93332910  1
  O  O96  1  0.92779397  0.97604078  0.82019464  1
  O  O97  1  0.07220603  0.02395922  0.17980536  1
