# generated using pymatgen
data_TbPt
_symmetry_space_group_name_H-M   'P 1'
_cell_length_a   5.00366541
_cell_length_b   4.99952303
_cell_length_c   6.94243621
_cell_angle_alpha   90.00000000
_cell_angle_beta   90.00000000
_cell_angle_gamma   90.00000000
_symmetry_Int_Tables_number   1
_chemical_formula_structural   TbPt
_chemical_formula_sum   'Tb4 Pt4'
_cell_volume   173.67157082
_cell_formula_units_Z   4
loop_
 _symmetry_equiv_pos_site_id
 _symmetry_equiv_pos_as_xyz
  1  'x, y, z'
loop_
 _atom_site_type_symbol
 _atom_site_label
 _atom_site_symmetry_multiplicity
 _atom_site_fract_x
 _atom_site_fract_y
 _atom_site_fract_z
 _atom_site_occupancy
  Tb  Tb0  1  0.25000000  0.75000044  0.99995969  1
  Tb  Tb1  1  0.75000000  0.24999956  0.00004031  1
  Tb  Tb2  1  0.75000000  0.25000044  0.50004031  1
  Tb  Tb3  1  0.25000000  0.74999956  0.49995969  1
  Pt  Pt4  1  0.25000000  0.24995563  0.24857241  1
  Pt  Pt5  1  0.75000000  0.75004437  0.75142759  1
  Pt  Pt6  1  0.75000000  0.74995563  0.25142759  1
  Pt  Pt7  1  0.25000000  0.25004437  0.74857241  1
