# generated using pymatgen
data_Zr5N5O2
_symmetry_space_group_name_H-M   'P 1'
_cell_length_a   3.11939776
_cell_length_b   5.51274872
_cell_length_c   17.90134724
_cell_angle_alpha   92.10848471
_cell_angle_beta   94.99837322
_cell_angle_gamma   73.56509610
_symmetry_Int_Tables_number   1
_chemical_formula_structural   Zr5N5O2
_chemical_formula_sum   'Zr10 N10 O4'
_cell_volume   294.11537529
_cell_formula_units_Z   2
loop_
 _symmetry_equiv_pos_site_id
 _symmetry_equiv_pos_as_xyz
  1  'x, y, z'
loop_
 _atom_site_type_symbol
 _atom_site_label
 _atom_site_symmetry_multiplicity
 _atom_site_fract_x
 _atom_site_fract_y
 _atom_site_fract_z
 _atom_site_occupancy
  Zr  Zr0  1  0.70030988  0.75354023  0.15415999  1
  Zr  Zr1  1  0.88951437  0.76194023  0.54096797  1
  Zr  Zr2  1  0.29592999  0.75380543  0.34566641  1
  Zr  Zr3  1  0.98929657  0.77500036  0.75359251  1
  Zr  Zr4  1  0.10906133  0.74270366  0.96082632  1
  Zr  Zr5  1  0.88607452  0.26797704  0.04012608  1
  Zr  Zr6  1  0.99884611  0.25359019  0.25128241  1
  Zr  Zr7  1  0.69844187  0.25396457  0.65084832  1
  Zr  Zr8  1  0.11418600  0.23444901  0.46282000  1
  Zr  Zr9  1  0.30742213  0.23714844  0.85199271  1
  N  N10  1  0.50393963  0.99726184  0.00514010  1
  N  N11  1  0.65482993  0.96896767  0.27862653  1
  N  N12  1  0.73816966  0.95186951  0.42820782  1
  N  N13  1  0.95354730  0.95095497  0.85804857  1
  N  N14  1  0.26654671  0.54401844  0.07711085  1
  N  N15  1  0.34126757  0.54261080  0.22514593  1
  N  N16  1  0.50696071  0.49152593  0.50544735  1
  N  N17  1  0.73774760  0.45199375  0.92748894  1
  N  N18  1  0.26553790  0.04396848  0.57504429  1
  N  N19  1  0.33881638  0.04545964  0.72309139  1
  O  O20  1  0.04612564  0.55452364  0.64677393  1
  O  O21  1  0.95479174  0.44898666  0.35857014  1
  O  O22  1  0.65460893  0.46592340  0.77514226  1
  O  O23  1  0.04549153  0.05482712  0.14580918  1
