# generated using pymatgen
data_Eu4O3F7
_symmetry_space_group_name_H-M   'P 1'
_cell_length_a   5.54381029
_cell_length_b   5.88118384
_cell_length_c   5.72539316
_cell_angle_alpha   90.00000000
_cell_angle_beta   90.00000000
_cell_angle_gamma   91.22415045
_symmetry_Int_Tables_number   1
_chemical_formula_structural   Eu4O3F7
_chemical_formula_sum   'Eu4 O3 F7'
_cell_volume   186.62907316
_cell_formula_units_Z   1
loop_
 _symmetry_equiv_pos_site_id
 _symmetry_equiv_pos_as_xyz
  1  'x, y, z'
loop_
 _atom_site_type_symbol
 _atom_site_label
 _atom_site_symmetry_multiplicity
 _atom_site_fract_x
 _atom_site_fract_y
 _atom_site_fract_z
 _atom_site_occupancy
  Eu  Eu0  1  0.02568833  0.24728713  0.27767001  1
  Eu  Eu1  1  0.98439836  0.75034478  0.79577947  1
  Eu  Eu2  1  0.51560164  0.24965522  0.79577947  1
  Eu  Eu3  1  0.47431167  0.75271287  0.27767001  1
  O  O4  1  0.25000000  0.00000000  0.04415587  1
  O  O5  1  0.75000000  0.00000000  0.02196513  1
  O  O6  1  0.25000000  0.50000000  0.99377293  1
  F  F7  1  0.25000000  0.00000000  0.56649160  1
  F  F8  1  0.75000000  0.00000000  0.49007007  1
  F  F9  1  0.42797348  0.35482128  0.39920878  1
  F  F10  1  0.07202652  0.64517872  0.39920878  1
  F  F11  1  0.57455666  0.65362779  0.68541362  1
  F  F12  1  0.92544334  0.34637221  0.68541362  1
  F  F13  1  0.75000000  0.50000000  0.08619865  1
