# generated using pymatgen
data_BaLaI5
_symmetry_space_group_name_H-M   'P 1'
_cell_length_a   8.90752656
_cell_length_b   11.49241404
_cell_length_c   14.58514193
_cell_angle_alpha   90.00000000
_cell_angle_beta   62.40017374
_cell_angle_gamma   90.00000000
_symmetry_Int_Tables_number   1
_chemical_formula_structural   BaLaI5
_chemical_formula_sum   'Ba4 La4 I20'
_cell_volume   1323.16266360
_cell_formula_units_Z   4
loop_
 _symmetry_equiv_pos_site_id
 _symmetry_equiv_pos_as_xyz
  1  'x, y, z'
loop_
 _atom_site_type_symbol
 _atom_site_label
 _atom_site_symmetry_multiplicity
 _atom_site_fract_x
 _atom_site_fract_y
 _atom_site_fract_z
 _atom_site_occupancy
  Ba  Ba0  1  0.13248442  0.46890928  0.70365826  1
  Ba  Ba1  1  0.13248442  0.03109072  0.20365826  1
  Ba  Ba2  1  0.86751558  0.96890928  0.79634174  1
  Ba  Ba3  1  0.86751558  0.53109072  0.29634174  1
  La  La4  1  0.49483547  0.65539703  0.86105350  1
  La  La5  1  0.50516453  0.15539703  0.63894650  1
  La  La6  1  0.49483547  0.84460297  0.36105350  1
  La  La7  1  0.50516453  0.34460297  0.13894650  1
  I  I8  1  0.14806207  0.70228328  0.85341169  1
  I  I9  1  0.12180705  0.18805663  0.82457795  1
  I  I10  1  0.45319853  0.17593837  0.98665708  1
  I  I11  1  0.51906190  0.92377107  0.75583011  1
  I  I12  1  0.73926715  0.47949370  0.92460407  1
  I  I13  1  0.26073285  0.97949370  0.57539593  1
  I  I14  1  0.48093810  0.42377107  0.74416989  1
  I  I15  1  0.14806207  0.79771672  0.35341169  1
  I  I16  1  0.54680147  0.67593837  0.51334292  1
  I  I17  1  0.12180705  0.31194337  0.32457795  1
  I  I18  1  0.87819295  0.68805663  0.67542205  1
  I  I19  1  0.45319853  0.32406163  0.48665708  1
  I  I20  1  0.85193793  0.20228328  0.64658831  1
  I  I21  1  0.51906190  0.57622893  0.25583011  1
  I  I22  1  0.73926715  0.02050630  0.42460407  1
  I  I23  1  0.26073285  0.52050630  0.07539593  1
  I  I24  1  0.48093810  0.07622893  0.24416989  1
  I  I25  1  0.54680147  0.82406163  0.01334292  1
  I  I26  1  0.87819295  0.81194337  0.17542205  1
  I  I27  1  0.85193793  0.29771672  0.14658831  1
