# generated using pymatgen
data_Sb3O4F
_symmetry_space_group_name_H-M   'P 1'
_cell_length_a   5.45537549
_cell_length_b   9.90231512
_cell_length_c   5.66185790
_cell_angle_alpha   67.54334555
_cell_angle_beta   90.20832307
_cell_angle_gamma   106.65287637
_symmetry_Int_Tables_number   1
_chemical_formula_structural   Sb3O4F
_chemical_formula_sum   'Sb6 O8 F2'
_cell_volume   268.86791323
_cell_formula_units_Z   2
loop_
 _symmetry_equiv_pos_site_id
 _symmetry_equiv_pos_as_xyz
  1  'x, y, z'
loop_
 _atom_site_type_symbol
 _atom_site_label
 _atom_site_symmetry_multiplicity
 _atom_site_fract_x
 _atom_site_fract_y
 _atom_site_fract_z
 _atom_site_occupancy
  Sb  Sb0  1  0.36631190  0.31937684  0.96571712  1
  Sb  Sb1  1  0.68621182  0.00085688  0.25232558  1
  Sb  Sb2  1  0.95930249  0.32079842  0.46415561  1
  Sb  Sb3  1  0.31134180  0.99823485  0.75305074  1
  Sb  Sb4  1  0.03856366  0.68054815  0.53517097  1
  Sb  Sb5  1  0.63298790  0.68147583  0.03306658  1
  O  O6  1  0.47731160  0.12955438  0.00271404  1
  O  O7  1  0.16605119  0.22535112  0.32502668  1
  O  O8  1  0.93964075  0.77788410  0.17156784  1
  O  O9  1  0.65014791  0.13145725  0.49942697  1
  O  O10  1  0.34878442  0.86863253  0.50417748  1
  O  O11  1  0.05794689  0.22506467  0.82630682  1
  O  O12  1  0.83455109  0.77885979  0.67153311  1
  O  O13  1  0.51639418  0.86856475  0.00307396  1
  F  F14  1  0.00075680  0.50320692  0.99495357  1
  F  F15  1  0.49939159  0.50356054  0.49417195  1
