# generated using pymatgen
data_Cu3P
_symmetry_space_group_name_H-M   'P 1'
_cell_length_a   4.05478614
_cell_length_b   4.05478614
_cell_length_c   7.15122427
_cell_angle_alpha   90.00000000
_cell_angle_beta   90.00000000
_cell_angle_gamma   120.00000003
_symmetry_Int_Tables_number   1
_chemical_formula_structural   Cu3P
_chemical_formula_sum   'Cu6 P2'
_cell_volume   101.82324561
_cell_formula_units_Z   2
loop_
 _symmetry_equiv_pos_site_id
 _symmetry_equiv_pos_as_xyz
  1  'x, y, z'
loop_
 _atom_site_type_symbol
 _atom_site_label
 _atom_site_symmetry_multiplicity
 _atom_site_fract_x
 _atom_site_fract_y
 _atom_site_fract_z
 _atom_site_occupancy
  P  P0  1  0.66666667  0.33333333  0.73788156  1
  P  P1  1  0.33333333  0.66666667  0.26211844  1
  Cu  Cu2  1  0.33333333  0.66666667  0.58663347  1
  Cu  Cu3  1  0.66666667  0.33333333  0.41336653  1
  Cu  Cu4  1  0.33333333  0.66666667  0.93790307  1
  Cu  Cu5  1  0.66666667  0.33333333  0.06209693  1
  Cu  Cu6  1  0.00000000  0.00000000  0.77969669  1
  Cu  Cu7  1  0.00000000  0.00000000  0.22030331  1
