# generated using pymatgen
data_Ga3NO3
_symmetry_space_group_name_H-M   'P 1'
_cell_length_a   8.38323498
_cell_length_b   8.43433754
_cell_length_c   6.13641695
_cell_angle_alpha   90.95500407
_cell_angle_beta   88.54467731
_cell_angle_gamma   119.97494813
_symmetry_Int_Tables_number   1
_chemical_formula_structural   Ga3NO3
_chemical_formula_sum   'Ga12 N4 O12'
_cell_volume   375.72750903
_cell_formula_units_Z   4
loop_
 _symmetry_equiv_pos_site_id
 _symmetry_equiv_pos_as_xyz
  1  'x, y, z'
loop_
 _atom_site_type_symbol
 _atom_site_label
 _atom_site_symmetry_multiplicity
 _atom_site_fract_x
 _atom_site_fract_y
 _atom_site_fract_z
 _atom_site_occupancy
  Ga  Ga0  1  0.07058435  0.82719311  0.98872786  1
  Ga  Ga1  1  0.07724618  0.50907592  0.68229846  1
  Ga  Ga2  1  0.42557774  0.91626477  0.70484776  1
  Ga  Ga3  1  0.16830775  0.25751184  0.00066149  1
  Ga  Ga4  1  0.24153068  0.16406453  0.49232811  1
  Ga  Ga5  1  0.49398781  0.57631350  0.71275059  1
  Ga  Ga6  1  0.73330884  0.91045593  0.98748705  1
  Ga  Ga7  1  0.58281262  0.49606428  0.19097543  1
  Ga  Ga8  1  0.50963216  0.08002789  0.20042309  1
  Ga  Ga9  1  0.91165387  0.74166863  0.50929333  1
  Ga  Ga10  1  0.92888749  0.42833542  0.20986535  1
  Ga  Ga11  1  0.82652014  0.09596768  0.50847606  1
  N  N12  1  0.61720330  0.65512185  0.97290283  1
  N  N13  1  0.02040178  0.69449455  0.73430867  1
  N  N14  1  0.67548583  0.01030397  0.75317830  1
  N  N15  1  0.99253227  0.34264522  0.45029807  1
  O  O16  1  0.98337561  0.67770141  0.23710233  1
  O  O17  1  0.05586335  0.39785476  0.96644851  1
  O  O18  1  0.33637318  0.96300517  0.98142778  1
  O  O19  1  0.33787148  0.66534843  0.63883004  1
  O  O20  1  0.99865369  0.00789392  0.00577084  1
  O  O21  1  0.99148615  0.99400316  0.49044007  1
  O  O22  1  0.32814958  0.30166054  0.23215098  1
  O  O23  1  0.31335393  0.31586192  0.73852983  1
  O  O24  1  0.67567526  0.99873370  0.24979012  1
  O  O25  1  0.65184459  0.60177516  0.47236868  1
  O  O26  1  0.37869283  0.04045010  0.47222747  1
  O  O27  1  0.67298654  0.33030165  0.15329189  1
