# generated using pymatgen
data_GdAsO4
_symmetry_space_group_name_H-M   'P 1'
_cell_length_a   5.56356171
_cell_length_b   5.60961248
_cell_length_c   4.76554186
_cell_angle_alpha   90.00000000
_cell_angle_beta   90.07505650
_cell_angle_gamma   90.00000000
_symmetry_Int_Tables_number   1
_chemical_formula_structural   GdAsO4
_chemical_formula_sum   'Gd2 As2 O8'
_cell_volume   148.72969459
_cell_formula_units_Z   2
loop_
 _symmetry_equiv_pos_site_id
 _symmetry_equiv_pos_as_xyz
  1  'x, y, z'
loop_
 _atom_site_type_symbol
 _atom_site_label
 _atom_site_symmetry_multiplicity
 _atom_site_fract_x
 _atom_site_fract_y
 _atom_site_fract_z
 _atom_site_occupancy
  Gd  Gd0  1  0.25000000  0.75191043  0.50000000  1
  Gd  Gd1  1  0.75000000  0.24808957  0.50000000  1
  As  As2  1  0.25000000  0.25428363  0.00000000  1
  As  As3  1  0.75000000  0.74571637  0.00000000  1
  O  O4  1  0.07971865  0.41850616  0.76288738  1
  O  O5  1  0.08180956  0.08632856  0.23627611  1
  O  O6  1  0.41819044  0.08632856  0.76372389  1
  O  O7  1  0.57971865  0.58149384  0.76288738  1
  O  O8  1  0.42028135  0.41850616  0.23711262  1
  O  O9  1  0.58180956  0.91367144  0.23627611  1
  O  O10  1  0.91819044  0.91367144  0.76372389  1
  O  O11  1  0.92028135  0.58149384  0.23711262  1
