# generated using pymatgen
data_Li4Ti3O8
_symmetry_space_group_name_H-M   'P 1'
_cell_length_a   6.00757989
_cell_length_b   5.92108930
_cell_length_c   5.92108930
_cell_angle_alpha   60.42504142
_cell_angle_beta   59.33815632
_cell_angle_gamma   59.33815632
_symmetry_Int_Tables_number   1
_chemical_formula_structural   Li4Ti3O8
_chemical_formula_sum   'Li4 Ti3 O8'
_cell_volume   147.88247946
_cell_formula_units_Z   1
loop_
 _symmetry_equiv_pos_site_id
 _symmetry_equiv_pos_as_xyz
  1  'x, y, z'
loop_
 _atom_site_type_symbol
 _atom_site_label
 _atom_site_symmetry_multiplicity
 _atom_site_fract_x
 _atom_site_fract_y
 _atom_site_fract_z
 _atom_site_occupancy
  Li  Li0  1  0.12500000  0.12500000  0.12500000  1
  Li  Li1  1  0.12500000  0.12500000  0.62500000  1
  Li  Li2  1  0.12500000  0.62500000  0.12500000  1
  Li  Li3  1  0.62500000  0.62500000  0.62500000  1
  Ti  Ti4  1  0.62500000  0.12500000  0.62500000  1
  Ti  Ti5  1  0.62500000  0.62500000  0.12500000  1
  Ti  Ti6  1  0.12500000  0.62500000  0.62500000  1
  O  O7  1  0.38436721  0.38229085  0.38229085  1
  O  O8  1  0.84461663  0.37489548  0.37489548  1
  O  O9  1  0.36866570  0.84142109  0.37966791  1
  O  O10  1  0.88133430  0.87033209  0.40857891  1
  O  O11  1  0.88133430  0.40857891  0.87033209  1
  O  O12  1  0.36866570  0.37966791  0.84142109  1
  O  O13  1  0.40538337  0.87510452  0.87510452  1
  O  O14  1  0.86563279  0.86770915  0.86770915  1
