# generated using pymatgen
data_Rb2ZrO3
_symmetry_space_group_name_H-M   'P 1'
_cell_length_a   7.01970208
_cell_length_b   7.01970208
_cell_length_c   13.93868583
_cell_angle_alpha   90.00000000
_cell_angle_beta   90.00000000
_cell_angle_gamma   54.84786262
_symmetry_Int_Tables_number   1
_chemical_formula_structural   Rb2ZrO3
_chemical_formula_sum   'Rb8 Zr4 O12'
_cell_volume   561.58300913
_cell_formula_units_Z   4
loop_
 _symmetry_equiv_pos_site_id
 _symmetry_equiv_pos_as_xyz
  1  'x, y, z'
loop_
 _atom_site_type_symbol
 _atom_site_label
 _atom_site_symmetry_multiplicity
 _atom_site_fract_x
 _atom_site_fract_y
 _atom_site_fract_z
 _atom_site_occupancy
  Rb  Rb0  1  0.05438475  0.05438475  0.13350063  1
  Rb  Rb1  1  0.12864622  0.12864622  0.57284002  1
  Rb  Rb2  1  0.55438475  0.55438475  0.36649937  1
  Rb  Rb3  1  0.37135378  0.37135378  0.07284002  1
  Rb  Rb4  1  0.44561525  0.44561525  0.63350063  1
  Rb  Rb5  1  0.94561525  0.94561525  0.86649937  1
  Rb  Rb6  1  0.62864622  0.62864622  0.92715998  1
  Rb  Rb7  1  0.87135378  0.87135378  0.42715998  1
  Zr  Zr8  1  0.24541990  0.24541990  0.33298523  1
  Zr  Zr9  1  0.25458010  0.25458010  0.83298523  1
  Zr  Zr10  1  0.74541990  0.74541990  0.16701477  1
  Zr  Zr11  1  0.75458010  0.75458010  0.66701477  1
  O  O12  1  0.02966139  0.52966139  0.25000000  1
  O  O13  1  0.47033861  0.97033861  0.75000000  1
  O  O14  1  0.09280387  0.09280387  0.36605876  1
  O  O15  1  0.33710611  0.33710611  0.44648280  1
  O  O16  1  0.66289389  0.66289389  0.55351720  1
  O  O17  1  0.40719613  0.40719613  0.86605876  1
  O  O18  1  0.16289389  0.16289389  0.94648280  1
  O  O19  1  0.83710611  0.83710611  0.05351720  1
  O  O20  1  0.59280387  0.59280387  0.13394124  1
  O  O21  1  0.90719613  0.90719613  0.63394124  1
  O  O22  1  0.52966139  0.02966139  0.25000000  1
  O  O23  1  0.97033861  0.47033861  0.75000000  1
