# generated using pymatgen
data_Ba4OF6
_symmetry_space_group_name_H-M   'P 1'
_cell_length_a   8.97443797
_cell_length_b   8.97445813
_cell_length_c   6.73645249
_cell_angle_alpha   89.99881273
_cell_angle_beta   90.00034930
_cell_angle_gamma   120.00126507
_symmetry_Int_Tables_number   1
_chemical_formula_structural   Ba4OF6
_chemical_formula_sum   'Ba8 O2 F12'
_cell_volume   469.86364355
_cell_formula_units_Z   2
loop_
 _symmetry_equiv_pos_site_id
 _symmetry_equiv_pos_as_xyz
  1  'x, y, z'
loop_
 _atom_site_type_symbol
 _atom_site_label
 _atom_site_symmetry_multiplicity
 _atom_site_fract_x
 _atom_site_fract_y
 _atom_site_fract_z
 _atom_site_occupancy
  Ba  Ba0  1  0.18385236  0.81615610  0.98049921  1
  Ba  Ba1  1  0.33334348  0.66667771  0.46649478  1
  Ba  Ba2  1  0.18386312  0.36770222  0.98049572  1
  Ba  Ba3  1  0.63231443  0.81616266  0.98049612  1
  Ba  Ba4  1  0.36769674  0.18385390  0.48049191  1
  Ba  Ba5  1  0.66666943  0.33334129  0.96649396  1
  Ba  Ba6  1  0.81614995  0.63231816  0.48049321  1
  Ba  Ba7  1  0.81615890  0.18386596  0.48049755  1
  O  O8  1  0.33334088  0.66667308  0.09806878  1
  O  O9  1  0.66666888  0.33334161  0.59806779  1
  F  F10  1  0.14812065  0.85188881  0.38255834  1
  F  F11  1  0.07078502  0.53539061  0.72379558  1
  F  F12  1  0.14812922  0.29625490  0.38255847  1
  F  F13  1  0.46460755  0.92921674  0.72378637  1
  F  F14  1  0.46463676  0.53539993  0.72379464  1
  F  F15  1  0.29624594  0.14812478  0.88256205  1
  F  F16  1  0.70376336  0.85189525  0.38255169  1
  F  F17  1  0.53538889  0.46461138  0.22377800  1
  F  F18  1  0.53538811  0.07077257  0.22379810  1
  F  F19  1  0.85188265  0.70376489  0.88256454  1
  F  F20  1  0.92921331  0.46465281  0.22380280  1
  F  F21  1  0.85187938  0.14813465  0.88255241  1
