# generated using pymatgen
data_Zr2N2O
_symmetry_space_group_name_H-M   'P 1'
_cell_length_a   3.31910215
_cell_length_b   7.11388455
_cell_length_c   8.29917703
_cell_angle_alpha   79.80738595
_cell_angle_beta   90.00000000
_cell_angle_gamma   76.50954836
_symmetry_Int_Tables_number   1
_chemical_formula_structural   Zr2N2O
_chemical_formula_sum   'Zr6 N6 O3'
_cell_volume   187.36931191
_cell_formula_units_Z   3
loop_
 _symmetry_equiv_pos_site_id
 _symmetry_equiv_pos_as_xyz
  1  'x, y, z'
loop_
 _atom_site_type_symbol
 _atom_site_label
 _atom_site_symmetry_multiplicity
 _atom_site_fract_x
 _atom_site_fract_y
 _atom_site_fract_z
 _atom_site_occupancy
  Zr  Zr0  1  0.03018798  0.93962304  0.80740613  1
  Zr  Zr1  1  0.62905560  0.74188879  0.47399369  1
  Zr  Zr2  1  0.69602326  0.60795347  0.13161889  1
  Zr  Zr3  1  0.30397674  0.39204653  0.86838111  1
  Zr  Zr4  1  0.37094440  0.25811121  0.52600631  1
  Zr  Zr5  1  0.96981202  0.06037696  0.19259387  1
  N  N6  1  0.53425652  0.93148795  0.65660011  1
  N  N7  1  0.17205871  0.65588158  0.96604995  1
  N  N8  1  0.12655180  0.74689640  0.28718991  1
  N  N9  1  0.87344820  0.25310360  0.71281009  1
  N  N10  1  0.82794129  0.34411842  0.03395005  1
  N  N11  1  0.46574348  0.06851205  0.34339989  1
  O  O12  1  0.20917403  0.58165194  0.61922944  1
  O  O13  1  0.79082597  0.41834806  0.38077056  1
  O  O14  1  0.50000000  0.00000000  0.00000000  1
