# generated using pymatgen
data_TaNbO5
_symmetry_space_group_name_H-M   'P 1'
_cell_length_a   12.47965681
_cell_length_b   5.77471168
_cell_length_c   7.25002704
_cell_angle_alpha   90.00000000
_cell_angle_beta   90.00000000
_cell_angle_gamma   90.00000000
_symmetry_Int_Tables_number   1
_chemical_formula_structural   TaNbO5
_chemical_formula_sum   'Ta4 Nb4 O20'
_cell_volume   522.48349326
_cell_formula_units_Z   4
loop_
 _symmetry_equiv_pos_site_id
 _symmetry_equiv_pos_as_xyz
  1  'x, y, z'
loop_
 _atom_site_type_symbol
 _atom_site_label
 _atom_site_symmetry_multiplicity
 _atom_site_fract_x
 _atom_site_fract_y
 _atom_site_fract_z
 _atom_site_occupancy
  Ta  Ta0  1  0.15428321  0.25000000  0.53117741  1
  Ta  Ta1  1  0.34571679  0.75000000  0.03117741  1
  Ta  Ta2  1  0.65428321  0.25000000  0.96882259  1
  Ta  Ta3  1  0.84571679  0.75000000  0.46882259  1
  Nb  Nb4  1  0.05650004  0.75000000  0.84995008  1
  Nb  Nb5  1  0.44349996  0.25000000  0.34995008  1
  Nb  Nb6  1  0.55650004  0.75000000  0.65004992  1
  Nb  Nb7  1  0.94349996  0.25000000  0.15004992  1
  O  O8  1  0.00000000  0.00000000  0.00000000  1
  O  O9  1  0.00000000  0.50000000  0.00000000  1
  O  O10  1  0.07455397  0.25000000  0.31276781  1
  O  O11  1  0.12025157  0.99107560  0.66812648  1
  O  O12  1  0.12025157  0.50892440  0.66812648  1
  O  O13  1  0.19816082  0.75000000  0.97776290  1
  O  O14  1  0.30183918  0.25000000  0.47776290  1
  O  O15  1  0.37974843  0.00892440  0.16812648  1
  O  O16  1  0.37974843  0.49107560  0.16812648  1
  O  O17  1  0.42544603  0.75000000  0.81276781  1
  O  O18  1  0.50000000  0.00000000  0.50000000  1
  O  O19  1  0.50000000  0.50000000  0.50000000  1
  O  O20  1  0.57455397  0.25000000  0.18723219  1
  O  O21  1  0.62025157  0.99107560  0.83187352  1
  O  O22  1  0.62025157  0.50892440  0.83187352  1
  O  O23  1  0.69816082  0.75000000  0.52223710  1
  O  O24  1  0.80183918  0.25000000  0.02223710  1
  O  O25  1  0.87974843  0.49107560  0.33187352  1
  O  O26  1  0.87974843  0.00892440  0.33187352  1
  O  O27  1  0.92544603  0.75000000  0.68723219  1
