# generated using pymatgen
data_BaYF5
_symmetry_space_group_name_H-M   'P 1'
_cell_length_a   15.50201871
_cell_length_b   5.45959975
_cell_length_c   5.62668206
_cell_angle_alpha   90.00000000
_cell_angle_beta   90.00000000
_cell_angle_gamma   90.00000000
_symmetry_Int_Tables_number   1
_chemical_formula_structural   BaYF5
_chemical_formula_sum   'Ba4 Y4 F20'
_cell_volume   476.21320913
_cell_formula_units_Z   4
loop_
 _symmetry_equiv_pos_site_id
 _symmetry_equiv_pos_as_xyz
  1  'x, y, z'
loop_
 _atom_site_type_symbol
 _atom_site_label
 _atom_site_symmetry_multiplicity
 _atom_site_fract_x
 _atom_site_fract_y
 _atom_site_fract_z
 _atom_site_occupancy
  Ba  Ba0  1  0.10421193  0.50411704  0.44144142  1
  Ba  Ba1  1  0.39578807  0.49588296  0.94144142  1
  Ba  Ba2  1  0.60421193  0.99588296  0.55855858  1
  Ba  Ba3  1  0.89578807  0.00411704  0.05855858  1
  Y  Y4  1  0.17312837  0.01863535  0.93998876  1
  Y  Y5  1  0.32687163  0.98136465  0.43998876  1
  Y  Y6  1  0.67312837  0.48136465  0.06001124  1
  Y  Y7  1  0.82687163  0.51863535  0.56001124  1
  F  F8  1  0.11274870  0.96858308  0.59273221  1
  F  F9  1  0.05704006  0.86763004  0.10833284  1
  F  F10  1  0.09972937  0.36122487  0.92776042  1
  F  F11  1  0.23341658  0.75847949  0.21235129  1
  F  F12  1  0.23630632  0.24099494  0.23472989  1
  F  F13  1  0.26369368  0.75900506  0.73472989  1
  F  F14  1  0.26658342  0.24152051  0.71235129  1
  F  F15  1  0.40027063  0.63877513  0.42776042  1
  F  F16  1  0.44295994  0.13236996  0.60833284  1
  F  F17  1  0.38725130  0.03141692  0.09273221  1
  F  F18  1  0.61274870  0.53141692  0.40726779  1
  F  F19  1  0.55704006  0.63236996  0.89166716  1
  F  F20  1  0.59972937  0.13877513  0.07223958  1
  F  F21  1  0.73341658  0.74152051  0.78764871  1
  F  F22  1  0.73630632  0.25900506  0.76527011  1
  F  F23  1  0.76369368  0.74099494  0.26527011  1
  F  F24  1  0.76658342  0.25847949  0.28764871  1
  F  F25  1  0.90027063  0.86122487  0.57223958  1
  F  F26  1  0.94295994  0.36763004  0.39166716  1
  F  F27  1  0.88725130  0.46858308  0.90726779  1
