# generated using pymatgen
data_CsInO2
_symmetry_space_group_name_H-M   'P 1'
_cell_length_a   3.47270057
_cell_length_b   3.47282150
_cell_length_c   13.47895054
_cell_angle_alpha   89.99936431
_cell_angle_beta   90.00062747
_cell_angle_gamma   120.00119043
_symmetry_Int_Tables_number   1
_chemical_formula_structural   CsInO2
_chemical_formula_sum   'Cs2 In2 O4'
_cell_volume   140.77686887
_cell_formula_units_Z   2
loop_
 _symmetry_equiv_pos_site_id
 _symmetry_equiv_pos_as_xyz
  1  'x, y, z'
loop_
 _atom_site_type_symbol
 _atom_site_label
 _atom_site_symmetry_multiplicity
 _atom_site_fract_x
 _atom_site_fract_y
 _atom_site_fract_z
 _atom_site_occupancy
  Cs  Cs0  1  0.00006324  0.00003514  0.99999346  1
  Cs  Cs1  1  0.66673494  0.33332698  0.50000471  1
  In  In2  1  0.33335481  0.66659903  0.25001522  1
  In  In3  1  0.33335419  0.66675107  0.74998506  1
  O  O4  1  0.99995603  0.00007465  0.33254107  1
  O  O5  1  0.99994972  0.99986478  0.66746893  1
  O  O6  1  0.66664545  0.33324153  0.83253211  1
  O  O7  1  0.66664164  0.33340582  0.16745944  1
