# generated using pymatgen
data_Rb2H8O5
_symmetry_space_group_name_H-M   'P 1'
_cell_length_a   7.51477353
_cell_length_b   13.58776049
_cell_length_c   8.40408979
_cell_angle_alpha   82.38322310
_cell_angle_beta   63.44284870
_cell_angle_gamma   73.94694787
_symmetry_Int_Tables_number   1
_chemical_formula_structural   Rb2H8O5
_chemical_formula_sum   'Rb8 H32 O20'
_cell_volume   737.61912311
_cell_formula_units_Z   4
loop_
 _symmetry_equiv_pos_site_id
 _symmetry_equiv_pos_as_xyz
  1  'x, y, z'
loop_
 _atom_site_type_symbol
 _atom_site_label
 _atom_site_symmetry_multiplicity
 _atom_site_fract_x
 _atom_site_fract_y
 _atom_site_fract_z
 _atom_site_occupancy
  Rb  Rb0  1  0.41561968  0.05488878  0.15431546  1
  Rb  Rb1  1  0.86856797  0.05848911  0.19427288  1
  Rb  Rb2  1  0.11626250  0.19680955  0.57582186  1
  Rb  Rb3  1  0.37517609  0.55488878  0.65431546  1
  Rb  Rb4  1  0.16055732  0.44124503  0.27178222  1
  Rb  Rb5  1  0.87867004  0.55848911  0.69427288  1
  Rb  Rb6  1  0.11110709  0.69680955  0.07582186  1
  Rb  Rb7  1  0.12641542  0.94124503  0.77178222  1
  H  H8  1  0.55589843  0.03392341  0.56907950  1
  H  H9  1  0.81777428  0.05891440  0.56579731  1
  H  H10  1  0.38948783  0.11161422  0.80381461  1
  H  H11  1  0.70849030  0.11748225  0.75825345  1
  H  H12  1  0.16933027  0.19062313  0.90107151  1
  H  H13  1  0.74124377  0.20587544  0.88355810  1
  H  H14  1  0.65463226  0.40284263  0.75858974  1
  H  H15  1  0.13283284  0.33173066  0.80907298  1
  H  H16  1  0.60215648  0.41872383  0.99615059  1
  H  H17  1  0.00015782  0.42754653  0.98710567  1
  H  H18  1  0.39757642  0.32419893  0.59856684  1
  H  H19  1  0.67627951  0.33285561  0.60285670  1
  H  H20  1  0.88778199  0.26539409  0.30394263  1
  H  H21  1  0.45497692  0.29525976  0.36784371  1
  H  H22  1  0.59108282  0.26509644  0.15240784  1
  H  H23  1  0.05653549  0.27730998  0.11066365  1
  H  H24  1  0.84109866  0.53392341  0.06907950  1
  H  H25  1  0.55751300  0.55891440  0.06579731  1
  H  H26  1  0.41577400  0.61748225  0.25825345  1
  H  H27  1  0.69508234  0.61161422  0.30381461  1
  H  H28  1  0.54288029  0.76539409  0.80394263  1
  H  H29  1  0.88191961  0.79525976  0.86784371  1
  H  H30  1  0.73897608  0.69062313  0.40107151  1
  H  H31  1  0.55548989  0.77730998  0.61066365  1
  H  H32  1  0.16932270  0.70587544  0.38355810  1
  H  H33  1  0.99141291  0.76509644  0.65240784  1
  H  H34  1  0.72636252  0.83173066  0.30907298  1
  H  H35  1  0.18393637  0.90284263  0.25858974  1
  H  H36  1  0.98296910  0.91872383  0.49615059  1
  H  H37  1  0.58518898  0.92754653  0.48710567  1
  H  H38  1  0.38800818  0.83285561  0.10285670  1
  H  H39  1  0.67965781  0.82419893  0.09856684  1
  O  O40  1  0.24446374  0.11418886  0.88363024  1
  O  O41  1  0.75728832  0.13204388  0.88728417  1
  O  O42  1  0.06873611  0.96548188  0.42773299  1
  O  O43  1  0.50290955  0.00176017  0.50504060  1
  O  O44  1  0.68204072  0.10277304  0.64257530  1
  O  O45  1  0.04498207  0.30796602  0.92626675  1
  O  O46  1  0.03632598  0.25320787  0.23742359  1
  O  O47  1  0.51247566  0.23859667  0.26960123  1
  O  O48  1  0.99028968  0.50176017  0.00504060  1
  O  O49  1  0.32867467  0.36301729  0.52786694  1
  O  O50  1  0.75329354  0.36814051  0.63320996  1
  O  O51  1  0.53804802  0.46548188  0.92773299  1
  O  O52  1  0.97932545  0.73859667  0.76960123  1
  O  O53  1  0.22338463  0.63204388  0.38728417  1
  O  O54  1  0.75771816  0.61418886  0.38363024  1
  O  O55  1  0.47304356  0.75320787  0.73742359  1
  O  O56  1  0.57260994  0.60277304  0.14257530  1
  O  O57  1  0.72078516  0.80796602  0.42626675  1
  O  O58  1  0.78044110  0.86301729  0.02786694  1
  O  O59  1  0.24535499  0.86814151  0.13320996  1
