# generated using pymatgen
data_Ca2SiO4
_symmetry_space_group_name_H-M   'P 1'
_cell_length_a   5.39297640
_cell_length_b   9.90511525
_cell_length_c   6.97692540
_cell_angle_alpha   87.90363548
_cell_angle_beta   89.99662591
_cell_angle_gamma   89.99932737
_symmetry_Int_Tables_number   1
_chemical_formula_structural   Ca2SiO4
_chemical_formula_sum   'Ca8 Si4 O16'
_cell_volume   372.44433138
_cell_formula_units_Z   4
loop_
 _symmetry_equiv_pos_site_id
 _symmetry_equiv_pos_as_xyz
  1  'x, y, z'
loop_
 _atom_site_type_symbol
 _atom_site_label
 _atom_site_symmetry_multiplicity
 _atom_site_fract_x
 _atom_site_fract_y
 _atom_site_fract_z
 _atom_site_occupancy
  Ca  Ca0  1  0.00239567  0.34234941  0.70830552  1
  Ca  Ca1  1  0.99763832  0.65759314  0.29165436  1
  Ca  Ca2  1  0.99999818  0.99999445  0.00001456  1
  Ca  Ca3  1  0.00000893  0.99998671  0.50000362  1
  Ca  Ca4  1  0.50230991  0.15757462  0.29154735  1
  Ca  Ca5  1  0.49771685  0.84248364  0.70847726  1
  Ca  Ca6  1  0.50000862  0.49999132  0.99999573  1
  Ca  Ca7  1  0.50000572  0.50001105  0.50000495  1
  Si  Si8  1  0.00043319  0.32833321  0.22049787  1
  Si  Si9  1  0.99956138  0.67164694  0.77947105  1
  Si  Si10  1  0.49957002  0.82834191  0.22059514  1
  Si  Si11  1  0.50042409  0.17167841  0.77942655  1
  O  O12  1  0.95201699  0.16337487  0.26099472  1
  O  O13  1  0.04803503  0.83660722  0.73904688  1
  O  O14  1  0.11850733  0.62816922  0.98760821  1
  O  O15  1  0.14948434  0.59234765  0.60995851  1
  O  O16  1  0.29761544  0.36764758  0.25175131  1
  O  O17  1  0.35040248  0.09253537  0.60982793  1
  O  O18  1  0.20238667  0.86769563  0.25179419  1
  O  O19  1  0.38131887  0.12818161  0.98748583  1
  O  O20  1  0.45219696  0.33666526  0.73907438  1
  O  O21  1  0.54784549  0.66335596  0.26093351  1
  O  O22  1  0.61862467  0.87187959  0.01254601  1
  O  O23  1  0.79756788  0.13226589  0.74822240  1
  O  O24  1  0.64954186  0.90751638  0.39019419  1
  O  O25  1  0.70235316  0.63238597  0.74824375  1
  O  O26  1  0.85042684  0.40762451  0.38997943  1
  O  O27  1  0.88149313  0.37176248  0.01234575  1
