# generated using pymatgen
data_Li3Si2Bi3O10
_symmetry_space_group_name_H-M   'P 1'
_cell_length_a   6.90548241
_cell_length_b   12.90988434
_cell_length_c   5.45506425
_cell_angle_alpha   88.27163573
_cell_angle_beta   90.00023875
_cell_angle_gamma   89.99997626
_symmetry_Int_Tables_number   1
_chemical_formula_structural   Li3Si2Bi3O10
_chemical_formula_sum   'Li6 Si4 Bi6 O20'
_cell_volume   486.09216132
_cell_formula_units_Z   2
loop_
 _symmetry_equiv_pos_site_id
 _symmetry_equiv_pos_as_xyz
  1  'x, y, z'
loop_
 _atom_site_type_symbol
 _atom_site_label
 _atom_site_symmetry_multiplicity
 _atom_site_fract_x
 _atom_site_fract_y
 _atom_site_fract_z
 _atom_site_occupancy
  Li  Li0  1  0.01910769  0.46303150  0.01629667  1
  Li  Li1  1  0.26728727  0.26584019  0.97999646  1
  Li  Li2  1  0.23270635  0.76589675  0.98005813  1
  Li  Li3  1  0.48099343  0.96303830  0.01635001  1
  Li  Li4  1  0.71157235  0.05801353  0.47377893  1
  Li  Li5  1  0.78842861  0.55803029  0.47369469  1
  Si  Si6  1  0.01199019  0.34184431  0.53217524  1
  Si  Si7  1  0.96216684  0.00251575  0.00481834  1
  Si  Si8  1  0.48791365  0.84186082  0.53244765  1
  Si  Si9  1  0.53785779  0.50251653  0.00478040  1
  Bi  Bi10  1  0.00738073  0.82499024  0.44669161  1
  Bi  Bi11  1  0.24197805  0.59467642  0.49028723  1
  Bi  Bi12  1  0.25800991  0.09468272  0.49028748  1
  Bi  Bi13  1  0.49259341  0.32499466  0.44662433  1
  Bi  Bi14  1  0.78303169  0.71199313  0.95088609  1
  Bi  Bi15  1  0.71697839  0.21199668  0.95087855  1
  O  O16  1  0.07104688  0.34578629  0.81850242  1
  O  O17  1  0.00619389  0.45781071  0.39203963  1
  O  O18  1  0.97058648  0.87353848  0.01550254  1
  O  O19  1  0.94802789  0.04164423  0.28988713  1
  O  O20  1  0.04956496  0.69852086  0.73823532  1
  O  O21  1  0.98588079  0.67717739  0.25452434  1
  O  O22  1  0.16127270  0.05089038  0.88199729  1
  O  O23  1  0.16773100  0.26953620  0.37311093  1
  O  O24  1  0.33218714  0.76954658  0.37318521  1
  O  O25  1  0.33867919  0.55083962  0.88199506  1
  O  O26  1  0.42900271  0.84580091  0.81841517  1
  O  O27  1  0.52950209  0.37352034  0.01541913  1
  O  O28  1  0.55196112  0.54161804  0.28985632  1
  O  O29  1  0.49384407  0.95780936  0.39205070  1
  O  O30  1  0.51408669  0.17718869  0.25443818  1
  O  O31  1  0.45046626  0.19852092  0.73818199  1
  O  O32  1  0.73766774  0.54163601  0.85460974  1
  O  O33  1  0.69837024  0.78051152  0.51671681  1
  O  O34  1  0.80161836  0.28055704  0.51665211  1
  O  O35  1  0.76231345  0.04162460  0.85463018  1
