# generated using pymatgen
data_Gd(BiO2)4
_symmetry_space_group_name_H-M   'P 1'
_cell_length_a   3.76044300
_cell_length_b   6.99513792
_cell_length_c   8.87337231
_cell_angle_alpha   82.59665434
_cell_angle_beta   102.32753331
_cell_angle_gamma   74.55068042
_symmetry_Int_Tables_number   1
_chemical_formula_structural   Gd(BiO2)4
_chemical_formula_sum   'Gd1 Bi4 O8'
_cell_volume   215.47349679
_cell_formula_units_Z   1
loop_
 _symmetry_equiv_pos_site_id
 _symmetry_equiv_pos_as_xyz
  1  'x, y, z'
loop_
 _atom_site_type_symbol
 _atom_site_label
 _atom_site_symmetry_multiplicity
 _atom_site_fract_x
 _atom_site_fract_y
 _atom_site_fract_z
 _atom_site_occupancy
  Gd  Gd0  1  0.98667625  0.03411718  0.01288935  1
  Bi  Bi1  1  0.40262127  0.39695732  0.20086922  1
  Bi  Bi2  1  0.80760960  0.77101321  0.38116055  1
  Bi  Bi3  1  0.22665360  0.17945715  0.63923174  1
  Bi  Bi4  1  0.57495666  0.61832829  0.76817586  1
  O  O5  1  0.55827332  0.06795978  0.18573139  1
  O  O6  1  0.82445011  0.39117516  0.04149482  1
  O  O7  1  0.98325752  0.39055672  0.36007303  1
  O  O8  1  0.23133497  0.72887704  0.19727975  1
  O  O9  1  0.75038910  0.25001884  0.75626425  1
  O  O10  1  0.05218093  0.54696476  0.65219229  1
  O  O11  1  0.33128074  0.86516155  0.52707860  1
  O  O12  1  0.46500392  0.94000200  0.87687414  1
