# generated using pymatgen
data_Lu(HO)3
_symmetry_space_group_name_H-M   'P 1'
_cell_length_a   6.16735707
_cell_length_b   10.11121608
_cell_length_c   5.29683412
_cell_angle_alpha   90.00000000
_cell_angle_beta   84.31540114
_cell_angle_gamma   90.00000000
_symmetry_Int_Tables_number   1
_chemical_formula_structural   Lu(HO)3
_chemical_formula_sum   'Lu4 H12 O12'
_cell_volume   328.68344382
_cell_formula_units_Z   4
loop_
 _symmetry_equiv_pos_site_id
 _symmetry_equiv_pos_as_xyz
  1  'x, y, z'
loop_
 _atom_site_type_symbol
 _atom_site_label
 _atom_site_symmetry_multiplicity
 _atom_site_fract_x
 _atom_site_fract_y
 _atom_site_fract_z
 _atom_site_occupancy
  Lu  Lu0  1  0.03782459  0.32973300  0.00931951  1
  Lu  Lu1  1  0.46217541  0.82973300  0.99068049  1
  Lu  Lu2  1  0.53782459  0.17026700  0.00931951  1
  Lu  Lu3  1  0.96217541  0.67026700  0.99068049  1
  H  H4  1  0.18981288  0.80660368  0.59030979  1
  H  H5  1  0.19487126  0.02607365  0.24015354  1
  H  H6  1  0.27322163  0.61254996  0.31035036  1
  H  H7  1  0.22677837  0.11254996  0.68964964  1
  H  H8  1  0.30512874  0.52607365  0.75984646  1
  H  H9  1  0.31018712  0.30660368  0.40969021  1
  H  H10  1  0.68981288  0.69339632  0.59030979  1
  H  H11  1  0.69487126  0.47392635  0.24015354  1
  H  H12  1  0.77322163  0.88745004  0.31035036  1
  H  H13  1  0.72677837  0.38745004  0.68964964  1
  H  H14  1  0.80512874  0.97392635  0.75984646  1
  H  H15  1  0.81018712  0.19339632  0.40969021  1
  O  O16  1  0.15030343  0.50624626  0.79122227  1
  O  O17  1  0.17215388  0.81890328  0.77441946  1
  O  O18  1  0.25558764  0.19425254  0.77698575  1
  O  O19  1  0.24441236  0.69425254  0.22301425  1
  O  O20  1  0.32784612  0.31890328  0.22558054  1
  O  O21  1  0.34969657  0.00624626  0.20877773  1
  O  O22  1  0.65030343  0.99375374  0.79122227  1
  O  O23  1  0.67215388  0.68109672  0.77441946  1
  O  O24  1  0.75558764  0.30574746  0.77698575  1
  O  O25  1  0.74441236  0.80574746  0.22301425  1
  O  O26  1  0.82784612  0.18109672  0.22558054  1
  O  O27  1  0.84969657  0.49375374  0.20877773  1
