# generated using pymatgen
data_Sr3La4O9
_symmetry_space_group_name_H-M   'P 1'
_cell_length_a   6.97740449
_cell_length_b   6.97740449
_cell_length_c   12.75368018
_cell_angle_alpha   81.80619395
_cell_angle_beta   80.77923970
_cell_angle_gamma   116.52558133
_symmetry_Int_Tables_number   1
_chemical_formula_structural   Sr3La4O9
_chemical_formula_sum   'Sr6 La8 O18'
_cell_volume   532.00988613
_cell_formula_units_Z   2
loop_
 _symmetry_equiv_pos_site_id
 _symmetry_equiv_pos_as_xyz
  1  'x, y, z'
loop_
 _atom_site_type_symbol
 _atom_site_label
 _atom_site_symmetry_multiplicity
 _atom_site_fract_x
 _atom_site_fract_y
 _atom_site_fract_z
 _atom_site_occupancy
  Sr  Sr0  1  0.09453995  0.58232259  0.44698284  1
  Sr  Sr1  1  0.37295939  0.78483462  0.17185270  1
  Sr  Sr2  1  0.47069457  0.45847721  0.94698284  1
  Sr  Sr3  1  0.20629542  0.11589621  0.50325377  1
  Sr  Sr4  1  0.54331268  0.45518791  0.67185270  1
  Sr  Sr5  1  0.88085002  0.29045182  0.00325377  1
  La  La6  1  0.41220791  0.94741303  0.88219030  1
  La  La7  1  0.07931699  0.56485734  0.72129734  1
  La  La8  1  0.67039668  0.70560179  0.38219030  1
  La  La9  1  0.95151709  0.98568860  0.79204238  1
  La  La10  1  0.21384532  0.19938468  0.22129734  1
  La  La11  1  0.88594025  0.77027991  0.08745877  1
  La  La12  1  0.72226802  0.25643953  0.29204238  1
  La  La13  1  0.64226131  0.02660098  0.58745877  1
  O  O14  1  0.01177582  0.70855783  0.90459429  1
  O  O15  1  0.34947622  -0.00001280  0.33828571  1
  O  O16  1  0.18687135  0.45786460  0.09710611  1
  O  O17  1  0.42047629  0.68227237  0.55124501  1
  O  O18  1  0.67755360  0.88631486  0.97767819  1
  O  O19  1  0.78343234  0.98530374  0.19775949  1
  O  O20  1  0.57701402  0.78444920  0.76808244  1
  O  O21  1  0.16172609  0.31223807  0.83828571  1
  O  O22  1  0.35938921  0.49090700  0.32474249  1
  O  O23  1  0.94503029  0.71602254  0.59710611  1
  O  O24  1  0.26648262  0.02827870  0.05124501  1
  O  O25  1  0.62834043  0.38735716  0.12822618  1
  O  O26  1  0.63600794  0.34476921  0.47767819  1
  O  O27  1  0.31693577  0.01880818  0.69775949  1
  O  O28  1  0.94746836  0.65490354  0.26808244  1
  O  O29  1  0.68434952  0.31586830  0.82474249  1
  O  O30  1  0.98441666  0.24343239  0.62822618  1
  O  O31  1  0.88684788  0.08362890  0.40459429  1
