# generated using pymatgen
data_In(HO)3
_symmetry_space_group_name_H-M   'P 1'
_cell_length_a   7.02440698
_cell_length_b   7.00369559
_cell_length_c   7.05351026
_cell_angle_alpha   111.34406308
_cell_angle_beta   110.35065186
_cell_angle_gamma   106.90121425
_symmetry_Int_Tables_number   1
_chemical_formula_structural   In(HO)3
_chemical_formula_sum   'In4 H12 O12'
_cell_volume   266.19805532
_cell_formula_units_Z   4
loop_
 _symmetry_equiv_pos_site_id
 _symmetry_equiv_pos_as_xyz
  1  'x, y, z'
loop_
 _atom_site_type_symbol
 _atom_site_label
 _atom_site_symmetry_multiplicity
 _atom_site_fract_x
 _atom_site_fract_y
 _atom_site_fract_z
 _atom_site_occupancy
  In  In0  1  0.51152200  0.01121876  0.00759674  1
  In  In1  1  0.00270020  0.47981328  0.01199670  1
  In  In2  1  0.99778843  0.00211068  0.49993843  1
  In  In3  1  0.47934955  0.48797228  0.47575159  1
  H  H4  1  0.82165928  0.45667696  0.28249500  1
  H  H5  1  0.70601131  0.16570721  0.55092862  1
  H  H6  1  0.55913922  0.72556571  0.16771366  1
  H  H7  1  0.89984802  0.71874752  0.63603182  1
  H  H8  1  0.03673965  0.32474038  0.37016106  1
  H  H9  1  0.28948304  0.25853391  0.96664753  1
  H  H10  1  0.71622021  0.65738508  0.94299543  1
  H  H11  1  0.63278634  0.94841237  0.68155707  1
  H  H12  1  0.27750481  0.83174790  0.45577929  1
  H  H13  1  0.34961227  0.03100299  0.31124507  1
  H  H14  1  0.18135252  0.50928536  0.69186764  1
  H  H15  1  0.07719951  0.69350325  0.79143800  1
  O  O16  1  0.83276764  0.32576300  0.17068148  1
  O  O17  1  0.47814284  0.15345012  0.32161462  1
  O  O18  1  0.82642799  0.15649934  0.66996136  1
  O  O19  1  0.30994193  0.47051088  0.15575946  1
  O  O20  1  0.67858964  0.84018425  0.16230843  1
  O  O21  1  0.80241282  0.66463783  0.47054983  1
  O  O22  1  0.16330530  0.33782972  0.50918476  1
  O  O23  1  0.26929580  0.10717029  0.83652792  1
  O  O24  1  0.74498631  0.56077898  0.82203810  1
  O  O25  1  0.15798993  0.83396941  0.32918726  1
  O  O26  1  0.50736111  0.83318073  0.68101573  1
  O  O27  1  0.19886231  0.65508085  0.84978740  1
