# generated using pymatgen
data_Li2Sn3(P2O7)2
_symmetry_space_group_name_H-M   'P 1'
_cell_length_a   6.00348655
_cell_length_b   7.29777869
_cell_length_c   16.32414150
_cell_angle_alpha   82.83037738
_cell_angle_beta   84.66598028
_cell_angle_gamma   68.56868953
_symmetry_Int_Tables_number   1
_chemical_formula_structural   Li2Sn3(P2O7)2
_chemical_formula_sum   'Li4 Sn6 P8 O28'
_cell_volume   659.66950156
_cell_formula_units_Z   2
loop_
 _symmetry_equiv_pos_site_id
 _symmetry_equiv_pos_as_xyz
  1  'x, y, z'
loop_
 _atom_site_type_symbol
 _atom_site_label
 _atom_site_symmetry_multiplicity
 _atom_site_fract_x
 _atom_site_fract_y
 _atom_site_fract_z
 _atom_site_occupancy
  Li  Li0  1  0.12002355  0.15745703  0.99325761  1
  Li  Li1  1  0.30185326  0.67526455  0.10039083  1
  Li  Li2  1  0.69814674  0.32473545  0.89960917  1
  Li  Li3  1  0.87997645  0.84254297  0.00674239  1
  Sn  Sn4  1  0.14021402  0.27960960  0.58119298  1
  Sn  Sn5  1  0.09689953  0.61212563  0.82267148  1
  Sn  Sn6  1  0.27040142  0.97271080  0.32628462  1
  Sn  Sn7  1  0.72959858  0.02728920  0.67371538  1
  Sn  Sn8  1  0.90310047  0.38787437  0.17732852  1
  Sn  Sn9  1  0.85978598  0.72039040  0.41880702  1
  P  P10  1  0.16884277  0.08136951  0.80969406  1
  P  P11  1  0.38596432  0.44733253  0.32376387  1
  P  P12  1  0.54590884  0.23321355  0.06736945  1
  P  P13  1  0.26385030  0.80085551  0.54309080  1
  P  P14  1  0.73614970  0.19914449  0.45690920  1
  P  P15  1  0.45409116  0.76678645  0.93263055  1
  P  P16  1  0.61403568  0.55266747  0.67623613  1
  P  P17  1  0.83115723  0.91863049  0.19030594  1
  O  O18  1  0.98812085  0.04390669  0.19822892  1
  O  O19  1  0.28455216  0.28876022  0.04891990  1
  O  O20  1  0.24772036  0.32919112  0.29638101  1
  O  O21  1  0.04357259  0.23967769  0.87002475  1
  O  O22  1  0.21451118  0.65588395  0.34620002  1
  O  O23  1  0.11321208  0.67711769  0.53196538  1
  O  O24  1  0.25866969  0.16084107  0.72772087  1
  O  O25  1  0.58648381  0.06847172  0.14771665  1
  O  O26  1  0.12579739  0.96605551  0.60086225  1
  O  O27  1  0.72915351  0.13561049  0.99865125  1
  O  O28  1  0.49359517  0.33800484  0.41225176  1
  O  O29  1  0.40120068  0.58925965  0.90655264  1
  O  O30  1  0.63964220  0.11367067  0.53669264  1
  O  O31  1  0.58617721  0.47329727  0.26517506  1
  O  O32  1  0.41382279  0.52670273  0.73482494  1
  O  O33  1  0.36035780  0.88632933  0.46330736  1
  O  O34  1  0.59879932  0.41074035  0.09344736  1
  O  O35  1  0.50640483  0.66199516  0.58774824  1
  O  O36  1  0.27084649  0.86438951  0.00134875  1
  O  O37  1  0.87420261  0.03394449  0.39913775  1
  O  O38  1  0.41351619  0.93152828  0.85228335  1
  O  O39  1  0.74133031  0.83915893  0.27227913  1
  O  O40  1  0.88678792  0.32288231  0.46803462  1
  O  O41  1  0.78548882  0.34411605  0.65379998  1
  O  O42  1  0.95642741  0.76032231  0.12997525  1
  O  O43  1  0.75227964  0.67080888  0.70361899  1
  O  O44  1  0.71544784  0.71123978  0.95108010  1
  O  O45  1  0.01187915  0.95609331  0.80177108  1
