# generated using pymatgen
data_ErTiO3
_symmetry_space_group_name_H-M   'P 1'
_cell_length_a   5.30388272
_cell_length_b   5.68893648
_cell_length_c   7.66029379
_cell_angle_alpha   89.99959232
_cell_angle_beta   90.00299900
_cell_angle_gamma   89.99932617
_symmetry_Int_Tables_number   1
_chemical_formula_structural   ErTiO3
_chemical_formula_sum   'Er4 Ti4 O12'
_cell_volume   231.13750598
_cell_formula_units_Z   4
loop_
 _symmetry_equiv_pos_site_id
 _symmetry_equiv_pos_as_xyz
  1  'x, y, z'
loop_
 _atom_site_type_symbol
 _atom_site_label
 _atom_site_symmetry_multiplicity
 _atom_site_fract_x
 _atom_site_fract_y
 _atom_site_fract_z
 _atom_site_occupancy
  Er  Er0  1  0.02308057  0.92606096  0.75000621  1
  Er  Er1  1  0.47694800  0.42604028  0.75003521  1
  Er  Er2  1  0.52305018  0.57395120  0.24996393  1
  Er  Er3  1  0.97694310  0.07391842  0.24997723  1
  Ti  Ti4  1  0.00000099  0.49999260  0.99999087  1
  Ti  Ti5  1  -0.00000010  0.50000449  0.50000498  1
  Ti  Ti6  1  0.49998435  0.00000672  0.99999121  1
  Ti  Ti7  1  0.50001484  0.99999512  0.49999762  1
  O  O8  1  0.12705865  0.45104463  0.25015073  1
  O  O9  1  0.18742725  0.19493414  0.56063264  1
  O  O10  1  0.18751468  0.19481729  0.93931200  1
  O  O11  1  0.31252680  0.69495125  0.56067000  1
  O  O12  1  0.31274342  0.69504314  0.93931607  1
  O  O13  1  0.37301317  0.95109935  0.25000664  1
  O  O14  1  0.62695917  0.04892426  0.74999900  1
  O  O15  1  0.68722507  0.30496374  0.06064441  1
  O  O16  1  0.68744794  0.30506522  0.43938163  1
  O  O17  1  0.81249040  0.80517796  0.06068616  1
  O  O18  1  0.81260281  0.80506274  0.43939961  1
  O  O19  1  0.87296869  0.54894650  0.74983383  1
