# generated using pymatgen
data_H18RuC6(SCl)3
_symmetry_space_group_name_H-M   'P 1'
_cell_length_a   8.97515784
_cell_length_b   10.87427171
_cell_length_c   17.12722475
_cell_angle_alpha   90.00000000
_cell_angle_beta   90.00000000
_cell_angle_gamma   90.00000000
_symmetry_Int_Tables_number   1
_chemical_formula_structural   H18RuC6(SCl)3
_chemical_formula_sum   'H72 Ru4 C24 S12 Cl12'
_cell_volume   1671.58810482
_cell_formula_units_Z   4
loop_
 _symmetry_equiv_pos_site_id
 _symmetry_equiv_pos_as_xyz
  1  'x, y, z'
loop_
 _atom_site_type_symbol
 _atom_site_label
 _atom_site_symmetry_multiplicity
 _atom_site_fract_x
 _atom_site_fract_y
 _atom_site_fract_z
 _atom_site_occupancy
  H  H0  1  0.85020108  0.25169893  0.43747976  1
  H  H1  1  0.14979892  0.75169893  0.56252024  1
  H  H2  1  0.35020108  0.75169893  0.06252024  1
  H  H3  1  0.64979892  0.25169893  0.93747976  1
  H  H4  1  0.00820035  0.21719609  0.49827424  1
  H  H5  1  0.99179965  0.71719609  0.50172576  1
  H  H6  1  0.50820035  0.71719609  0.00172576  1
  H  H7  1  0.49179965  0.21719609  0.99827424  1
  H  H8  1  0.91663245  0.09555929  0.44591923  1
  H  H9  1  0.08336755  0.59555929  0.55408077  1
  H  H10  1  0.41663245  0.59555929  0.05408077  1
  H  H11  1  0.58336755  0.09555929  0.94591923  1
  H  H12  1  0.81841505  0.00986272  0.65684798  1
  H  H13  1  0.18158495  0.50986272  0.34315202  1
  H  H14  1  0.31841505  0.50986272  0.84315202  1
  H  H15  1  0.68158495  0.00986272  0.15684798  1
  H  H16  1  0.90019436  0.96494151  0.56489070  1
  H  H17  1  0.09980564  0.46494151  0.43510930  1
  H  H18  1  0.40019436  0.46494151  0.93510930  1
  H  H19  1  0.59980564  0.96494151  0.06489070  1
  H  H20  1  0.99042645  0.07775533  0.62546994  1
  H  H21  1  0.00957355  0.57775533  0.37453006  1
  H  H22  1  0.49042645  0.57775533  0.87453006  1
  H  H23  1  0.50957355  0.07775533  0.12546994  1
  H  H24  1  0.85945567  0.40407459  0.83560927  1
  H  H25  1  0.14054433  0.90407459  0.16439073  1
  H  H26  1  0.35945567  0.90407459  0.66439073  1
  H  H27  1  0.64054433  0.40407459  0.33560927  1
  H  H28  1  0.98814990  0.49161104  0.77663602  1
  H  H29  1  0.01185010  0.99161104  0.22336398  1
  H  H30  1  0.48814990  0.99161104  0.72336398  1
  H  H31  1  0.51185010  0.49161104  0.27663602  1
  H  H32  1  0.86246540  0.56911522  0.84202949  1
  H  H33  1  0.13753460  0.06911522  0.15797051  1
  H  H34  1  0.36246540  0.06911522  0.65797051  1
  H  H35  1  0.63753460  0.56911522  0.34202949  1
  H  H36  1  0.70271529  0.66845275  0.64402639  1
  H  H37  1  0.29728471  0.16845275  0.35597361  1
  H  H38  1  0.20271529  0.16845275  0.85597361  1
  H  H39  1  0.79728471  0.66845275  0.14402639  1
  H  H40  1  0.77674963  0.71471414  0.73714840  1
  H  H41  1  0.22325037  0.21471414  0.26285160  1
  H  H42  1  0.27674963  0.21471414  0.76285160  1
  H  H43  1  0.72325037  0.71471414  0.23714840  1
  H  H44  1  0.89677397  0.64541566  0.66524913  1
  H  H45  1  0.10322603  0.14541566  0.33475087  1
  H  H46  1  0.39677397  0.14541566  0.83475087  1
  H  H47  1  0.60322603  0.64541566  0.16524913  1
  H  H48  1  0.43489272  0.52477505  0.68611070  1
  H  H49  1  0.56510728  0.02477505  0.31388930  1
  H  H50  1  0.93489272  0.02477505  0.81388930  1
  H  H51  1  0.06510728  0.52477505  0.18611070  1
  H  H52  1  0.46338089  0.54143557  0.58229019  1
  H  H53  1  0.53661911  0.04143557  0.41770981  1
  H  H54  1  0.96338089  0.04143557  0.91770981  1
  H  H55  1  0.03661911  0.54143557  0.08229019  1
  H  H56  1  0.29235469  0.47693687  0.61996124  1
  H  H57  1  0.70764531  0.97693687  0.38003876  1
  H  H58  1  0.79235469  0.97693687  0.88003876  1
  H  H59  1  0.20764531  0.47693687  0.11996124  1
  H  H60  1  0.45676685  0.19690566  0.51673384  1
  H  H61  1  0.54323315  0.69690566  0.48326616  1
  H  H62  1  0.95676685  0.69690566  0.98326616  1
  H  H63  1  0.04323315  0.19690566  0.01673384  1
  H  H64  1  0.30518878  0.30226706  0.52853111  1
  H  H65  1  0.69481122  0.80226706  0.47146889  1
  H  H66  1  0.80518878  0.80226706  0.97146889  1
  H  H67  1  0.19481122  0.30226706  0.02853111  1
  H  H68  1  0.47770058  0.35498848  0.48537256  1
  H  H69  1  0.52229942  0.85498848  0.51462744  1
  H  H70  1  0.97770058  0.85498848  0.01462744  1
  H  H71  1  0.02229942  0.35498848  0.98537256  1
  Ru  Ru72  1  0.75467880  0.33533549  0.63756771  1
  Ru  Ru73  1  0.24532120  0.83533549  0.36243229  1
  Ru  Ru74  1  0.25467880  0.83533549  0.86243229  1
  Ru  Ru75  1  0.74532120  0.33533549  0.13756771  1
  C  C76  1  0.90105948  0.18347534  0.47619749  1
  C  C77  1  0.09894052  0.68347534  0.52380251  1
  C  C78  1  0.40105948  0.68347534  0.02380251  1
  C  C79  1  0.59894052  0.18347534  0.97619749  1
  C  C80  1  0.88280158  0.04051091  0.60623239  1
  C  C81  1  0.11719842  0.54051091  0.39376761  1
  C  C82  1  0.38280158  0.54051091  0.89376761  1
  C  C83  1  0.61719842  0.04051091  0.10623239  1
  C  C84  1  0.87725530  0.48982715  0.80341320  1
  C  C85  1  0.12274470  0.98982715  0.19658680  1
  C  C86  1  0.37725530  0.98982715  0.69658680  1
  C  C87  1  0.62274470  0.48982715  0.30341320  1
  C  C88  1  0.78382388  0.64722730  0.68978115  1
  C  C89  1  0.21617612  0.14722730  0.31021885  1
  C  C90  1  0.28382388  0.14722730  0.81021885  1
  C  C91  1  0.71617612  0.64722730  0.18978115  1
  C  C92  1  0.41273828  0.48504123  0.62832931  1
  C  C93  1  0.58726172  0.98504123  0.37167069  1
  C  C94  1  0.91273828  0.98504123  0.87167069  1
  C  C95  1  0.08726172  0.48504123  0.12832931  1
  C  C96  1  0.42660675  0.29295355  0.52840102  1
  C  C97  1  0.57339325  0.79295355  0.47159898  1
  C  C98  1  0.92660675  0.79295355  0.97159898  1
  C  C99  1  0.07339325  0.29295355  0.02840102  1
  S  S100  1  0.77433665  0.15635982  0.55622599  1
  S  S101  1  0.22566335  0.65635982  0.44377401  1
  S  S102  1  0.27433665  0.65635982  0.94377401  1
  S  S103  1  0.72566335  0.15635982  0.05622599  1
  S  S104  1  0.73253475  0.50023414  0.73046555  1
  S  S105  1  0.26746525  0.00023414  0.26953445  1
  S  S106  1  0.23253475  0.00023414  0.76953445  1
  S  S107  1  0.76746525  0.50023414  0.23046555  1
  S  S108  1  0.48942379  0.33186822  0.62557251  1
  S  S109  1  0.51057621  0.83186822  0.37442749  1
  S  S110  1  0.98942379  0.83186822  0.87442749  1
  S  S111  1  0.01057621  0.33186822  0.12557251  1
  Cl  Cl112  1  0.71955699  0.20762288  0.74888375  1
  Cl  Cl113  1  0.28044301  0.70762288  0.25111625  1
  Cl  Cl114  1  0.21955699  0.70762288  0.75111625  1
  Cl  Cl115  1  0.78044301  0.20762288  0.24888375  1
  Cl  Cl116  1  0.75468798  0.46639548  0.52559498  1
  Cl  Cl117  1  0.24531202  0.96639548  0.47440502  1
  Cl  Cl118  1  0.25468798  0.96639548  0.97440502  1
  Cl  Cl119  1  0.74531202  0.46639548  0.02559498  1
  Cl  Cl120  1  0.01645852  0.34002254  0.64744807  1
  Cl  Cl121  1  0.98354148  0.84002254  0.35255193  1
  Cl  Cl122  1  0.51645852  0.84002254  0.85255193  1
  Cl  Cl123  1  0.48354148  0.34002254  0.14744807  1
