# generated using pymatgen
data_Li3SiBiO5
_symmetry_space_group_name_H-M   'P 1'
_cell_length_a   5.26041879
_cell_length_b   5.50051057
_cell_length_c   16.67137352
_cell_angle_alpha   90.00000000
_cell_angle_beta   90.00000000
_cell_angle_gamma   90.00000000
_symmetry_Int_Tables_number   1
_chemical_formula_structural   Li3SiBiO5
_chemical_formula_sum   'Li12 Si4 Bi4 O20'
_cell_volume   482.38601203
_cell_formula_units_Z   4
loop_
 _symmetry_equiv_pos_site_id
 _symmetry_equiv_pos_as_xyz
  1  'x, y, z'
loop_
 _atom_site_type_symbol
 _atom_site_label
 _atom_site_symmetry_multiplicity
 _atom_site_fract_x
 _atom_site_fract_y
 _atom_site_fract_z
 _atom_site_occupancy
  Li  Li0  1  0.99851497  0.66315117  0.57808809  1
  Li  Li1  1  0.99851497  0.16315117  0.92191191  1
  Li  Li2  1  0.51870213  0.32558947  0.98532592  1
  Li  Li3  1  0.51870213  0.82558947  0.51467408  1
  Li  Li4  1  0.48095684  0.29582824  0.80773978  1
  Li  Li5  1  0.48095684  0.79582824  0.69226022  1
  Li  Li6  1  0.49851497  0.33684883  0.42191191  1
  Li  Li7  1  0.49851497  0.83684883  0.07808809  1
  Li  Li8  1  0.01870213  0.67441053  0.01467408  1
  Li  Li9  1  0.01870213  0.17441053  0.48532592  1
  Li  Li10  1  0.98095684  0.20417176  0.30773978  1
  Li  Li11  1  0.98095684  0.70417176  0.19226022  1
  Si  Si12  1  0.00534261  0.16752699  0.09371669  1
  Si  Si13  1  0.00534261  0.66752699  0.40628331  1
  Si  Si14  1  0.50534261  0.33247301  0.59371669  1
  Si  Si15  1  0.50534261  0.83247301  0.90628331  1
  Bi  Bi16  1  0.03252390  0.18288813  0.68284700  1
  Bi  Bi17  1  0.03252390  0.68288813  0.81715300  1
  Bi  Bi18  1  0.53252390  0.31711187  0.18284700  1
  Bi  Bi19  1  0.53252390  0.81711187  0.31715300  1
  O  O20  1  0.10157337  0.29526628  0.81168151  1
  O  O21  1  0.10157337  0.79526628  0.68831849  1
  O  O22  1  0.13027093  0.40003937  0.39234256  1
  O  O23  1  0.13027093  0.90003937  0.10765744  1
  O  O24  1  0.15487254  0.33633880  0.02807392  1
  O  O25  1  0.15487254  0.83633880  0.47192608  1
  O  O26  1  0.97420315  0.31606944  0.18375205  1
  O  O27  1  0.97420315  0.81606944  0.31624795  1
  O  O28  1  0.19804056  0.35441202  0.56918929  1
  O  O29  1  0.19804056  0.85441202  0.93081071  1
  O  O30  1  0.60157337  0.20473372  0.31168151  1
  O  O31  1  0.60157337  0.70473372  0.18831849  1
  O  O32  1  0.63027093  0.09996063  0.89234256  1
  O  O33  1  0.63027093  0.59996063  0.60765744  1
  O  O34  1  0.65487254  0.16366120  0.52807392  1
  O  O35  1  0.65487254  0.66366120  0.97192608  1
  O  O36  1  0.47420315  0.18393056  0.68375205  1
  O  O37  1  0.47420315  0.68393056  0.81624795  1
  O  O38  1  0.69804056  0.14558798  0.06918929  1
  O  O39  1  0.69804056  0.64558798  0.43081071  1
