# generated using pymatgen
data_Li2CuSiO4
_symmetry_space_group_name_H-M   'P 1'
_cell_length_a   6.29549036
_cell_length_b   10.52363616
_cell_length_c   5.15223919
_cell_angle_alpha   90.00000000
_cell_angle_beta   90.00000000
_cell_angle_gamma   90.00000000
_symmetry_Int_Tables_number   1
_chemical_formula_structural   Li2CuSiO4
_chemical_formula_sum   'Li8 Cu4 Si4 O16'
_cell_volume   341.34331707
_cell_formula_units_Z   4
loop_
 _symmetry_equiv_pos_site_id
 _symmetry_equiv_pos_as_xyz
  1  'x, y, z'
loop_
 _atom_site_type_symbol
 _atom_site_label
 _atom_site_symmetry_multiplicity
 _atom_site_fract_x
 _atom_site_fract_y
 _atom_site_fract_z
 _atom_site_occupancy
  Li  Li0  1  0.98869084  0.33127562  0.20156782  1
  Li  Li1  1  0.98869084  0.83127562  0.29843218  1
  Li  Li2  1  0.51130916  0.33127562  0.20156782  1
  Li  Li3  1  0.51130916  0.83127562  0.29843218  1
  Li  Li4  1  0.48869084  0.16872438  0.70156782  1
  Li  Li5  1  0.48869084  0.66872438  0.79843218  1
  Li  Li6  1  0.01130916  0.66872438  0.79843218  1
  Li  Li7  1  0.01130916  0.16872438  0.70156782  1
  Cu  Cu8  1  0.25000000  0.41345821  0.81136742  1
  Cu  Cu9  1  0.25000000  0.91345821  0.68863258  1
  Cu  Cu10  1  0.75000000  0.08654179  0.31136742  1
  Cu  Cu11  1  0.75000000  0.58654179  0.18863258  1
  Si  Si12  1  0.25000000  0.07655119  0.19295424  1
  Si  Si13  1  0.25000000  0.57655119  0.30704576  1
  Si  Si14  1  0.75000000  0.42344881  0.69295424  1
  Si  Si15  1  0.75000000  0.92344881  0.80704576  1
  O  O16  1  0.03836957  0.15224479  0.30653370  1
  O  O17  1  0.03836957  0.65224479  0.19346630  1
  O  O18  1  0.25000000  0.08248743  0.87354185  1
  O  O19  1  0.25000000  0.42768884  0.21021513  1
  O  O20  1  0.25000000  0.92768884  0.28978487  1
  O  O21  1  0.25000000  0.58248743  0.62645815  1
  O  O22  1  0.46163043  0.15224479  0.30653370  1
  O  O23  1  0.46163043  0.65224479  0.19346630  1
  O  O24  1  0.53836957  0.84775521  0.69346630  1
  O  O25  1  0.53836957  0.34775521  0.80653370  1
  O  O26  1  0.75000000  0.07231116  0.71021513  1
  O  O27  1  0.75000000  0.41751257  0.37354185  1
  O  O28  1  0.75000000  0.57231116  0.78978487  1
  O  O29  1  0.75000000  0.91751257  0.12645815  1
  O  O30  1  0.96163043  0.34775521  0.80653370  1
  O  O31  1  0.96163043  0.84775521  0.69346630  1
