# generated using pymatgen
data_LiCu2F7
_symmetry_space_group_name_H-M   'P 1'
_cell_length_a   10.57049267
_cell_length_b   14.35254331
_cell_length_c   7.05921139
_cell_angle_alpha   90.00000000
_cell_angle_beta   90.00000000
_cell_angle_gamma   90.00000000
_symmetry_Int_Tables_number   1
_chemical_formula_structural   LiCu2F7
_chemical_formula_sum   'Li8 Cu16 F56'
_cell_volume   1070.97734146
_cell_formula_units_Z   8
loop_
 _symmetry_equiv_pos_site_id
 _symmetry_equiv_pos_as_xyz
  1  'x, y, z'
loop_
 _atom_site_type_symbol
 _atom_site_label
 _atom_site_symmetry_multiplicity
 _atom_site_fract_x
 _atom_site_fract_y
 _atom_site_fract_z
 _atom_site_occupancy
  Li  Li0  1  0.07600898  0.48966022  0.90588832  1
  Li  Li1  1  0.11369774  0.99892140  0.03405779  1
  Li  Li2  1  0.38630226  0.49892140  0.53405779  1
  Li  Li3  1  0.42399102  0.98966022  0.40588832  1
  Li  Li4  1  0.57600898  0.01033978  0.90588832  1
  Li  Li5  1  0.61369774  0.50107860  0.03405779  1
  Li  Li6  1  0.88630226  0.00107860  0.53405779  1
  Li  Li7  1  0.92399102  0.51033978  0.40588832  1
  Cu  Cu8  1  0.03313499  0.68294227  0.02302632  1
  Cu  Cu9  1  0.18123516  0.01323279  0.56123569  1
  Cu  Cu10  1  0.22747508  0.82135062  0.70498714  1
  Cu  Cu11  1  0.23508974  0.33410935  0.70962625  1
  Cu  Cu12  1  0.26491026  0.83410935  0.20962625  1
  Cu  Cu13  1  0.27252492  0.32135062  0.20498714  1
  Cu  Cu14  1  0.31876484  0.51323279  0.06123569  1
  Cu  Cu15  1  0.46686501  0.18294227  0.52302632  1
  Cu  Cu16  1  0.53313499  0.81705773  0.02302632  1
  Cu  Cu17  1  0.68123516  0.48676721  0.56123569  1
  Cu  Cu18  1  0.72747508  0.67864938  0.70498714  1
  Cu  Cu19  1  0.73508974  0.16589065  0.70962625  1
  Cu  Cu20  1  0.76491026  0.66589065  0.20962625  1
  Cu  Cu21  1  0.77252492  0.17864938  0.20498714  1
  Cu  Cu22  1  0.81876484  0.98676721  0.06123569  1
  Cu  Cu23  1  0.96686501  0.31705773  0.52302632  1
  F  F24  1  0.03025423  0.41087172  0.37531644  1
  F  F25  1  0.03514745  0.06994310  0.48364206  1
  F  F26  1  0.06301880  0.38928677  0.73870058  1
  F  F27  1  0.08851804  0.90216065  0.62513481  1
  F  F28  1  0.10624492  0.77071321  0.18407606  1
  F  F29  1  0.10333193  0.73817973  0.79551739  1
  F  F30  1  0.12909670  0.24484138  0.59323683  1
  F  F31  1  0.14457699  0.24022558  0.25135690  1
  F  F32  1  0.17322198  0.05887333  0.81041024  1
  F  F33  1  0.17550809  0.43227380  0.10771513  1
  F  F34  1  0.18878365  0.60097727  0.00127393  1
  F  F35  1  0.19681986  0.95835966  0.28708666  1
  F  F36  1  0.22623645  0.88486341  0.95660379  1
  F  F37  1  0.24033328  0.27273299  0.95047067  1
  F  F38  1  0.25966672  0.77273299  0.45047067  1
  F  F39  1  0.27376355  0.38486341  0.45660379  1
  F  F40  1  0.30318014  0.45835966  0.78708666  1
  F  F41  1  0.31121635  0.10097727  0.50127393  1
  F  F42  1  0.32449191  0.93227380  0.60771513  1
  F  F43  1  0.32677802  0.55887333  0.31041024  1
  F  F44  1  0.35542301  0.74022558  0.75135690  1
  F  F45  1  0.37090330  0.74484138  0.09323683  1
  F  F46  1  0.39666807  0.23817973  0.29551739  1
  F  F47  1  0.39375508  0.27071321  0.68407606  1
  F  F48  1  0.41148196  0.40216065  0.12513481  1
  F  F49  1  0.43698120  0.88928677  0.23870058  1
  F  F50  1  0.46485255  0.56994310  0.98364206  1
  F  F51  1  0.46974577  0.91087172  0.87531644  1
  F  F52  1  0.53025423  0.08912828  0.37531644  1
  F  F53  1  0.53514745  0.43005690  0.48364206  1
  F  F54  1  0.56301880  0.11071323  0.73870058  1
  F  F55  1  0.58851804  0.59783935  0.62513481  1
  F  F56  1  0.60624492  0.72928679  0.18407606  1
  F  F57  1  0.60333193  0.76182027  0.79551739  1
  F  F58  1  0.62909670  0.25515862  0.59323683  1
  F  F59  1  0.64457699  0.25977442  0.25135690  1
  F  F60  1  0.67322198  0.44112667  0.81041024  1
  F  F61  1  0.67550809  0.06772620  0.10771513  1
  F  F62  1  0.68878365  0.89902273  0.00127393  1
  F  F63  1  0.69681986  0.54164034  0.28708666  1
  F  F64  1  0.72623645  0.61513659  0.95660379  1
  F  F65  1  0.74033328  0.22726701  0.95047067  1
  F  F66  1  0.75966672  0.72726701  0.45047067  1
  F  F67  1  0.77376355  0.11513659  0.45660379  1
  F  F68  1  0.80318014  0.04164034  0.78708666  1
  F  F69  1  0.81121635  0.39902273  0.50127393  1
  F  F70  1  0.82449191  0.56772620  0.60771513  1
  F  F71  1  0.82677802  0.94112667  0.31041024  1
  F  F72  1  0.85542301  0.75977442  0.75135690  1
  F  F73  1  0.87090330  0.75515862  0.09323683  1
  F  F74  1  0.89666807  0.26182027  0.29551739  1
  F  F75  1  0.89375508  0.22928679  0.68407606  1
  F  F76  1  0.91148196  0.09783935  0.12513481  1
  F  F77  1  0.93698120  0.61071323  0.23870058  1
  F  F78  1  0.96485255  0.93005690  0.98364206  1
  F  F79  1  0.96974577  0.58912828  0.87531644  1
