# generated using pymatgen
data_LiSb(PO3)4
_symmetry_space_group_name_H-M   'P 1'
_cell_length_a   7.20640465
_cell_length_b   7.20640465
_cell_length_c   10.43126634
_cell_angle_alpha   78.12280411
_cell_angle_beta   101.87719589
_cell_angle_gamma   68.06297683
_symmetry_Int_Tables_number   1
_chemical_formula_structural   LiSb(PO3)4
_chemical_formula_sum   'Li2 Sb2 P8 O24'
_cell_volume   467.28216307
_cell_formula_units_Z   2
loop_
 _symmetry_equiv_pos_site_id
 _symmetry_equiv_pos_as_xyz
  1  'x, y, z'
loop_
 _atom_site_type_symbol
 _atom_site_label
 _atom_site_symmetry_multiplicity
 _atom_site_fract_x
 _atom_site_fract_y
 _atom_site_fract_z
 _atom_site_occupancy
  Li  Li0  1  0.14096675  0.14096675  0.75000000  1
  Li  Li1  1  0.85903325  0.85903325  0.25000000  1
  Sb  Sb2  1  0.86742684  0.86742684  0.75000000  1
  Sb  Sb3  1  0.13257316  0.13257316  0.25000000  1
  P  P4  1  0.23725651  0.68827358  0.55102484  1
  P  P5  1  0.73047970  0.62174195  0.01079242  1
  P  P6  1  0.62174195  0.73047970  0.48920758  1
  P  P7  1  0.31172642  0.76274349  0.05102484  1
  P  P8  1  0.68827358  0.23725651  0.94897516  1
  P  P9  1  0.37825805  0.26952030  0.51079242  1
  P  P10  1  0.26952030  0.37825805  0.98920758  1
  P  P11  1  0.76274349  0.31172642  0.44897516  1
  O  O12  1  0.19092221  0.90586357  0.90552693  1
  O  O13  1  0.06273944  0.49591998  0.87470609  1
  O  O14  1  0.18922897  0.75551159  0.67040709  1
  O  O15  1  0.09413643  0.80907779  0.40552693  1
  O  O16  1  0.70401225  0.80579263  0.89604875  1
  O  O17  1  0.50408002  0.93726056  0.37470609  1
  O  O18  1  0.66008297  0.47483654  0.93919230  1
  O  O19  1  0.27936869  0.44315115  0.58330785  1
  O  O20  1  0.24448841  0.81077103  0.17040709  1
  O  O21  1  0.44315115  0.27936869  0.91669215  1
  O  O22  1  0.47483654  0.66008297  0.56080770  1
  O  O23  1  0.19420737  0.29598775  0.39604875  1
  O  O24  1  0.80579263  0.70401225  0.60395125  1
  O  O25  1  0.52516346  0.33991703  0.43919230  1
  O  O26  1  0.55684885  0.72063131  0.08330785  1
  O  O27  1  0.75551159  0.18922897  0.82959291  1
  O  O28  1  0.72063131  0.55684885  0.41669215  1
  O  O29  1  0.33991703  0.52516346  0.06080770  1
  O  O30  1  0.49591998  0.06273944  0.62529391  1
  O  O31  1  0.29598775  0.19420737  0.10395125  1
  O  O32  1  0.90586357  0.19092221  0.59447307  1
  O  O33  1  0.81077103  0.24448841  0.32959291  1
  O  O34  1  0.93726056  0.50408002  0.12529391  1
  O  O35  1  0.80907779  0.09413643  0.09447307  1
