# generated using pymatgen
data_LiCuPO4
_symmetry_space_group_name_H-M   'P 1'
_cell_length_a   8.30580714
_cell_length_b   5.08725326
_cell_length_c   8.69045904
_cell_angle_alpha   90.00000000
_cell_angle_beta   109.90785712
_cell_angle_gamma   90.00000000
_symmetry_Int_Tables_number   1
_chemical_formula_structural   LiCuPO4
_chemical_formula_sum   'Li4 Cu4 P4 O16'
_cell_volume   345.26082729
_cell_formula_units_Z   4
loop_
 _symmetry_equiv_pos_site_id
 _symmetry_equiv_pos_as_xyz
  1  'x, y, z'
loop_
 _atom_site_type_symbol
 _atom_site_label
 _atom_site_symmetry_multiplicity
 _atom_site_fract_x
 _atom_site_fract_y
 _atom_site_fract_z
 _atom_site_occupancy
  Li  Li0  1  0.09409186  0.83911733  0.98028532  1
  Li  Li1  1  0.26789921  0.32414998  0.50501408  1
  Li  Li2  1  0.59409186  0.16088267  0.98028532  1
  Li  Li3  1  0.76789921  0.67585002  0.50501408  1
  Cu  Cu4  1  0.99722691  0.67169881  0.25322223  1
  Cu  Cu5  1  0.33012211  0.81280160  0.72939809  1
  Cu  Cu6  1  0.49722691  0.32830119  0.25322223  1
  Cu  Cu7  1  0.83012211  0.18719840  0.72939809  1
  P  P8  1  0.22236191  0.32704271  0.86321598  1
  P  P9  1  0.37088953  0.83425079  0.36917686  1
  P  P10  1  0.72236191  0.67295729  0.86321598  1
  P  P11  1  0.87088953  0.16574921  0.36917686  1
  O  O12  1  0.06352249  0.19546434  0.88654700  1
  O  O13  1  0.02282416  0.31300109  0.34247650  1
  O  O14  1  0.18813835  0.62697449  0.83638033  1
  O  O15  1  0.26103798  0.20433235  0.71528971  1
  O  O16  1  0.20850445  0.81221903  0.21538091  1
  O  O17  1  0.32615251  0.70663701  0.51282909  1
  O  O18  1  0.56352249  0.80453566  0.88654700  1
  O  O19  1  0.42144137  0.12694086  0.41177389  1
  O  O20  1  0.37958717  0.27184318  0.01780801  1
  O  O21  1  0.52282416  0.68699891  0.34247650  1
  O  O22  1  0.68813835  0.37302551  0.83638033  1
  O  O23  1  0.76103798  0.79566765  0.71528971  1
  O  O24  1  0.70850445  0.18778097  0.21538091  1
  O  O25  1  0.82615251  0.29336299  0.51282909  1
  O  O26  1  0.92144137  0.87305914  0.41177389  1
  O  O27  1  0.87958717  0.72815682  0.01780801  1
