# generated using pymatgen
data_Sb7(O2F3)3
_symmetry_space_group_name_H-M   'P 1'
_cell_length_a   5.82519799
_cell_length_b   22.37485490
_cell_length_c   6.08740127
_cell_angle_alpha   82.18169030
_cell_angle_beta   90.00000000
_cell_angle_gamma   90.00000000
_symmetry_Int_Tables_number   1
_chemical_formula_structural   Sb7(O2F3)3
_chemical_formula_sum   'Sb14 O12 F18'
_cell_volume   786.04416800
_cell_formula_units_Z   2
loop_
 _symmetry_equiv_pos_site_id
 _symmetry_equiv_pos_as_xyz
  1  'x, y, z'
loop_
 _atom_site_type_symbol
 _atom_site_label
 _atom_site_symmetry_multiplicity
 _atom_site_fract_x
 _atom_site_fract_y
 _atom_site_fract_z
 _atom_site_occupancy
  Sb  Sb0  1  0.30439009  0.34611693  0.46841280  1
  Sb  Sb1  1  0.30439009  0.65388307  0.31452973  1
  Sb  Sb2  1  0.25053922  0.05153459  0.64567618  1
  Sb  Sb3  1  0.25053922  0.94846541  0.19721077  1
  Sb  Sb4  1  0.27119857  0.50000000  0.01760539  1
  Sb  Sb5  1  0.31687069  0.20888466  0.25562116  1
  Sb  Sb6  1  0.31687069  0.79111534  0.96450682  1
  Sb  Sb7  1  0.68312931  0.79111534  0.46450682  1
  Sb  Sb8  1  0.68312931  0.20888466  0.75562116  1
  Sb  Sb9  1  0.72880143  0.50000000  0.51760539  1
  Sb  Sb10  1  0.74946078  0.05153459  0.14567618  1
  Sb  Sb11  1  0.74946078  0.94846541  0.69721077  1
  Sb  Sb12  1  0.69560991  0.34611693  0.96841280  1
  Sb  Sb13  1  0.69560991  0.65388307  0.81452973  1
  O  O14  1  0.00000000  0.00000000  0.04220302  1
  O  O15  1  0.00000000  0.00000000  0.54220302  1
  O  O16  1  0.53375311  0.29363077  0.76915990  1
  O  O17  1  0.53375311  0.70636923  0.56279067  1
  O  O18  1  0.55189075  0.17835257  0.05423631  1
  O  O19  1  0.55189075  0.82164743  0.73258788  1
  O  O20  1  0.50000000  0.00000000  0.53592933  1
  O  O21  1  0.50000000  0.00000000  0.03592933  1
  O  O22  1  0.44810925  0.82164743  0.23258788  1
  O  O23  1  0.44810925  0.17835257  0.55423631  1
  O  O24  1  0.46624689  0.29363077  0.26915990  1
  O  O25  1  0.46624689  0.70636923  0.06279067  1
  F  F26  1  0.23150703  0.09109700  0.32435129  1
  F  F27  1  0.23150703  0.90890300  0.91544828  1
  F  F28  1  0.07327992  0.28115102  0.51880695  1
  F  F29  1  0.07327992  0.71884898  0.29995796  1
  F  F30  1  0.02935854  0.50000000  0.37380308  1
  F  F31  1  0.13587169  0.61097237  0.07823707  1
  F  F32  1  0.13587169  0.38902763  0.18920944  1
  F  F33  1  0.39067167  0.44027477  0.82248511  1
  F  F34  1  0.39067167  0.55972523  0.76275989  1
  F  F35  1  0.60932833  0.44027477  0.32248511  1
  F  F36  1  0.60932833  0.55972523  0.26275989  1
  F  F37  1  0.86412831  0.38902763  0.68920944  1
  F  F38  1  0.86412831  0.61097237  0.57823707  1
  F  F39  1  0.97064146  0.50000000  0.87380308  1
  F  F40  1  0.92672008  0.28115102  0.01880695  1
  F  F41  1  0.92672008  0.71884898  0.79995796  1
  F  F42  1  0.76849297  0.09109700  0.82435129  1
  F  F43  1  0.76849297  0.90890300  0.41544828  1
