# generated using pymatgen
data_Na3Ti2(PO4)3
_symmetry_space_group_name_H-M   'P 1'
_cell_length_a   8.89976793
_cell_length_b   9.15021676
_cell_length_c   8.89976796
_cell_angle_alpha   119.09863953
_cell_angle_beta   59.99999638
_cell_angle_gamma   119.09864069
_symmetry_Int_Tables_number   1
_chemical_formula_structural   Na3Ti2(PO4)3
_chemical_formula_sum   'Na6 Ti4 P6 O24'
_cell_volume   519.34761698
_cell_formula_units_Z   2
loop_
 _symmetry_equiv_pos_site_id
 _symmetry_equiv_pos_as_xyz
  1  'x, y, z'
loop_
 _atom_site_type_symbol
 _atom_site_label
 _atom_site_symmetry_multiplicity
 _atom_site_fract_x
 _atom_site_fract_y
 _atom_site_fract_z
 _atom_site_occupancy
  Na  Na0  1  0.25151465  0.82636030  0.66184007  1
  Na  Na1  1  0.33815993  0.17363970  0.08699442  1
  Na  Na2  1  0.08699442  0.17363970  0.74848535  1
  Na  Na3  1  0.91300558  0.82636030  0.25151465  1
  Na  Na4  1  0.66184007  0.82636030  0.91300558  1
  Na  Na5  1  0.74848535  0.17363970  0.33815993  1
  Ti  Ti6  1  0.14765553  0.44296758  0.14765553  1
  Ti  Ti7  1  0.35032088  0.05096263  0.35032088  1
  Ti  Ti8  1  0.64967912  0.94903737  0.64967912  1
  Ti  Ti9  1  0.85234447  0.55703242  0.85234447  1
  P  P10  1  0.03707957  0.25367524  0.46485127  1
  P  P11  1  0.53514873  0.74632476  0.24825561  1
  P  P12  1  0.24825561  0.74632476  0.96292043  1
  P  P13  1  0.75174439  0.25367524  0.03707957  1
  P  P14  1  0.46485127  0.25367524  0.75174439  1
  P  P15  1  0.96292043  0.74632476  0.53514873  1
  O  O16  1  0.23618465  0.90231973  0.14910133  1
  O  O17  1  0.14910133  0.90231973  0.51703374  1
  O  O18  1  0.01089294  0.42300102  0.62549587  1
  O  O19  1  0.08978382  0.27264117  0.27885008  1
  O  O20  1  0.51703374  0.90231973  0.23618465  1
  O  O21  1  0.09599274  0.72735883  0.91021618  1
  O  O22  1  0.37450413  0.57699898  0.21338779  1
  O  O23  1  0.18286659  0.20386105  0.45974891  1
  O  O24  1  0.54025109  0.79613895  0.43875445  1
  O  O25  1  0.21338779  0.57699898  0.98910706  1
  O  O26  1  0.72114992  0.72735883  0.09599274  1
  O  O27  1  0.43875445  0.79613895  0.81713341  1
  O  O28  1  0.56124555  0.20386105  0.18286659  1
  O  O29  1  0.27885008  0.27264117  0.90400726  1
  O  O30  1  0.78661221  0.42300102  0.01089294  1
  O  O31  1  0.45974891  0.20386105  0.56124555  1
  O  O32  1  0.81713341  0.79613895  0.54025109  1
  O  O33  1  0.62549587  0.42300102  0.78661221  1
  O  O34  1  0.90400726  0.27264117  0.08978382  1
  O  O35  1  0.48296626  0.09768027  0.76381535  1
  O  O36  1  0.91021618  0.72735883  0.72114992  1
  O  O37  1  0.98910706  0.57699898  0.37450413  1
  O  O38  1  0.85089867  0.09768027  0.48296626  1
  O  O39  1  0.76381535  0.09768027  0.85089867  1
