# generated using pymatgen
data_LiBiP2O7
_symmetry_space_group_name_H-M   'P 1'
_cell_length_a   4.97553196
_cell_length_b   8.80575480
_cell_length_c   7.67972947
_cell_angle_alpha   90.00000000
_cell_angle_beta   116.79497744
_cell_angle_gamma   90.00000000
_symmetry_Int_Tables_number   1
_chemical_formula_structural   LiBiP2O7
_chemical_formula_sum   'Li2 Bi2 P4 O14'
_cell_volume   300.34557712
_cell_formula_units_Z   2
loop_
 _symmetry_equiv_pos_site_id
 _symmetry_equiv_pos_as_xyz
  1  'x, y, z'
loop_
 _atom_site_type_symbol
 _atom_site_label
 _atom_site_symmetry_multiplicity
 _atom_site_fract_x
 _atom_site_fract_y
 _atom_site_fract_z
 _atom_site_occupancy
  Li  Li0  1  0.18578953  0.48303495  0.78708061  1
  Li  Li1  1  0.81421047  0.98303495  0.21291939  1
  Bi  Bi2  1  0.32354052  0.87574377  0.75073071  1
  Bi  Bi3  1  0.67645948  0.37574377  0.24926929  1
  P  P4  1  0.35252356  0.18646387  0.49016981  1
  P  P5  1  0.22030837  0.78430699  0.09181008  1
  P  P6  1  0.77969163  0.28430699  0.90818992  1
  P  P7  1  0.64747644  0.68646387  0.50983019  1
  O  O8  1  0.07378167  0.30188838  0.89882793  1
  O  O9  1  0.20465124  0.68752772  0.91606275  1
  O  O10  1  0.17669944  0.03837536  0.45619578  1
  O  O11  1  0.16560860  0.33466059  0.44093646  1
  O  O12  1  0.42776037  0.68820798  0.60035022  1
  O  O13  1  0.62047675  0.43278393  0.91197524  1
  O  O14  1  0.55117667  0.17979646  0.72475373  1
  O  O15  1  0.44882333  0.67979646  0.27524627  1
  O  O16  1  0.37952325  0.93278393  0.08802476  1
  O  O17  1  0.57223963  0.18820798  0.39964978  1
  O  O18  1  0.83439140  0.83466059  0.55906354  1
  O  O19  1  0.82330056  0.53837536  0.54380422  1
  O  O20  1  0.79534876  0.18752772  0.08393725  1
  O  O21  1  0.92621833  0.80188838  0.10117207  1
