# generated using pymatgen
data_Na4Ti7O16
_symmetry_space_group_name_H-M   'P 1'
_cell_length_a   6.08497783
_cell_length_b   6.17435513
_cell_length_c   9.02608167
_cell_angle_alpha   93.53451298
_cell_angle_beta   90.00000000
_cell_angle_gamma   90.00000000
_symmetry_Int_Tables_number   1
_chemical_formula_structural   Na4Ti7O16
_chemical_formula_sum   'Na4 Ti7 O16'
_cell_volume   338.47218274
_cell_formula_units_Z   1
loop_
 _symmetry_equiv_pos_site_id
 _symmetry_equiv_pos_as_xyz
  1  'x, y, z'
loop_
 _atom_site_type_symbol
 _atom_site_label
 _atom_site_symmetry_multiplicity
 _atom_site_fract_x
 _atom_site_fract_y
 _atom_site_fract_z
 _atom_site_occupancy
  Na  Na0  1  0.00000000  0.00508713  0.00175954  1
  Na  Na1  1  0.50000000  0.02235109  0.25411092  1
  Na  Na2  1  0.50000000  0.47764891  0.49588908  1
  Na  Na3  1  0.00000000  0.49491287  0.74823946  1
  Ti  Ti4  1  0.24449704  0.51314468  0.13089402  1
  Ti  Ti5  1  0.75550296  0.51314468  0.13089402  1
  Ti  Ti6  1  0.00000000  0.75000000  0.37500000  1
  Ti  Ti7  1  0.24449704  0.98685532  0.61910598  1
  Ti  Ti8  1  0.75550296  0.98685532  0.61910598  1
  Ti  Ti9  1  0.50000000  0.25000000  0.87500000  1
  Ti  Ti10  1  0.50000000  0.75000000  0.87500000  1
  O  O11  1  0.50000000  0.73078404  0.09461394  1
  O  O12  1  0.50000000  0.30210408  0.09960323  1
  O  O13  1  0.00000000  0.74138232  0.15103811  1
  O  O14  1  0.00000000  0.33293760  0.09694709  1
  O  O15  1  0.76762909  0.53238372  0.33196970  1
  O  O16  1  0.23237091  0.53238372  0.33196970  1
  O  O17  1  0.76762909  0.96761628  0.41803030  1
  O  O18  1  0.23237091  0.96761628  0.41803030  1
  O  O19  1  0.00000000  0.16706240  0.65305291  1
  O  O20  1  0.50000000  0.19789592  0.65039677  1
  O  O21  1  0.50000000  0.76921596  0.65538606  1
  O  O22  1  0.00000000  0.75861768  0.59896189  1
  O  O23  1  0.29299768  0.99964200  0.86435737  1
  O  O24  1  0.70700232  0.99964200  0.86435737  1
  O  O25  1  0.70700232  0.50035800  0.88564263  1
  O  O26  1  0.29299768  0.50035800  0.88564263  1
