# generated using pymatgen
data_Na5Ti12O24
_symmetry_space_group_name_H-M   'P 1'
_cell_length_a   5.51983243
_cell_length_b   9.53170758
_cell_length_c   8.97734743
_cell_angle_alpha   90.00000000
_cell_angle_beta   90.00000000
_cell_angle_gamma   90.15315120
_symmetry_Int_Tables_number   1
_chemical_formula_structural   Na5Ti12O24
_chemical_formula_sum   'Na5 Ti12 O24'
_cell_volume   472.32734125
_cell_formula_units_Z   1
loop_
 _symmetry_equiv_pos_site_id
 _symmetry_equiv_pos_as_xyz
  1  'x, y, z'
loop_
 _atom_site_type_symbol
 _atom_site_label
 _atom_site_symmetry_multiplicity
 _atom_site_fract_x
 _atom_site_fract_y
 _atom_site_fract_z
 _atom_site_occupancy
  Na  Na0  1  0.45674086  0.02186127  0.25000000  1
  Na  Na1  1  0.53731548  0.97526097  0.75000000  1
  Na  Na2  1  0.96116693  0.48038679  0.75000000  1
  Na  Na3  1  0.95455011  0.47695217  0.08516797  1
  Na  Na4  1  0.95455011  0.47695217  0.41483203  1
  Ti  Ti5  1  0.00405462  0.85197350  0.25000000  1
  Ti  Ti6  1  0.01409610  0.85441871  0.57673720  1
  Ti  Ti7  1  0.01409610  0.85441871  0.92326280  1
  Ti  Ti8  1  0.48756026  0.35285429  0.92058743  1
  Ti  Ti9  1  0.47917746  0.35444993  0.25000000  1
  Ti  Ti10  1  0.48756026  0.35285429  0.57941257  1
  Ti  Ti11  1  0.50582819  0.64846671  0.08383098  1
  Ti  Ti12  1  0.51281763  0.64270717  0.75000000  1
  Ti  Ti13  1  0.50582819  0.64846671  0.41616902  1
  Ti  Ti14  1  0.98955076  0.14417364  0.75000000  1
  Ti  Ti15  1  0.98170053  0.13689317  0.42513630  1
  Ti  Ti16  1  0.98170053  0.13689317  0.07486370  1
  O  O17  1  0.17884357  0.96092891  0.07884122  1
  O  O18  1  0.17884357  0.96092891  0.42115878  1
  O  O19  1  0.15478197  0.96041684  0.75000000  1
  O  O20  1  0.18506155  0.23237024  0.58223467  1
  O  O21  1  0.18506155  0.23237024  0.91776533  1
  O  O22  1  0.19679593  0.22725586  0.25000000  1
  O  O23  1  0.30050107  0.72454537  0.58774811  1
  O  O24  1  0.30050107  0.72454537  0.91225189  1
  O  O25  1  0.30056476  0.72899146  0.25000000  1
  O  O26  1  0.33376793  0.46593336  0.08111506  1
  O  O27  1  0.33376793  0.46593336  0.41888494  1
  O  O28  1  0.34037414  0.45842634  0.75000000  1
  O  O29  1  0.67550781  0.54156426  0.25000000  1
  O  O30  1  0.67944663  0.53765506  0.58263636  1
  O  O31  1  0.67944663  0.53765506  0.91736364  1
  O  O32  1  0.69810388  0.27345386  0.75000000  1
  O  O33  1  0.69996305  0.27607763  0.08567928  1
  O  O34  1  0.69996305  0.27607763  0.41432072  1
  O  O35  1  0.80451366  0.77108923  0.08173011  1
  O  O36  1  0.80451366  0.77108923  0.41826989  1
  O  O37  1  0.79767724  0.77386227  0.75000000  1
  O  O38  1  0.81615973  0.03541586  0.57952229  1
  O  O39  1  0.83948581  0.03761640  0.25000000  1
  O  O40  1  0.81615973  0.03541586  0.92047771  1
