# generated using pymatgen
data_Li2Sn(BO3)2
_symmetry_space_group_name_H-M   'P 1'
_cell_length_a   5.22364574
_cell_length_b   8.98132460
_cell_length_c   10.48521584
_cell_angle_alpha   90.00000000
_cell_angle_beta   93.18313024
_cell_angle_gamma   90.00000000
_symmetry_Int_Tables_number   1
_chemical_formula_structural   Li2Sn(BO3)2
_chemical_formula_sum   'Li8 Sn4 B8 O24'
_cell_volume   491.15765578
_cell_formula_units_Z   4
loop_
 _symmetry_equiv_pos_site_id
 _symmetry_equiv_pos_as_xyz
  1  'x, y, z'
loop_
 _atom_site_type_symbol
 _atom_site_label
 _atom_site_symmetry_multiplicity
 _atom_site_fract_x
 _atom_site_fract_y
 _atom_site_fract_z
 _atom_site_occupancy
  Li  Li0  1  0.19637890  0.65679028  0.63995101  1
  Li  Li1  1  0.19511330  0.97184659  0.09892993  1
  Li  Li2  1  0.30362110  0.15679028  0.86004899  1
  Li  Li3  1  0.30488670  0.47184659  0.40107007  1
  Li  Li4  1  0.67147064  0.51582352  0.58835313  1
  Li  Li5  1  0.63806637  0.54137621  0.18263521  1
  Li  Li6  1  0.82852936  0.01582352  0.91164687  1
  Li  Li7  1  0.86193363  0.04137621  0.31736479  1
  Sn  Sn8  1  0.13380838  0.30546811  0.12803390  1
  Sn  Sn9  1  0.36619162  0.80546811  0.37196610  1
  Sn  Sn10  1  0.65444152  0.16981862  0.62640769  1
  Sn  Sn11  1  0.84555848  0.66981862  0.87359231  1
  B  B12  1  0.17169314  0.33125464  0.61579291  1
  B  B13  1  0.14535796  0.64919204  0.13164239  1
  B  B14  1  0.32830686  0.83125464  0.88420709  1
  B  B15  1  0.35464204  0.14919204  0.36835761  1
  B  B16  1  0.66969180  0.82903764  0.63013568  1
  B  B17  1  0.67626258  0.20054211  0.12150261  1
  B  B18  1  0.83030820  0.32903764  0.86986432  1
  B  B19  1  0.82373742  0.70054211  0.37849739  1
  O  O20  1  0.07169554  0.31110638  0.93100080  1
  O  O21  1  0.07404586  0.65694539  0.40293313  1
  O  O22  1  0.17948840  0.94899616  0.91218878  1
  O  O23  1  0.22552133  0.01578832  0.34498144  1
  O  O24  1  0.23730519  0.27844107  0.32243895  1
  O  O25  1  0.27362202  0.19217714  0.65432275  1
  O  O26  1  0.22637798  0.69217714  0.84567725  1
  O  O27  1  0.26269481  0.77844107  0.17756105  1
  O  O28  1  0.27447867  0.51578832  0.15501856  1
  O  O29  1  0.32051160  0.44899616  0.58781122  1
  O  O30  1  0.42830446  0.81110638  0.56899920  1
  O  O31  1  0.42595414  0.15694539  0.09706687  1
  O  O32  1  0.59806014  0.84188146  0.89407463  1
  O  O33  1  0.59624953  0.15139595  0.43045881  1
  O  O34  1  0.61785437  0.60212010  0.38031459  1
  O  O35  1  0.71219933  0.46358974  0.84541013  1
  O  O36  1  0.69940621  0.19904349  0.82767801  1
  O  O37  1  0.74594034  0.34693802  0.14776157  1
  O  O38  1  0.75405966  0.84693802  0.35223843  1
  O  O39  1  0.80059379  0.69904349  0.67232199  1
  O  O40  1  0.78780067  0.96358974  0.65458987  1
  O  O41  1  0.88214563  0.10212010  0.11968541  1
  O  O42  1  0.90193986  0.34188146  0.60592537  1
  O  O43  1  0.90375047  0.65139595  0.06954119  1
