# generated using pymatgen
data_Li4Ti11O24
_symmetry_space_group_name_H-M   'P 1'
_cell_length_a   5.98948752
_cell_length_b   10.25939671
_cell_length_c   8.50023519
_cell_angle_alpha   65.94980300
_cell_angle_beta   90.09685584
_cell_angle_gamma   73.11610404
_symmetry_Int_Tables_number   1
_chemical_formula_structural   Li4Ti11O24
_chemical_formula_sum   'Li4 Ti11 O24'
_cell_volume   452.09478072
_cell_formula_units_Z   1
loop_
 _symmetry_equiv_pos_site_id
 _symmetry_equiv_pos_as_xyz
  1  'x, y, z'
loop_
 _atom_site_type_symbol
 _atom_site_label
 _atom_site_symmetry_multiplicity
 _atom_site_fract_x
 _atom_site_fract_y
 _atom_site_fract_z
 _atom_site_occupancy
  Li  Li0  1  0.50078752  0.00152376  0.25807231  1
  Li  Li1  1  0.33271909  0.33372898  0.32203973  1
  Li  Li2  1  0.00613539  0.99147965  0.00098004  1
  Li  Li3  1  0.82892171  0.34055456  0.58298726  1
  Ti  Ti4  1  0.09432076  0.32523147  0.95116582  1
  Ti  Ti5  1  0.25778461  0.00963921  0.63057991  1
  Ti  Ti6  1  0.08722182  0.82845223  0.47579701  1
  Ti  Ti7  1  0.25309124  0.48666045  0.63277671  1
  Ti  Ti8  1  0.57938175  0.32323125  0.94922993  1
  Ti  Ti9  1  0.73953588  0.00793509  0.63578562  1
  Ti  Ti10  1  0.41678331  0.66501015  0.29394135  1
  Ti  Ti11  1  0.74478507  0.50769353  0.10472093  1
  Ti  Ti12  1  0.57227640  0.84794594  0.95291526  1
  Ti  Ti13  1  0.91354360  0.16752275  0.29221194  1
  Ti  Ti14  1  0.91562090  0.66824919  0.29032230  1
  O  O15  1  0.21834488  0.00211736  0.38537090  1
  O  O16  1  0.05104491  0.33352653  0.19484998  1
  O  O17  1  0.08160087  0.35136205  0.71830961  1
  O  O18  1  0.09466284  0.81365017  0.22587121  1
  O  O19  1  0.07127404  0.85800029  0.67645143  1
  O  O20  1  0.40170340  0.19086727  0.04168864  1
  O  O21  1  0.25996512  0.47723996  0.86671680  1
  O  O22  1  0.24336044  0.51516980  0.37723316  1
  O  O23  1  0.43067938  0.14332512  0.54001117  1
  O  O24  1  0.38226721  0.67005044  0.51906125  1
  O  O25  1  0.56203194  0.35002136  0.71844763  1
  O  O26  1  0.26768296  0.98404616  0.86291740  1
  O  O27  1  0.78166771  0.00191448  0.38415156  1
  O  O28  1  0.61497942  0.33194945  0.19716346  1
  O  O29  1  0.45014019  0.66577992  0.06317933  1
  O  O30  1  0.92338600  0.15543184  0.53419123  1
  O  O31  1  0.59185833  0.82028637  0.20398680  1
  O  O32  1  0.90825700  0.17931137  0.04621821  1
  O  O33  1  0.75821742  0.47691713  0.90518758  1
  O  O34  1  0.73992088  0.52108588  0.35726003  1
  O  O35  1  0.57201396  0.85734456  0.71554908  1
  O  O36  1  0.88332440  0.66466400  0.06340673  1
  O  O37  1  0.74730579  0.98478644  0.86428670  1
  O  O38  1  0.94893385  0.67004183  0.51860100  1
