# generated using pymatgen
data_LiSi2BiO6
_symmetry_space_group_name_H-M   'P 1'
_cell_length_a   7.11089440
_cell_length_b   7.11089440
_cell_length_c   5.52821046
_cell_angle_alpha   75.72488025
_cell_angle_beta   104.27511975
_cell_angle_gamma   91.86641858
_symmetry_Int_Tables_number   1
_chemical_formula_structural   LiSi2BiO6
_chemical_formula_sum   'Li2 Si4 Bi2 O12'
_cell_volume   262.41849815
_cell_formula_units_Z   2
loop_
 _symmetry_equiv_pos_site_id
 _symmetry_equiv_pos_as_xyz
  1  'x, y, z'
loop_
 _atom_site_type_symbol
 _atom_site_label
 _atom_site_symmetry_multiplicity
 _atom_site_fract_x
 _atom_site_fract_y
 _atom_site_fract_z
 _atom_site_occupancy
  Li  Li0  1  0.76099242  0.76099242  0.75000000  1
  Li  Li1  1  0.23900758  0.23900758  0.25000000  1
  Si  Si2  1  0.22355236  0.61653692  0.79322773  1
  Si  Si3  1  0.38346308  0.77644764  0.29322773  1
  Si  Si4  1  0.61653692  0.22355236  0.70677227  1
  Si  Si5  1  0.77644764  0.38346308  0.20677227  1
  Bi  Bi6  1  0.12449675  0.12449675  0.75000000  1
  Bi  Bi7  1  0.87550325  0.87550325  0.25000000  1
  O  O8  1  0.03782894  0.77235863  0.68895655  1
  O  O9  1  0.22764137  0.96217106  0.18895655  1
  O  O10  1  0.16647150  0.39239189  0.89322928  1
  O  O11  1  0.32501785  0.63129732  0.54806314  1
  O  O12  1  0.60760811  0.83352850  0.39322928  1
  O  O13  1  0.36870268  0.67498215  0.04806314  1
  O  O14  1  0.63129732  0.32501785  0.95193686  1
  O  O15  1  0.39239189  0.16647150  0.60677072  1
  O  O16  1  0.67498215  0.36870268  0.45193686  1
  O  O17  1  0.83352850  0.60760811  0.10677072  1
  O  O18  1  0.77235863  0.03782894  0.81104345  1
  O  O19  1  0.96217106  0.22764137  0.31104345  1
