# generated using pymatgen
data_Li3Sb3(PO4)4
_symmetry_space_group_name_H-M   'P 1'
_cell_length_a   7.86738868
_cell_length_b   9.08631235
_cell_length_c   10.51662944
_cell_angle_alpha   90.00000000
_cell_angle_beta   92.60956458
_cell_angle_gamma   90.00000000
_symmetry_Int_Tables_number   1
_chemical_formula_structural   Li3Sb3(PO4)4
_chemical_formula_sum   'Li6 Sb6 P8 O32'
_cell_volume   751.00743362
_cell_formula_units_Z   2
loop_
 _symmetry_equiv_pos_site_id
 _symmetry_equiv_pos_as_xyz
  1  'x, y, z'
loop_
 _atom_site_type_symbol
 _atom_site_label
 _atom_site_symmetry_multiplicity
 _atom_site_fract_x
 _atom_site_fract_y
 _atom_site_fract_z
 _atom_site_occupancy
  Li  Li0  1  0.10036439  0.37682844  0.28082965  1
  Li  Li1  1  0.39963561  0.87682844  0.96917035  1
  Li  Li2  1  0.62673623  0.12324540  0.53950351  1
  Li  Li3  1  0.60068730  0.11776706  0.03137292  1
  Li  Li4  1  0.87326377  0.62324540  0.71049649  1
  Li  Li5  1  0.89931270  0.61776706  0.21862708  1
  Sb  Sb6  1  0.98153252  0.96510906  0.75478759  1
  Sb  Sb7  1  0.98515207  0.00301708  0.23874433  1
  Sb  Sb8  1  0.12366185  0.36403056  0.79262370  1
  Sb  Sb9  1  0.37633815  0.86403056  0.45737630  1
  Sb  Sb10  1  0.51846748  0.46510906  0.49521241  1
  Sb  Sb11  1  0.51484793  0.50301708  0.01125567  1
  P  P12  1  0.21646354  0.20399044  0.51389551  1
  P  P13  1  0.21420969  0.19594260  0.02984716  1
  P  P14  1  0.28353646  0.70399044  0.73610449  1
  P  P15  1  0.28579031  0.69594260  0.22015284  1
  P  P16  1  0.70341833  0.29044156  0.76339786  1
  P  P17  1  0.70818153  0.30885044  0.26387167  1
  P  P18  1  0.79181847  0.80885044  0.98612833  1
  P  P19  1  0.79658167  0.79044156  0.48660214  1
  O  O20  1  0.07418874  0.17961735  0.91494413  1
  O  O21  1  0.08604277  0.14338949  0.41567901  1
  O  O22  1  0.12549800  0.20996798  0.64551788  1
  O  O23  1  0.12087737  0.60976130  0.71611825  1
  O  O24  1  0.11986794  0.18571446  0.15750030  1
  O  O25  1  0.14740529  0.58101837  0.22901384  1
  O  O26  1  0.23296881  0.86488683  0.77573057  1
  O  O27  1  0.27397981  0.35918310  0.01280775  1
  O  O28  1  0.22602019  0.85918310  0.23719225  1
  O  O29  1  0.26703119  0.36488683  0.47426943  1
  O  O30  1  0.37912263  0.10976130  0.53388175  1
  O  O31  1  0.37450200  0.70996798  0.60448212  1
  O  O32  1  0.35259471  0.08101837  0.02098616  1
  O  O33  1  0.41395723  0.64338949  0.83432099  1
  O  O34  1  0.38013206  0.68571446  0.09249970  1
  O  O35  1  0.42581126  0.67961735  0.33505587  1
  O  O36  1  0.56167992  0.36436273  0.67215907  1
  O  O37  1  0.64181556  0.27871707  0.89827920  1
  O  O38  1  0.55363712  0.37690018  0.18490719  1
  O  O39  1  0.64032382  0.91287531  0.98128644  1
  O  O40  1  0.64282325  0.28702483  0.40595141  1
  O  O41  1  0.63711156  0.90233408  0.48838660  1
  O  O42  1  0.74974075  0.64203366  0.54669417  1
  O  O43  1  0.75025925  0.14203366  0.70330583  1
  O  O44  1  0.75627839  0.65298861  0.04049411  1
  O  O45  1  0.74372161  0.15298861  0.20950589  1
  O  O46  1  0.86288844  0.40233408  0.76161340  1
  O  O47  1  0.85717675  0.78702483  0.84404859  1
  O  O48  1  0.85967618  0.41287531  0.26871356  1
  O  O49  1  0.85818444  0.77871707  0.35172080  1
  O  O50  1  0.93832008  0.86436273  0.57784093  1
  O  O51  1  0.94636288  0.87690018  0.06509281  1
