# generated using pymatgen
data_LiMnPO4
_symmetry_space_group_name_H-M   'P 1'
_cell_length_a   7.99684769
_cell_length_b   8.73693514
_cell_length_c   5.91376861
_cell_angle_alpha   90.00000000
_cell_angle_beta   90.00000000
_cell_angle_gamma   117.23531160
_symmetry_Int_Tables_number   1
_chemical_formula_structural   LiMnPO4
_chemical_formula_sum   'Li4 Mn4 P4 O16'
_cell_volume   367.37510448
_cell_formula_units_Z   4
loop_
 _symmetry_equiv_pos_site_id
 _symmetry_equiv_pos_as_xyz
  1  'x, y, z'
loop_
 _atom_site_type_symbol
 _atom_site_label
 _atom_site_symmetry_multiplicity
 _atom_site_fract_x
 _atom_site_fract_y
 _atom_site_fract_z
 _atom_site_occupancy
  Li  Li0  1  0.27061712  0.54848787  0.76297760  1
  Li  Li1  1  0.27787075  0.54848787  0.26297760  1
  Li  Li2  1  0.72212925  0.45151213  0.26297760  1
  Li  Li3  1  0.72938288  0.45151213  0.76297760  1
  Mn  Mn4  1  0.07637127  0.81237694  0.51012082  1
  Mn  Mn5  1  0.26399432  0.18762306  0.01012082  1
  Mn  Mn6  1  0.73600568  0.81237694  0.01012082  1
  Mn  Mn7  1  0.92362873  0.18762306  0.51012082  1
  P  P8  1  0.07065850  0.73614267  0.01798267  1
  P  P9  1  0.66548418  0.73614267  0.51798267  1
  P  P10  1  0.33451582  0.26385733  0.51798267  1
  P  P11  1  0.92934150  0.26385733  0.01798267  1
  O  O12  1  0.10885234  0.92521155  0.03227329  1
  O  O13  1  0.15265316  0.70383553  0.79492367  1
  O  O14  1  0.15028308  0.69357948  0.23501164  1
  O  O15  1  0.22227492  0.37326364  0.51320131  1
  O  O16  1  0.15098872  0.37326364  0.01320131  1
  O  O17  1  0.18363980  0.07478845  0.53227329  1
  O  O18  1  0.54329640  0.69357948  0.73501164  1
  O  O19  1  0.55118237  0.70383553  0.29492367  1
  O  O20  1  0.44881763  0.29616447  0.29492367  1
  O  O21  1  0.45670360  0.30642052  0.73501164  1
  O  O22  1  0.81636020  0.92521155  0.53227329  1
  O  O23  1  0.84901128  0.62673636  0.01320131  1
  O  O24  1  0.77772508  0.62673636  0.51320131  1
  O  O25  1  0.84971692  0.30642052  0.23501164  1
  O  O26  1  0.84734684  0.29616447  0.79492367  1
  O  O27  1  0.89114766  0.07478845  0.03227329  1
