# generated using pymatgen
data_LiMnPO4
_symmetry_space_group_name_H-M   'P 1'
_cell_length_a   8.83785466
_cell_length_b   7.97037670
_cell_length_c   15.39420781
_cell_angle_alpha   90.00000000
_cell_angle_beta   90.84017934
_cell_angle_gamma   90.00000000
_symmetry_Int_Tables_number   1
_chemical_formula_structural   LiMnPO4
_chemical_formula_sum   'Li12 Mn12 P12 O48'
_cell_volume   1084.26728191
_cell_formula_units_Z   12
loop_
 _symmetry_equiv_pos_site_id
 _symmetry_equiv_pos_as_xyz
  1  'x, y, z'
loop_
 _atom_site_type_symbol
 _atom_site_label
 _atom_site_symmetry_multiplicity
 _atom_site_fract_x
 _atom_site_fract_y
 _atom_site_fract_z
 _atom_site_occupancy
  Li  Li0  1  0.20729944  0.99196584  0.93560100  1
  Li  Li1  1  0.22385587  0.01546152  0.58658391  1
  Li  Li2  1  0.25059753  0.86712134  0.24629814  1
  Li  Li3  1  0.24940247  0.36712134  0.25370186  1
  Li  Li4  1  0.27614413  0.51546152  0.91341609  1
  Li  Li5  1  0.29270056  0.49196584  0.56439900  1
  Li  Li6  1  0.70729944  0.50803416  0.43560100  1
  Li  Li7  1  0.72385587  0.48453848  0.08658391  1
  Li  Li8  1  0.75059753  0.63287866  0.74629814  1
  Li  Li9  1  0.74940247  0.13287866  0.75370186  1
  Li  Li10  1  0.77614413  0.98453848  0.41341609  1
  Li  Li11  1  0.79270056  0.00803416  0.06439900  1
  Mn  Mn12  1  0.05710877  0.66479258  0.40484559  1
  Mn  Mn13  1  0.07788946  0.82308559  0.76302808  1
  Mn  Mn14  1  0.09812865  0.66457053  0.08126078  1
  Mn  Mn15  1  0.40187135  0.16457053  0.41873922  1
  Mn  Mn16  1  0.42211054  0.32308559  0.73697192  1
  Mn  Mn17  1  0.44289123  0.16479258  0.09515441  1
  Mn  Mn18  1  0.55710877  0.83520742  0.90484559  1
  Mn  Mn19  1  0.57788946  0.67691441  0.26302808  1
  Mn  Mn20  1  0.59812865  0.83542947  0.58126078  1
  Mn  Mn21  1  0.90187135  0.33542947  0.91873922  1
  Mn  Mn22  1  0.92211054  0.17691441  0.23697192  1
  Mn  Mn23  1  0.94289123  0.33520742  0.59515441  1
  P  P24  1  0.05147465  0.25800749  0.41264233  1
  P  P25  1  0.08573593  0.22176334  0.77228964  1
  P  P26  1  0.10798238  0.26488533  0.07182503  1
  P  P27  1  0.39201762  0.76488533  0.42817497  1
  P  P28  1  0.41426407  0.72176334  0.72771036  1
  P  P29  1  0.44852535  0.75800749  0.08735767  1
  P  P30  1  0.55147465  0.24199251  0.91264233  1
  P  P31  1  0.58573593  0.27823666  0.27228964  1
  P  P32  1  0.60798238  0.23511467  0.57182503  1
  P  P33  1  0.89201762  0.73511467  0.92817497  1
  P  P34  1  0.91426407  0.77823666  0.22771036  1
  P  P35  1  0.94852535  0.74199251  0.58735767  1
  O  O36  1  0.03730539  0.57336033  0.59622060  1
  O  O37  1  0.04638200  0.88091250  0.63164454  1
  O  O38  1  0.05376439  0.78228210  0.96195225  1
  O  O39  1  0.08920888  0.05476008  0.82531818  1
  O  O40  1  0.09323264  0.36778555  0.83906014  1
  O  O41  1  0.06651351  0.76752332  0.28031313  1
  O  O42  1  0.08658388  0.21569403  0.50941579  1
  O  O43  1  0.10276891  0.28602047  0.17238445  1
  O  O44  1  0.16198494  0.43352014  0.03098783  1
  O  O45  1  0.21446164  0.22621328  0.70467950  1
  O  O46  1  0.20569382  0.27235422  0.36430706  1
  O  O47  1  0.22248663  0.12610691  0.04665978  1
  O  O48  1  0.27751337  0.62610691  0.45334022  1
  O  O49  1  0.29430618  0.77235422  0.13569294  1
  O  O50  1  0.28553836  0.72621328  0.79532050  1
  O  O51  1  0.33801506  0.93352014  0.46901217  1
  O  O52  1  0.39723109  0.78602047  0.32761555  1
  O  O53  1  0.41341612  0.71569403  0.99058421  1
  O  O54  1  0.40676736  0.86778555  0.66093986  1
  O  O55  1  0.43348649  0.26752332  0.21968687  1
  O  O56  1  0.41079112  0.55476008  0.67468182  1
  O  O57  1  0.44623561  0.28228210  0.53804775  1
  O  O58  1  0.45361800  0.38091250  0.86835546  1
  O  O59  1  0.46269461  0.07336033  0.90377940  1
  O  O60  1  0.53730539  0.92663967  0.09622060  1
  O  O61  1  0.54638200  0.61908750  0.13164454  1
  O  O62  1  0.55376439  0.71771790  0.46195225  1
  O  O63  1  0.58920888  0.44523992  0.32531818  1
  O  O64  1  0.56651351  0.73247668  0.78031313  1
  O  O65  1  0.59323264  0.13221445  0.33906014  1
  O  O66  1  0.58658388  0.28430597  0.00941579  1
  O  O67  1  0.60276891  0.21397953  0.67238445  1
  O  O68  1  0.66198494  0.06647986  0.53098783  1
  O  O69  1  0.71446164  0.27378672  0.20467950  1
  O  O70  1  0.70569382  0.22764578  0.86430706  1
  O  O71  1  0.72248663  0.37389309  0.54665978  1
  O  O72  1  0.77751337  0.87389309  0.95334022  1
  O  O73  1  0.79430618  0.72764578  0.63569294  1
  O  O74  1  0.78553836  0.77378672  0.29532050  1
  O  O75  1  0.83801506  0.56647986  0.96901217  1
  O  O76  1  0.89723109  0.71397953  0.82761555  1
  O  O77  1  0.91341612  0.78430597  0.49058421  1
  O  O78  1  0.93348649  0.23247668  0.71968687  1
  O  O79  1  0.90676736  0.63221445  0.16093986  1
  O  O80  1  0.91079112  0.94523992  0.17468182  1
  O  O81  1  0.94623561  0.21771790  0.03804775  1
  O  O82  1  0.95361800  0.11908750  0.36835546  1
  O  O83  1  0.96269461  0.42663967  0.40377940  1
