# generated using pymatgen
data_Li4Cr3Ni(PO4)4
_symmetry_space_group_name_H-M   'P 1'
_cell_length_a   4.78394829
_cell_length_b   10.20198873
_cell_length_c   6.26996743
_cell_angle_alpha   90.00000000
_cell_angle_beta   90.00000000
_cell_angle_gamma   89.55667469
_symmetry_Int_Tables_number   1
_chemical_formula_structural   Li4Cr3Ni(PO4)4
_chemical_formula_sum   'Li4 Cr3 Ni1 P4 O16'
_cell_volume   306.00153189
_cell_formula_units_Z   1
loop_
 _symmetry_equiv_pos_site_id
 _symmetry_equiv_pos_as_xyz
  1  'x, y, z'
loop_
 _atom_site_type_symbol
 _atom_site_label
 _atom_site_symmetry_multiplicity
 _atom_site_fract_x
 _atom_site_fract_y
 _atom_site_fract_z
 _atom_site_occupancy
  Li  Li0  1  0.00575552  0.99817928  0.99800510  1
  Li  Li1  1  0.00575552  0.99817928  0.50199490  1
  Li  Li2  1  0.49756466  0.50248874  0.50469715  1
  Li  Li3  1  0.49756466  0.50248874  0.99530285  1
  Cr  Cr4  1  0.45242243  0.21637306  0.75000000  1
  Cr  Cr5  1  0.54755734  0.78195878  0.25000000  1
  Cr  Cr6  1  0.95489310  0.28491927  0.25000000  1
  Ni  Ni7  1  0.01611976  0.72143142  0.75000000  1
  P  P8  1  0.08324305  0.59603239  0.25000000  1
  P  P9  1  0.41967736  0.09425589  0.25000000  1
  P  P10  1  0.58373536  0.90382865  0.75000000  1
  P  P11  1  0.91534158  0.40708414  0.75000000  1
  O  O12  1  0.19496483  0.45169507  0.25000000  1
  O  O13  1  0.21287659  0.66262707  0.04810840  1
  O  O14  1  0.21287659  0.66262707  0.45189160  1
  O  O15  1  0.23916116  0.39822719  0.75000000  1
  O  O16  1  0.26229481  0.89756210  0.75000000  1
  O  O17  1  0.28431869  0.16074282  0.05153124  1
  O  O18  1  0.28431869  0.16074282  0.44846876  1
  O  O19  1  0.31181243  0.94979454  0.25000000  1
  O  O20  1  0.69444967  0.04723408  0.75000000  1
  O  O21  1  0.72601818  0.83397038  0.55537127  1
  O  O22  1  0.72601818  0.83397038  0.94462873  1
  O  O23  1  0.74331311  0.10132800  0.25000000  1
  O  O24  1  0.75947259  0.60254190  0.25000000  1
  O  O25  1  0.78344678  0.33917534  0.55170372  1
  O  O26  1  0.78344678  0.33917534  0.94829628  1
  O  O27  1  0.80158457  0.55136628  0.75000000  1
