# generated using pymatgen
data_LiCu(PO3)3
_symmetry_space_group_name_H-M   'P 1'
_cell_length_a   6.49716335
_cell_length_b   6.38120924
_cell_length_c   9.65957527
_cell_angle_alpha   90.00000066
_cell_angle_beta   86.52623079
_cell_angle_gamma   119.41137039
_symmetry_Int_Tables_number   1
_chemical_formula_structural   LiCu(PO3)3
_chemical_formula_sum   'Li2 Cu2 P6 O18'
_cell_volume   348.02292775
_cell_formula_units_Z   2
loop_
 _symmetry_equiv_pos_site_id
 _symmetry_equiv_pos_as_xyz
  1  'x, y, z'
loop_
 _atom_site_type_symbol
 _atom_site_label
 _atom_site_symmetry_multiplicity
 _atom_site_fract_x
 _atom_site_fract_y
 _atom_site_fract_z
 _atom_site_occupancy
  Li  Li0  1  0.67734165  0.30451267  0.49999650  1
  Li  Li1  1  0.67734165  0.37282798  -0.00000350  1
  Cu  Cu2  1  0.33568212  0.66813975  -0.00002872  1
  Cu  Cu3  1  0.33568212  0.66754238  0.49997128  1
  P  P4  1  0.02990530  0.75135551  0.74904976  1
  P  P5  1  0.24430397  0.96068243  0.25388498  1
  P  P6  1  0.02990530  0.27854979  0.24904976  1
  P  P7  1  0.24430397  0.28362054  0.75388498  1
  P  P8  1  0.72194326  0.97336047  0.74697638  1
  P  P9  1  0.72194326  0.74858279  0.24697638  1
  O  O10  1  0.00291629  0.62421277  0.88427876  1
  O  O11  1  0.06685906  0.64680465  0.61605799  1
  O  O12  1  0.35949858  0.95148029  0.11553109  1
  O  O13  1  0.35723649  0.95226082  0.38399425  1
  O  O14  1  0.06685906  0.42005442  0.11605799  1
  O  O15  1  0.00291629  0.37870252  0.38427876  1
  O  O16  1  0.35949858  0.40801829  0.61553109  1
  O  O17  1  0.35723649  0.40497567  0.88399425  1
  O  O18  1  0.62328696  0.00066303  0.61701755  1
  O  O19  1  0.58172596  0.93702089  0.88386983  1
  O  O20  1  0.23449786  0.20691680  0.25396431  1
  O  O21  1  0.23449786  0.02758106  0.75396431  1
  O  O22  1  0.58172596  0.64470407  0.38386983  1
  O  O23  1  0.62328696  0.62262392  0.11701755  1
  O  O24  1  0.79377124  0.76736013  0.73049390  1
  O  O25  1  0.97103226  0.75985856  0.26491442  1
  O  O26  1  0.79377124  0.02641111  0.23049390  1
  O  O27  1  0.97103226  0.21117370  0.76491442  1
