# generated using pymatgen
data_Li9Cr5(SiO8)2
_symmetry_space_group_name_H-M   'P 1'
_cell_length_a   5.06861881
_cell_length_b   11.54926441
_cell_length_c   5.05063045
_cell_angle_alpha   90.00000422
_cell_angle_beta   70.71546465
_cell_angle_gamma   90.00000120
_symmetry_Int_Tables_number   1
_chemical_formula_structural   Li9Cr5(SiO8)2
_chemical_formula_sum   'Li9 Cr5 Si2 O16'
_cell_volume   279.06861091
_cell_formula_units_Z   1
loop_
 _symmetry_equiv_pos_site_id
 _symmetry_equiv_pos_as_xyz
  1  'x, y, z'
loop_
 _atom_site_type_symbol
 _atom_site_label
 _atom_site_symmetry_multiplicity
 _atom_site_fract_x
 _atom_site_fract_y
 _atom_site_fract_z
 _atom_site_occupancy
  Li  Li0  1  0.00000000  0.99248511  0.00000000  1
  Li  Li1  1  0.00000000  0.25108044  0.00000000  1
  Li  Li2  1  0.00000000  0.11761260  0.50000000  1
  Li  Li3  1  1.00000000  0.49891956  0.00000000  1
  Li  Li4  1  0.00000000  0.37500000  0.50000000  1
  Li  Li5  1  0.00000000  0.75751489  0.00000000  1
  Li  Li6  1  0.00000000  0.63238740  0.50000000  1
  Li  Li7  1  0.50000000  0.87500000  0.00000000  1
  Li  Li8  1  0.00000000  0.87500000  0.50000000  1
  Cr  Cr9  1  0.50000000  0.11573337  1.00000000  1
  Cr  Cr10  1  0.50000000  0.37500000  0.00000000  1
  Cr  Cr11  1  0.50000000  0.24506818  0.50000000  1
  Cr  Cr12  1  0.50000000  0.63426663  0.00000000  1
  Cr  Cr13  1  0.50000000  0.50493182  0.50000000  1
  Si  Si14  1  0.50000000  0.99201578  0.50000000  1
  Si  Si15  1  0.50000000  0.75798422  0.50000000  1
  O  O16  1  0.28770602  0.00041193  0.27770788  1
  O  O17  1  0.27156275  0.24726017  0.24107813  1
  O  O18  1  0.71863690  0.10983303  0.26966896  1
  O  O19  1  0.72760341  0.37500000  0.26094863  1
  O  O20  1  0.28136310  0.10983303  0.73033104  1
  O  O21  1  0.27156275  0.50273983  0.24107813  1
  O  O22  1  0.71229398  0.00041193  0.72229212  1
  O  O23  1  0.27239659  0.37500000  0.73905137  1
  O  O24  1  0.28770602  0.74958807  0.27770788  1
  O  O25  1  0.71863690  0.64016697  0.26966896  1
  O  O26  1  0.72843725  0.24726017  0.75892187  1
  O  O27  1  0.72843725  0.50273983  0.75892187  1
  O  O28  1  0.28136310  0.64016697  0.73033104  1
  O  O29  1  0.71404787  0.87500000  0.29345031  1
  O  O30  1  0.71229398  0.74958807  0.72229212  1
  O  O31  1  0.28595213  0.87500000  0.70654969  1
