# generated using pymatgen
data_Li5VP3O11
_symmetry_space_group_name_H-M   'P 1'
_cell_length_a   5.37486663
_cell_length_b   8.52924321
_cell_length_c   9.64476324
_cell_angle_alpha   95.24858535
_cell_angle_beta   88.35088600
_cell_angle_gamma   94.90143724
_symmetry_Int_Tables_number   1
_chemical_formula_structural   Li5VP3O11
_chemical_formula_sum   'Li10 V2 P6 O22'
_cell_volume   438.58826077
_cell_formula_units_Z   2
loop_
 _symmetry_equiv_pos_site_id
 _symmetry_equiv_pos_as_xyz
  1  'x, y, z'
loop_
 _atom_site_type_symbol
 _atom_site_label
 _atom_site_symmetry_multiplicity
 _atom_site_fract_x
 _atom_site_fract_y
 _atom_site_fract_z
 _atom_site_occupancy
  Li  Li0  1  0.21969898  0.67100710  0.34242182  1
  Li  Li1  1  0.29351937  0.37880688  0.83330481  1
  Li  Li2  1  0.32710903  0.61680567  0.67857783  1
  Li  Li3  1  0.16849099  0.38065527  0.15884520  1
  Li  Li4  1  0.51128590  0.99619579  0.83829944  1
  Li  Li5  1  0.48871410  0.00380421  0.16170056  1
  Li  Li6  1  0.83150901  0.61934473  0.84115480  1
  Li  Li7  1  0.67289097  0.38319433  0.32142217  1
  Li  Li8  1  0.70648063  0.62119312  0.16669519  1
  Li  Li9  1  0.78030102  0.32899290  0.65757818  1
  V  V10  1  0.00000000  0.00000000  0.00000000  1
  V  V11  1  0.50000000  0.00000000  0.50000000  1
  P  P12  1  0.03578925  0.05000353  0.31405823  1
  P  P13  1  0.21336363  0.70628216  0.01540484  1
  P  P14  1  0.27015549  0.32842942  0.48045575  1
  P  P15  1  0.72984451  0.67157058  0.51954425  1
  P  P16  1  0.78663637  0.29371784  0.98459516  1
  P  P17  1  0.96421075  0.94999647  0.68594177  1
  O  O18  1  0.93919294  0.74392070  0.05699905  1
  O  O19  1  0.05166689  0.18829565  0.44224109  1
  O  O20  1  0.12584802  0.13363321  0.18528662  1
  O  O21  1  0.21131966  0.60351598  0.87322211  1
  O  O22  1  0.18061182  0.40049763  0.62174925  1
  O  O23  1  0.24019980  0.01100068  0.68646883  1
  O  O24  1  0.22490047  0.93087897  0.33916153  1
  O  O25  1  0.28984364  0.43482097  0.36025704  1
  O  O26  1  0.33361094  0.62325864  0.13022860  1
  O  O27  1  0.34821211  0.87299854  0.99513952  1
  O  O28  1  0.47941278  0.74766691  0.51492615  1
  O  O29  1  0.52058722  0.25233309  0.48507385  1
  O  O30  1  0.65178789  0.12700146  0.00486048  1
  O  O31  1  0.66638906  0.37674136  0.86977140  1
  O  O32  1  0.71015636  0.56517903  0.63974296  1
  O  O33  1  0.77509953  0.06912103  0.66083847  1
  O  O34  1  0.75980020  0.98899932  0.31353117  1
  O  O35  1  0.81938818  0.59950237  0.37825175  1
  O  O36  1  0.78868034  0.39648402  0.12677789  1
  O  O37  1  0.87415198  0.86636679  0.81471338  1
  O  O38  1  0.94833311  0.81170435  0.55775891  1
  O  O39  1  0.06080706  0.25607930  0.94300095  1
