# generated using pymatgen
data_Li4Nb3V3Cr2O16
_symmetry_space_group_name_H-M   'P 1'
_cell_length_a   6.03979449
_cell_length_b   6.03676043
_cell_length_c   9.80421290
_cell_angle_alpha   89.99929659
_cell_angle_beta   89.27687463
_cell_angle_gamma   119.98245695
_symmetry_Int_Tables_number   1
_chemical_formula_structural   Li4Nb3V3Cr2O16
_chemical_formula_sum   'Li4 Nb3 V3 Cr2 O16'
_cell_volume   309.59936671
_cell_formula_units_Z   1
loop_
 _symmetry_equiv_pos_site_id
 _symmetry_equiv_pos_as_xyz
  1  'x, y, z'
loop_
 _atom_site_type_symbol
 _atom_site_label
 _atom_site_symmetry_multiplicity
 _atom_site_fract_x
 _atom_site_fract_y
 _atom_site_fract_z
 _atom_site_occupancy
  Li  Li0  1  0.33314573  0.66658524  0.89785391  1
  Li  Li1  1  0.01594919  0.00798874  0.99368593  1
  Li  Li2  1  0.01743032  0.00873034  0.49530893  1
  Li  Li3  1  0.66886319  0.33443164  0.38686152  1
  Nb  Nb4  1  0.66275691  0.83139455  0.21368539  1
  Nb  Nb5  1  0.82295240  0.64873219  0.71244930  1
  Nb  Nb6  1  0.82293507  0.17422980  0.71245826  1
  V  V7  1  0.17296959  0.83196742  0.21273092  1
  V  V8  1  0.17296644  0.34101834  0.21272350  1
  V  V9  1  0.34643534  0.17322836  0.71184325  1
  Cr  Cr10  1  0.32250645  0.66123917  0.48148389  1
  Cr  Cr11  1  0.66050180  0.33027144  0.98969363  1
  O  O12  1  0.15208883  0.82016163  0.60060288  1
  O  O13  1  0.04147380  0.52074731  0.33712816  1
  O  O14  1  0.34624813  0.67315094  0.10014624  1
  O  O15  1  0.99580817  0.99790519  0.31344159  1
  O  O16  1  0.99565095  0.99783249  0.81037420  1
  O  O17  1  0.15208415  0.33193367  0.60060597  1
  O  O18  1  0.48344566  0.95973023  0.34176026  1
  O  O19  1  0.48343515  0.52370993  0.34175319  1
  O  O20  1  0.32512744  0.16258820  0.10280228  1
  O  O21  1  0.66271902  0.83136881  0.60118560  1
  O  O22  1  0.52729786  0.48806628  0.84707500  1
  O  O23  1  0.52730245  0.03926616  0.84707859  1
  O  O24  1  0.66783425  0.33393485  0.58599733  1
  O  O25  1  0.82880418  0.66867728  0.10320569  1
  O  O26  1  0.96246161  0.48123964  0.85068317  1
  O  O27  1  0.82880292  0.16017216  0.10321843  1
