# generated using pymatgen
data_SrCrO3
_symmetry_space_group_name_H-M   'P 1'
_cell_length_a   5.53153845
_cell_length_b   5.55258142
_cell_length_c   13.68560695
_cell_angle_alpha   89.99368180
_cell_angle_beta   90.01223179
_cell_angle_gamma   119.80797894
_symmetry_Int_Tables_number   1
_chemical_formula_structural   SrCrO3
_chemical_formula_sum   'Sr6 Cr6 O18'
_cell_volume   364.73096689
_cell_formula_units_Z   6
loop_
 _symmetry_equiv_pos_site_id
 _symmetry_equiv_pos_as_xyz
  1  'x, y, z'
loop_
 _atom_site_type_symbol
 _atom_site_label
 _atom_site_symmetry_multiplicity
 _atom_site_fract_x
 _atom_site_fract_y
 _atom_site_fract_z
 _atom_site_occupancy
  Sr  Sr0  1  0.33268613  0.66615143  0.09261183  1
  Sr  Sr1  1  0.00311875  0.99978743  0.24994025  1
  Sr  Sr2  1  0.00433158  0.99951940  0.74995768  1
  Sr  Sr3  1  0.33263962  0.66631637  0.40661466  1
  Sr  Sr4  1  0.66638852  0.33377747  0.59311416  1
  Sr  Sr5  1  0.66651746  0.33343363  0.90663457  1
  Cr  Cr6  1  0.33911613  0.66281056  0.84453623  1
  Cr  Cr7  1  0.00563554  0.00069730  -0.00000467  1
  Cr  Cr8  1  0.00507046  0.00085638  0.50012354  1
  Cr  Cr9  1  0.33869452  0.66282344  0.65525260  1
  Cr  Cr10  1  0.67647271  0.33694610  0.15544205  1
  Cr  Cr11  1  0.67619344  0.33708378  0.34466555  1
  O  O12  1  0.15894737  0.83972262  0.58071712  1
  O  O13  1  0.16004174  0.83935332  0.91967253  1
  O  O14  1  0.03013735  0.51728692  0.75016872  1
  O  O15  1  0.16385014  0.33868474  0.58204196  1
  O  O16  1  0.16504138  0.33851083  0.91809687  1
  O  O17  1  0.48531652  0.97136444  0.75009106  1
  O  O18  1  0.49414439  0.50919013  0.74995706  1
  O  O19  1  0.66721174  0.83879185  0.58103561  1
  O  O20  1  0.66809747  0.83879815  0.91892343  1
  O  O21  1  0.32115077  0.16090873  0.07960700  1
  O  O22  1  0.32018338  0.16119256  0.42035881  1
  O  O23  1  0.51206835  0.48245694  0.24993211  1
  O  O24  1  0.51302729  0.02810150  0.25001915  1
  O  O25  1  0.82732145  0.66164540  0.08210281  1
  O  O26  1  0.82601430  0.66129953  0.41795363  1
  O  O27  1  0.98383225  0.49009206  0.25018234  1
  O  O28  1  0.82782217  0.16136379  0.41898978  1
  O  O29  1  0.82915609  0.16146118  0.08126357  1
