# generated using pymatgen
data_LiMnPO4
_symmetry_space_group_name_H-M   'P 1'
_cell_length_a   8.49363744
_cell_length_b   7.72862246
_cell_length_c   15.03949247
_cell_angle_alpha   90.00000000
_cell_angle_beta   89.37337625
_cell_angle_gamma   90.00000000
_symmetry_Int_Tables_number   1
_chemical_formula_structural   LiMnPO4
_chemical_formula_sum   'Li12 Mn12 P12 O48'
_cell_volume   987.19516247
_cell_formula_units_Z   12
loop_
 _symmetry_equiv_pos_site_id
 _symmetry_equiv_pos_as_xyz
  1  'x, y, z'
loop_
 _atom_site_type_symbol
 _atom_site_label
 _atom_site_symmetry_multiplicity
 _atom_site_fract_x
 _atom_site_fract_y
 _atom_site_fract_z
 _atom_site_occupancy
  Li  Li0  1  0.05660623  0.73016294  0.09359483  1
  Li  Li1  1  0.08737053  0.77584523  0.73232454  1
  Li  Li2  1  0.11298422  0.72313574  0.42247635  1
  Li  Li3  1  0.38701578  0.22313574  0.07752365  1
  Li  Li4  1  0.41262947  0.27584523  0.76767546  1
  Li  Li5  1  0.44339377  0.23016294  0.40640517  1
  Li  Li6  1  0.55660623  0.76983706  0.59359483  1
  Li  Li7  1  0.58737053  0.72415477  0.23232454  1
  Li  Li8  1  0.61298422  0.77686426  0.92247635  1
  Li  Li9  1  0.88701578  0.27686426  0.57752365  1
  Li  Li10  1  0.91262947  0.22415477  0.26767546  1
  Li  Li11  1  0.94339377  0.26983706  0.90640517  1
  Mn  Mn12  1  0.23168836  0.02597922  0.56667262  1
  Mn  Mn13  1  0.24134228  0.97571731  0.90851685  1
  Mn  Mn14  1  0.23808024  0.06896613  0.25200753  1
  Mn  Mn15  1  0.26191976  0.56896613  0.24799247  1
  Mn  Mn16  1  0.25865772  0.47571731  0.59148315  1
  Mn  Mn17  1  0.26831164  0.52597922  0.93332738  1
  Mn  Mn18  1  0.73168836  0.47402078  0.06667262  1
  Mn  Mn19  1  0.74134228  0.52428269  0.40851685  1
  Mn  Mn20  1  0.73808024  0.43103387  0.75200753  1
  Mn  Mn21  1  0.76191976  0.93103387  0.74799247  1
  Mn  Mn22  1  0.75865772  0.02428269  0.09148315  1
  Mn  Mn23  1  0.76831164  0.97402078  0.43332738  1
  P  P24  1  0.05294985  0.32198177  0.09080939  1
  P  P25  1  0.08025887  0.17945646  0.73103808  1
  P  P26  1  0.10182711  0.32257082  0.42431022  1
  P  P27  1  0.39817289  0.82257082  0.07568978  1
  P  P28  1  0.41974113  0.67945646  0.76896192  1
  P  P29  1  0.44705015  0.82198177  0.40919061  1
  P  P30  1  0.55294985  0.17801823  0.59080939  1
  P  P31  1  0.58025887  0.32054354  0.23103808  1
  P  P32  1  0.60182711  0.17742918  0.92431022  1
  P  P33  1  0.89817289  0.67742918  0.57568978  1
  P  P34  1  0.91974113  0.82054354  0.26896192  1
  P  P35  1  0.94705015  0.67801823  0.90919061  1
  O  O36  1  0.02935786  0.50421366  0.88537661  1
  O  O37  1  0.05358275  0.64004967  0.62465948  1
  O  O38  1  0.06477713  0.78694812  0.96507360  1
  O  O39  1  0.07516255  0.72376451  0.29050488  1
  O  O40  1  0.07293829  0.20644099  0.50799279  1
  O  O41  1  0.07354265  0.00505729  0.67843964  1
  O  O42  1  0.09212544  0.14183615  0.83192957  1
  O  O43  1  0.09115535  0.22804935  0.17962629  1
  O  O44  1  0.18123276  0.49320362  0.45499174  1
  O  O45  1  0.20857318  0.35657590  0.03849009  1
  O  O46  1  0.22240059  0.23103964  0.36073433  1
  O  O47  1  0.22402356  0.28371380  0.69566913  1
  O  O48  1  0.27759941  0.73103964  0.13926567  1
  O  O49  1  0.27597644  0.78371380  0.80433087  1
  O  O50  1  0.29142682  0.85657590  0.46150991  1
  O  O51  1  0.31876724  0.99320362  0.04500826  1
  O  O52  1  0.40884465  0.72804935  0.32037371  1
  O  O53  1  0.40787456  0.64183615  0.66807043  1
  O  O54  1  0.42645735  0.50505729  0.82156036  1
  O  O55  1  0.42483745  0.22376451  0.20949512  1
  O  O56  1  0.42706171  0.70644099  0.99200721  1
  O  O57  1  0.43522287  0.28694812  0.53492640  1
  O  O58  1  0.44641725  0.14004967  0.87534052  1
  O  O59  1  0.47064214  0.00421366  0.61462339  1
  O  O60  1  0.52935786  0.99578634  0.38537661  1
  O  O61  1  0.55358275  0.85995033  0.12465948  1
  O  O62  1  0.56477713  0.71305188  0.46507360  1
  O  O63  1  0.57293829  0.29355901  0.00799279  1
  O  O64  1  0.57516255  0.77623549  0.79050488  1
  O  O65  1  0.57354265  0.49494271  0.17843964  1
  O  O66  1  0.59212544  0.35816385  0.33192957  1
  O  O67  1  0.59115535  0.27195065  0.67962629  1
  O  O68  1  0.68123276  0.00679638  0.95499174  1
  O  O69  1  0.70857318  0.14342410  0.53849009  1
  O  O70  1  0.72402356  0.21628620  0.19566913  1
  O  O71  1  0.72240059  0.26896036  0.86073433  1
  O  O72  1  0.77597644  0.71628620  0.30433087  1
  O  O73  1  0.77759941  0.76896036  0.63926567  1
  O  O74  1  0.79142682  0.64342410  0.96150991  1
  O  O75  1  0.81876724  0.50679638  0.54500826  1
  O  O76  1  0.90884465  0.77195065  0.82037371  1
  O  O77  1  0.90787456  0.85816385  0.16807043  1
  O  O78  1  0.92645735  0.99494271  0.32156036  1
  O  O79  1  0.92706171  0.79355901  0.49200721  1
  O  O80  1  0.92483745  0.27623549  0.70949512  1
  O  O81  1  0.93522287  0.21305188  0.03492640  1
  O  O82  1  0.94641725  0.35995033  0.37534052  1
  O  O83  1  0.97064214  0.49578634  0.11462339  1
