# generated using pymatgen
data_V5CoO12
_symmetry_space_group_name_H-M   'P 1'
_cell_length_a   6.79555306
_cell_length_b   6.79555269
_cell_length_c   5.85730795
_cell_angle_alpha   75.18204994
_cell_angle_beta   104.81795114
_cell_angle_gamma   95.60531059
_symmetry_Int_Tables_number   1
_chemical_formula_structural   V5CoO12
_chemical_formula_sum   'V5 Co1 O12'
_cell_volume   252.64516830
_cell_formula_units_Z   1
loop_
 _symmetry_equiv_pos_site_id
 _symmetry_equiv_pos_as_xyz
  1  'x, y, z'
loop_
 _atom_site_type_symbol
 _atom_site_label
 _atom_site_symmetry_multiplicity
 _atom_site_fract_x
 _atom_site_fract_y
 _atom_site_fract_z
 _atom_site_occupancy
  V  V0  1  0.20487610  0.61093638  0.75808107  1
  V  V1  1  0.39105791  0.79456093  0.26304580  1
  V  V2  1  0.61093638  0.20487610  0.74191893  1
  V  V3  1  0.79456093  0.39105791  0.23695420  1
  V  V4  1  0.91682762  0.91682762  0.25000000  1
  Co  Co5  1  0.08773000  0.08773000  0.75000000  1
  O  O6  1  0.03587881  0.80893238  0.63205360  1
  O  O7  1  0.08835387  0.37851665  0.77787765  1
  O  O8  1  0.18964288  0.96405392  0.14974504  1
  O  O9  1  0.37142260  0.64050924  0.55987803  1
  O  O10  1  0.37851665  0.08835387  0.72212235  1
  O  O11  1  0.34771350  0.63271311  0.05172854  1
  O  O12  1  0.64050924  0.37142260  0.94012197  1
  O  O13  1  0.63247526  0.90379884  0.28452849  1
  O  O14  1  0.63271311  0.34771350  0.44827146  1
  O  O15  1  0.80893238  0.03587881  0.86794640  1
  O  O16  1  0.90379884  0.63247526  0.21547151  1
  O  O17  1  0.96405392  0.18964288  0.35025496  1
