# generated using pymatgen
data_LiNiPO4
_symmetry_space_group_name_H-M   'P 1'
_cell_length_a   8.37761104
_cell_length_b   8.37785388
_cell_length_c   7.48371106
_cell_angle_alpha   89.99839606
_cell_angle_beta   90.00211334
_cell_angle_gamma   120.00150443
_symmetry_Int_Tables_number   1
_chemical_formula_structural   LiNiPO4
_chemical_formula_sum   'Li6 Ni6 P6 O24'
_cell_volume   454.87705810
_cell_formula_units_Z   6
loop_
 _symmetry_equiv_pos_site_id
 _symmetry_equiv_pos_as_xyz
  1  'x, y, z'
loop_
 _atom_site_type_symbol
 _atom_site_label
 _atom_site_symmetry_multiplicity
 _atom_site_fract_x
 _atom_site_fract_y
 _atom_site_fract_z
 _atom_site_occupancy
  Li  Li0  1  0.01430135  0.68242880  0.40187849  1
  Li  Li1  1  0.31754559  0.33185614  0.40188691  1
  Li  Li2  1  0.66814111  0.98573353  0.40185853  1
  Li  Li3  1  0.33191465  0.01419097  0.90156796  1
  Li  Li4  1  0.68227712  0.66807602  0.90158491  1
  Li  Li5  1  0.98578448  0.31772570  0.90156171  1
  Ni  Ni6  1  0.33334592  0.66664873  0.30115690  1
  Ni  Ni7  1  0.33333651  0.66667375  0.69834721  1
  Ni  Ni8  1  0.00000148  0.99998786  0.13303763  1
  Ni  Ni9  1  0.00000642  0.00000430  0.63330205  1
  Ni  Ni10  1  0.66663750  0.33333890  0.80161706  1
  Ni  Ni11  1  0.66666621  0.33334646  0.19860506  1
  P  P12  1  0.03840856  0.67475519  0.00517758  1
  P  P13  1  0.32520538  0.36361270  0.00516499  1
  P  P14  1  0.63639172  0.96160766  0.00515678  1
  P  P15  1  0.36379853  0.03849173  0.50515468  1
  P  P16  1  0.67468119  0.63620426  0.50514233  1
  P  P17  1  0.96148913  0.32533166  0.50519633  1
  O  O18  1  0.14843672  0.92871339  0.50146171  1
  O  O19  1  0.14726838  0.72211892  0.18157898  1
  O  O20  1  0.17345746  0.74074108  0.84673479  1
  O  O21  1  0.11194811  0.53340772  0.49736071  1
  O  O22  1  0.42142974  0.88804794  0.49729688  1
  O  O23  1  0.07128113  0.21977112  0.50155343  1
  O  O24  1  0.25925181  0.43269428  0.84670746  1
  O  O25  1  0.27776636  0.42504204  0.18155853  1
  O  O26  1  0.21975417  0.14834669  0.00108849  1
  O  O27  1  0.57493391  0.85273532  0.18155291  1
  O  O28  1  0.56733718  0.82656856  0.84670359  1
  O  O29  1  0.46659921  0.57858368  0.49725676  1
  O  O30  1  0.53346884  0.42140285  0.99727027  1
  O  O31  1  0.43259006  0.17343565  0.34672553  1
  O  O32  1  0.42535463  0.14760809  0.68161385  1
  O  O33  1  0.78025879  0.85155813  0.50148013  1
  O  O34  1  0.72219822  0.57461632  0.68160839  1
  O  O35  1  0.74084115  0.56742462  0.34671968  1
  O  O36  1  0.92861625  0.78022596  0.00112987  1
  O  O37  1  0.57859947  0.11207019  0.99724030  1
  O  O38  1  0.88790593  0.46650833  0.99724524  1
  O  O39  1  0.82658738  0.25919373  0.34672602  1
  O  O40  1  0.85232023  0.27774920  0.68162120  1
  O  O41  1  0.85166501  0.07142285  0.00110819  1
