# generated using pymatgen
data_Li2CuF5
_symmetry_space_group_name_H-M   'P 1'
_cell_length_a   8.62508274
_cell_length_b   7.31676549
_cell_length_c   11.67400179
_cell_angle_alpha   51.21818566
_cell_angle_beta   137.60688137
_cell_angle_gamma   90.00227401
_symmetry_Int_Tables_number   1
_chemical_formula_structural   Li2CuF5
_chemical_formula_sum   'Li4 Cu2 F10'
_cell_volume   183.85315488
_cell_formula_units_Z   2
loop_
 _symmetry_equiv_pos_site_id
 _symmetry_equiv_pos_as_xyz
  1  'x, y, z'
loop_
 _atom_site_type_symbol
 _atom_site_label
 _atom_site_symmetry_multiplicity
 _atom_site_fract_x
 _atom_site_fract_y
 _atom_site_fract_z
 _atom_site_occupancy
  Li  Li0  1  0.64389143  0.06332445  0.50193664  1
  Li  Li1  1  0.85883145  0.56102023  0.50209534  1
  Li  Li2  1  0.14387312  0.43611358  0.50190502  1
  Li  Li3  1  0.35878901  0.93810304  0.50207043  1
  Cu  Cu4  1  0.00601064  0.99462757  0.00628848  1
  Cu  Cu5  1  0.50621373  0.49407301  0.00631144  1
  F  F6  1  0.00040596  0.50064099  0.00067082  1
  F  F7  1  0.56283254  0.33229855  0.50477882  1
  F  F8  1  0.20946959  0.08958128  0.00546708  1
  F  F9  1  0.30006274  0.58807091  0.00498948  1
  F  F10  1  0.94813385  0.83067937  0.50662726  1
  F  F11  1  0.50009331  0.99924700  0.00067894  1
  F  F12  1  0.06387883  0.15869600  0.50567382  1
  F  F13  1  0.70919507  0.40003904  0.00531461  1
  F  F14  1  0.80004117  0.90250595  0.00482187  1
  F  F15  1  0.44886457  0.65662903  0.50748795  1
