# generated using pymatgen
data_Li3V5O10
_symmetry_space_group_name_H-M   'P 1'
_cell_length_a   5.20105302
_cell_length_b   5.11906879
_cell_length_c   8.05940185
_cell_angle_alpha   111.35355170
_cell_angle_beta   98.89830250
_cell_angle_gamma   100.74331205
_symmetry_Int_Tables_number   1
_chemical_formula_structural   Li3V5O10
_chemical_formula_sum   'Li3 V5 O10'
_cell_volume   190.44832677
_cell_formula_units_Z   1
loop_
 _symmetry_equiv_pos_site_id
 _symmetry_equiv_pos_as_xyz
  1  'x, y, z'
loop_
 _atom_site_type_symbol
 _atom_site_label
 _atom_site_symmetry_multiplicity
 _atom_site_fract_x
 _atom_site_fract_y
 _atom_site_fract_z
 _atom_site_occupancy
  Li  Li0  1  0.21269970  0.91425543  0.40588293  1
  Li  Li1  1  0.50000000  0.50000000  0.50000000  1
  Li  Li2  1  0.78730030  0.08574457  0.59411707  1
  V  V3  1  0.11642710  0.71056582  0.68868057  1
  V  V4  1  0.00000000  0.50000000  0.00000000  1
  V  V5  1  0.68642160  0.87058972  0.89713954  1
  V  V6  1  0.31357840  0.12941028  0.10286046  1
  V  V7  1  0.88357290  0.28943418  0.31131943  1
  O  O8  1  0.03698092  0.09155303  0.86061015  1
  O  O9  1  0.11812608  0.31103544  0.52429945  1
  O  O10  1  0.32415855  0.72794532  0.93769984  1
  O  O11  1  0.19314961  0.47824881  0.23304229  1
  O  O12  1  0.44426554  0.86766096  0.66556256  1
  O  O13  1  0.55573446  0.13233904  0.33443744  1
  O  O14  1  0.80685039  0.52175119  0.76695771  1
  O  O15  1  0.67584145  0.27205468  0.06230016  1
  O  O16  1  0.88187392  0.68896456  0.47570055  1
  O  O17  1  0.96301908  0.90844697  0.13938985  1
