# generated using pymatgen
data_LiCoPO4
_symmetry_space_group_name_H-M   'P 1'
_cell_length_a   9.89762170
_cell_length_b   9.89762120
_cell_length_c   23.91032325
_cell_angle_alpha   90.00000000
_cell_angle_beta   90.00000000
_cell_angle_gamma   119.99999790
_symmetry_Int_Tables_number   1
_chemical_formula_structural   LiCoPO4
_chemical_formula_sum   'Li24 Co24 P24 O96'
_cell_volume   2028.51287045
_cell_formula_units_Z   24
loop_
 _symmetry_equiv_pos_site_id
 _symmetry_equiv_pos_as_xyz
  1  'x, y, z'
loop_
 _atom_site_type_symbol
 _atom_site_label
 _atom_site_symmetry_multiplicity
 _atom_site_fract_x
 _atom_site_fract_y
 _atom_site_fract_z
 _atom_site_occupancy
  Li  Li0  1  0.02311101  0.97606743  0.69531731  1
  Li  Li1  1  0.03412747  0.58775416  0.03373862  1
  Li  Li2  1  0.05191792  0.45951545  0.19339750  1
  Li  Li3  1  0.03956881  0.47764407  0.84966266  1
  Li  Li4  1  0.40759753  0.94808208  0.86006450  1
  Li  Li5  1  0.43807526  0.96043119  0.51632866  1
  Li  Li6  1  0.02393257  0.04704359  0.02865031  1
  Li  Li7  1  0.04704359  0.02311101  0.86198331  1
  Li  Li8  1  0.55362770  0.96587253  0.70040562  1
  Li  Li9  1  0.41224584  0.44637230  0.36707262  1
  Li  Li10  1  0.52235493  0.56192474  0.18299566  1
  Li  Li11  1  0.54048455  0.59240247  0.52673050  1
  Li  Li12  1  0.45951545  0.40759753  0.02673050  1
  Li  Li13  1  0.47764407  0.43807526  0.68299566  1
  Li  Li14  1  0.58775416  0.55362770  0.86707262  1
  Li  Li15  1  0.44637230  0.03412747  0.20040562  1
  Li  Li16  1  0.95295641  0.97688899  0.36198331  1
  Li  Li17  1  0.97606743  0.95295641  0.52865031  1
  Li  Li18  1  0.56192474  0.03956881  0.01632866  1
  Li  Li19  1  0.59240247  0.05191792  0.36006450  1
  Li  Li20  1  0.96043119  0.52235493  0.34966266  1
  Li  Li21  1  0.94808208  0.54048455  0.69339750  1
  Li  Li22  1  0.96587253  0.41224584  0.53373862  1
  Li  Li23  1  0.97688899  0.02393257  0.19531731  1
  Co  Co24  1  0.10124065  0.81996686  0.26989248  1
  Co  Co25  1  0.08565871  0.76486333  0.91982396  1
  Co  Co26  1  0.12470425  0.75463141  0.59346748  1
  Co  Co27  1  0.31058952  0.66767729  0.75665252  1
  Co  Co28  1  0.33232271  0.64291223  0.08998552  1
  Co  Co29  1  0.35708777  0.68941048  0.42331952  1
  Co  Co30  1  0.18003314  0.28127378  0.60322648  1
  Co  Co31  1  0.24536859  0.37007284  0.92680048  1
  Co  Co32  1  0.23513667  0.32079638  0.25315796  1
  Co  Co33  1  0.62992716  0.87529575  0.26013448  1
  Co  Co34  1  0.67920362  0.91434129  0.58649096  1
  Co  Co35  1  0.28127378  0.10124065  0.43655948  1
  Co  Co36  1  0.71872622  0.89875935  0.93655948  1
  Co  Co37  1  0.32079638  0.08565871  0.08649096  1
  Co  Co38  1  0.37007284  0.12470425  0.76013448  1
  Co  Co39  1  0.76486333  0.67920362  0.75315796  1
  Co  Co40  1  0.75463141  0.62992716  0.42680048  1
  Co  Co41  1  0.81996686  0.71872622  0.10322648  1
  Co  Co42  1  0.64291223  0.31058952  0.92331952  1
  Co  Co43  1  0.66767729  0.35708777  0.58998552  1
  Co  Co44  1  0.68941048  0.33232271  0.25665252  1
  Co  Co45  1  0.87529575  0.24536859  0.09346748  1
  Co  Co46  1  0.91434129  0.23513667  0.41982396  1
  Co  Co47  1  0.89875935  0.18003314  0.76989248  1
  P  P48  1  0.09271537  0.78996020  0.79054295  1
  P  P49  1  0.08211963  0.75545398  0.46653293  1
  P  P50  1  0.13215074  0.77182327  0.13976334  1
  P  P51  1  0.28577716  0.64731467  0.29579663  1
  P  P52  1  0.36153751  0.71422284  0.96246363  1
  P  P53  1  0.35268533  0.63846249  0.62913063  1
  P  P54  1  0.22817673  0.36032747  0.47309634  1
  P  P55  1  0.21003980  0.30275417  0.12387595  1
  P  P56  1  0.24454602  0.32666665  0.79986593  1
  P  P57  1  0.63967253  0.86784926  0.80643034  1
  P  P58  1  0.67333335  0.91788037  0.13319893  1
  P  P59  1  0.69724583  0.90728463  0.45720995  1
  P  P60  1  0.30275417  0.09271537  0.95720995  1
  P  P61  1  0.32666665  0.08211963  0.63319893  1
  P  P62  1  0.36032747  0.13215074  0.30643034  1
  P  P63  1  0.75545398  0.67333335  0.29986593  1
  P  P64  1  0.78996020  0.69724583  0.62387595  1
  P  P65  1  0.77182327  0.63967253  0.97309634  1
  P  P66  1  0.64731467  0.36153751  0.12913063  1
  P  P67  1  0.63846249  0.28577716  0.46246363  1
  P  P68  1  0.71422284  0.35268533  0.79579663  1
  P  P69  1  0.86784926  0.22817673  0.63976334  1
  P  P70  1  0.91788037  0.24454602  0.96653293  1
  P  P71  1  0.90728463  0.21003980  0.29054295  1
  O  O72  1  0.03745313  0.76599155  0.08685919  1
  O  O73  1  0.09212045  0.91801621  0.47132261  1
  O  O74  1  0.01565419  0.68805310  0.84300157  1
  O  O75  1  0.13956431  0.98449474  0.93000495  1
  O  O76  1  0.03461578  0.76259888  0.19135558  1
  O  O77  1  0.01544967  0.66460049  0.52187462  1
  O  O78  1  0.24187598  0.94182766  0.80956479  1
  O  O79  1  0.13785161  0.66127881  0.30510978  1
  O  O80  1  0.12264366  0.69052568  0.74775167  1
  O  O81  1  0.30977569  0.96983470  0.58451963  1
  O  O82  1  0.29555745  0.92404640  0.13917804  1
  O  O83  1  0.16171102  0.63145968  0.13803860  1
  O  O84  1  0.25179218  0.78976244  0.45718781  1
  O  O85  1  0.18700166  0.60492037  0.61358740  1
  O  O86  1  0.07595360  0.37151105  0.47251104  1
  O  O87  1  0.27264637  0.74234630  0.91420199  1
  O  O88  1  0.03016530  0.33994099  0.91785363  1
  O  O89  1  0.05817234  0.30004831  0.14289779  1
  O  O90  1  0.01550526  0.15507057  0.26333795  1
  O  O91  1  0.08198379  0.17410323  0.80465561  1
  O  O92  1  0.26306119  0.67702997  0.01680139  1
  O  O93  1  0.25765370  0.53030108  0.24753499  1
  O  O94  1  0.32297003  0.58603122  0.35013439  1
  O  O95  1  0.21023756  0.46202975  0.79052081  1
  O  O96  1  0.41396878  0.73693881  0.68346839  1
  O  O97  1  0.41791871  0.81299834  0.28025340  1
  O  O98  1  0.46974865  0.83828898  0.80470460  1
  O  O99  1  0.30947432  0.43211697  0.08108467  1
  O  O100  1  0.33872119  0.47657280  0.63844278  1
  O  O101  1  0.36854032  0.53025135  0.47137160  1
  O  O102  1  0.23740112  0.27201690  0.52468958  1
  O  O103  1  0.39507963  0.58208129  0.94692040  1
  O  O104  1  0.46969892  0.72735363  0.58086799  1
  O  O105  1  0.52342720  0.86214839  0.97177578  1
  O  O106  1  0.56788303  0.87735634  0.41441767  1
  O  O107  1  0.15507057  0.13956431  0.09667095  1
  O  O108  1  0.23400845  0.27146158  0.42019319  1
  O  O109  1  0.31194690  0.32760110  0.17633557  1
  O  O110  1  0.17410323  0.09212045  0.63798861  1
  O  O111  1  0.33539951  0.35085018  0.85520762  1
  O  O112  1  0.53797025  0.74820782  0.12385481  1
  O  O113  1  0.30004831  0.24187598  0.97623079  1
  O  O114  1  0.64914982  0.98455033  0.18854062  1
  O  O115  1  0.33994099  0.30977569  0.75118663  1
  O  O116  1  0.37151105  0.29555745  0.30584504  1
  O  O117  1  0.67239890  0.98434581  0.50966857  1
  O  O118  1  0.72798310  0.96538422  0.85802258  1
  O  O119  1  0.27146158  0.03745313  0.25352619  1
  O  O120  1  0.72853842  0.96254687  0.75352619  1
  O  O121  1  0.27201690  0.03461578  0.35802258  1
  O  O122  1  0.32760110  0.01565419  0.00966857  1
  O  O123  1  0.62848895  0.70444255  0.80584504  1
  O  O124  1  0.66005901  0.69022431  0.25118663  1
  O  O125  1  0.35085018  0.01544967  0.68854062  1
  O  O126  1  0.69995169  0.75812402  0.47623079  1
  O  O127  1  0.46202975  0.25179218  0.62385481  1
  O  O128  1  0.66460049  0.64914982  0.35520762  1
  O  O129  1  0.82589677  0.90787955  0.13798861  1
  O  O130  1  0.68805310  0.67239890  0.67633557  1
  O  O131  1  0.76599155  0.72853842  0.92019319  1
  O  O132  1  0.84492943  0.86043569  0.59667095  1
  O  O133  1  0.43211697  0.12264366  0.91441767  1
  O  O134  1  0.47657280  0.13785161  0.47177578  1
  O  O135  1  0.53030108  0.27264637  0.08086799  1
  O  O136  1  0.60492037  0.41791871  0.44692040  1
  O  O137  1  0.76259888  0.72798310  0.02468958  1
  O  O138  1  0.63145968  0.46974865  0.97137160  1
  O  O139  1  0.66127881  0.52342720  0.13844278  1
  O  O140  1  0.69052568  0.56788303  0.58108467  1
  O  O141  1  0.53025135  0.16171102  0.30470460  1
  O  O142  1  0.58208129  0.18700166  0.78025340  1
  O  O143  1  0.58603122  0.26306119  0.18346839  1
  O  O144  1  0.78976244  0.53797025  0.29052081  1
  O  O145  1  0.67702997  0.41396878  0.85013439  1
  O  O146  1  0.74234630  0.46969892  0.74753499  1
  O  O147  1  0.73693881  0.32297003  0.51680139  1
  O  O148  1  0.91801621  0.82589677  0.30465561  1
  O  O149  1  0.98449474  0.84492943  0.76333795  1
  O  O150  1  0.94182766  0.69995169  0.64289779  1
  O  O151  1  0.96983470  0.66005901  0.41785363  1
  O  O152  1  0.72735363  0.25765370  0.41420199  1
  O  O153  1  0.92404640  0.62848895  0.97251104  1
  O  O154  1  0.81299834  0.39507963  0.11358740  1
  O  O155  1  0.74820782  0.21023756  0.95718781  1
  O  O156  1  0.83828898  0.36854032  0.63803860  1
  O  O157  1  0.70444255  0.07595360  0.63917804  1
  O  O158  1  0.69022431  0.03016530  0.08451963  1
  O  O159  1  0.87735634  0.30947432  0.24775167  1
  O  O160  1  0.86214839  0.33872119  0.80510978  1
  O  O161  1  0.75812402  0.05817234  0.30956479  1
  O  O162  1  0.98455033  0.33539951  0.02187462  1
  O  O163  1  0.96538422  0.23740112  0.69135558  1
  O  O164  1  0.86043569  0.01550526  0.43000495  1
  O  O165  1  0.98434581  0.31194690  0.34300157  1
  O  O166  1  0.90787955  0.08198379  0.97132261  1
  O  O167  1  0.96254687  0.23400845  0.58685919  1
