# generated using pymatgen
data_Li5Co2Cu3O10
_symmetry_space_group_name_H-M   'P 1'
_cell_length_a   4.99223484
_cell_length_b   5.30205138
_cell_length_c   7.52896919
_cell_angle_alpha   104.63758333
_cell_angle_beta   102.99192612
_cell_angle_gamma   104.49852706
_symmetry_Int_Tables_number   1
_chemical_formula_structural   Li5Co2Cu3O10
_chemical_formula_sum   'Li5 Co2 Cu3 O10'
_cell_volume   177.62936919
_cell_formula_units_Z   1
loop_
 _symmetry_equiv_pos_site_id
 _symmetry_equiv_pos_as_xyz
  1  'x, y, z'
loop_
 _atom_site_type_symbol
 _atom_site_label
 _atom_site_symmetry_multiplicity
 _atom_site_fract_x
 _atom_site_fract_y
 _atom_site_fract_z
 _atom_site_occupancy
  Li  Li0  1  0.20646346  0.89610927  0.39732128  1
  Li  Li1  1  0.39577984  0.28669740  0.78947377  1
  Li  Li2  1  0.50000000  0.50000000  0.50000000  1
  Li  Li3  1  0.60422016  0.71330260  0.21052623  1
  Li  Li4  1  0.79353654  0.10389073  0.60267872  1
  Co  Co5  1  0.10259484  0.67263150  0.69204765  1
  Co  Co6  1  0.89740516  0.32736850  0.30795235  1
  Cu  Cu7  1  0.00000000  0.50000000  0.00000000  1
  Cu  Cu8  1  0.69564408  0.89061156  0.89972379  1
  Cu  Cu9  1  0.30435592  0.10938844  0.10027621  1
  O  O10  1  0.05817367  0.01991500  0.83591954  1
  O  O11  1  0.34436206  0.66893233  0.92912020  1
  O  O12  1  0.13154971  0.33691786  0.54878661  1
  O  O13  1  0.21013137  0.51907688  0.24684500  1
  O  O14  1  0.44235529  0.87885260  0.66447117  1
  O  O15  1  0.55764471  0.12114740  0.33552883  1
  O  O16  1  0.78986863  0.48092312  0.75315500  1
  O  O17  1  0.86845029  0.66308214  0.45121339  1
  O  O18  1  0.65563794  0.33106767  0.07087980  1
  O  O19  1  0.94182633  0.98008500  0.16408046  1
