# generated using pymatgen
data_Li4VCr(WO6)2
_symmetry_space_group_name_H-M   'P 1'
_cell_length_a   5.42201789
_cell_length_b   10.80307478
_cell_length_c   9.49232363
_cell_angle_alpha   28.60718381
_cell_angle_beta   51.46721489
_cell_angle_gamma   56.87875854
_symmetry_Int_Tables_number   1
_chemical_formula_structural   Li4VCr(WO6)2
_chemical_formula_sum   'Li4 V1 Cr1 W2 O12'
_cell_volume   208.24901639
_cell_formula_units_Z   1
loop_
 _symmetry_equiv_pos_site_id
 _symmetry_equiv_pos_as_xyz
  1  'x, y, z'
loop_
 _atom_site_type_symbol
 _atom_site_label
 _atom_site_symmetry_multiplicity
 _atom_site_fract_x
 _atom_site_fract_y
 _atom_site_fract_z
 _atom_site_occupancy
  Li  Li0  1  0.26923765  0.00080280  0.25066370  1
  Li  Li1  1  0.26662485  0.49542391  0.30091084  1
  Li  Li2  1  0.77332747  0.99535180  0.79891916  1
  Li  Li3  1  0.74481280  0.50636398  0.72022087  1
  V  V4  1  0.97373670  0.50005105  0.98725420  1
  Cr  Cr5  1  0.00916793  0.00020114  0.00433276  1
  W  W6  1  0.46917842  0.01017323  0.49281279  1
  W  W7  1  0.52297522  0.49258975  0.49345194  1
  O  O8  1  0.36995408  0.30979311  0.12914325  1
  O  O9  1  0.25882848  0.10923087  0.63700428  1
  O  O10  1  0.14759697  0.31812980  0.73758562  1
  O  O11  1  0.87351067  0.20182799  0.23976133  1
  O  O12  1  0.37258545  0.79662262  0.14938986  1
  O  O13  1  0.75930229  0.38167986  0.36220688  1
  O  O14  1  0.24459725  0.61386107  0.64739301  1
  O  O15  1  0.63988515  0.19621576  0.85910773  1
  O  O16  1  0.13002070  0.80967955  0.75144091  1
  O  O17  1  0.85620142  0.69225077  0.25829965  1
  O  O18  1  0.74823952  0.88638789  0.37552856  1
  O  O19  1  0.64141598  0.68336405  0.87577266  1
