# generated using pymatgen
data_Mn2Co(PO4)3
_symmetry_space_group_name_H-M   'P 1'
_cell_length_a   8.50503623
_cell_length_b   8.62191896
_cell_length_c   8.62191841
_cell_angle_alpha   59.99999611
_cell_angle_beta   59.54434312
_cell_angle_gamma   59.54434584
_symmetry_Int_Tables_number   1
_chemical_formula_structural   Mn2Co(PO4)3
_chemical_formula_sum   'Mn4 Co2 P6 O24'
_cell_volume   443.95947345
_cell_formula_units_Z   2
loop_
 _symmetry_equiv_pos_site_id
 _symmetry_equiv_pos_as_xyz
  1  'x, y, z'
loop_
 _atom_site_type_symbol
 _atom_site_label
 _atom_site_symmetry_multiplicity
 _atom_site_fract_x
 _atom_site_fract_y
 _atom_site_fract_z
 _atom_site_occupancy
  Mn  Mn0  1  0.07262283  0.64245906  0.64245906  1
  Mn  Mn1  1  0.57262283  0.14245906  0.14245906  1
  Mn  Mn2  1  0.42737717  0.85754094  0.85754094  1
  Mn  Mn3  1  0.92737717  0.35754094  0.35754094  1
  Co  Co4  1  0.00000000  0.00000000  0.00000000  1
  Co  Co5  1  0.50000000  0.50000000  0.50000000  1
  P  P6  1  0.25000000  0.25000000  0.54234305  1
  P  P7  1  0.25000000  0.95765695  0.25000000  1
  P  P8  1  0.25000000  0.54234305  0.95765695  1
  P  P9  1  0.75000000  0.45765695  0.04234305  1
  P  P10  1  0.75000000  0.04234305  0.75000000  1
  P  P11  1  0.75000000  0.75000000  0.45765695  1
  O  O12  1  0.06325987  0.11568294  0.31020128  1
  O  O13  1  0.06325987  0.51085491  0.11568294  1
  O  O14  1  0.06325987  0.31020128  0.51085491  1
  O  O15  1  0.22597757  0.08913466  0.74171275  1
  O  O16  1  0.43674013  0.18979872  0.38431706  1
  O  O17  1  0.27402243  0.41086534  0.55682498  1
  O  O18  1  0.22597757  0.94317502  0.08913466  1
  O  O19  1  0.27402243  0.75828725  0.41086534  1
  O  O20  1  0.56325987  0.61568294  0.01085491  1
  O  O21  1  0.27402243  0.55682498  0.75828725  1
  O  O22  1  0.77402243  0.25828725  0.05682498  1
  O  O23  1  0.56325987  0.01085491  0.81020128  1
  O  O24  1  0.43674013  0.98914509  0.18979872  1
  O  O25  1  0.22597757  0.74171275  0.94317502  1
  O  O26  1  0.72597757  0.44317502  0.24171275  1
  O  O27  1  0.43674013  0.38431706  0.98914509  1
  O  O28  1  0.72597757  0.24171275  0.58913466  1
  O  O29  1  0.77402243  0.05682498  0.91086534  1
  O  O30  1  0.72597757  0.58913466  0.44317502  1
  O  O31  1  0.56325987  0.81020128  0.61568294  1
  O  O32  1  0.77402243  0.91086534  0.25828725  1
  O  O33  1  0.93674013  0.68979872  0.48914509  1
  O  O34  1  0.93674013  0.48914509  0.88431706  1
  O  O35  1  0.93674013  0.88431706  0.68979872  1
