# generated using pymatgen
data_Li3CoPO5
_symmetry_space_group_name_H-M   'P 1'
_cell_length_a   4.96605257
_cell_length_b   5.43448021
_cell_length_c   15.78318495
_cell_angle_alpha   90.00000000
_cell_angle_beta   90.00000000
_cell_angle_gamma   90.00000000
_symmetry_Int_Tables_number   1
_chemical_formula_structural   Li3CoPO5
_chemical_formula_sum   'Li12 Co4 P4 O20'
_cell_volume   425.95524460
_cell_formula_units_Z   4
loop_
 _symmetry_equiv_pos_site_id
 _symmetry_equiv_pos_as_xyz
  1  'x, y, z'
loop_
 _atom_site_type_symbol
 _atom_site_label
 _atom_site_symmetry_multiplicity
 _atom_site_fract_x
 _atom_site_fract_y
 _atom_site_fract_z
 _atom_site_occupancy
  Li  Li0  1  0.00687371  0.66220461  0.59598241  1
  Li  Li1  1  0.00687371  0.16220461  0.90401759  1
  Li  Li2  1  0.00670915  0.66884184  0.00259803  1
  Li  Li3  1  0.00670915  0.16884184  0.49740197  1
  Li  Li4  1  0.49145938  0.33226485  0.80224305  1
  Li  Li5  1  0.49145938  0.83226485  0.69775695  1
  Li  Li6  1  0.50687371  0.33779539  0.40401759  1
  Li  Li7  1  0.50687371  0.83779539  0.09598241  1
  Li  Li8  1  0.50670915  0.33115816  0.99740197  1
  Li  Li9  1  0.50670915  0.83115816  0.50259803  1
  Li  Li10  1  0.99145938  0.16773515  0.30224305  1
  Li  Li11  1  0.99145938  0.66773515  0.19775695  1
  Co  Co12  1  0.00570900  0.17418025  0.70342271  1
  Co  Co13  1  0.00570900  0.67418025  0.79657729  1
  Co  Co14  1  0.50570900  0.32581975  0.20342271  1
  Co  Co15  1  0.50570900  0.82581975  0.29657729  1
  P  P16  1  0.00028914  0.16643635  0.09828029  1
  P  P17  1  0.00028914  0.66643635  0.40171971  1
  P  P18  1  0.50028914  0.33356365  0.59828029  1
  P  P19  1  0.50028914  0.83356365  0.90171971  1
  O  O20  1  0.10333950  0.33491774  0.80571564  1
  O  O21  1  0.10333950  0.83491774  0.69428436  1
  O  O22  1  0.10773889  0.31018212  0.01993882  1
  O  O23  1  0.10773889  0.81018212  0.48006118  1
  O  O24  1  0.10141854  0.39624851  0.40166867  1
  O  O25  1  0.10141854  0.89624851  0.09833133  1
  O  O26  1  0.09534421  0.29792921  0.18170276  1
  O  O27  1  0.09534421  0.79792921  0.31829724  1
  O  O28  1  0.18491948  0.32794211  0.59616974  1
  O  O29  1  0.18491948  0.82794211  0.90383026  1
  O  O30  1  0.60333950  0.66508226  0.19428436  1
  O  O31  1  0.60333950  0.16508226  0.30571564  1
  O  O32  1  0.60773889  0.18981788  0.51993882  1
  O  O33  1  0.60773889  0.68981788  0.98006118  1
  O  O34  1  0.60141854  0.10375149  0.90166867  1
  O  O35  1  0.60141854  0.60375149  0.59833133  1
  O  O36  1  0.59534421  0.20207079  0.68170276  1
  O  O37  1  0.59534421  0.70207079  0.81829724  1
  O  O38  1  0.68491948  0.17205789  0.09616974  1
  O  O39  1  0.68491948  0.67205789  0.40383026  1
