# generated using pymatgen
data_Li2CoP2O7
_symmetry_space_group_name_H-M   'P 1'
_cell_length_a   7.58816597
_cell_length_b   7.58816597
_cell_length_c   10.99408631
_cell_angle_alpha   88.86850806
_cell_angle_beta   91.13149194
_cell_angle_gamma   63.28280758
_symmetry_Int_Tables_number   1
_chemical_formula_structural   Li2CoP2O7
_chemical_formula_sum   'Li8 Co4 P8 O28'
_cell_volume   565.05583154
_cell_formula_units_Z   4
loop_
 _symmetry_equiv_pos_site_id
 _symmetry_equiv_pos_as_xyz
  1  'x, y, z'
loop_
 _atom_site_type_symbol
 _atom_site_label
 _atom_site_symmetry_multiplicity
 _atom_site_fract_x
 _atom_site_fract_y
 _atom_site_fract_z
 _atom_site_occupancy
  Li  Li0  1  0.27729836  0.29379869  0.99767235  1
  Li  Li1  1  0.70620131  0.72270164  0.49767235  1
  Li  Li2  1  0.28087596  0.28087596  0.75000000  1
  Li  Li3  1  0.70883400  0.70883400  0.75000000  1
  Li  Li4  1  0.29116600  0.29116600  0.25000000  1
  Li  Li5  1  0.71912404  0.71912404  0.25000000  1
  Li  Li6  1  0.29379869  0.27729836  0.50232765  1
  Li  Li7  1  0.72270164  0.70620131  0.00232765  1
  Co  Co8  1  0.31096937  0.68983207  0.88626988  1
  Co  Co9  1  0.31016793  0.68903063  0.38626988  1
  Co  Co10  1  0.68983207  0.31096937  0.61373012  1
  Co  Co11  1  0.68903063  0.31016793  0.11373012  1
  P  P12  1  0.29920858  0.91017663  0.63122861  1
  P  P13  1  0.08982337  0.70079142  0.13122861  1
  P  P14  1  0.09309696  0.67733426  0.63340952  1
  P  P15  1  0.32266574  0.90690304  0.13340952  1
  P  P16  1  0.67733426  0.09309696  0.86659048  1
  P  P17  1  0.90690304  0.32266574  0.36659048  1
  P  P18  1  0.91017663  0.29920858  0.86877139  1
  P  P19  1  0.70079142  0.08982337  0.36877139  1
  O  O20  1  0.09193616  0.89374051  0.62690372  1
  O  O21  1  0.10625949  0.90806384  0.12690372  1
  O  O22  1  0.41580594  0.80199260  0.51905935  1
  O  O23  1  0.19800740  0.58419406  0.01905835  1
  O  O24  1  0.19779022  0.57616224  0.75554045  1
  O  O25  1  0.42383776  0.80220978  0.25554045  1
  O  O26  1  0.41095527  0.79873290  0.74982206  1
  O  O27  1  0.20126710  0.58904473  0.24982206  1
  O  O28  1  0.21750526  0.56486840  0.52464586  1
  O  O29  1  0.43513160  0.78249474  0.02464586  1
  O  O30  1  0.71677530  0.87992570  0.87414978  1
  O  O31  1  0.12007430  0.28322470  0.37414978  1
  O  O32  1  0.12717003  0.24389105  0.87332357  1
  O  O33  1  0.75610895  0.87282997  0.37332357  1
  O  O34  1  0.24389105  0.12717003  0.62667643  1
  O  O35  1  0.87282997  0.75610895  0.12667643  1
  O  O36  1  0.87992570  0.71677530  0.62585022  1
  O  O37  1  0.28322470  0.12007430  0.12585022  1
  O  O38  1  0.56486840  0.21750526  0.97535414  1
  O  O39  1  0.78249474  0.43513160  0.47535414  1
  O  O40  1  0.79873290  0.41095527  0.75017794  1
  O  O41  1  0.58904473  0.20126710  0.25017794  1
  O  O42  1  0.57616224  0.19779022  0.74445955  1
  O  O43  1  0.80220978  0.42383776  0.24445955  1
  O  O44  1  0.80199260  0.41580594  0.98094065  1
  O  O45  1  0.58419406  0.19800740  0.48094065  1
  O  O46  1  0.89374051  0.09193616  0.87309628  1
  O  O47  1  0.90806384  0.10625949  0.37309628  1
