# generated using pymatgen
data_LiMn5P3O13
_symmetry_space_group_name_H-M   'P 1'
_cell_length_a   6.48881140
_cell_length_b   8.80958349
_cell_length_c   9.76582554
_cell_angle_alpha   93.93250705
_cell_angle_beta   92.68305470
_cell_angle_gamma   90.12807841
_symmetry_Int_Tables_number   1
_chemical_formula_structural   LiMn5P3O13
_chemical_formula_sum   'Li2 Mn10 P6 O26'
_cell_volume   556.31774653
_cell_formula_units_Z   2
loop_
 _symmetry_equiv_pos_site_id
 _symmetry_equiv_pos_as_xyz
  1  'x, y, z'
loop_
 _atom_site_type_symbol
 _atom_site_label
 _atom_site_symmetry_multiplicity
 _atom_site_fract_x
 _atom_site_fract_y
 _atom_site_fract_z
 _atom_site_occupancy
  Li  Li0  1  0.21691463  0.39800963  0.44745621  1
  Li  Li1  1  0.78308537  0.60199037  0.55254379  1
  Mn  Mn2  1  0.99973215  0.13809446  0.77659821  1
  Mn  Mn3  1  0.24369289  0.84620405  0.91366925  1
  Mn  Mn4  1  0.26656460  0.78866272  0.56544396  1
  Mn  Mn5  1  0.25902575  0.56162637  0.10632664  1
  Mn  Mn6  1  0.49981174  0.13400457  0.77393570  1
  Mn  Mn7  1  0.50018826  0.86599543  0.22606430  1
  Mn  Mn8  1  0.74097425  0.43837363  0.89367336  1
  Mn  Mn9  1  0.73343540  0.21133728  0.43455604  1
  Mn  Mn10  1  0.75630711  0.15379595  0.08633075  1
  Mn  Mn11  1  0.00026785  0.86190554  0.22340179  1
  P  P12  1  0.24401091  0.48088687  0.74989266  1
  P  P13  1  0.24187683  0.10658277  0.48073778  1
  P  P14  1  0.25683876  0.16928561  0.09517092  1
  P  P15  1  0.74316124  0.83071439  0.90482908  1
  P  P16  1  0.75812317  0.89341723  0.51926222  1
  P  P17  1  0.75598909  0.51911313  0.25010734  1
  O  O18  1  0.04304037  0.38335714  0.75313029  1
  O  O19  1  0.05065033  0.20373812  0.45208863  1
  O  O20  1  0.06128207  0.09474357  0.14945433  1
  O  O21  1  0.25826895  0.12524662  0.93551836  1
  O  O22  1  0.24823984  0.60520465  0.87059796  1
  O  O23  1  0.24513773  0.05423232  0.63409956  1
  O  O24  1  0.24260561  0.55432466  0.60710627  1
  O  O25  1  0.25077073  0.95284447  0.39125629  1
  O  O26  1  0.24546575  0.79017010  0.11124725  1
  O  O27  1  0.25075806  0.34029695  0.12875526  1
  O  O28  1  0.44193880  0.38180758  0.76621285  1
  O  O29  1  0.42320776  0.21562956  0.46486751  1
  O  O30  1  0.54072070  0.89696212  0.83861753  1
  O  O31  1  0.45927930  0.10303788  0.16138247  1
  O  O32  1  0.57679224  0.78437044  0.53513249  1
  O  O33  1  0.55806120  0.61819242  0.23378715  1
  O  O34  1  0.74924194  0.65970305  0.87124474  1
  O  O35  1  0.75453425  0.20982990  0.88875275  1
  O  O36  1  0.74922927  0.04715553  0.60874371  1
  O  O37  1  0.75739439  0.44567534  0.39289373  1
  O  O38  1  0.75486227  0.94576768  0.36590044  1
  O  O39  1  0.75176016  0.39479535  0.12940204  1
  O  O40  1  0.74173105  0.87475338  0.06448164  1
  O  O41  1  0.93871793  0.90525643  0.85054567  1
  O  O42  1  0.94934967  0.79626188  0.54791137  1
  O  O43  1  0.95695963  0.61664286  0.24686971  1
