# generated using pymatgen
data_Li3Ti3VO8
_symmetry_space_group_name_H-M   'P 1'
_cell_length_a   5.95052652
_cell_length_b   5.95888624
_cell_length_c   6.06205315
_cell_angle_alpha   90.00730238
_cell_angle_beta   60.30613150
_cell_angle_gamma   59.95502260
_symmetry_Int_Tables_number   1
_chemical_formula_structural   Li3Ti3VO8
_chemical_formula_sum   'Li3 Ti3 V1 O8'
_cell_volume   152.58057163
_cell_formula_units_Z   1
loop_
 _symmetry_equiv_pos_site_id
 _symmetry_equiv_pos_as_xyz
  1  'x, y, z'
loop_
 _atom_site_type_symbol
 _atom_site_label
 _atom_site_symmetry_multiplicity
 _atom_site_fract_x
 _atom_site_fract_y
 _atom_site_fract_z
 _atom_site_occupancy
  Li  Li0  1  0.00000000  0.50000000  0.50000000  1
  Li  Li1  1  0.50000000  0.50000000  0.50000000  1
  Li  Li2  1  0.50000000  0.00000000  0.50000000  1
  Ti  Ti3  1  0.00000000  0.50000000  0.00000000  1
  Ti  Ti4  1  0.50000000  0.50000000  0.00000000  1
  Ti  Ti5  1  0.50000100  0.00000000  0.00000000  1
  V  V6  1  0.00000000  0.99999900  0.00000000  1
  O  O7  1  0.47306639  0.26343087  0.78003678  1
  O  O8  1  0.50187225  0.74900797  0.76690991  1
  O  O9  1  0.97373878  0.27888807  0.78113487  1
  O  O10  1  0.97385853  0.74727518  0.78110315  1
  O  O11  1  0.02614247  0.25272382  0.21889585  1
  O  O12  1  0.02626122  0.72111193  0.21886513  1
  O  O13  1  0.49812775  0.25099203  0.23309009  1
  O  O14  1  0.52693361  0.73657013  0.21996322  1
