# generated using pymatgen
data_Li4Mn2Si4O13
_symmetry_space_group_name_H-M   'P 1'
_cell_length_a   14.17074515
_cell_length_b   4.94372943
_cell_length_c   14.25281579
_cell_angle_alpha   90.00000000
_cell_angle_beta   90.00000000
_cell_angle_gamma   90.00000000
_symmetry_Int_Tables_number   1
_chemical_formula_structural   Li4Mn2Si4O13
_chemical_formula_sum   'Li16 Mn8 Si16 O52'
_cell_volume   998.49996418
_cell_formula_units_Z   4
loop_
 _symmetry_equiv_pos_site_id
 _symmetry_equiv_pos_as_xyz
  1  'x, y, z'
loop_
 _atom_site_type_symbol
 _atom_site_label
 _atom_site_symmetry_multiplicity
 _atom_site_fract_x
 _atom_site_fract_y
 _atom_site_fract_z
 _atom_site_occupancy
  Li  Li0  1  0.03934595  0.18200854  0.22489955  1
  Li  Li1  1  0.11354837  0.68295724  0.92015022  1
  Li  Li2  1  0.12775820  0.66307993  0.11178168  1
  Li  Li3  1  0.20999801  0.24994352  0.83594569  1
  Li  Li4  1  0.29000199  0.74994352  0.33594569  1
  Li  Li5  1  0.37224180  0.16307993  0.61178168  1
  Li  Li6  1  0.38645163  0.18295724  0.42015022  1
  Li  Li7  1  0.46065405  0.68200854  0.72489955  1
  Li  Li8  1  0.53934595  0.31799146  0.22489955  1
  Li  Li9  1  0.61354837  0.81704276  0.92015022  1
  Li  Li10  1  0.62775820  0.83692007  0.11178168  1
  Li  Li11  1  0.70999801  0.25005648  0.83594569  1
  Li  Li12  1  0.79000199  0.75005648  0.33594569  1
  Li  Li13  1  0.87224180  0.33692007  0.61178168  1
  Li  Li14  1  0.88645163  0.31704276  0.42015022  1
  Li  Li15  1  0.96065405  0.81799146  0.72489955  1
  Mn  Mn16  1  0.07698866  0.35487115  0.62712702  1
  Mn  Mn17  1  0.17688494  0.18559331  0.42098459  1
  Mn  Mn18  1  0.32311506  0.68559331  0.92098459  1
  Mn  Mn19  1  0.42301134  0.85487115  0.12712702  1
  Mn  Mn20  1  0.57698866  0.14512885  0.62712702  1
  Mn  Mn21  1  0.67688494  0.31440669  0.42098459  1
  Mn  Mn22  1  0.82311506  0.81440669  0.92098459  1
  Mn  Mn23  1  0.92301134  0.64512885  0.12712702  1
  Si  Si24  1  0.01761531  0.15547552  0.00630066  1
  Si  Si25  1  0.06818437  0.69480604  0.32146565  1
  Si  Si26  1  0.18388250  0.85262951  0.72333509  1
  Si  Si27  1  0.22411527  0.17825049  0.04090882  1
  Si  Si28  1  0.27588473  0.67825049  0.54090882  1
  Si  Si29  1  0.31611750  0.35262951  0.22333509  1
  Si  Si30  1  0.43181563  0.19480604  0.82146565  1
  Si  Si31  1  0.48238469  0.65547552  0.50630066  1
  Si  Si32  1  0.51761531  0.34452448  0.00630066  1
  Si  Si33  1  0.56818437  0.80519396  0.32146565  1
  Si  Si34  1  0.68388250  0.64737049  0.72333509  1
  Si  Si35  1  0.72411527  0.32174951  0.04090882  1
  Si  Si36  1  0.77588473  0.82174951  0.54090882  1
  Si  Si37  1  0.81611750  0.14737049  0.22333509  1
  Si  Si38  1  0.93181563  0.30519396  0.82146565  1
  Si  Si39  1  0.98238469  0.84452448  0.50630066  1
  O  O40  1  0.02342732  0.44259374  0.06105608  1
  O  O41  1  0.04330333  0.77949344  0.21397626  1
  O  O42  1  0.02149892  0.21199770  0.89187457  1
  O  O43  1  0.06578771  0.05480120  0.53224683  1
  O  O44  1  0.08307232  0.37024775  0.33767356  1
  O  O45  1  0.08943893  0.67605642  0.70254739  1
  O  O46  1  0.12240744  0.00139946  0.02683707  1
  O  O47  1  0.16219337  0.86545087  0.35045861  1
  O  O48  1  0.16976222  0.17724762  0.70334323  1
  O  O49  1  0.19019101  0.47672169  0.51441936  1
  O  O50  1  0.22620319  0.25522287  0.15412035  1
  O  O51  1  0.20839709  0.83324373  0.83479925  1
  O  O52  1  0.21301644  0.45726533  0.98060648  1
  O  O53  1  0.28698356  0.95726533  0.48060648  1
  O  O54  1  0.29160291  0.33324373  0.33479925  1
  O  O55  1  0.27379681  0.75522287  0.65412035  1
  O  O56  1  0.30980899  0.97672169  0.01441936  1
  O  O57  1  0.33023778  0.67724762  0.20334323  1
  O  O58  1  0.33780663  0.36545087  0.85045861  1
  O  O59  1  0.37759256  0.50139946  0.52683707  1
  O  O60  1  0.41056107  0.17605642  0.20254739  1
  O  O61  1  0.41692768  0.87024775  0.83767356  1
  O  O62  1  0.43421229  0.55480120  0.03224683  1
  O  O63  1  0.47850108  0.71199770  0.39187457  1
  O  O64  1  0.45669667  0.27949344  0.71397626  1
  O  O65  1  0.47657268  0.94259374  0.56105608  1
  O  O66  1  0.52342732  0.05740626  0.06105608  1
  O  O67  1  0.54330333  0.72050656  0.21397626  1
  O  O68  1  0.52149892  0.28800230  0.89187457  1
  O  O69  1  0.56578771  0.44519880  0.53224683  1
  O  O70  1  0.58307232  0.12975225  0.33767356  1
  O  O71  1  0.58943893  0.82394358  0.70254739  1
  O  O72  1  0.62240744  0.49860054  0.02683707  1
  O  O73  1  0.66219337  0.63454913  0.35045861  1
  O  O74  1  0.66976222  0.32275238  0.70334323  1
  O  O75  1  0.69019101  0.02327831  0.51441936  1
  O  O76  1  0.72620319  0.24477713  0.15412035  1
  O  O77  1  0.70839709  0.66675627  0.83479925  1
  O  O78  1  0.71301644  0.04273467  0.98060648  1
  O  O79  1  0.78698356  0.54273467  0.48060648  1
  O  O80  1  0.79160291  0.16675627  0.33479925  1
  O  O81  1  0.77379681  0.74477713  0.65412035  1
  O  O82  1  0.80980899  0.52327831  0.01441936  1
  O  O83  1  0.83023778  0.82275238  0.20334323  1
  O  O84  1  0.83780663  0.13454913  0.85045861  1
  O  O85  1  0.87759256  0.99860054  0.52683707  1
  O  O86  1  0.91056107  0.32394358  0.20254739  1
  O  O87  1  0.91692768  0.62975225  0.83767356  1
  O  O88  1  0.93421229  0.94519880  0.03224683  1
  O  O89  1  0.97850108  0.78800230  0.39187457  1
  O  O90  1  0.95669667  0.22050656  0.71397626  1
  O  O91  1  0.97657268  0.55740626  0.56105608  1
