# generated using pymatgen
data_LiFePO4
_symmetry_space_group_name_H-M   'P 1'
_cell_length_a   19.67569399
_cell_length_b   5.86713045
_cell_length_c   8.23462035
_cell_angle_alpha   90.00000000
_cell_angle_beta   90.00000000
_cell_angle_gamma   90.00000000
_symmetry_Int_Tables_number   1
_chemical_formula_structural   LiFePO4
_chemical_formula_sum   'Li12 Fe12 P12 O48'
_cell_volume   950.60344781
_cell_formula_units_Z   12
loop_
 _symmetry_equiv_pos_site_id
 _symmetry_equiv_pos_as_xyz
  1  'x, y, z'
loop_
 _atom_site_type_symbol
 _atom_site_label
 _atom_site_symmetry_multiplicity
 _atom_site_fract_x
 _atom_site_fract_y
 _atom_site_fract_z
 _atom_site_occupancy
  Li  Li0  1  0.98874526  0.10372015  0.73590257  1
  Li  Li1  1  0.17707217  0.83611729  0.24689276  1
  Li  Li2  1  0.15738600  0.18488160  0.74335513  1
  Li  Li3  1  0.34261400  0.68488160  0.24335513  1
  Li  Li4  1  0.32292783  0.33611729  0.74689276  1
  Li  Li5  1  0.51125474  0.60372015  0.23590257  1
  Li  Li6  1  0.48874526  0.10372015  0.76409743  1
  Li  Li7  1  0.67707217  0.83611729  0.25310724  1
  Li  Li8  1  0.65738600  0.18488160  0.75664487  1
  Li  Li9  1  0.84261400  0.68488160  0.25664487  1
  Li  Li10  1  0.82292783  0.33611729  0.75310724  1
  Li  Li11  1  0.01125474  0.60372015  0.26409743  1
  Fe  Fe12  1  0.07015436  0.28950298  0.00625768  1
  Fe  Fe13  1  0.09985420  0.64959200  0.54795520  1
  Fe  Fe14  1  0.23506220  0.28523779  0.44940351  1
  Fe  Fe15  1  0.26493780  0.78523779  0.94940351  1
  Fe  Fe16  1  0.40014580  0.14959200  0.04795520  1
  Fe  Fe17  1  0.42984564  0.78950298  0.50625768  1
  Fe  Fe18  1  0.57015436  0.28950298  0.49374232  1
  Fe  Fe19  1  0.59985420  0.64959200  0.95204480  1
  Fe  Fe20  1  0.73506220  0.28523779  0.05059649  1
  Fe  Fe21  1  0.76493780  0.78523779  0.55059649  1
  Fe  Fe22  1  0.90014580  0.14959200  0.45204480  1
  Fe  Fe23  1  0.92984564  0.78950298  0.99374232  1
  P  P24  1  0.07151535  0.16104392  0.41162908  1
  P  P25  1  0.09171468  0.78614538  0.91952430  1
  P  P26  1  0.24016836  0.27427512  0.07385602  1
  P  P27  1  0.25983164  0.77427512  0.57385602  1
  P  P28  1  0.40828532  0.28614538  0.41952430  1
  P  P29  1  0.42848465  0.66104392  0.91162908  1
  P  P30  1  0.57151535  0.16104392  0.08837092  1
  P  P31  1  0.59171468  0.78614538  0.58047570  1
  P  P32  1  0.74016836  0.27427512  0.42614398  1
  P  P33  1  0.75983164  0.77427512  0.92614398  1
  P  P34  1  0.90828532  0.28614538  0.08047570  1
  P  P35  1  0.92848465  0.66104392  0.58837092  1
  O  O36  1  0.00428319  0.14571493  0.50442446  1
  O  O37  1  0.03304563  0.74503618  0.04434375  1
  O  O38  1  0.07902579  0.01708633  0.82900681  1
  O  O39  1  0.09027260  0.58892971  0.79322613  1
  O  O40  1  0.06364040  0.30100755  0.25284028  1
  O  O41  1  0.10041822  0.91891256  0.37977439  1
  O  O42  1  0.12485751  0.29587961  0.51969830  1
  O  O43  1  0.16005229  0.79468576  0.01098101  1
  O  O44  1  0.17356769  0.29631767  0.97901159  1
  O  O45  1  0.20831815  0.64357519  0.46025985  1
  O  O46  1  0.23028278  0.00995348  0.62211349  1
  O  O47  1  0.26779724  0.62622479  0.73037970  1
  O  O48  1  0.23220276  0.12622479  0.23037970  1
  O  O49  1  0.26971722  0.50995348  0.12211349  1
  O  O50  1  0.29168185  0.14357519  0.96025985  1
  O  O51  1  0.32643231  0.79631767  0.47901159  1
  O  O52  1  0.33994771  0.29468576  0.51098101  1
  O  O53  1  0.37514249  0.79587961  0.01969830  1
  O  O54  1  0.39958178  0.41891256  0.87977439  1
  O  O55  1  0.43635960  0.80100755  0.75284028  1
  O  O56  1  0.40972740  0.08892971  0.29322613  1
  O  O57  1  0.42097421  0.51708633  0.32900681  1
  O  O58  1  0.46695437  0.24503618  0.54434375  1
  O  O59  1  0.49571681  0.64571493  0.00442446  1
  O  O60  1  0.50428319  0.14571493  0.99557554  1
  O  O61  1  0.53304563  0.74503618  0.45565625  1
  O  O62  1  0.57902579  0.01708633  0.67099319  1
  O  O63  1  0.59027260  0.58892971  0.70677387  1
  O  O64  1  0.56364040  0.30100755  0.24715972  1
  O  O65  1  0.60041822  0.91891256  0.12022561  1
  O  O66  1  0.62485751  0.29587961  0.98030170  1
  O  O67  1  0.66005229  0.79468576  0.48901899  1
  O  O68  1  0.67356769  0.29631767  0.52098841  1
  O  O69  1  0.70831815  0.64357519  0.03974015  1
  O  O70  1  0.73028278  0.00995348  0.87788651  1
  O  O71  1  0.76779724  0.62622479  0.76962030  1
  O  O72  1  0.73220276  0.12622479  0.26962030  1
  O  O73  1  0.76971722  0.50995348  0.37788651  1
  O  O74  1  0.79168185  0.14357519  0.53974015  1
  O  O75  1  0.82643231  0.79631767  0.02098841  1
  O  O76  1  0.83994771  0.29468576  0.98901899  1
  O  O77  1  0.87514249  0.79587961  0.48030170  1
  O  O78  1  0.89958178  0.41891256  0.62022561  1
  O  O79  1  0.93635960  0.80100755  0.74715972  1
  O  O80  1  0.90972740  0.08892971  0.20677387  1
  O  O81  1  0.92097421  0.51708633  0.17099319  1
  O  O82  1  0.96695437  0.24503618  0.95565625  1
  O  O83  1  0.99571681  0.64571493  0.49557554  1
