# generated using pymatgen
data_Li3FeSi2O7
_symmetry_space_group_name_H-M   'P 1'
_cell_length_a   5.02702485
_cell_length_b   8.96415079
_cell_length_c   12.48805781
_cell_angle_alpha   90.00000000
_cell_angle_beta   90.00000000
_cell_angle_gamma   90.00000000
_symmetry_Int_Tables_number   1
_chemical_formula_structural   Li3FeSi2O7
_chemical_formula_sum   'Li12 Fe4 Si8 O28'
_cell_volume   562.74945874
_cell_formula_units_Z   4
loop_
 _symmetry_equiv_pos_site_id
 _symmetry_equiv_pos_as_xyz
  1  'x, y, z'
loop_
 _atom_site_type_symbol
 _atom_site_label
 _atom_site_symmetry_multiplicity
 _atom_site_fract_x
 _atom_site_fract_y
 _atom_site_fract_z
 _atom_site_occupancy
  Li  Li0  1  0.03376222  0.33800077  0.09096739  1
  Li  Li1  1  0.03376222  0.33800077  0.40903261  1
  Li  Li2  1  0.03096266  0.01512704  0.25000000  1
  Li  Li3  1  0.46903734  0.51512704  0.25000000  1
  Li  Li4  1  0.46623778  0.83800077  0.09096739  1
  Li  Li5  1  0.46623778  0.83800077  0.40903261  1
  Li  Li6  1  0.53376222  0.16199923  0.59096739  1
  Li  Li7  1  0.53376222  0.16199923  0.90903261  1
  Li  Li8  1  0.53096266  0.48487296  0.75000000  1
  Li  Li9  1  0.96903734  0.98487296  0.75000000  1
  Li  Li10  1  0.96623778  0.66199923  0.90903261  1
  Li  Li11  1  0.96623778  0.66199923  0.59096739  1
  Fe  Fe12  1  0.00000000  0.00000000  0.00000000  1
  Fe  Fe13  1  0.00000000  0.00000000  0.50000000  1
  Fe  Fe14  1  0.50000000  0.50000000  0.50000000  1
  Fe  Fe15  1  0.50000000  0.50000000  0.00000000  1
  Si  Si16  1  0.00873853  0.31787220  0.63128120  1
  Si  Si17  1  0.00873853  0.31787220  0.86871880  1
  Si  Si18  1  0.49126147  0.81787220  0.63128120  1
  Si  Si19  1  0.49126147  0.81787220  0.86871880  1
  Si  Si20  1  0.50873853  0.18212780  0.13128120  1
  Si  Si21  1  0.50873853  0.18212780  0.36871880  1
  Si  Si22  1  0.99126147  0.68212780  0.13128120  1
  Si  Si23  1  0.99126147  0.68212780  0.36871880  1
  O  O24  1  0.06930651  0.86004020  0.12874889  1
  O  O25  1  0.06930651  0.86004020  0.37125111  1
  O  O26  1  0.09016337  0.61207236  0.25000000  1
  O  O27  1  0.16646655  0.60059119  0.03822711  1
  O  O28  1  0.16646655  0.60059119  0.46177289  1
  O  O29  1  0.17380095  0.85263623  0.61644584  1
  O  O30  1  0.17380095  0.85263623  0.88355416  1
  O  O31  1  0.32619905  0.35263623  0.61644584  1
  O  O32  1  0.32619905  0.35263623  0.88355416  1
  O  O33  1  0.33353345  0.10059119  0.03822711  1
  O  O34  1  0.33353345  0.10059119  0.46177289  1
  O  O35  1  0.40983663  0.11207236  0.25000000  1
  O  O36  1  0.43069349  0.36004020  0.12874889  1
  O  O37  1  0.43069349  0.36004020  0.37125111  1
  O  O38  1  0.56930651  0.63995980  0.62874889  1
  O  O39  1  0.56930651  0.63995980  0.87125111  1
  O  O40  1  0.59016337  0.88792764  0.75000000  1
  O  O41  1  0.66646655  0.89940881  0.53822711  1
  O  O42  1  0.66646655  0.89940881  0.96177289  1
  O  O43  1  0.67380095  0.64736377  0.11644584  1
  O  O44  1  0.67380095  0.64736377  0.38355416  1
  O  O45  1  0.82619905  0.14736377  0.38355416  1
  O  O46  1  0.82619905  0.14736377  0.11644584  1
  O  O47  1  0.83353345  0.39940881  0.53822711  1
  O  O48  1  0.83353345  0.39940881  0.96177289  1
  O  O49  1  0.90983663  0.38792764  0.75000000  1
  O  O50  1  0.93069349  0.13995980  0.62874889  1
  O  O51  1  0.93069349  0.13995980  0.87125111  1
