# generated using pymatgen
data_LiFeSiO4
_symmetry_space_group_name_H-M   'P 1'
_cell_length_a   5.74289802
_cell_length_b   5.74280554
_cell_length_c   8.07443669
_cell_angle_alpha   90.00011898
_cell_angle_beta   90.00198738
_cell_angle_gamma   89.99996568
_symmetry_Int_Tables_number   1
_chemical_formula_structural   LiFeSiO4
_chemical_formula_sum   'Li4 Fe4 Si4 O16'
_cell_volume   266.29772027
_cell_formula_units_Z   4
loop_
 _symmetry_equiv_pos_site_id
 _symmetry_equiv_pos_as_xyz
  1  'x, y, z'
loop_
 _atom_site_type_symbol
 _atom_site_label
 _atom_site_symmetry_multiplicity
 _atom_site_fract_x
 _atom_site_fract_y
 _atom_site_fract_z
 _atom_site_occupancy
  Li  Li0  1  0.99999915  0.22138545  0.00000113  1
  Li  Li1  1  0.99999836  0.77861120  0.49999931  1
  Li  Li2  1  0.22139218  0.00000022  0.25000101  1
  Li  Li3  1  0.77860473  -0.00000067  0.74999861  1
  Fe  Fe4  1  0.22489075  0.50000327  0.25000225  1
  Fe  Fe5  1  0.49999829  0.22491248  0.99999699  1
  Fe  Fe6  1  0.50000069  0.77508894  0.50000207  1
  Fe  Fe7  1  0.77511915  0.50000429  0.74999750  1
  Si  Si8  1  0.25633999  0.25633303  0.62500629  1
  Si  Si9  1  0.25634434  0.74366254  0.87500196  1
  Si  Si10  1  0.74366040  0.25633281  0.37499369  1
  Si  Si11  1  0.74365740  0.74366253  0.12499791  1
  O  O12  1  0.98274627  0.25807712  0.26050913  1
  O  O13  1  0.98274632  0.74192677  0.23948560  1
  O  O14  1  0.25808651  0.98275474  0.98948726  1
  O  O15  1  0.25807524  0.01724417  0.51050932  1
  O  O16  1  0.25900124  0.49452197  0.50131710  1
  O  O17  1  0.25901454  0.50546948  0.99868447  1
  O  O18  1  0.50547658  0.25901194  0.25130633  1
  O  O19  1  0.50547214  0.74099409  0.24868199  1
  O  O20  1  0.49452314  0.25901292  0.74869311  1
  O  O21  1  0.49452845  0.74099287  0.75131846  1
  O  O22  1  0.74099652  0.49452168  0.49868544  1
  O  O23  1  0.74098495  0.50547203  0.00131428  1
  O  O24  1  0.74192249  0.01724622  0.48949190  1
  O  O25  1  0.74191160  0.98275383  0.01051179  1
  O  O26  1  0.01725535  0.25807492  0.73948992  1
  O  O27  1  0.01725325  0.74192916  0.76051515  1
