# generated using pymatgen
data_Li3Co2(SiO4)2
_symmetry_space_group_name_H-M   'P 1'
_cell_length_a   10.58967768
_cell_length_b   5.14168878
_cell_length_c   6.48976495
_cell_angle_alpha   90.00000000
_cell_angle_beta   90.52819092
_cell_angle_gamma   90.00000000
_symmetry_Int_Tables_number   1
_chemical_formula_structural   Li3Co2(SiO4)2
_chemical_formula_sum   'Li6 Co4 Si4 O16'
_cell_volume   353.34507331
_cell_formula_units_Z   2
loop_
 _symmetry_equiv_pos_site_id
 _symmetry_equiv_pos_as_xyz
  1  'x, y, z'
loop_
 _atom_site_type_symbol
 _atom_site_label
 _atom_site_symmetry_multiplicity
 _atom_site_fract_x
 _atom_site_fract_y
 _atom_site_fract_z
 _atom_site_occupancy
  Li  Li0  1  0.15864562  0.17797659  0.11327587  1
  Li  Li1  1  0.33641067  0.68518666  0.62369033  1
  Li  Li2  1  0.42179089  0.27802476  0.37410354  1
  Li  Li3  1  0.65864562  0.32202341  0.11327587  1
  Li  Li4  1  0.83641067  0.81481334  0.62369033  1
  Li  Li5  1  0.92179089  0.22197524  0.37410354  1
  Co  Co6  1  0.16157490  0.17335158  0.62777284  1
  Co  Co7  1  0.33701369  0.68485096  0.11158092  1
  Co  Co8  1  0.66157490  0.32664842  0.62777284  1
  Co  Co9  1  0.83701369  0.81514904  0.11158092  1
  Si  Si10  1  0.09346703  0.68370869  0.36782867  1
  Si  Si11  1  0.41156645  0.18385247  0.86484566  1
  Si  Si12  1  0.59346703  0.81629131  0.36782867  1
  Si  Si13  1  0.91156645  0.31614753  0.86484566  1
  O  O14  1  0.05982042  0.24241774  0.86247023  1
  O  O15  1  0.09594681  0.36252185  0.37861614  1
  O  O16  1  0.16859636  0.78791528  0.16051829  1
  O  O17  1  0.16404292  0.80695109  0.56789334  1
  O  O18  1  0.34466266  0.30634541  0.07861606  1
  O  O19  1  0.33897876  0.29240620  0.65492288  1
  O  O20  1  0.38642041  0.86479782  0.87433232  1
  O  O21  1  0.44286742  0.71229117  0.35520292  1
  O  O22  1  0.55982042  0.25758226  0.86247023  1
  O  O23  1  0.59594681  0.13747815  0.37861614  1
  O  O24  1  0.66859636  0.71208472  0.16051829  1
  O  O25  1  0.66404292  0.69304891  0.56789334  1
  O  O26  1  0.84466266  0.19365459  0.07861606  1
  O  O27  1  0.83897876  0.20759380  0.65492288  1
  O  O28  1  0.88642041  0.63520218  0.87433232  1
  O  O29  1  0.94286742  0.78770883  0.35520292  1
