# generated using pymatgen
data_Li4V2Fe3O10
_symmetry_space_group_name_H-M   'P 1'
_cell_length_a   7.87177512
_cell_length_b   6.63311327
_cell_length_c   7.97839188
_cell_angle_alpha   114.64562663
_cell_angle_beta   83.71254932
_cell_angle_gamma   89.67215632
_symmetry_Int_Tables_number   1
_chemical_formula_structural   Li4V2Fe3O10
_chemical_formula_sum   'Li8 V4 Fe6 O20'
_cell_volume   375.75058557
_cell_formula_units_Z   2
loop_
 _symmetry_equiv_pos_site_id
 _symmetry_equiv_pos_as_xyz
  1  'x, y, z'
loop_
 _atom_site_type_symbol
 _atom_site_label
 _atom_site_symmetry_multiplicity
 _atom_site_fract_x
 _atom_site_fract_y
 _atom_site_fract_z
 _atom_site_occupancy
  Li  Li0  1  0.15309961  0.06077784  0.40653503  1
  Li  Li1  1  0.04812575  0.34540983  0.78397034  1
  Li  Li2  1  0.99689203  0.49506067  0.49140813  1
  Li  Li3  1  0.50310797  0.00493933  0.50859187  1
  Li  Li4  1  0.45187425  0.15459017  0.21602966  1
  Li  Li5  1  0.34690039  0.43922216  0.59346497  1
  Li  Li6  1  0.65570998  0.56220114  0.40272296  1
  Li  Li7  1  0.84429002  0.93779886  0.59727704  1
  V  V8  1  0.28566441  0.60298673  0.30335838  1
  V  V9  1  0.21433559  0.89701327  0.69664162  1
  V  V10  1  0.80035532  0.08805915  0.31305803  1
  V  V11  1  0.69964468  0.41194085  0.68694197  1
  Fe  Fe12  1  0.09178916  0.21749219  0.10922299  1
  Fe  Fe13  1  0.40821084  0.28250781  0.89077701  1
  Fe  Fe14  1  0.25000000  0.75000000  0.00000000  1
  Fe  Fe15  1  0.75000000  0.25000000  0.00000000  1
  Fe  Fe16  1  0.60689757  0.70854358  0.09682982  1
  Fe  Fe17  1  0.89310243  0.79145642  0.90317018  1
  O  O18  1  0.31113413  0.02411964  0.94243277  1
  O  O19  1  0.27763783  0.16531592  0.66660364  1
  O  O20  1  0.22236217  0.33468408  0.33339636  1
  O  O21  1  0.13561088  0.64513850  0.76648290  1
  O  O22  1  0.18886587  0.47588036  0.05756723  1
  O  O23  1  0.10047253  0.77588161  0.46127028  1
  O  O24  1  0.63194972  0.16217441  0.75082792  1
  O  O25  1  0.02746303  0.93790648  0.14342624  1
  O  O26  1  0.59236106  0.27855360  0.46029851  1
  O  O27  1  0.47253697  0.56209352  0.85657376  1
  O  O28  1  0.50650014  0.44082921  0.15576164  1
  O  O29  1  0.39952747  0.72411839  0.53872972  1
  O  O30  1  0.99349986  0.05917079  0.84423836  1
  O  O31  1  0.36438912  0.85486150  0.23351710  1
  O  O32  1  0.90763894  0.22144640  0.53970149  1
  O  O33  1  0.81461042  0.51069664  0.92644748  1
  O  O34  1  0.86805028  0.33782559  0.24917208  1
  O  O35  1  0.77790933  0.65680892  0.65991753  1
  O  O36  1  0.72209067  0.84319108  0.34008247  1
  O  O37  1  0.68538958  0.98930336  0.07355252  1
