# generated using pymatgen
data_LiFeP2O7
_symmetry_space_group_name_H-M   'P 1'
_cell_length_a   7.51117527
_cell_length_b   6.19619588
_cell_length_c   11.32405475
_cell_angle_alpha   90.00000000
_cell_angle_beta   81.06385006
_cell_angle_gamma   90.00000000
_symmetry_Int_Tables_number   1
_chemical_formula_structural   LiFeP2O7
_chemical_formula_sum   'Li4 Fe4 P8 O28'
_cell_volume   520.63252997
_cell_formula_units_Z   4
loop_
 _symmetry_equiv_pos_site_id
 _symmetry_equiv_pos_as_xyz
  1  'x, y, z'
loop_
 _atom_site_type_symbol
 _atom_site_label
 _atom_site_symmetry_multiplicity
 _atom_site_fract_x
 _atom_site_fract_y
 _atom_site_fract_z
 _atom_site_occupancy
  Li  Li0  1  0.12713408  0.38360450  0.54739394  1
  Li  Li1  1  0.37286592  0.88360450  0.95260606  1
  Li  Li2  1  0.62713408  0.11639550  0.04739394  1
  Li  Li3  1  0.87286592  0.61639550  0.45260606  1
  Fe  Fe4  1  0.02487170  0.12282361  0.76769666  1
  Fe  Fe5  1  0.52487170  0.37717639  0.26769666  1
  Fe  Fe6  1  0.47512830  0.62282361  0.73230334  1
  Fe  Fe7  1  0.97512830  0.87717639  0.23230334  1
  P  P8  1  0.09494575  0.38786015  0.21629555  1
  P  P9  1  0.23700801  0.85145879  0.54012047  1
  P  P10  1  0.26299199  0.35145879  0.95987953  1
  P  P11  1  0.40505425  0.88786015  0.28370445  1
  P  P12  1  0.59494575  0.11213985  0.71629555  1
  P  P13  1  0.73700801  0.64854121  0.04012047  1
  P  P14  1  0.76299199  0.14854121  0.45987953  1
  P  P15  1  0.90505425  0.61213985  0.78370445  1
  O  O16  1  0.08674351  0.71013692  0.51083675  1
  O  O17  1  0.01352768  0.81680545  0.79571215  1
  O  O18  1  0.16067824  0.46658915  0.08094452  1
  O  O19  1  0.03081911  0.43421451  0.72363519  1
  O  O20  1  0.12493363  0.20674262  0.90933512  1
  O  O21  1  0.24077248  0.85942924  0.22081260  1
  O  O22  1  0.18085095  0.05974928  0.61340127  1
  O  O23  1  0.25922752  0.35942924  0.27918740  1
  O  O24  1  0.33932176  0.96658915  0.41905548  1
  O  O25  1  0.31914905  0.55974928  0.88659873  1
  O  O26  1  0.37506637  0.70674362  0.59066488  1
  O  O27  1  0.58674351  0.78986308  0.01083675  1
  O  O28  1  0.46918089  0.93421451  0.77636481  1
  O  O29  1  0.51352768  0.68319455  0.29571215  1
  O  O30  1  0.48647232  0.31680545  0.70428785  1
  O  O31  1  0.53081911  0.06578549  0.22363519  1
  O  O32  1  0.41325649  0.21013692  0.98916325  1
  O  O33  1  0.62493363  0.29325738  0.40933512  1
  O  O34  1  0.68085095  0.44025072  0.11340127  1
  O  O35  1  0.66067824  0.03341085  0.58094452  1
  O  O36  1  0.74077248  0.64057076  0.72081260  1
  O  O37  1  0.81914905  0.94025072  0.38659873  1
  O  O38  1  0.75922752  0.14057076  0.77918740  1
  O  O39  1  0.87506637  0.79325638  0.09066488  1
  O  O40  1  0.96918089  0.56578549  0.27636481  1
  O  O41  1  0.83932176  0.53341085  0.91905548  1
  O  O42  1  0.98647232  0.18319455  0.20428785  1
  O  O43  1  0.91325649  0.28986308  0.48916325  1
