# generated using pymatgen
data_LiFeSiO4
_symmetry_space_group_name_H-M   'P 1'
_cell_length_a   6.09566323
_cell_length_b   11.23924565
_cell_length_c   5.06284131
_cell_angle_alpha   90.00000000
_cell_angle_beta   90.00000000
_cell_angle_gamma   90.00000000
_symmetry_Int_Tables_number   1
_chemical_formula_structural   LiFeSiO4
_chemical_formula_sum   'Li4 Fe4 Si4 O16'
_cell_volume   346.85858161
_cell_formula_units_Z   4
loop_
 _symmetry_equiv_pos_site_id
 _symmetry_equiv_pos_as_xyz
  1  'x, y, z'
loop_
 _atom_site_type_symbol
 _atom_site_label
 _atom_site_symmetry_multiplicity
 _atom_site_fract_x
 _atom_site_fract_y
 _atom_site_fract_z
 _atom_site_occupancy
  Li  Li0  1  0.50008740  0.92142566  0.33073821  1
  Li  Li1  1  0.50008740  0.42142566  0.16926179  1
  Li  Li2  1  0.00008740  0.57857434  0.83073821  1
  Li  Li3  1  0.00008740  0.07857434  0.66926179  1
  Fe  Fe4  1  0.24807033  0.33048637  0.67018456  1
  Fe  Fe5  1  0.24807033  0.83048637  0.82981544  1
  Fe  Fe6  1  0.74807033  0.66951363  0.32981544  1
  Fe  Fe7  1  0.74807033  0.16951363  0.17018456  1
  Si  Si8  1  0.25089984  0.66743995  0.33183923  1
  Si  Si9  1  0.25089984  0.16743995  0.16816077  1
  Si  Si10  1  0.75089984  0.33256005  0.66816077  1
  Si  Si11  1  0.75089984  0.83256005  0.83183923  1
  O  O12  1  0.02459241  0.10390298  0.28194257  1
  O  O13  1  0.02459241  0.60390298  0.21805743  1
  O  O14  1  0.23097976  0.18130486  0.84505040  1
  O  O15  1  0.27124305  0.30170714  0.30092647  1
  O  O16  1  0.27124305  0.80170714  0.19907353  1
  O  O17  1  0.23097976  0.68130486  0.65494960  1
  O  O18  1  0.47395021  0.08946575  0.23747727  1
  O  O19  1  0.47395021  0.58946575  0.26252273  1
  O  O20  1  0.52459241  0.89609702  0.71805743  1
  O  O21  1  0.52459241  0.39609702  0.78194257  1
  O  O22  1  0.77124305  0.19829286  0.80092647  1
  O  O23  1  0.73097976  0.31869514  0.34505040  1
  O  O24  1  0.77124305  0.69829286  0.69907353  1
  O  O25  1  0.73097976  0.81869514  0.15494960  1
  O  O26  1  0.97395021  0.41053425  0.73747727  1
  O  O27  1  0.97395021  0.91053425  0.76252273  1
