# generated using pymatgen
data_Li4Ti3Co3(NiO8)2
_symmetry_space_group_name_H-M   'P 1'
_cell_length_a   5.76414901
_cell_length_b   5.81190634
_cell_length_c   9.64508399
_cell_angle_alpha   89.91857605
_cell_angle_beta   90.20562375
_cell_angle_gamma   120.26417082
_symmetry_Int_Tables_number   1
_chemical_formula_structural   Li4Ti3Co3(NiO8)2
_chemical_formula_sum   'Li4 Ti3 Co3 Ni2 O16'
_cell_volume   279.07785172
_cell_formula_units_Z   1
loop_
 _symmetry_equiv_pos_site_id
 _symmetry_equiv_pos_as_xyz
  1  'x, y, z'
loop_
 _atom_site_type_symbol
 _atom_site_label
 _atom_site_symmetry_multiplicity
 _atom_site_fract_x
 _atom_site_fract_y
 _atom_site_fract_z
 _atom_site_occupancy
  Li  Li0  1  0.34751964  0.67335481  0.89023066  1
  Li  Li1  1  0.97192271  0.98694768  0.99600755  1
  Li  Li2  1  0.97782749  0.98949833  0.49917271  1
  Li  Li3  1  0.68142925  0.33996277  0.39681316  1
  Ti  Ti4  1  0.17447038  0.83389287  0.21526150  1
  Ti  Ti5  1  0.17771094  0.34035733  0.21515296  1
  Ti  Ti6  1  0.34416914  0.17299333  0.71460646  1
  Co  Co7  1  0.66118713  0.83141585  0.21296726  1
  Co  Co8  1  0.83401536  0.66372131  0.71367855  1
  Co  Co9  1  0.83312969  0.16943754  0.71364508  1
  Ni  Ni10  1  0.32979271  0.66507095  0.49140635  1
  Ni  Ni11  1  0.66503812  0.33237037  0.98669576  1
  O  O12  1  0.15216110  0.83583437  0.60589165  1
  O  O13  1  0.03949149  0.51927335  0.33214483  1
  O  O14  1  0.33050185  0.66614348  0.10041145  1
  O  O15  1  0.99173671  0.99582227  0.31380797  1
  O  O16  1  0.99343686  0.99633412  0.81139833  1
  O  O17  1  0.15123208  0.31652180  0.60574696  1
  O  O18  1  0.49521488  0.96907726  0.33278208  1
  O  O19  1  0.49526929  0.52524039  0.33279985  1
  O  O20  1  0.31772934  0.15922244  0.10185117  1
  O  O21  1  0.67724538  0.83908895  0.61607477  1
  O  O22  1  0.52932311  0.49107656  0.83226719  1
  O  O23  1  0.53020414  0.03796987  0.83201419  1
  O  O24  1  0.67477007  0.33752592  0.60528962  1
  O  O25  1  0.82702342  0.67733774  0.10876180  1
  O  O26  1  0.96900813  0.48402208  0.82205089  1
  O  O27  1  0.82743758  0.15078526  0.10891026  1
