# generated using pymatgen
data_FeOF
_symmetry_space_group_name_H-M   'P 1'
_cell_length_a   14.15402243
_cell_length_b   9.51305440
_cell_length_c   3.10834584
_cell_angle_alpha   90.00000000
_cell_angle_beta   90.00000000
_cell_angle_gamma   90.09346931
_symmetry_Int_Tables_number   1
_chemical_formula_structural   FeOF
_chemical_formula_sum   'Fe12 O12 F12'
_cell_volume   418.53194800
_cell_formula_units_Z   12
loop_
 _symmetry_equiv_pos_site_id
 _symmetry_equiv_pos_as_xyz
  1  'x, y, z'
loop_
 _atom_site_type_symbol
 _atom_site_label
 _atom_site_symmetry_multiplicity
 _atom_site_fract_x
 _atom_site_fract_y
 _atom_site_fract_z
 _atom_site_occupancy
  Fe  Fe0  1  0.01285135  0.99616091  0.00000000  1
  Fe  Fe1  1  0.00966693  0.49143974  0.00000000  1
  Fe  Fe2  1  0.15256765  0.24740197  0.50000000  1
  Fe  Fe3  1  0.15076959  0.74341225  0.50000000  1
  Fe  Fe4  1  0.34402002  0.99457993  0.00000000  1
  Fe  Fe5  1  0.34390688  0.49550788  0.00000000  1
  Fe  Fe6  1  0.48511288  0.74461050  0.50000000  1
  Fe  Fe7  1  0.48500053  0.24682069  0.50000000  1
  Fe  Fe8  1  0.67696803  0.99218265  0.00000000  1
  Fe  Fe9  1  0.68000249  0.49482024  0.00000000  1
  Fe  Fe10  1  0.84152022  0.27666705  0.50000000  1
  Fe  Fe11  1  0.82179953  0.74530335  0.50000000  1
  O  O12  1  0.06820546  0.40563671  0.50000000  1
  O  O13  1  0.06343596  0.90238874  0.50000000  1
  O  O14  1  0.10102835  0.15295844  0.00000000  1
  O  O15  1  0.10023914  0.65152440  0.00000000  1
  O  O16  1  0.39711863  0.40266654  0.50000000  1
  O  O17  1  0.39758587  0.90171106  0.50000000  1
  O  O18  1  0.43545124  0.15022308  0.00000000  1
  O  O19  1  0.43442353  0.65200475  0.00000000  1
  O  O20  1  0.72975167  0.39901657  0.50000000  1
  O  O21  1  0.73354988  0.90826221  0.50000000  1
  O  O22  1  0.76645059  0.65509094  0.00000000  1
  O  O23  1  0.90128433  0.35419077  0.00000000  1
  F  F24  1  0.23273911  0.34829748  0.00000000  1
  F  F25  1  0.23179293  0.84757541  0.00000000  1
  F  F26  1  0.26711595  0.09773484  0.50000000  1
  F  F27  1  0.26757736  0.59731589  0.50000000  1
  F  F28  1  0.56441511  0.34793359  0.00000000  1
  F  F29  1  0.56657384  0.85055101  0.00000000  1
  F  F30  1  0.60534028  0.10070068  0.50000000  1
  F  F31  1  0.60055246  0.59890718  0.50000000  1
  F  F32  1  0.76959634  0.15497254  0.00000000  1
  F  F33  1  0.89701387  0.84978819  0.00000000  1
  F  F34  1  0.93065897  0.09561318  0.50000000  1
  F  F35  1  0.93390907  0.60602765  0.50000000  1
