# generated using pymatgen
data_Mn2O3F
_symmetry_space_group_name_H-M   'P 1'
_cell_length_a   4.58375104
_cell_length_b   4.58375104
_cell_length_c   9.05402309
_cell_angle_alpha   90.00000000
_cell_angle_beta   90.00000000
_cell_angle_gamma   92.67839855
_symmetry_Int_Tables_number   1
_chemical_formula_structural   Mn2O3F
_chemical_formula_sum   'Mn6 O9 F3'
_cell_volume   190.02421334
_cell_formula_units_Z   3
loop_
 _symmetry_equiv_pos_site_id
 _symmetry_equiv_pos_as_xyz
  1  'x, y, z'
loop_
 _atom_site_type_symbol
 _atom_site_label
 _atom_site_symmetry_multiplicity
 _atom_site_fract_x
 _atom_site_fract_y
 _atom_site_fract_z
 _atom_site_occupancy
  Mn  Mn0  1  0.00082223  0.99917777  0.99994593  1
  Mn  Mn1  1  0.00082223  0.99917777  0.33338707  1
  Mn  Mn2  1  0.01309318  0.98690682  0.66666700  1
  Mn  Mn3  1  0.48092952  0.51907048  0.83393860  1
  Mn  Mn4  1  0.52538231  0.47461769  0.16666700  1
  Mn  Mn5  1  0.48092952  0.51907048  0.49939440  1
  O  O6  1  0.19108946  0.80891054  0.49867689  1
  O  O7  1  0.19108946  0.80891054  0.83465611  1
  O  O8  1  0.31341847  0.30329101  0.99940558  1
  O  O9  1  0.31341847  0.30329101  0.33392742  1
  O  O10  1  0.29395496  0.31576650  0.66666700  1
  O  O11  1  0.69670899  0.68658153  0.99940558  1
  O  O12  1  0.69670899  0.68658153  0.33392742  1
  O  O13  1  0.68423350  0.70604504  0.66666700  1
  O  O14  1  0.81361643  0.18638357  0.16666700  1
  F  F15  1  0.22182619  0.77817381  0.16666700  1
  F  F16  1  0.79097854  0.20902146  0.50920052  1
  F  F17  1  0.79097854  0.20902146  0.82413248  1
