# generated using pymatgen
data_FeOF
_symmetry_space_group_name_H-M   'P 1'
_cell_length_a   9.46062464
_cell_length_b   14.24690626
_cell_length_c   3.11190349
_cell_angle_alpha   90.00000000
_cell_angle_beta   90.00000000
_cell_angle_gamma   90.05095362
_symmetry_Int_Tables_number   1
_chemical_formula_structural   FeOF
_chemical_formula_sum   'Fe12 O12 F12'
_cell_volume   419.43660204
_cell_formula_units_Z   12
loop_
 _symmetry_equiv_pos_site_id
 _symmetry_equiv_pos_as_xyz
  1  'x, y, z'
loop_
 _atom_site_type_symbol
 _atom_site_label
 _atom_site_symmetry_multiplicity
 _atom_site_fract_x
 _atom_site_fract_y
 _atom_site_fract_z
 _atom_site_occupancy
  Fe  Fe0  1  0.01896517  0.99824498  0.00000000  1
  Fe  Fe1  1  0.01261211  0.32859358  0.00000000  1
  Fe  Fe2  1  0.01892556  0.66150687  0.00000000  1
  Fe  Fe3  1  0.22750269  0.16687597  0.50000000  1
  Fe  Fe4  1  0.22811002  0.49384861  0.50000000  1
  Fe  Fe5  1  0.22714147  0.82963933  0.50000000  1
  Fe  Fe6  1  0.51948112  0.32985715  0.00000000  1
  Fe  Fe7  1  0.51535808  0.99564867  0.00000000  1
  Fe  Fe8  1  0.51614818  0.66216409  0.00000000  1
  Fe  Fe9  1  0.76195297  0.18550502  0.50000000  1
  Fe  Fe10  1  0.72967567  0.49694412  0.50000000  1
  Fe  Fe11  1  0.73063800  0.82916543  0.50000000  1
  O  O12  1  0.10022709  0.27055429  0.50000000  1
  O  O13  1  0.09566005  0.60030561  0.50000000  1
  O  O14  1  0.09706137  0.93532855  0.50000000  1
  O  O15  1  0.15243678  0.10184767  0.00000000  1
  O  O16  1  0.15154428  0.76789683  0.00000000  1
  O  O17  1  0.15121321  0.43349950  0.00000000  1
  O  O18  1  0.59541387  0.26603639  0.50000000  1
  O  O19  1  0.60015517  0.93909805  0.50000000  1
  O  O20  1  0.59516027  0.60164722  0.50000000  1
  O  O21  1  0.65128749  0.43494137  0.00000000  1
  O  O22  1  0.64917417  0.76904067  0.00000000  1
  O  O23  1  0.85284995  0.23559058  0.00000000  1
  F  F24  1  0.34779239  0.23285088  0.00000000  1
  F  F25  1  0.34691798  0.56468213  0.00000000  1
  F  F26  1  0.34975988  0.90064998  0.00000000  1
  F  F27  1  0.40797192  0.06752925  0.50000000  1
  F  F28  1  0.40187477  0.39780505  0.50000000  1
  F  F29  1  0.39955769  0.73258454  0.50000000  1
  F  F30  1  0.65556459  0.10359119  0.00000000  1
  F  F31  1  0.84699367  0.89828369  0.00000000  1
  F  F32  1  0.84573776  0.56755717  0.00000000  1
  F  F33  1  0.89713913  0.06330805  0.50000000  1
  F  F34  1  0.90122741  0.40464768  0.50000000  1
  F  F35  1  0.90076507  0.73272883  0.50000000  1
