# generated using pymatgen
data_FeOF
_symmetry_space_group_name_H-M   'P 1'
_cell_length_a   14.22878611
_cell_length_b   9.48969465
_cell_length_c   3.09614525
_cell_angle_alpha   90.00000000
_cell_angle_beta   90.00000000
_cell_angle_gamma   90.33745062
_symmetry_Int_Tables_number   1
_chemical_formula_structural   FeOF
_chemical_formula_sum   'Fe12 O12 F12'
_cell_volume   418.05544433
_cell_formula_units_Z   12
loop_
 _symmetry_equiv_pos_site_id
 _symmetry_equiv_pos_as_xyz
  1  'x, y, z'
loop_
 _atom_site_type_symbol
 _atom_site_label
 _atom_site_symmetry_multiplicity
 _atom_site_fract_x
 _atom_site_fract_y
 _atom_site_fract_z
 _atom_site_occupancy
  Fe  Fe0  1  0.00842993  0.98932316  0.00000000  1
  Fe  Fe1  1  0.00604804  0.50342105  0.00000000  1
  Fe  Fe2  1  0.16637639  0.27884770  0.50000000  1
  Fe  Fe3  1  0.15267914  0.74722502  0.50000000  1
  Fe  Fe4  1  0.34290909  0.99582973  0.00000000  1
  Fe  Fe5  1  0.33505705  0.48735526  0.00000000  1
  Fe  Fe6  1  0.50428691  0.77479766  0.50000000  1
  Fe  Fe7  1  0.48203175  0.25275267  0.50000000  1
  Fe  Fe8  1  0.66918252  0.99864824  0.00000000  1
  Fe  Fe9  1  0.67874573  0.49660010  0.00000000  1
  Fe  Fe10  1  0.81869633  0.24321859  0.50000000  1
  Fe  Fe11  1  0.83592273  0.71674350  0.50000000  1
  O  O12  1  0.06087428  0.39730466  0.50000000  1
  O  O13  1  0.06555806  0.90518633  0.50000000  1
  O  O14  1  0.10522340  0.65347242  0.00000000  1
  O  O15  1  0.23346989  0.35081588  0.00000000  1
  O  O16  1  0.40138781  0.41392086  0.50000000  1
  O  O17  1  0.39633063  0.90046117  0.50000000  1
  O  O18  1  0.43332260  0.15433028  0.00000000  1
  O  O19  1  0.57134567  0.85386588  0.00000000  1
  O  O20  1  0.73055275  0.40042159  0.50000000  1
  O  O21  1  0.76643737  0.14226589  0.00000000  1
  O  O22  1  0.76347327  0.65765654  0.00000000  1
  O  O23  1  0.93606630  0.59262938  0.50000000  1
  F  F24  1  0.10013593  0.15238972  0.00000000  1
  F  F25  1  0.23149294  0.85203126  0.00000000  1
  F  F26  1  0.26324544  0.09388511  0.50000000  1
  F  F27  1  0.27304573  0.60751059  0.50000000  1
  F  F28  1  0.43824138  0.65891774  0.00000000  1
  F  F29  1  0.56495003  0.34661729  0.00000000  1
  F  F30  1  0.60361664  0.10026892  0.50000000  1
  F  F31  1  0.59726133  0.59462643  0.50000000  1
  F  F32  1  0.73535834  0.90422806  0.50000000  1
  F  F33  1  0.89469079  0.33350970  0.00000000  1
  F  F34  1  0.89735210  0.85208972  0.00000000  1
  F  F35  1  0.93620372  0.09683292  0.50000000  1
