# generated using pymatgen
data_LiFe(CoO3)2
_symmetry_space_group_name_H-M   'P 1'
_cell_length_a   6.54234811
_cell_length_b   2.88058659
_cell_length_c   5.94189259
_cell_angle_alpha   89.98781824
_cell_angle_beta   104.92589500
_cell_angle_gamma   77.29000296
_symmetry_Int_Tables_number   1
_chemical_formula_structural   LiFe(CoO3)2
_chemical_formula_sum   'Li1 Fe1 Co2 O6'
_cell_volume   105.35777780
_cell_formula_units_Z   1
loop_
 _symmetry_equiv_pos_site_id
 _symmetry_equiv_pos_as_xyz
  1  'x, y, z'
loop_
 _atom_site_type_symbol
 _atom_site_label
 _atom_site_symmetry_multiplicity
 _atom_site_fract_x
 _atom_site_fract_y
 _atom_site_fract_z
 _atom_site_occupancy
  Li  Li0  1  0.33325862  0.33337249  0.83310516  1
  Fe  Fe1  1  0.33368387  0.33314486  0.33314778  1
  Co  Co2  1  0.67611441  0.66194010  0.66260038  1
  Co  Co3  1  0.99041226  0.00476659  0.00438220  1
  O  O4  1  0.00772172  0.49613380  0.21061437  1
  O  O5  1  0.36827736  0.81573573  0.58134842  1
  O  O6  1  0.29870623  0.85077180  0.08500268  1
  O  O7  1  0.68703431  0.15637621  0.87654552  1
  O  O8  1  0.65902811  0.17056639  0.45626217  1
  O  O9  1  0.97909812  0.51052604  0.79032432  1
