# generated using pymatgen
data_Li2Mn3F8
_symmetry_space_group_name_H-M   'P 1'
_cell_length_a   5.82733437
_cell_length_b   8.73611797
_cell_length_c   8.21515139
_cell_angle_alpha   90.00000000
_cell_angle_beta   97.45513712
_cell_angle_gamma   90.00000000
_symmetry_Int_Tables_number   1
_chemical_formula_structural   Li2Mn3F8
_chemical_formula_sum   'Li4 Mn6 F16'
_cell_volume   414.68392399
_cell_formula_units_Z   2
loop_
 _symmetry_equiv_pos_site_id
 _symmetry_equiv_pos_as_xyz
  1  'x, y, z'
loop_
 _atom_site_type_symbol
 _atom_site_label
 _atom_site_symmetry_multiplicity
 _atom_site_fract_x
 _atom_site_fract_y
 _atom_site_fract_z
 _atom_site_occupancy
  Li  Li0  1  0.06029017  0.30310415  0.19098201  1
  Li  Li1  1  0.43970983  0.80310415  0.30901799  1
  Li  Li2  1  0.56029017  0.19689585  0.69098201  1
  Li  Li3  1  0.93970983  0.69689585  0.80901799  1
  Mn  Mn4  1  0.00000000  0.00000000  0.50000000  1
  Mn  Mn5  1  0.11147795  0.35353186  0.60447519  1
  Mn  Mn6  1  0.38852205  0.85353186  0.89552481  1
  Mn  Mn7  1  0.50000000  0.50000000  0.00000000  1
  Mn  Mn8  1  0.61147795  0.14646814  0.10447519  1
  Mn  Mn9  1  0.88852205  0.64646814  0.39552481  1
  F  F10  1  0.09005343  0.88341477  0.73361889  1
  F  F11  1  0.07172987  0.44488086  0.36387024  1
  F  F12  1  0.21074142  0.65374666  0.96247442  1
  F  F13  1  0.15343140  0.80497750  0.38883968  1
  F  F14  1  0.28925858  0.15374666  0.53752558  1
  F  F15  1  0.40994657  0.38341477  0.76638111  1
  F  F16  1  0.34656860  0.30497750  0.11116032  1
  F  F17  1  0.42827013  0.94488086  0.13612976  1
  F  F18  1  0.57172987  0.05511914  0.86387024  1
  F  F19  1  0.65343140  0.69502250  0.88883968  1
  F  F20  1  0.59005343  0.61658523  0.23361889  1
  F  F21  1  0.71074142  0.84625334  0.46247442  1
  F  F22  1  0.84656860  0.19502250  0.61116032  1
  F  F23  1  0.78925858  0.34625334  0.03752558  1
  F  F24  1  0.92827013  0.55511914  0.63612976  1
  F  F25  1  0.90994657  0.11658523  0.26638111  1
