# generated using pymatgen
data_LiVP2O7
_symmetry_space_group_name_H-M   'P 1'
_cell_length_a   7.09458006
_cell_length_b   10.23910252
_cell_length_c   8.09718572
_cell_angle_alpha   90.00000000
_cell_angle_beta   111.69082940
_cell_angle_gamma   90.00000000
_symmetry_Int_Tables_number   1
_chemical_formula_structural   LiVP2O7
_chemical_formula_sum   'Li4 V4 P8 O28'
_cell_volume   546.54764410
_cell_formula_units_Z   4
loop_
 _symmetry_equiv_pos_site_id
 _symmetry_equiv_pos_as_xyz
  1  'x, y, z'
loop_
 _atom_site_type_symbol
 _atom_site_label
 _atom_site_symmetry_multiplicity
 _atom_site_fract_x
 _atom_site_fract_y
 _atom_site_fract_z
 _atom_site_occupancy
  Li  Li0  1  0.37048054  0.84986446  0.93934793  1
  Li  Li1  1  0.37048054  0.65013554  0.43934793  1
  Li  Li2  1  0.62951946  0.34986446  0.56065207  1
  Li  Li3  1  0.62951946  0.15013554  0.06065207  1
  V  V4  1  0.26931884  0.39359643  0.74330019  1
  V  V5  1  0.26931884  0.10640357  0.24330019  1
  V  V6  1  0.73068116  0.89359643  0.75669981  1
  V  V7  1  0.73068116  0.60640357  0.25669981  1
  P  P8  1  0.02857300  0.14898575  0.79388720  1
  P  P9  1  0.02857300  0.35101425  0.29388720  1
  P  P10  1  0.36167348  0.09423196  0.68619349  1
  P  P11  1  0.36167348  0.40576804  0.18619349  1
  P  P12  1  0.63832652  0.59423196  0.81380651  1
  P  P13  1  0.63832652  0.90576804  0.31380651  1
  P  P14  1  0.97142700  0.64898575  0.70611280  1
  P  P15  1  0.97142700  0.85101425  0.20611280  1
  O  O16  1  0.99858347  0.29256476  0.73556428  1
  O  O17  1  0.18037485  0.12775990  0.98334792  1
  O  O18  1  0.17126084  0.57831521  0.73989129  1
  O  O19  1  0.12785327  0.07628282  0.66566795  1
  O  O20  1  0.99858347  0.20743524  0.23556428  1
  O  O21  1  0.18037485  0.37224010  0.48334792  1
  O  O22  1  0.37240952  0.39834065  0.00464360  1
  O  O23  1  0.17126084  0.92168479  0.23989129  1
  O  O24  1  0.12785327  0.42371718  0.16566795  1
  O  O25  1  0.44080729  0.22072137  0.79407475  1
  O  O26  1  0.37240952  0.10165935  0.50464360  1
  O  O27  1  0.47353850  0.97474124  0.79366050  1
  O  O28  1  0.52646150  0.47474124  0.70633950  1
  O  O29  1  0.44080729  0.27927863  0.29407475  1
  O  O30  1  0.55919271  0.72072137  0.70592525  1
  O  O31  1  0.47353850  0.52525876  0.29366050  1
  O  O32  1  0.52646150  0.02525876  0.20633950  1
  O  O33  1  0.62759048  0.89834065  0.49535640  1
  O  O34  1  0.55919271  0.77927863  0.20592525  1
  O  O35  1  0.87214673  0.57628282  0.83433205  1
  O  O36  1  0.82873916  0.07831521  0.76010871  1
  O  O37  1  0.62759048  0.60165935  0.99535640  1
  O  O38  1  0.81962515  0.62775990  0.51665208  1
  O  O39  1  0.00141653  0.79256476  0.76443572  1
  O  O40  1  0.87214673  0.92371718  0.33433205  1
  O  O41  1  0.82873916  0.42168479  0.26010871  1
  O  O42  1  0.81962515  0.87224010  0.01665208  1
  O  O43  1  0.00141653  0.70743524  0.26443572  1
