# generated using pymatgen
data_Fe4OF7
_symmetry_space_group_name_H-M   'P 1'
_cell_length_a   4.81686415
_cell_length_b   10.81932401
_cell_length_c   5.83132302
_cell_angle_alpha   82.42741698
_cell_angle_beta   89.70267476
_cell_angle_gamma   89.70061987
_symmetry_Int_Tables_number   1
_chemical_formula_structural   Fe4OF7
_chemical_formula_sum   'Fe8 O2 F14'
_cell_volume   301.24302452
_cell_formula_units_Z   2
loop_
 _symmetry_equiv_pos_site_id
 _symmetry_equiv_pos_as_xyz
  1  'x, y, z'
loop_
 _atom_site_type_symbol
 _atom_site_label
 _atom_site_symmetry_multiplicity
 _atom_site_fract_x
 _atom_site_fract_y
 _atom_site_fract_z
 _atom_site_occupancy
  Fe  Fe0  1  0.52401736  0.49997773  0.02195646  1
  Fe  Fe1  1  0.48720271  0.00805306  0.49699638  1
  Fe  Fe2  1  0.47598264  0.25002227  0.72804354  1
  Fe  Fe3  1  0.51279729  0.74194694  0.25300362  1
  Fe  Fe4  1  0.99524688  0.75046851  0.74750744  1
  Fe  Fe5  1  0.98850860  0.50427854  0.48778431  1
  Fe  Fe6  1  0.01149140  0.24572146  0.26221569  1
  Fe  Fe7  1  0.00475312  -0.00046851  0.00249256  1
  O  O8  1  0.69118813  0.56657172  0.25915958  1
  O  O9  1  0.30881187  0.18342828  0.49084042  1
  F  F10  1  0.80490472  0.32574126  0.53620699  1
  F  F11  1  0.79317885  0.57172142  0.77110204  1
  F  F12  1  0.80396025  0.07673561  0.27381285  1
  F  F13  1  0.79669900  0.82624289  0.01970967  1
  F  F14  1  0.69624789  0.82864741  0.52476692  1
  F  F15  1  0.70040280  0.08732356  0.79049904  1
  F  F16  1  0.68950029  0.32815917  0.01796806  1
  F  F17  1  0.30375211  0.92135259  0.22523308  1
  F  F18  1  0.31049971  0.42184083  0.73203194  1
  F  F19  1  0.29959720  0.66267644  0.95950096  1
  F  F20  1  0.20682115  0.17827858  0.97889796  1
  F  F21  1  0.20330100  0.92375711  0.73029033  1
  F  F22  1  0.19603975  0.67326439  0.47618715  1
  F  F23  1  0.19509528  0.42425874  0.21379301  1
