# generated using pymatgen
data_LiV2(PO3)5
_symmetry_space_group_name_H-M   'P 1'
_cell_length_a   12.74477707
_cell_length_b   8.89918559
_cell_length_c   5.36153202
_cell_angle_alpha   90.00000000
_cell_angle_beta   92.36883929
_cell_angle_gamma   90.00000000
_symmetry_Int_Tables_number   1
_chemical_formula_structural   LiV2(PO3)5
_chemical_formula_sum   'Li2 V4 P10 O30'
_cell_volume   607.57532748
_cell_formula_units_Z   2
loop_
 _symmetry_equiv_pos_site_id
 _symmetry_equiv_pos_as_xyz
  1  'x, y, z'
loop_
 _atom_site_type_symbol
 _atom_site_label
 _atom_site_symmetry_multiplicity
 _atom_site_fract_x
 _atom_site_fract_y
 _atom_site_fract_z
 _atom_site_occupancy
  Li  Li0  1  0.45664069  0.00627533  0.56904290  1
  Li  Li1  1  0.95664069  0.99372467  0.06904290  1
  V  V2  1  0.05787932  0.69516989  0.12525502  1
  V  V3  1  0.44548621  0.69541667  0.37233936  1
  V  V4  1  0.55787932  0.30483011  0.62525502  1
  V  V5  1  0.94548621  0.30458333  0.87233936  1
  P  P6  1  0.08659277  0.18472253  0.40654461  1
  P  P7  1  0.14347731  0.48859411  0.60456455  1
  P  P8  1  0.25069660  0.96243364  0.25373275  1
  P  P9  1  0.35763263  0.48706197  0.89482029  1
  P  P10  1  0.41381362  0.18028223  0.08890074  1
  P  P11  1  0.58659277  0.81527747  0.90654461  1
  P  P12  1  0.64347731  0.51140589  0.10456455  1
  P  P13  1  0.75069660  0.03756636  0.75373275  1
  P  P14  1  0.85763263  0.51293803  0.39482029  1
  P  P15  1  0.91381362  0.81971777  0.58890074  1
  O  O16  1  0.03339009  0.17247010  0.15148803  1
  O  O17  1  0.02303806  0.15718090  0.63060145  1
  O  O18  1  0.05936971  0.48475830  0.79781795  1
  O  O19  1  0.13678248  0.35019283  0.41383957  1
  O  O20  1  0.17415968  0.87367441  0.09629725  1
  O  O21  1  0.15247902  0.62647433  0.44889867  1
  O  O22  1  0.18954512  0.08000216  0.42965006  1
  O  O23  1  0.25056406  0.44690790  0.74923600  1
  O  O24  1  0.31119765  0.07590329  0.06670023  1
  O  O25  1  0.34785868  0.62237967  0.05629025  1
  O  O26  1  0.33355732  0.88859335  0.42223598  1
  O  O27  1  0.36497245  0.34585365  0.08001374  1
  O  O28  1  0.44197687  0.48429597  0.70240369  1
  O  O29  1  0.47393232  0.15118885  0.85712722  1
  O  O30  1  0.46935635  0.17049732  0.34120070  1
  O  O31  1  0.53339009  0.82752990  0.65148803  1
  O  O32  1  0.52303806  0.84281910  0.13060145  1
  O  O33  1  0.55936971  0.51524170  0.29781795  1
  O  O34  1  0.63678248  0.64980717  0.91383957  1
  O  O35  1  0.67415968  0.12632559  0.59629725  1
  O  O36  1  0.65247902  0.37352567  0.94889867  1
  O  O37  1  0.68954512  0.91999784  0.92965006  1
  O  O38  1  0.75056406  0.55309210  0.24923600  1
  O  O39  1  0.81119765  0.92409671  0.56670023  1
  O  O40  1  0.84785868  0.37762033  0.55629025  1
  O  O41  1  0.83355732  0.11140665  0.92223598  1
  O  O42  1  0.86497245  0.65414635  0.58001374  1
  O  O43  1  0.94197687  0.51570403  0.20240369  1
  O  O44  1  0.97393232  0.84881115  0.35712722  1
  O  O45  1  0.96935635  0.82950268  0.84120070  1
