# generated using pymatgen
data_V2O3F2
_symmetry_space_group_name_H-M   'P 1'
_cell_length_a   5.10159390
_cell_length_b   5.67092801
_cell_length_c   7.67839795
_cell_angle_alpha   121.98116143
_cell_angle_beta   111.96068621
_cell_angle_gamma   82.58197650
_symmetry_Int_Tables_number   1
_chemical_formula_structural   V2O3F2
_chemical_formula_sum   'V4 O6 F4'
_cell_volume   174.08096277
_cell_formula_units_Z   2
loop_
 _symmetry_equiv_pos_site_id
 _symmetry_equiv_pos_as_xyz
  1  'x, y, z'
loop_
 _atom_site_type_symbol
 _atom_site_label
 _atom_site_symmetry_multiplicity
 _atom_site_fract_x
 _atom_site_fract_y
 _atom_site_fract_z
 _atom_site_occupancy
  V  V0  1  0.19374798  0.56301018  0.22366702  1
  V  V1  1  0.41366893  0.03397915  0.82068952  1
  V  V2  1  0.58633107  0.96602085  0.17931048  1
  V  V3  1  0.80625202  0.43698982  0.77633298  1
  O  O4  1  0.13270405  0.29899568  0.91002392  1
  O  O5  1  0.31425886  0.81183708  0.92421534  1
  O  O6  1  0.52793135  0.23538196  0.71218054  1
  O  O7  1  0.47206865  0.76461804  0.28781946  1
  O  O8  1  0.68574114  0.18816292  0.07578466  1
  O  O9  1  0.86729595  0.70100432  0.08997608  1
  F  F10  1  0.14228871  0.77541095  0.51423427  1
  F  F11  1  0.32414304  0.27507291  0.29428902  1
  F  F12  1  0.67585696  0.72492709  0.70571098  1
  F  F13  1  0.85771129  0.22458905  0.48576573  1
