# generated using pymatgen
data_LiVPO5
_symmetry_space_group_name_H-M   'P 1'
_cell_length_a   8.59316937
_cell_length_b   9.30783417
_cell_length_c   10.44463031
_cell_angle_alpha   90.00000000
_cell_angle_beta   90.00000000
_cell_angle_gamma   89.92455399
_symmetry_Int_Tables_number   1
_chemical_formula_structural   LiVPO5
_chemical_formula_sum   'Li8 V8 P8 O40'
_cell_volume   835.40045015
_cell_formula_units_Z   8
loop_
 _symmetry_equiv_pos_site_id
 _symmetry_equiv_pos_as_xyz
  1  'x, y, z'
loop_
 _atom_site_type_symbol
 _atom_site_label
 _atom_site_symmetry_multiplicity
 _atom_site_fract_x
 _atom_site_fract_y
 _atom_site_fract_z
 _atom_site_occupancy
  Li  Li0  1  0.00134892  0.81075361  0.99886721  1
  Li  Li1  1  0.21258186  0.13993687  0.10717663  1
  Li  Li2  1  0.28741814  0.86006313  0.60717663  1
  Li  Li3  1  0.49865108  0.18924639  0.49886721  1
  Li  Li4  1  0.56475357  0.53817151  0.04829578  1
  Li  Li5  1  0.70877124  0.86521736  0.39767276  1
  Li  Li6  1  0.79122876  0.13478264  0.89767276  1
  Li  Li7  1  0.93524643  0.46182849  0.54829578  1
  V  V8  1  0.13527033  0.15504073  0.62269699  1
  V  V9  1  0.15490433  0.35882144  0.90095275  1
  V  V10  1  0.34509567  0.64117856  0.40095275  1
  V  V11  1  0.36472967  0.84495927  0.12269699  1
  V  V12  1  0.63939431  0.83787304  0.89270459  1
  V  V13  1  0.64306605  0.64625147  0.61043893  1
  V  V14  1  0.85693395  0.35374853  0.11043893  1
  V  V15  1  0.86060569  0.16212696  0.39270459  1
  P  P16  1  0.15221418  0.55764438  0.14256080  1
  P  P17  1  0.17061904  0.95820527  0.37462126  1
  P  P18  1  0.32938096  0.04179473  0.87462126  1
  P  P19  1  0.34778582  0.44235562  0.64256080  1
  P  P20  1  0.64848042  0.44525618  0.35237092  1
  P  P21  1  0.67500253  0.04491987  0.12844685  1
  P  P22  1  0.82499747  0.95508013  0.62844685  1
  P  P23  1  0.85151958  0.55474382  0.85237092  1
  O  O24  1  0.00235718  0.26913998  0.98748103  1
  O  O25  1  0.98356030  0.25109841  0.50073303  1
  O  O26  1  0.00137548  0.98692677  0.63043238  1
  O  O27  1  0.02656284  0.52918954  0.86758578  1
  O  O28  1  0.07084189  0.25709137  0.74806945  1
  O  O29  1  0.17698264  0.71336667  0.09300919  1
  O  O30  1  0.19662563  0.80437241  0.42799388  1
  O  O31  1  0.20076114  0.54745671  0.28448251  1
  O  O32  1  0.25286546  0.55257295  0.56076180  1
  O  O33  1  0.26882952  0.02138641  0.73603828  1
  O  O34  1  0.24201539  0.94169329  0.97191887  1
  O  O35  1  0.25798461  0.05830671  0.47191887  1
  O  O36  1  0.23117048  0.97861359  0.23603828  1
  O  O37  1  0.24713454  0.44742705  0.06076180  1
  O  O38  1  0.29923886  0.45254329  0.78448251  1
  O  O39  1  0.30337437  0.19562759  0.92799388  1
  O  O40  1  0.32301736  0.28663333  0.59300919  1
  O  O41  1  0.42915811  0.74290863  0.24806945  1
  O  O42  1  0.47343716  0.47081046  0.36758578  1
  O  O43  1  0.49862452  0.01307323  0.13043238  1
  O  O44  1  0.49764282  0.73086002  0.48748103  1
  O  O45  1  0.51643970  0.74890159  0.00073303  1
  O  O46  1  0.50376313  0.00793446  0.87280391  1
  O  O47  1  0.52389427  0.47144732  0.63362190  1
  O  O48  1  0.57026197  0.74148181  0.74000126  1
  O  O49  1  0.67380534  0.28542484  0.39593971  1
  O  O50  1  0.69936598  0.19851615  0.07433091  1
  O  O51  1  0.68819837  0.46200459  0.20779459  1
  O  O52  1  0.75252762  0.45677998  0.94175075  1
  O  O53  1  0.76617910  0.97669102  0.76625556  1
  O  O54  1  0.73589652  0.05528104  0.53108772  1
  O  O55  1  0.76410348  0.94471896  0.03108772  1
  O  O56  1  0.73382090  0.02330898  0.26625556  1
  O  O57  1  0.74747238  0.54322002  0.44175075  1
  O  O58  1  0.81180163  0.53799541  0.70779459  1
  O  O59  1  0.80063402  0.80148385  0.57433091  1
  O  O60  1  0.82619466  0.71457516  0.89593971  1
  O  O61  1  0.92973803  0.25851819  0.24000126  1
  O  O62  1  0.97610573  0.52855268  0.13362190  1
  O  O63  1  0.99623687  0.99206554  0.37280391  1
