# generated using pymatgen
data_Li3V3(PO4)4
_symmetry_space_group_name_H-M   'P 1'
_cell_length_a   13.52300752
_cell_length_b   8.40382672
_cell_length_c   8.84446958
_cell_angle_alpha   90.12925439
_cell_angle_beta   84.51035367
_cell_angle_gamma   90.06334538
_symmetry_Int_Tables_number   1
_chemical_formula_structural   Li3V3(PO4)4
_chemical_formula_sum   'Li9 V9 P12 O48'
_cell_volume   1000.51687839
_cell_formula_units_Z   3
loop_
 _symmetry_equiv_pos_site_id
 _symmetry_equiv_pos_as_xyz
  1  'x, y, z'
loop_
 _atom_site_type_symbol
 _atom_site_label
 _atom_site_symmetry_multiplicity
 _atom_site_fract_x
 _atom_site_fract_y
 _atom_site_fract_z
 _atom_site_occupancy
  Li  Li0  1  0.17091738  0.47919102  0.33908838  1
  Li  Li1  1  0.49712852  0.52381905  0.99807823  1
  Li  Li2  1  0.17573399  0.14582025  0.43809199  1
  Li  Li3  1  0.82168618  0.64655076  0.06036707  1
  Li  Li4  1  0.15729668  0.00404835  0.81862838  1
  Li  Li5  1  0.50302177  0.98959646  0.51427896  1
  Li  Li6  1  0.82745479  0.97415717  0.16044422  1
  Li  Li7  1  0.49246353  0.85203248  0.89755184  1
  Li  Li8  1  0.83870058  0.50822689  0.68351012  1
  V  V9  1  0.16075960  0.85481466  0.23168415  1
  V  V10  1  0.50482123  0.14225351  0.10202748  1
  V  V11  1  0.16003999  0.65034330  0.73211385  1
  V  V12  1  0.49873594  0.65438493  0.39558364  1
  V  V13  1  0.16770905  0.34896621  0.93493164  1
  V  V14  1  0.50423386  0.35321878  0.60156833  1
  V  V15  1  0.83955804  0.35768966  0.26484119  1
  V  V16  1  0.82957328  0.84469991  0.56603166  1
  V  V17  1  0.84054149  0.14801118  0.77055997  1
  P  P18  1  0.05620714  0.19278138  0.14598695  1
  P  P19  1  0.27985592  0.69736608  0.02574364  1
  P  P20  1  0.05634037  0.29789309  0.63935011  1
  P  P21  1  0.38627905  0.30270299  0.30761521  1
  P  P22  1  0.27592817  0.80082729  0.52062735  1
  P  P23  1  0.61434018  0.81079879  0.18847216  1
  P  P24  1  0.38950023  0.19913971  0.81265231  1
  P  P25  1  0.72423762  0.20004464  0.47595634  1
  P  P26  1  0.60975272  0.70224270  0.69260315  1
  P  P27  1  0.94322719  0.69354026  0.35449299  1
  P  P28  1  0.72286829  0.29968461  0.97876567  1
  P  P29  1  0.94331596  0.79850445  0.86106486  1
  O  O30  1  0.22312048  0.86237847  0.02204490  1
  O  O31  1  0.11225710  0.35940477  0.14624764  1
  O  O32  1  0.10021292  0.07518639  0.25409399  1
  O  O33  1  0.05494757  0.71246513  0.30768686  1
  O  O34  1  0.24855105  0.64360105  0.19035142  1
  O  O35  1  0.07147405  0.36965836  0.48288977  1
  O  O36  1  0.41802462  0.35595436  0.14297198  1
  O  O37  1  0.27719150  0.29637185  0.35675404  1
  O  O38  1  0.23065738  0.91538809  0.40777120  1
  O  O39  1  0.61122064  0.28541900  0.02445540  1
  O  O40  1  0.56364911  0.92496250  0.08095512  1
  O  O41  1  0.22155557  0.63363180  0.52263130  1
  O  O42  1  0.10787514  0.13883625  0.65160668  1
  O  O43  1  0.55717651  0.64272027  0.18808726  1
  O  O44  1  0.44318625  0.13807953  0.31261929  1
  O  O45  1  0.10253194  0.42166767  0.75922612  1
  O  O46  1  0.05672137  0.79623897  0.80002872  1
  O  O47  1  0.43960921  0.42013966  0.42139570  1
  O  O48  1  0.38819795  0.78782297  0.47397878  1
  O  O49  1  0.76813552  0.41632450  0.09121101  1
  O  O50  1  0.25178615  0.85498370  0.68675521  1
  O  O51  1  0.72451028  0.79634582  0.14549529  1
  O  O52  1  0.58508327  0.85715199  0.35825430  1
  O  O53  1  0.92910317  0.87123810  0.01679237  1
  O  O54  1  0.07847627  0.14734528  0.97615174  1
  O  O55  1  0.41455685  0.14659086  0.64591978  1
  O  O56  1  0.27714940  0.21269972  0.85939017  1
  O  O57  1  0.74715519  0.14479193  0.31112211  1
  O  O58  1  0.22577612  0.58109284  0.91185143  1
  O  O59  1  0.61272134  0.21146935  0.52881741  1
  O  O60  1  0.56345757  0.57916605  0.57147136  1
  O  O61  1  0.94402226  0.21216769  0.19314021  1
  O  O62  1  0.89928558  0.57582120  0.24472626  1
  O  O63  1  0.55889512  0.86224978  0.68154178  1
  O  O64  1  0.44336871  0.36713611  0.81014658  1
  O  O65  1  0.88642771  0.85916286  0.35504042  1
  O  O66  1  0.77902402  0.36474141  0.47808242  1
  O  O67  1  0.43473577  0.08460244  0.92473540  1
  O  O68  1  0.38899132  0.70302426  0.97626119  1
  O  O69  1  0.77173566  0.08206027  0.58925075  1
  O  O70  1  0.72321805  0.70435294  0.63308287  1
  O  O71  1  0.59308542  0.62829573  0.84782608  1
  O  O72  1  0.92109948  0.64620832  0.52372478  1
  O  O73  1  0.74820541  0.35085560  0.81197762  1
  O  O74  1  0.94266727  0.29429769  0.69864161  1
  O  O75  1  0.89558599  0.92022317  0.74141365  1
  O  O76  1  0.89231703  0.63816042  0.84929932  1
  O  O77  1  0.77903399  0.13416030  0.97937086  1
