# generated using pymatgen
data_RbLiV(PO4)2
_symmetry_space_group_name_H-M   'P 1'
_cell_length_a   4.93873647
_cell_length_b   9.02814259
_cell_length_c   16.36741832
_cell_angle_alpha   90.00040738
_cell_angle_beta   84.67240659
_cell_angle_gamma   89.99995836
_symmetry_Int_Tables_number   1
_chemical_formula_structural   RbLiV(PO4)2
_chemical_formula_sum   'Rb4 Li4 V4 P8 O32'
_cell_volume   726.63158462
_cell_formula_units_Z   4
loop_
 _symmetry_equiv_pos_site_id
 _symmetry_equiv_pos_as_xyz
  1  'x, y, z'
loop_
 _atom_site_type_symbol
 _atom_site_label
 _atom_site_symmetry_multiplicity
 _atom_site_fract_x
 _atom_site_fract_y
 _atom_site_fract_z
 _atom_site_occupancy
  Rb  Rb0  1  0.40312497  0.13598273  0.41016955  1
  Rb  Rb1  1  0.59687938  0.63598297  0.08982902  1
  Rb  Rb2  1  0.40312413  0.36401502  0.91017124  1
  Rb  Rb3  1  0.59687644  0.86400961  0.58982956  1
  Li  Li4  1  0.25499862  0.98531267  0.01733847  1
  Li  Li5  1  0.25502745  0.51467571  0.51734009  1
  Li  Li6  1  0.74496700  0.48532888  0.48266244  1
  Li  Li7  1  0.74497646  0.01467906  0.98266381  1
  V  V8  1  0.40433208  0.06919955  0.16845732  1
  V  V9  1  0.40435047  0.43079122  0.66845027  1
  V  V10  1  0.59564597  0.56920599  0.33154681  1
  V  V11  1  0.59565538  0.93080068  0.83154391  1
  P  P12  1  0.07788695  0.77785105  0.40580713  1
  P  P13  1  0.14131938  0.38515857  0.24026929  1
  P  P14  1  0.07789249  0.72214830  0.90581327  1
  P  P15  1  0.14132454  0.11484561  0.74026760  1
  P  P16  1  0.85867838  0.88516355  0.25973170  1
  P  P17  1  0.92210412  0.27785291  0.09418480  1
  P  P18  1  0.85868524  0.61483512  0.75973129  1
  P  P19  1  0.92210830  0.22215006  0.59419380  1
  O  O20  1  0.06186569  0.40952326  0.14632040  1
  O  O21  1  0.09915092  0.92416069  0.19881200  1
  O  O22  1  0.14238679  0.15442844  0.08155055  1
  O  O23  1  0.06187580  0.09047339  0.64631675  1
  O  O24  1  0.14094672  0.84216468  0.48687723  1
  O  O25  1  0.21315399  0.22008613  0.24809083  1
  O  O26  1  0.09916957  0.57583580  0.69881149  1
  O  O27  1  0.14239052  0.34556365  0.58155279  1
  O  O28  1  0.14094471  0.65784460  0.98687480  1
  O  O29  1  0.21315977  0.27991955  0.74808620  1
  O  O30  1  0.32513384  0.73129214  0.34912370  1
  O  O31  1  0.38471265  0.48980976  0.24361256  1
  O  O32  1  0.45456839  0.46773822  0.41334708  1
  O  O33  1  0.32514893  0.76871443  0.84912432  1
  O  O34  1  0.38471713  0.01019512  0.74361177  1
  O  O35  1  0.54541026  0.96772656  0.08665109  1
  O  O36  1  0.45456728  0.03226406  0.91334803  1
  O  O37  1  0.61528157  0.98980731  0.25638784  1
  O  O38  1  0.67484196  0.23128015  0.15087407  1
  O  O39  1  0.54541924  0.53225925  0.58664336  1
  O  O40  1  0.61529272  0.51019093  0.75638340  1
  O  O41  1  0.67486044  0.26870885  0.65087328  1
  O  O42  1  0.78684005  0.72008306  0.25191107  1
  O  O43  1  0.85906075  0.34215964  0.01312885  1
  O  O44  1  0.85759712  0.65443900  0.41844709  1
  O  O45  1  0.90083723  0.42416453  0.30119284  1
  O  O46  1  0.78685190  0.77991636  0.75191179  1
  O  O47  1  0.85905355  0.15783217  0.51312137  1
  O  O48  1  0.93811930  0.90952973  0.35368353  1
  O  O49  1  0.85760682  0.84556956  0.91844978  1
  O  O50  1  0.90083871  0.07584664  0.80118938  1
  O  O51  1  0.93812693  0.59047307  0.85368240  1
