# generated using pymatgen
data_Cs2LiTaI6
_symmetry_space_group_name_H-M   'P 1'
_cell_length_a   8.32532195
_cell_length_b   8.32462876
_cell_length_c   8.32523670
_cell_angle_alpha   60.00295315
_cell_angle_beta   59.99463768
_cell_angle_gamma   60.00177570
_symmetry_Int_Tables_number   1
_chemical_formula_structural   Cs2LiTaI6
_chemical_formula_sum   'Cs2 Li1 Ta1 I6'
_cell_volume   407.98615006
_cell_formula_units_Z   1
loop_
 _symmetry_equiv_pos_site_id
 _symmetry_equiv_pos_as_xyz
  1  'x, y, z'
loop_
 _atom_site_type_symbol
 _atom_site_label
 _atom_site_symmetry_multiplicity
 _atom_site_fract_x
 _atom_site_fract_y
 _atom_site_fract_z
 _atom_site_occupancy
  Cs  Cs0  1  0.24999975  0.24999988  0.25000020  1
  Cs  Cs1  1  0.75000025  0.75000013  0.74999980  1
  Li  Li2  1  0.50000000  0.49999999  0.50000000  1
  Ta  Ta3  1  -0.00000002  0.00000005  -0.00000000  1
  I  I4  1  0.24243763  0.75756238  0.24243862  1
  I  I5  1  0.75757925  0.75757899  0.24242075  1
  I  I6  1  0.75756238  0.24243761  0.75756139  1
  I  I7  1  0.75756962  0.24243068  0.24243135  1
  I  I8  1  0.24243042  0.75756929  0.75756862  1
  I  I9  1  0.24242072  0.24242100  0.75757927  1
