# generated using pymatgen
data_Li3Fe2(SiO4)2
_symmetry_space_group_name_H-M   'P 1'
_cell_length_a   6.22656118
_cell_length_b   5.52854083
_cell_length_c   5.03503929
_cell_angle_alpha   90.82165746
_cell_angle_beta   90.20898190
_cell_angle_gamma   89.42983512
_symmetry_Int_Tables_number   1
_chemical_formula_structural   Li3Fe2(SiO4)2
_chemical_formula_sum   'Li3 Fe2 Si2 O8'
_cell_volume   173.29770610
_cell_formula_units_Z   1
loop_
 _symmetry_equiv_pos_site_id
 _symmetry_equiv_pos_as_xyz
  1  'x, y, z'
loop_
 _atom_site_type_symbol
 _atom_site_label
 _atom_site_symmetry_multiplicity
 _atom_site_fract_x
 _atom_site_fract_y
 _atom_site_fract_z
 _atom_site_occupancy
  Li  Li0  1  0.24494138  0.66334120  0.49563019  1
  Li  Li1  1  0.75550838  0.66997575  0.49591771  1
  Li  Li2  1  0.75339359  0.33535856  0.99510156  1
  Fe  Fe3  1  0.00578843  0.83499231  0.98740898  1
  Fe  Fe4  1  0.49353660  0.16535705  0.50178476  1
  Si  Si5  1  0.99612764  0.16459040  0.51121391  1
  Si  Si6  1  0.50351053  0.83219461  0.99170544  1
  O  O7  1  0.99897607  0.88091930  0.39878844  1
  O  O8  1  0.98006538  0.16539765  0.83143853  1
  O  O9  1  0.21982324  0.30695865  0.42240535  1
  O  O10  1  0.28835821  0.70386154  0.88060970  1
  O  O11  1  0.52037325  0.10973829  0.87127316  1
  O  O12  1  0.50078695  0.85128902  0.32500420  1
  O  O13  1  0.71782824  0.67655809  0.89959246  1
  O  O14  1  0.77144013  0.30852958  0.39804664  1
