# generated using pymatgen
data_Li3CoO2F
_symmetry_space_group_name_H-M   'P 1'
_cell_length_a   8.52922050
_cell_length_b   9.75077854
_cell_length_c   3.65306615
_cell_angle_alpha   90.00002112
_cell_angle_beta   90.00003411
_cell_angle_gamma   90.00239033
_symmetry_Int_Tables_number   1
_chemical_formula_structural   Li3CoO2F
_chemical_formula_sum   'Li12 Co4 O8 F4'
_cell_volume   303.81287275
_cell_formula_units_Z   4
loop_
 _symmetry_equiv_pos_site_id
 _symmetry_equiv_pos_as_xyz
  1  'x, y, z'
loop_
 _atom_site_type_symbol
 _atom_site_label
 _atom_site_symmetry_multiplicity
 _atom_site_fract_x
 _atom_site_fract_y
 _atom_site_fract_z
 _atom_site_occupancy
  Li  Li0  1  0.10306745  0.34489621  0.49999990  1
  Li  Li1  1  0.16207947  0.17403305  0.00000014  1
  Li  Li2  1  0.14392340  0.57664941  0.99999973  1
  Li  Li3  1  0.35614492  0.07666331  0.50000007  1
  Li  Li4  1  0.33793226  0.67406336  0.49999989  1
  Li  Li5  1  0.39690789  0.84496108  0.00000020  1
  Li  Li6  1  0.60309770  0.15502872  0.99999959  1
  Li  Li7  1  0.66205370  0.32593221  0.49999971  1
  Li  Li8  1  0.64386171  0.92333852  0.50000015  1
  Li  Li9  1  0.85614619  0.42336439  0.00000005  1
  Li  Li10  1  0.83791977  0.82597186  0.00000057  1
  Li  Li11  1  0.89691989  0.65510351  0.50000002  1
  Co  Co12  1  0.11842037  0.90608557  0.50000017  1
  Co  Co13  1  0.38157318  0.40606387  0.99999965  1
  Co  Co14  1  0.61840818  0.59392089  0.99999972  1
  Co  Co15  1  0.88159612  0.09392436  0.50000062  1
  O  O16  1  0.09979029  0.11704262  0.50000015  1
  O  O17  1  0.17153650  0.37655614  -0.00000007  1
  O  O18  1  0.32845209  0.87657586  0.50000005  1
  O  O19  1  0.40021210  0.61703223  -0.00000021  1
  O  O20  1  0.59977171  0.38292747  0.99999934  1
  O  O21  1  0.67154691  0.12341729  0.50000008  1
  O  O22  1  0.82844361  0.62345089  0.00000025  1
  O  O23  1  0.90020547  0.88295584  0.50000038  1
  F  F24  1  0.11704617  0.63052225  0.49999985  1
  F  F25  1  0.38295946  0.13049415  -0.00000006  1
  F  F26  1  0.61703322  0.86953071  0.00000016  1
  F  F27  1  0.88295027  0.36949423  0.49999989  1
