# generated using pymatgen
data_Li3Fe2P4HO14
_symmetry_space_group_name_H-M   'P 1'
_cell_length_a   5.23657890
_cell_length_b   5.11800619
_cell_length_c   12.55126220
_cell_angle_alpha   79.27623388
_cell_angle_beta   103.12795324
_cell_angle_gamma   118.69582561
_symmetry_Int_Tables_number   1
_chemical_formula_structural   Li3Fe2P4HO14
_chemical_formula_sum   'Li3 Fe2 P4 H1 O14'
_cell_volume   286.18823835
_cell_formula_units_Z   1
loop_
 _symmetry_equiv_pos_site_id
 _symmetry_equiv_pos_as_xyz
  1  'x, y, z'
loop_
 _atom_site_type_symbol
 _atom_site_label
 _atom_site_symmetry_multiplicity
 _atom_site_fract_x
 _atom_site_fract_y
 _atom_site_fract_z
 _atom_site_occupancy
  Li  Li0  1  0.19450989  0.79002304  0.00082505  1
  Li  Li1  1  0.00000000  0.00000000  0.50000000  1
  Li  Li2  1  0.80549011  0.20997696  0.99917495  1
  Fe  Fe3  1  0.06310287  0.86403528  0.76855259  1
  Fe  Fe4  1  0.93689713  0.13596472  0.23144741  1
  P  P5  1  0.41144079  0.70622063  0.62767616  1
  P  P6  1  0.43033935  0.46355988  0.85694024  1
  P  P7  1  0.56966065  0.53644012  0.14305976  1
  P  P8  1  0.58855921  0.29377937  0.37232384  1
  H  H9  1  0.50000000  0.50000000  0.50000000  1
  O  O10  1  0.22092226  0.85188987  0.63340114  1
  O  O11  1  0.36215268  0.70632558  0.87896490  1
  O  O12  1  0.22413357  0.14585093  0.90112887  1
  O  O13  1  0.33805780  0.42965542  0.72553586  1
  O  O14  1  0.31465695  0.54417118  0.52325810  1
  O  O15  1  0.24092444  0.46282654  0.11325421  1
  O  O16  1  0.74206960  0.91157614  0.65050361  1
  O  O17  1  0.25793040  0.08842386  0.34949639  1
  O  O18  1  0.75907556  0.53717346  0.88674579  1
  O  O19  1  0.68534305  0.45582882  0.47674190  1
  O  O20  1  0.66194220  0.57034458  0.27446414  1
  O  O21  1  0.77586643  0.85414907  0.09887113  1
  O  O22  1  0.63784732  0.29367442  0.12103510  1
  O  O23  1  0.77907774  0.14811013  0.36659886  1
