# generated using pymatgen
data_LiV2(PO4)3
_symmetry_space_group_name_H-M   'P 1'
_cell_length_a   6.13050965
_cell_length_b   10.67112330
_cell_length_c   8.01009771
_cell_angle_alpha   59.28291789
_cell_angle_beta   90.00885320
_cell_angle_gamma   106.67314026
_symmetry_Int_Tables_number   1
_chemical_formula_structural   LiV2(PO4)3
_chemical_formula_sum   'Li2 V4 P6 O24'
_cell_volume   424.68293221
_cell_formula_units_Z   2
loop_
 _symmetry_equiv_pos_site_id
 _symmetry_equiv_pos_as_xyz
  1  'x, y, z'
loop_
 _atom_site_type_symbol
 _atom_site_label
 _atom_site_symmetry_multiplicity
 _atom_site_fract_x
 _atom_site_fract_y
 _atom_site_fract_z
 _atom_site_occupancy
  Li  Li0  1  0.50179006  0.00114985  0.99608643  1
  Li  Li1  1  0.50081049  0.99676434  0.49971249  1
  V  V2  1  0.70266484  0.73193749  0.17086673  1
  V  V3  1  0.03008791  0.73193755  0.67113091  1
  V  V4  1  0.97148992  0.26984046  0.32729289  1
  V  V5  1  0.29876461  0.26922875  0.82667601  1
  P  P6  1  0.14576278  0.64723560  0.12551391  1
  P  P7  1  0.50301420  0.64710280  0.62553059  1
  P  P8  1  0.49836325  0.35386162  0.37258620  1
  P  P9  1  0.85600939  0.35362831  0.87335475  1
  P  P10  1  0.95013475  0.00072869  0.24861048  1
  P  P11  1  0.05029032  0.00052162  0.74900534  1
  O  O12  1  0.77170627  0.94376408  0.14437298  1
  O  O13  1  0.03812785  0.86712412  0.39370870  1
  O  O14  1  0.17208548  0.94304274  0.64525864  1
  O  O15  1  0.40117678  0.75025603  0.08261761  1
  O  O16  1  0.82818668  0.86752980  0.89278218  1
  O  O17  1  0.07476292  0.65591759  0.93293019  1
  O  O18  1  0.00904222  0.71910889  0.19420693  1
  O  O19  1  0.35034329  0.75026807  0.58386119  1
  O  O20  1  0.58218816  0.65743665  0.43175984  1
  O  O21  1  0.71049610  0.71827776  0.69579000  1
  O  O22  1  0.61738614  0.52480118  0.21574952  1
  O  O23  1  0.09424508  0.47649970  0.28409659  1
  O  O24  1  0.90846061  0.52489280  0.71650135  1
  O  O25  1  0.38404204  0.47631573  0.78169095  1
  O  O26  1  0.29142033  0.28257523  0.30200854  1
  O  O27  1  0.41734595  0.34476862  0.56527902  1
  O  O28  1  0.65157388  0.25082697  0.41672110  1
  O  O29  1  0.99185859  0.28271233  0.80249595  1
  O  O30  1  0.92731349  0.34489975  0.06621023  1
  O  O31  1  0.17108058  0.13416654  0.10366209  1
  O  O32  1  0.60037966  0.25063768  0.91683398  1
  O  O33  1  0.82815584  0.05765409  0.35302149  1
  O  O34  1  0.96341800  0.13478796  0.60393999  1
  O  O35  1  0.22987753  0.05759461  0.85234324  1
