# generated using pymatgen
data_Na3MnO3
_symmetry_space_group_name_H-M   'P 1'
_cell_length_a   5.77769377
_cell_length_b   6.03088844
_cell_length_c   6.50600198
_cell_angle_alpha   64.37911629
_cell_angle_beta   91.04182459
_cell_angle_gamma   89.06416880
_symmetry_Int_Tables_number   1
_chemical_formula_structural   Na3MnO3
_chemical_formula_sum   'Na6 Mn2 O6'
_cell_volume   204.30159812
_cell_formula_units_Z   2
loop_
 _symmetry_equiv_pos_site_id
 _symmetry_equiv_pos_as_xyz
  1  'x, y, z'
loop_
 _atom_site_type_symbol
 _atom_site_label
 _atom_site_symmetry_multiplicity
 _atom_site_fract_x
 _atom_site_fract_y
 _atom_site_fract_z
 _atom_site_occupancy
  Na  Na0  1  0.06954828  0.76388428  0.45269571  1
  Na  Na1  1  0.12731603  0.77366967  0.98829197  1
  Na  Na2  1  0.43681247  0.24230023  0.75674947  1
  Na  Na3  1  0.56318753  0.75769977  0.24325053  1
  Na  Na4  1  0.87268397  0.22633033  0.01170803  1
  Na  Na5  1  0.93045172  0.23611572  0.54730429  1
  Mn  Mn6  1  0.38337335  0.20455905  0.30714584  1
  Mn  Mn7  1  0.61662665  0.79544095  0.69285416  1
  O  O8  1  0.25042408  0.09321211  0.10614171  1
  O  O9  1  0.24543378  0.47157524  0.33988180  1
  O  O10  1  0.30831720  0.92753045  0.64761956  1
  O  O11  1  0.69168280  0.07246955  0.35238044  1
  O  O12  1  0.75456622  0.52842476  0.66011820  1
  O  O13  1  0.74957592  0.90678789  0.89385829  1
