# generated using pymatgen
data_LiFe2(BO3)2
_symmetry_space_group_name_H-M   'P 1'
_cell_length_a   5.23741848
_cell_length_b   9.09770600
_cell_length_c   11.35785275
_cell_angle_alpha   67.44020173
_cell_angle_beta   76.81997696
_cell_angle_gamma   89.33797461
_symmetry_Int_Tables_number   1
_chemical_formula_structural   LiFe2(BO3)2
_chemical_formula_sum   'Li4 Fe8 B8 O24'
_cell_volume   484.87038225
_cell_formula_units_Z   4
loop_
 _symmetry_equiv_pos_site_id
 _symmetry_equiv_pos_as_xyz
  1  'x, y, z'
loop_
 _atom_site_type_symbol
 _atom_site_label
 _atom_site_symmetry_multiplicity
 _atom_site_fract_x
 _atom_site_fract_y
 _atom_site_fract_z
 _atom_site_occupancy
  Li  Li0  1  0.71802391  0.72316857  0.90317643  1
  Li  Li1  1  0.73330242  0.75208200  0.16155158  1
  Li  Li2  1  0.46775091  0.46134874  0.41686611  1
  Li  Li3  1  0.02385624  0.00475584  0.64688876  1
  Fe  Fe4  1  0.97145921  0.66372944  0.38188553  1
  Fe  Fe5  1  0.74231097  0.07090458  0.87892147  1
  Fe  Fe6  1  0.53550147  0.83285518  0.62670561  1
  Fe  Fe7  1  0.75059082  0.42672335  0.13262983  1
  Fe  Fe8  1  0.22998813  0.55494921  0.88195060  1
  Fe  Fe9  1  0.48230848  0.13763778  0.37693376  1
  Fe  Fe10  1  0.00809315  0.35714094  0.63333408  1
  Fe  Fe11  1  0.26590372  0.94280212  0.12316980  1
  B  B12  1  0.97920268  0.31198504  0.38590038  1
  B  B13  1  0.72988051  0.40391569  0.87379681  1
  B  B14  1  0.51707893  0.18471142  0.62190568  1
  B  B15  1  0.76762962  0.09423888  0.13420093  1
  B  B16  1  0.46980550  0.81550797  0.36846726  1
  B  B17  1  0.23661115  0.88656981  0.88047962  1
  B  B18  1  0.03189608  0.68272639  0.63756208  1
  B  B19  1  0.26245701  0.61648110  0.11901369  1
  O  O20  1  0.98395000  0.90137358  0.86263730  1
  O  O21  1  0.88369250  0.30287279  0.82570982  1
  O  O22  1  0.84735647  0.50424009  0.91840480  1
  O  O23  1  0.90350342  0.81393452  0.63741950  1
  O  O24  1  0.94433088  0.58088246  0.58613850  1
  O  O25  1  0.75913809  0.17328004  0.65839124  1
  O  O26  1  0.73151638  0.32331986  0.35305702  1
  O  O27  1  0.47013676  0.40341783  0.88012842  1
  O  O28  1  0.38832151  0.77229005  0.84834450  1
  O  O29  1  0.55611539  0.91435159  0.42157823  1
  O  O30  1  0.60266403  0.68546339  0.36225522  1
  O  O31  1  0.35270607  0.98124180  0.92839075  1
  O  O32  1  0.65007264  0.99149164  0.09081170  1
  O  O33  1  0.37254258  0.31447907  0.61499737  1
  O  O34  1  0.42603656  0.06712318  0.58701554  1
  O  O35  1  0.61506878  0.19446654  0.18291156  1
  O  O36  1  0.52856743  0.61605328  0.11593819  1
  O  O37  1  0.25458077  0.64845313  0.68674423  1
  O  O38  1  0.24796930  0.84919047  0.31885905  1
  O  O39  1  0.06565810  0.42771519  0.42505769  1
  O  O40  1  0.12980708  0.18940872  0.38343485  1
  O  O41  1  0.14059464  0.51621575  0.07868278  1
  O  O42  1  0.10800086  0.72396758  0.16022923  1
  O  O43  1  0.02834985  0.09486439  0.12600651  1
