# generated using pymatgen
data_LiMn7(OF3)3
_symmetry_space_group_name_H-M   'P 1'
_cell_length_a   6.37121811
_cell_length_b   6.45250589
_cell_length_c   6.41921688
_cell_angle_alpha   90.16744838
_cell_angle_beta   89.93765365
_cell_angle_gamma   90.39060460
_symmetry_Int_Tables_number   1
_chemical_formula_structural   LiMn7(OF3)3
_chemical_formula_sum   'Li1 Mn7 O3 F9'
_cell_volume   263.88866525
_cell_formula_units_Z   1
loop_
 _symmetry_equiv_pos_site_id
 _symmetry_equiv_pos_as_xyz
  1  'x, y, z'
loop_
 _atom_site_type_symbol
 _atom_site_label
 _atom_site_symmetry_multiplicity
 _atom_site_fract_x
 _atom_site_fract_y
 _atom_site_fract_z
 _atom_site_occupancy
  Li  Li0  1  0.50930943  0.48954251  0.49332279  1
  Mn  Mn1  1  0.06243707  0.75296396  0.56425703  1
  Mn  Mn2  1  0.43239163  0.93948675  0.26108303  1
  Mn  Mn3  1  0.24188044  0.45669639  0.92818257  1
  Mn  Mn4  1  0.98841902  0.97288344  0.02720335  1
  Mn  Mn5  1  0.74582813  0.58655613  0.03834620  1
  Mn  Mn6  1  0.56710799  0.05170077  0.76739964  1
  Mn  Mn7  1  0.95755132  0.24344341  0.42765065  1
  O  O8  1  0.11462817  0.96819414  0.33019608  1
  O  O9  1  0.02989458  0.68489716  0.87856032  1
  O  O10  1  0.66116624  0.90301354  0.04207034  1
  F  F11  1  0.44089258  0.79865773  0.58137132  1
  F  F12  1  0.20254016  0.42439113  0.56849593  1
  F  F13  1  0.42497047  0.55878715  0.19249848  1
  F  F14  1  0.56983294  0.41098452  0.80968828  1
  F  F15  1  0.28908836  0.12739075  0.93757968  1
  F  F16  1  0.81888312  0.56200760  0.40929268  1
  F  F17  1  0.59535355  0.18210081  0.44272016  1
  F  F18  1  0.94693490  0.31670314  0.09709384  1
  F  F19  1  0.90088790  0.06959796  0.70298764  1
