# generated using pymatgen
data_VOF3
_symmetry_space_group_name_H-M   'P 1'
_cell_length_a   5.83082495
_cell_length_b   5.83082495
_cell_length_c   8.17584999
_cell_angle_alpha   90.00000000
_cell_angle_beta   90.00000000
_cell_angle_gamma   90.00000000
_symmetry_Int_Tables_number   1
_chemical_formula_structural   VOF3
_chemical_formula_sum   'V4 O4 F12'
_cell_volume   277.96679611
_cell_formula_units_Z   4
loop_
 _symmetry_equiv_pos_site_id
 _symmetry_equiv_pos_as_xyz
  1  'x, y, z'
loop_
 _atom_site_type_symbol
 _atom_site_label
 _atom_site_symmetry_multiplicity
 _atom_site_fract_x
 _atom_site_fract_y
 _atom_site_fract_z
 _atom_site_occupancy
  V  V0  1  0.00109532  0.27403461  0.02040579  1
  V  V1  1  0.27403461  0.99890468  0.77040579  1
  V  V2  1  0.72596539  0.00109532  0.27040579  1
  V  V3  1  0.99890468  0.72596539  0.52040579  1
  O  O4  1  0.02221506  0.76924097  0.72378896  1
  O  O5  1  0.23075903  0.02221506  0.97378896  1
  O  O6  1  0.76924097  0.97778494  0.47378896  1
  O  O7  1  0.97778494  0.23075903  0.22378896  1
  F  F8  1  0.01565430  0.21940127  0.76904291  1
  F  F9  1  0.22442368  0.53424369  0.48012321  1
  F  F10  1  0.22550690  0.47292686  0.00896513  1
  F  F11  1  0.21940127  0.98434570  0.51904291  1
  F  F12  1  0.46575631  0.22442368  0.73012321  1
  F  F13  1  0.47292686  0.77449310  0.75896513  1
  F  F14  1  0.52707314  0.22550690  0.25896513  1
  F  F15  1  0.53424369  0.77557632  0.23012321  1
  F  F16  1  0.78059873  0.01565430  0.01904291  1
  F  F17  1  0.77449310  0.52707314  0.50896513  1
  F  F18  1  0.77557632  0.46575631  0.98012321  1
  F  F19  1  0.98434570  0.78059873  0.26904291  1
