# generated using pymatgen
data_LiFe2(BO3)2
_symmetry_space_group_name_H-M   'P 1'
_cell_length_a   5.28321326
_cell_length_b   8.93649808
_cell_length_c   10.34232976
_cell_angle_alpha   89.99999952
_cell_angle_beta   91.16383088
_cell_angle_gamma   90.00000478
_symmetry_Int_Tables_number   1
_chemical_formula_structural   LiFe2(BO3)2
_chemical_formula_sum   'Li4 Fe8 B8 O24'
_cell_volume   488.19607814
_cell_formula_units_Z   4
loop_
 _symmetry_equiv_pos_site_id
 _symmetry_equiv_pos_as_xyz
  1  'x, y, z'
loop_
 _atom_site_type_symbol
 _atom_site_label
 _atom_site_symmetry_multiplicity
 _atom_site_fract_x
 _atom_site_fract_y
 _atom_site_fract_z
 _atom_site_occupancy
  Li  Li0  1  0.34167617  0.00921251  0.83658002  1
  Li  Li1  1  0.65698698  0.00467891  0.08614653  1
  Li  Li2  1  0.34167617  0.99078749  0.33658002  1
  Li  Li3  1  0.65698698  0.99532109  0.58614653  1
  Fe  Fe4  1  0.14871601  0.17821149  0.11888259  1
  Fe  Fe5  1  0.85162858  0.17502522  0.36970738  1
  Fe  Fe6  1  0.33318018  0.34123889  0.86623457  1
  Fe  Fe7  1  0.66123495  0.33623490  0.62525542  1
  Fe  Fe8  1  0.33318018  0.65876111  0.36623457  1
  Fe  Fe9  1  0.14871601  0.82178851  0.61888259  1
  Fe  Fe10  1  0.66123495  0.66376510  0.12525542  1
  Fe  Fe11  1  0.85162858  0.82497478  0.86970738  1
  B  B12  1  0.17171541  0.16748531  0.63109929  1
  B  B13  1  0.34149297  0.32522452  0.37710032  1
  B  B14  1  0.82314516  0.16511912  0.86918043  1
  B  B15  1  0.65646965  0.32924535  0.11580486  1
  B  B16  1  0.34149297  0.67477548  0.87710032  1
  B  B17  1  0.65646965  0.67075465  0.61580486  1
  B  B18  1  0.17171541  0.83251469  0.13109929  1
  B  B19  1  0.82314516  0.83488088  0.36918043  1
  O  O20  1  0.30186549  0.03402492  0.63323535  1
  O  O21  1  0.08392612  0.17387595  0.89670325  1
  O  O22  1  0.69593546  0.03383967  0.89051739  1
  O  O23  1  0.22141566  0.19648968  0.32899063  1
  O  O24  1  0.29712910  0.29831484  0.66973544  1
  O  O25  1  0.77853510  0.19819940  0.15897528  1
  O  O26  1  0.91755429  0.17388377  0.59309340  1
  O  O27  1  0.42211013  0.31087264  0.05330317  1
  O  O28  1  0.22946219  0.46060466  0.36307474  1
  O  O29  1  0.57576731  0.30698804  0.43846699  1
  O  O30  1  0.69269913  0.29055032  0.82359001  1
  O  O31  1  0.22946219  0.53939534  0.86307474  1
  O  O32  1  0.76377996  0.46567322  0.13507894  1
  O  O33  1  0.29712910  0.70168516  0.16973544  1
  O  O34  1  0.42211013  0.68912736  0.55330317  1
  O  O35  1  0.76377996  0.53432678  0.63507894  1
  O  O36  1  0.57576731  0.69301196  0.93846699  1
  O  O37  1  0.08392612  0.82612405  0.39670325  1
  O  O38  1  0.22141566  0.80351032  0.82899063  1
  O  O39  1  0.69269913  0.70944968  0.32359001  1
  O  O40  1  0.77853510  0.80180060  0.65897528  1
  O  O41  1  0.30186549  0.96597508  0.13323535  1
  O  O42  1  0.91755429  0.82611623  0.09309340  1
  O  O43  1  0.69593546  0.96616033  0.39051739  1
