# generated using pymatgen
data_Li6MnV3(PO4)6
_symmetry_space_group_name_H-M   'P 1'
_cell_length_a   8.50629947
_cell_length_b   8.84884685
_cell_length_c   12.38912687
_cell_angle_alpha   90.00422042
_cell_angle_beta   87.74725170
_cell_angle_gamma   90.10418123
_symmetry_Int_Tables_number   1
_chemical_formula_structural   Li6MnV3(PO4)6
_chemical_formula_sum   'Li12 Mn2 V6 P12 O48'
_cell_volume   931.81898789
_cell_formula_units_Z   2
loop_
 _symmetry_equiv_pos_site_id
 _symmetry_equiv_pos_as_xyz
  1  'x, y, z'
loop_
 _atom_site_type_symbol
 _atom_site_label
 _atom_site_symmetry_multiplicity
 _atom_site_fract_x
 _atom_site_fract_y
 _atom_site_fract_z
 _atom_site_occupancy
  Li  Li0  1  0.00443788  0.99743391  0.99974730  1
  Li  Li1  1  0.99926418  0.09964177  0.24884563  1
  Li  Li2  1  0.00070290  0.99874645  0.50077956  1
  Li  Li3  1  0.00944618  0.89706033  0.75086984  1
  Li  Li4  1  0.28937501  0.80683797  0.04488171  1
  Li  Li5  1  0.29233855  0.19339785  0.54859355  1
  Li  Li6  1  0.50601753  0.50390698  0.99970692  1
  Li  Li7  1  0.49939319  0.40299743  0.25024046  1
  Li  Li8  1  0.50006143  0.50110353  0.50074403  1
  Li  Li9  1  0.50472750  0.60120610  0.75180735  1
  Li  Li10  1  0.70675939  0.80601848  0.45140197  1
  Li  Li11  1  0.70987950  0.19520274  0.94998750  1
  Mn  Mn12  1  0.28909661  0.00761034  0.85714236  1
  Mn  Mn13  1  0.78986316  0.49678496  0.85249134  1
  V  V14  1  0.21279695  0.49946225  0.14353345  1
  V  V15  1  0.21446215  0.50031231  0.64417621  1
  V  V16  1  0.28382496  0.99658675  0.35803431  1
  V  V17  1  0.71590564  0.99724472  0.14175091  1
  V  V18  1  0.71732194  0.00264637  0.64151647  1
  V  V19  1  0.78613219  0.50025633  0.35567473  1
  P  P20  1  0.00035963  0.79645670  0.24957920  1
  P  P21  1  0.00430847  0.19887064  0.75050732  1
  P  P22  1  0.15562849  0.35496481  0.39561041  1
  P  P23  1  0.15137610  0.64294043  0.89513878  1
  P  P24  1  0.34866839  0.14694620  0.10477966  1
  P  P25  1  0.34931392  0.85225454  0.60239483  1
  P  P26  1  0.49900265  0.70753485  0.24985891  1
  P  P27  1  0.50466610  0.29571682  0.74803072  1
  P  P28  1  0.64947282  0.14711294  0.39700115  1
  P  P29  1  0.64484962  0.85495493  0.89677392  1
  P  P30  1  0.84299457  0.35515893  0.10569056  1
  P  P31  1  0.84386784  0.64552492  0.60360448  1
  O  O32  1  0.01073898  0.41452084  0.10479315  1
  O  O33  1  0.01109864  0.58716743  0.60641520  1
  O  O34  1  0.06753376  0.90631975  0.33530132  1
  O  O35  1  0.07811394  0.08940720  0.83577218  1
  O  O36  1  0.12686744  0.70227209  0.18891048  1
  O  O37  1  0.12815634  0.29605833  0.68969292  1
  O  O38  1  0.14491903  0.17858317  0.41012524  1
  O  O39  1  0.13772929  0.81814352  0.90904867  1
  O  O40  1  0.24952574  0.40409115  0.29251395  1
  O  O41  1  0.24875527  0.05993288  0.02246310  1
  O  O42  1  0.25298512  0.40861691  0.49294044  1
  O  O43  1  0.24454930  0.59437192  0.79145884  1
  O  O44  1  0.25299433  0.93686464  0.51627478  1
  O  O45  1  0.27481353  0.09778494  0.21547296  1
  O  O46  1  0.24924364  0.58855823  0.99112197  1
  O  O47  1  0.27092986  0.90170134  0.71072434  1
  O  O48  1  0.34440637  0.32157038  0.09059118  1
  O  O49  1  0.34633547  0.67751278  0.58795061  1
  O  O50  1  0.38090211  0.80520339  0.31272470  1
  O  O51  1  0.38626322  0.20414367  0.81602853  1
  O  O52  1  0.42803219  0.60076337  0.16325734  1
  O  O53  1  0.43319418  0.40439201  0.66387140  1
  O  O54  1  0.47374227  0.10652667  0.40945865  1
  O  O55  1  0.46700325  0.89802845  0.90884561  1
  O  O56  1  0.52549029  0.10812841  0.09259401  1
  O  O57  1  0.52617525  0.89340964  0.59127523  1
  O  O58  1  0.57007532  0.60007088  0.33546166  1
  O  O59  1  0.58074407  0.40308111  0.83442843  1
  O  O60  1  0.61887135  0.80567503  0.18724950  1
  O  O61  1  0.62056414  0.19619292  0.68459117  1
  O  O62  1  0.65341972  0.32159154  0.41043685  1
  O  O63  1  0.64322369  0.68181990  0.91047577  1
  O  O64  1  0.72527385  0.09558822  0.28734988  1
  O  O65  1  0.74184793  0.40689002  0.01034192  1
  O  O66  1  0.72060721  0.90611831  0.78732593  1
  O  O67  1  0.74842299  0.06271239  0.48186196  1
  O  O68  1  0.75150736  0.40327774  0.21014075  1
  O  O69  1  0.74771569  0.59099650  0.50626613  1
  O  O70  1  0.74316476  0.94106042  0.98131201  1
  O  O71  1  0.74640846  0.60083999  0.70639901  1
  O  O72  1  0.85742158  0.17874964  0.09303204  1
  O  O73  1  0.85556235  0.82173897  0.58831828  1
  O  O74  1  0.87315334  0.70250497  0.31008160  1
  O  O75  1  0.87668722  0.28482574  0.81534876  1
  O  O76  1  0.93251210  0.90591994  0.16337935  1
  O  O77  1  0.93723023  0.08811308  0.66490490  1
  O  O78  1  0.98738713  0.41182240  0.39519466  1
  O  O79  1  0.98138527  0.58344287  0.89557316  1
