# generated using pymatgen
data_V2O2F3
_symmetry_space_group_name_H-M   'P 1'
_cell_length_a   5.13322486
_cell_length_b   5.60231754
_cell_length_c   7.62090949
_cell_angle_alpha   82.99387978
_cell_angle_beta   109.67700206
_cell_angle_gamma   62.72934928
_symmetry_Int_Tables_number   1
_chemical_formula_structural   V2O2F3
_chemical_formula_sum   'V4 O4 F6'
_cell_volume   173.14671265
_cell_formula_units_Z   2
loop_
 _symmetry_equiv_pos_site_id
 _symmetry_equiv_pos_as_xyz
  1  'x, y, z'
loop_
 _atom_site_type_symbol
 _atom_site_label
 _atom_site_symmetry_multiplicity
 _atom_site_fract_x
 _atom_site_fract_y
 _atom_site_fract_z
 _atom_site_occupancy
  V  V0  1  0.19033400  0.02451736  0.87788123  1
  V  V1  1  0.33652998  0.47040442  0.61931571  1
  V  V2  1  0.66551016  0.52482186  0.37791227  1
  V  V3  1  0.81513950  0.97035633  0.11941275  1
  O  O4  1  0.40070262  0.22601414  0.85268986  1
  O  O5  1  0.22856042  0.72654959  0.35291874  1
  O  O6  1  0.73928058  0.28760987  0.64124856  1
  O  O7  1  0.61675440  0.78789978  0.14129236  1
  F  F8  1  0.02297408  0.78202000  0.96117493  1
  F  F9  1  0.15827293  0.28309813  0.46029456  1
  F  F10  1  0.36404322  0.74662487  0.74903695  1
  F  F11  1  0.64145820  0.24660246  0.24919711  1
  F  F12  1  0.85522253  0.70888113  0.54107330  1
  F  F13  1  0.97928140  0.20887104  0.04075669  1
