# generated using pymatgen
data_LiFe2(BO3)2
_symmetry_space_group_name_H-M   'P 1'
_cell_length_a   5.31617041
_cell_length_b   9.05907634
_cell_length_c   11.34559978
_cell_angle_alpha   114.21826844
_cell_angle_beta   77.58184162
_cell_angle_gamma   90.74538495
_symmetry_Int_Tables_number   1
_chemical_formula_structural   LiFe2(BO3)2
_chemical_formula_sum   'Li4 Fe8 B8 O24'
_cell_volume   484.91414424
_cell_formula_units_Z   4
loop_
 _symmetry_equiv_pos_site_id
 _symmetry_equiv_pos_as_xyz
  1  'x, y, z'
loop_
 _atom_site_type_symbol
 _atom_site_label
 _atom_site_symmetry_multiplicity
 _atom_site_fract_x
 _atom_site_fract_y
 _atom_site_fract_z
 _atom_site_occupancy
  Li  Li0  1  0.16289865  0.16792640  0.35105560  1
  Li  Li1  1  0.35561033  0.30415181  0.60183586  1
  Li  Li2  1  0.60796310  0.04201326  0.08434433  1
  Li  Li3  1  0.11060014  0.54427452  0.09257533  1
  Fe  Fe4  1  0.40850000  0.26256349  0.86588558  1
  Fe  Fe5  1  0.09510171  0.21541014  0.11633160  1
  Fe  Fe6  1  0.84389563  0.14568931  0.62182238  1
  Fe  Fe7  1  0.65308066  0.36234174  0.37442926  1
  Fe  Fe8  1  0.35809872  0.66381347  0.62942595  1
  Fe  Fe9  1  0.14882143  0.84567186  0.36860745  1
  Fe  Fe10  1  0.90741202  0.76301033  0.86383672  1
  Fe  Fe11  1  0.60620742  0.71649183  0.12157018  1
  B  B12  1  0.64348997  0.02088828  0.36822637  1
  B  B13  1  0.89333421  0.10287709  0.87427815  1
  B  B14  1  0.15545451  0.51050958  0.36870580  1
  B  B15  1  0.39729794  0.60751810  0.87800191  1
  B  B16  1  0.86169056  0.47483455  0.61961955  1
  B  B17  1  0.60529871  0.38961986  0.12149378  1
  B  B18  1  0.34837062  0.98683952  0.61901710  1
  B  B19  1  0.10085201  0.89362351  0.12715010  1
  O  O20  1  0.12361910  0.14799644  0.91267843  1
  O  O21  1  0.43875288  0.14590868  0.66502111  1
  O  O22  1  0.23270467  0.03108749  0.14469777  1
  O  O23  1  0.52090625  0.16482489  0.38349994  1
  O  O24  1  0.88595290  0.02248591  0.39620048  1
  O  O25  1  0.77202922  0.19633393  0.82830448  1
  O  O26  1  0.29214450  0.46977127  0.88202211  1
  O  O27  1  0.02939547  0.36552139  0.33582411  1
  O  O28  1  0.68613696  0.28032306  0.16956393  1
  O  O29  1  0.62529884  0.46059896  0.57913069  1
  O  O30  1  0.99905820  0.33840668  0.60335429  1
  O  O31  1  0.37611990  0.36239622  0.07537048  1
  O  O32  1  0.62754972  0.65016323  0.91669789  1
  O  O33  1  0.37275113  0.51649410  0.41878552  1
  O  O34  1  0.27146865  0.70751743  0.83993093  1
  O  O35  1  0.95373605  0.62723538  0.67041914  1
  O  O36  1  0.74641695  0.51408179  0.11925193  1
  O  O37  1  0.19203326  0.77464876  0.16063777  1
  O  O38  1  0.13764125  0.96901582  0.55935416  1
  O  O39  1  0.46469096  0.86779627  0.63247709  1
  O  O40  1  0.06562742  0.63510189  0.34853941  1
  O  O41  1  0.78045720  0.97439482  0.89176747  1
  O  O42  1  0.51818364  0.88096494  0.32800415  1
  O  O43  1  0.87378954  0.87528702  0.08215973  1
