# generated using pymatgen
data_MnOF
_symmetry_space_group_name_H-M   'P 1'
_cell_length_a   5.47033691
_cell_length_b   3.71169568
_cell_length_c   8.88260734
_cell_angle_alpha   90.00000000
_cell_angle_beta   90.00000000
_cell_angle_gamma   90.00000000
_symmetry_Int_Tables_number   1
_chemical_formula_structural   MnOF
_chemical_formula_sum   'Mn4 O4 F4'
_cell_volume   180.35446581
_cell_formula_units_Z   4
loop_
 _symmetry_equiv_pos_site_id
 _symmetry_equiv_pos_as_xyz
  1  'x, y, z'
loop_
 _atom_site_type_symbol
 _atom_site_label
 _atom_site_symmetry_multiplicity
 _atom_site_fract_x
 _atom_site_fract_y
 _atom_site_fract_z
 _atom_site_occupancy
  Mn  Mn0  1  0.13525691  0.25000000  0.90423546  1
  Mn  Mn1  1  0.36474309  0.75000000  0.40423546  1
  Mn  Mn2  1  0.63525691  0.25000000  0.59576454  1
  Mn  Mn3  1  0.86474309  0.75000000  0.09576454  1
  O  O4  1  0.14282540  0.75000000  0.95970067  1
  O  O5  1  0.35717460  0.25000000  0.45970067  1
  O  O6  1  0.64282540  0.75000000  0.54029933  1
  O  O7  1  0.85717460  0.25000000  0.04029933  1
  F  F8  1  0.06229047  0.75000000  0.29767965  1
  F  F9  1  0.43770953  0.25000000  0.79767965  1
  F  F10  1  0.56229047  0.75000000  0.20232035  1
  F  F11  1  0.93770953  0.25000000  0.70232035  1
