# generated using pymatgen
data_Li2Mn2F7
_symmetry_space_group_name_H-M   'P 1'
_cell_length_a   7.81065772
_cell_length_b   12.93632845
_cell_length_c   5.03051952
_cell_angle_alpha   90.00000000
_cell_angle_beta   90.00000000
_cell_angle_gamma   101.60644808
_symmetry_Int_Tables_number   1
_chemical_formula_structural   Li2Mn2F7
_chemical_formula_sum   'Li8 Mn8 F28'
_cell_volume   497.89669876
_cell_formula_units_Z   4
loop_
 _symmetry_equiv_pos_site_id
 _symmetry_equiv_pos_as_xyz
  1  'x, y, z'
loop_
 _atom_site_type_symbol
 _atom_site_label
 _atom_site_symmetry_multiplicity
 _atom_site_fract_x
 _atom_site_fract_y
 _atom_site_fract_z
 _atom_site_occupancy
  Li  Li0  1  0.02939803  0.30554390  0.24033768  1
  Li  Li1  1  0.00328407  0.11752294  0.75529373  1
  Li  Li2  1  0.39465746  0.68744837  0.78118714  1
  Li  Li3  1  0.43206162  0.84901684  0.28313792  1
  Li  Li4  1  0.56793838  0.15098316  0.78313792  1
  Li  Li5  1  0.60534254  0.31255163  0.28118714  1
  Li  Li6  1  0.99671593  0.88247706  0.25529373  1
  Li  Li7  1  0.97060197  0.69445610  0.74033768  1
  Mn  Mn8  1  0.18359601  0.53995296  0.34486329  1
  Mn  Mn9  1  0.26903097  0.94380733  0.77320206  1
  Mn  Mn10  1  0.25291397  0.15420954  0.22203751  1
  Mn  Mn11  1  0.36574507  0.37381939  0.80457241  1
  Mn  Mn12  1  0.63425493  0.62618061  0.30457241  1
  Mn  Mn13  1  0.74708603  0.84579046  0.72203751  1
  Mn  Mn14  1  0.73096903  0.05619267  0.27320306  1
  Mn  Mn15  1  0.81640399  0.46004704  0.84486329  1
  F  F16  1  0.04692284  0.43280993  0.55712198  1
  F  F17  1  0.97814319  0.16973769  0.40032351  1
  F  F18  1  0.16534716  0.64501786  0.59535565  1
  F  F19  1  0.21817463  0.87281086  0.43895282  1
  F  F20  1  0.20059055  0.43593148  0.09182565  1
  F  F21  1  0.09691258  0.02701058  0.03275105  1
  F  F22  1  0.14194518  0.24444016  0.93737163  1
  F  F23  1  0.33315887  0.63516012  0.13045542  1
  F  F24  1  0.37389428  0.83268952  0.91246204  1
  F  F25  1  0.26645645  0.07151664  0.57739536  1
  F  F26  1  0.33480007  0.29382472  0.44070576  1
  F  F27  1  0.41255041  0.52410742  0.56909986  1
  F  F28  1  0.57307246  0.96488294  0.51939967  1
  F  F29  1  0.52892448  0.75170811  0.48463887  1
  F  F30  1  0.47107552  0.24829189  0.98463887  1
  F  F31  1  0.42692754  0.03511706  0.01939967  1
  F  F32  1  0.58744959  0.47589258  0.06909986  1
  F  F33  1  0.66519993  0.70617528  0.94070576  1
  F  F34  1  0.73354355  0.92848336  0.07739536  1
  F  F35  1  0.62610572  0.16731048  0.41246204  1
  F  F36  1  0.66684113  0.36483988  0.63045542  1
  F  F37  1  0.85805482  0.75555984  0.43737163  1
  F  F38  1  0.90308742  0.97298942  0.53275105  1
  F  F39  1  0.79940945  0.56406852  0.59182565  1
  F  F40  1  0.78182537  0.12718914  0.93895282  1
  F  F41  1  0.83465284  0.35498214  0.09535565  1
  F  F42  1  0.02185681  0.83026231  0.90032351  1
  F  F43  1  0.95307716  0.56719007  0.05712198  1
