# generated using pymatgen
data_Li2Cr(PO4)2
_symmetry_space_group_name_H-M   'P 1'
_cell_length_a   4.86715503
_cell_length_b   4.86687525
_cell_length_c   7.41708396
_cell_angle_alpha   90.00024022
_cell_angle_beta   90.00795277
_cell_angle_gamma   120.00319687
_symmetry_Int_Tables_number   1
_chemical_formula_structural   Li2Cr(PO4)2
_chemical_formula_sum   'Li2 Cr1 P2 O8'
_cell_volume   152.15114452
_cell_formula_units_Z   1
loop_
 _symmetry_equiv_pos_site_id
 _symmetry_equiv_pos_as_xyz
  1  'x, y, z'
loop_
 _atom_site_type_symbol
 _atom_site_label
 _atom_site_symmetry_multiplicity
 _atom_site_fract_x
 _atom_site_fract_y
 _atom_site_fract_z
 _atom_site_occupancy
  Li  Li0  1  0.33328191  0.66669481  0.68159655  1
  Li  Li1  1  0.66665789  0.33325889  0.31841137  1
  Cr  Cr2  1  0.99997050  0.00001927  -0.00003443  1
  P  P3  1  0.33332959  0.66666153  0.22279993  1
  P  P4  1  0.66661351  0.33333659  0.77715322  1
  O  O5  1  0.04165633  0.68939923  0.15508482  1
  O  O6  1  0.33332302  0.66662623  0.42611312  1
  O  O7  1  0.31063483  0.35223805  0.15508098  1
  O  O8  1  0.64778797  0.95838116  0.15511188  1
  O  O9  1  0.35217970  0.04163026  0.84490990  1
  O  O10  1  0.68931686  0.64777523  0.84489117  1
  O  O11  1  0.66663362  0.33329448  0.57394837  1
  O  O12  1  0.95831427  0.31068528  0.84493313  1
