# generated using pymatgen
data_Mn2O3F
_symmetry_space_group_name_H-M   'P 1'
_cell_length_a   4.58693996
_cell_length_b   4.58693996
_cell_length_c   15.15738540
_cell_angle_alpha   90.00000000
_cell_angle_beta   90.00000000
_cell_angle_gamma   92.89729866
_symmetry_Int_Tables_number   1
_chemical_formula_structural   Mn2O3F
_chemical_formula_sum   'Mn10 O15 F5'
_cell_volume   318.50401279
_cell_formula_units_Z   5
loop_
 _symmetry_equiv_pos_site_id
 _symmetry_equiv_pos_as_xyz
  1  'x, y, z'
loop_
 _atom_site_type_symbol
 _atom_site_label
 _atom_site_symmetry_multiplicity
 _atom_site_fract_x
 _atom_site_fract_y
 _atom_site_fract_z
 _atom_site_occupancy
  Mn  Mn0  1  0.99854247  0.00145753  0.39957154  1
  Mn  Mn1  1  0.98804411  0.01195589  0.20000000  1
  Mn  Mn2  1  0.99854247  0.00145753  0.00042846  1
  Mn  Mn3  1  0.01610547  0.98389453  0.59947844  1
  Mn  Mn4  1  0.01610547  0.98389453  0.80052156  1
  Mn  Mn5  1  0.48072208  0.51927792  0.49993841  1
  Mn  Mn6  1  0.52007350  0.47992650  0.09997490  1
  Mn  Mn7  1  0.52007350  0.47992650  0.30002510  1
  Mn  Mn8  1  0.48072208  0.51927792  0.90006159  1
  Mn  Mn9  1  0.48531544  0.51468456  0.70000000  1
  O  O10  1  0.19043411  0.80956589  0.89993528  1
  O  O11  1  0.19043411  0.80956589  0.50006472  1
  O  O12  1  0.19556744  0.80443256  0.70000000  1
  O  O13  1  0.30784758  0.30926124  0.00019502  1
  O  O14  1  0.31584439  0.29420813  0.20000000  1
  O  O15  1  0.30784758  0.30926124  0.39980498  1
  O  O16  1  0.29948872  0.31171401  0.60009794  1
  O  O17  1  0.29948872  0.31171401  0.79990206  1
  O  O18  1  0.69073876  0.69215242  0.00019502  1
  O  O19  1  0.70579187  0.68415561  0.20000000  1
  O  O20  1  0.69073876  0.69215242  0.39980498  1
  O  O21  1  0.68828599  0.70051128  0.60009794  1
  O  O22  1  0.68828599  0.70051128  0.79990206  1
  O  O23  1  0.80913258  0.19086742  0.09948328  1
  O  O24  1  0.80913258  0.19086742  0.30051672  1
  F  F25  1  0.20908747  0.79091253  0.10511162  1
  F  F26  1  0.20908747  0.79091253  0.29488938  1
  F  F27  1  0.78948586  0.21051414  0.50488154  1
  F  F28  1  0.78948586  0.21051414  0.89511846  1
  F  F29  1  0.80954461  0.19045539  0.70000000  1
