# generated using pymatgen
data_Li2V2OF6
_symmetry_space_group_name_H-M   'P 1'
_cell_length_a   6.43781774
_cell_length_b   6.66016512
_cell_length_c   7.54799196
_cell_angle_alpha   112.27484959
_cell_angle_beta   96.79666571
_cell_angle_gamma   107.97851436
_symmetry_Int_Tables_number   1
_chemical_formula_structural   Li2V2OF6
_chemical_formula_sum   'Li4 V4 O2 F12'
_cell_volume   274.48948689
_cell_formula_units_Z   2
loop_
 _symmetry_equiv_pos_site_id
 _symmetry_equiv_pos_as_xyz
  1  'x, y, z'
loop_
 _atom_site_type_symbol
 _atom_site_label
 _atom_site_symmetry_multiplicity
 _atom_site_fract_x
 _atom_site_fract_y
 _atom_site_fract_z
 _atom_site_occupancy
  Li  Li0  1  0.33445986  0.76678310  0.11782674  1
  Li  Li1  1  0.08745017  0.16561751  0.81462184  1
  Li  Li2  1  0.91254983  0.83438249  0.18537816  1
  Li  Li3  1  0.66554014  0.23321690  0.88217326  1
  V  V4  1  0.20363321  0.71597877  0.56815732  1
  V  V5  1  0.33618802  0.33609015  0.27004442  1
  V  V6  1  0.66381198  0.66390985  0.72995558  1
  V  V7  1  0.79636679  0.28402123  0.43184268  1
  O  O8  1  0.09989944  0.37185655  0.38878814  1
  O  O9  1  0.90010056  0.62814345  0.61121186  1
  F  F10  1  0.11655624  0.76781878  0.33714126  1
  F  F11  1  0.33126091  0.05461324  0.74605458  1
  F  F12  1  0.36343023  0.67026403  0.79463335  1
  F  F13  1  0.26917778  0.42990518  0.06283888  1
  F  F14  1  0.19165830  0.98938965  0.11263847  1
  F  F15  1  0.50487451  0.70073955  0.49204505  1
  F  F16  1  0.49512549  0.29926045  0.50795495  1
  F  F17  1  0.80834170  0.01061035  0.88736153  1
  F  F18  1  0.73082222  0.57009482  0.93716112  1
  F  F19  1  0.63656977  0.32973597  0.20536665  1
  F  F20  1  0.66873909  0.94538676  0.25394542  1
  F  F21  1  0.88344376  0.23218122  0.66285874  1
