# generated using pymatgen
data_LiFe2(BO3)2
_symmetry_space_group_name_H-M   'P 1'
_cell_length_a   5.23957583
_cell_length_b   9.16961180
_cell_length_c   10.18843598
_cell_angle_alpha   91.23332203
_cell_angle_beta   90.54269932
_cell_angle_gamma   89.51447167
_symmetry_Int_Tables_number   1
_chemical_formula_structural   LiFe2(BO3)2
_chemical_formula_sum   'Li4 Fe8 B8 O24'
_cell_volume   489.35004879
_cell_formula_units_Z   4
loop_
 _symmetry_equiv_pos_site_id
 _symmetry_equiv_pos_as_xyz
  1  'x, y, z'
loop_
 _atom_site_type_symbol
 _atom_site_label
 _atom_site_symmetry_multiplicity
 _atom_site_fract_x
 _atom_site_fract_y
 _atom_site_fract_z
 _atom_site_occupancy
  Li  Li0  1  0.84202998  0.83245663  0.64262840  1
  Li  Li1  1  0.66988946  0.68201550  0.90902526  1
  Li  Li2  1  0.34485363  0.32016946  0.65405686  1
  Li  Li3  1  0.16077719  0.16627122  0.36143511  1
  Fe  Fe4  1  0.84802059  0.16141320  0.62981090  1
  Fe  Fe5  1  0.82103169  0.50234537  0.13698291  1
  Fe  Fe6  1  0.67657856  0.01153060  0.88181071  1
  Fe  Fe7  1  0.66831234  0.34223249  0.37730088  1
  Fe  Fe8  1  0.33453346  0.66135353  0.62585552  1
  Fe  Fe9  1  0.33187262  0.99073123  0.12867194  1
  Fe  Fe10  1  0.16312526  0.83122297  0.37381515  1
  Fe  Fe11  1  0.17115602  0.50387442  0.88800266  1
  B  B12  1  0.83102226  0.50190690  0.63053634  1
  B  B13  1  0.82395864  0.16278176  0.14256101  1
  B  B14  1  0.66817539  0.00710539  0.38125355  1
  B  B15  1  0.67436697  0.34221354  0.86654397  1
  B  B16  1  0.34735741  -0.00509420  0.62731768  1
  B  B17  1  0.33935050  0.67152047  0.11773437  1
  B  B18  1  0.16498070  0.49401037  0.39094135  1
  B  B19  1  0.16439751  0.82774518  0.87635799  1
  O  O20  1  0.91245791  0.49593165  0.34986325  1
  O  O21  1  0.90810738  0.83185019  0.85693453  1
  O  O22  1  0.79404235  0.21423155  0.83476751  1
  O  O23  1  0.77768142  0.14480287  0.41807382  1
  O  O24  1  0.80465169  0.88487665  0.39749555  1
  O  O25  1  0.81258134  0.46438788  0.91090614  1
  O  O26  1  0.69746681  0.63168030  0.64434531  1
  O  O27  1  0.67097427  0.05642958  0.08550179  1
  O  O28  1  0.71126233  0.37537173  0.58753793  1
  O  O29  1  0.71297831  0.29514332  0.18404911  1
  O  O30  1  0.59295573  0.66546317  0.09744718  1
  O  O31  1  0.59962175  0.99088605  0.66591266  1
  O  O32  1  0.41555617  0.00917608  0.33413367  1
  O  O33  1  0.41318320  0.35789982  0.84828650  1
  O  O34  1  0.30383831  0.69633989  0.83335536  1
  O  O35  1  0.27479610  0.62325192  0.43623775  1
  O  O36  1  0.30302527  0.36512837  0.38881964  1
  O  O37  1  0.30957946  0.93693248  0.93331510  1
  O  O38  1  0.18288754  0.55507026  0.07635209  1
  O  O39  1  0.21813559  0.12496061  0.61273934  1
  O  O40  1  0.21966037  0.86119710  0.59956214  1
  O  O41  1  0.21994686  0.79460730  0.17151634  1
  O  O42  1  0.07939365  0.13912090  0.16354302  1
  O  O43  1  0.09246304  0.49787232  0.66514272  1
