# generated using pymatgen
data_Li4V3P8O29
_symmetry_space_group_name_H-M   'P 1'
_cell_length_a   9.78289130
_cell_length_b   9.80585232
_cell_length_c   13.97720110
_cell_angle_alpha   90.00207347
_cell_angle_beta   90.35102465
_cell_angle_gamma   59.91711422
_symmetry_Int_Tables_number   1
_chemical_formula_structural   Li4V3P8O29
_chemical_formula_sum   'Li8 V6 P16 O58'
_cell_volume   1160.19039596
_cell_formula_units_Z   2
loop_
 _symmetry_equiv_pos_site_id
 _symmetry_equiv_pos_as_xyz
  1  'x, y, z'
loop_
 _atom_site_type_symbol
 _atom_site_label
 _atom_site_symmetry_multiplicity
 _atom_site_fract_x
 _atom_site_fract_y
 _atom_site_fract_z
 _atom_site_occupancy
  Li  Li0  1  0.76937777  0.90708558  0.56082445  1
  Li  Li1  1  0.76927488  0.32354325  0.06083398  1
  Li  Li2  1  0.32307848  0.90250008  0.05922357  1
  Li  Li3  1  0.68181750  0.23122493  0.43921363  1
  Li  Li4  1  0.32312064  0.77431000  0.55926583  1
  Li  Li5  1  0.68249303  0.08658537  0.93910586  1
  Li  Li6  1  0.09664540  0.67494303  0.43865876  1
  Li  Li7  1  0.09647905  0.22864584  0.93877244  1
  V  V8  1  0.56729509  0.43328443  0.24879559  1
  V  V9  1  0.42870056  0.56547557  0.75604841  1
  V  V10  1  0.56719935  0.99939134  0.74870592  1
  V  V11  1  0.42878751  0.00573176  0.25601740  1
  V  V12  1  0.99542512  0.56752754  0.24501339  1
  V  V13  1  0.99535324  0.43708711  0.74492433  1
  P  P14  1  0.91643655  0.76950284  0.84489738  1
  P  P15  1  0.77099085  0.91206647  0.34042687  1
  P  P16  1  0.91655911  0.31405005  0.34513429  1
  P  P17  1  0.66196274  0.66891509  0.12766795  1
  P  P18  1  0.66190004  0.66899763  0.62752999  1
  P  P19  1  0.77105331  0.31698661  0.84039319  1
  P  P20  1  0.68047702  0.23231032  0.65609051  1
  P  P21  1  0.31912707  0.91280790  0.84211219  1
  P  P22  1  0.68050419  0.08721239  0.15608908  1
  P  P23  1  0.31908966  0.76809048  0.34208711  1
  P  P24  1  0.22835499  0.68441424  0.15826095  1
  P  P25  1  0.33374057  0.33676604  0.37327486  1
  P  P26  1  0.33357302  0.32959545  0.87332421  1
  P  P27  1  0.08615382  0.68408272  0.65848143  1
  P  P28  1  0.22824799  0.08716713  0.65829137  1
  P  P29  1  0.08615598  0.22968770  0.15863260  1
  O  O30  1  0.00057033  0.75677266  0.56661717  1
  O  O31  1  0.91791278  0.74439586  0.34001915  1
  O  O32  1  0.75246839  0.00504980  0.06569563  1
  O  O33  1  0.74584643  0.91499391  0.83765383  1
  O  O34  1  0.90802836  0.61692173  0.82059832  1
  O  O35  1  0.81369101  0.66823215  0.17402369  1
  O  O36  1  0.90827959  0.47505765  0.32082316  1
  O  O37  1  0.00044417  0.24270962  0.06680845  1
  O  O38  1  0.91779917  0.33786812  0.84002704  1
  O  O39  1  0.67275419  0.81391123  0.66631035  1
  O  O40  1  0.61898838  0.90174306  0.32360048  1
  O  O41  1  0.81363838  0.51798081  0.67392548  1
  O  O42  1  0.66727720  0.66634787  0.02142667  1
  O  O43  1  0.66708538  0.66602777  0.52133370  1
  O  O44  1  0.67285271  0.51321149  0.16656268  1
  O  O45  1  0.47885421  0.89913285  0.82484764  1
  O  O46  1  0.51284073  0.81761204  0.16899167  1
  O  O47  1  0.74597977  0.33921805  0.33788362  1
  O  O48  1  0.79158279  0.21026082  0.74901982  1
  O  O49  1  0.75224093  0.24279496  0.56566557  1
  O  O50  1  0.75935559  0.24128089  0.93068373  1
  O  O51  1  0.61885466  0.47934520  0.82362615  1
  O  O52  1  0.51275983  0.66952921  0.66901563  1
  O  O53  1  0.66364254  0.25273273  0.16029136  1
  O  O54  1  0.47879252  0.62181786  0.32492440  1
  O  O55  1  0.34017359  0.91540064  0.33427979  1
  O  O56  1  0.79156549  0.99829235  0.24907752  1
  O  O57  1  0.75925147  0.99942479  0.43070851  1
  O  O58  1  0.23587159  0.99577010  0.57279832  1
  O  O59  1  0.66368352  0.08365316  0.66027093  1
  O  O60  1  0.52095245  0.38352285  0.67950003  1
  O  O61  1  0.33999799  0.74444234  0.83430817  1
  O  O62  1  0.48702974  0.32677128  0.33313679  1
  O  O63  1  0.38163179  0.52371465  0.17631480  1
  O  O64  1  0.23582825  0.76821701  0.07270327  1
  O  O65  1  0.24186774  0.76117446  0.43296908  1
  O  O66  1  0.20365148  0.79003743  0.25371089  1
  O  O67  1  0.25444401  0.66229216  0.65991678  1
  O  O68  1  0.48687735  0.18612658  0.83332838  1
  O  O69  1  0.52107284  0.09542708  0.17941646  1
  O  O70  1  0.33283322  0.48136537  0.82669406  1
  O  O71  1  0.33462610  0.33386980  0.97950360  1
  O  O72  1  0.33522113  0.33152271  0.47944267  1
  O  O73  1  0.18384642  0.48671081  0.33133034  1
  O  O74  1  0.38158650  0.09458463  0.67633844  1
  O  O75  1  0.33285227  0.18582424  0.32668524  1
  O  O76  1  0.08565688  0.65624969  0.16558904  1
  O  O77  1  0.99646349  0.79307797  0.74712392  1
  O  O78  1  0.00401665  0.76166961  0.93165733  1
  O  O79  1  0.09772449  0.52131354  0.67589389  1
  O  O80  1  0.18372404  0.32965964  0.83131117  1
  O  O81  1  0.09774568  0.38098663  0.17600999  1
  O  O82  1  0.25441770  0.08328124  0.15996191  1
  O  O83  1  0.24197127  0.99702944  0.93299726  1
  O  O84  1  0.20356210  0.00639859  0.75379923  1
  O  O85  1  0.08568566  0.25805005  0.66553065  1
  O  O86  1  0.00434268  0.23432212  0.43185413  1
  O  O87  1  0.99662784  0.21041583  0.24735949  1
