# generated using pymatgen
data_Li5V4O12F
_symmetry_space_group_name_H-M   'P 1'
_cell_length_a   4.69308995
_cell_length_b   10.14424411
_cell_length_c   10.01843426
_cell_angle_alpha   90.00000000
_cell_angle_beta   89.50250361
_cell_angle_gamma   90.00000000
_symmetry_Int_Tables_number   1
_chemical_formula_structural   Li5V4O12F
_chemical_formula_sum   'Li10 V8 O24 F2'
_cell_volume   476.93813701
_cell_formula_units_Z   2
loop_
 _symmetry_equiv_pos_site_id
 _symmetry_equiv_pos_as_xyz
  1  'x, y, z'
loop_
 _atom_site_type_symbol
 _atom_site_label
 _atom_site_symmetry_multiplicity
 _atom_site_fract_x
 _atom_site_fract_y
 _atom_site_fract_z
 _atom_site_occupancy
  Li  Li0  1  0.06237861  0.34386790  0.63732691  1
  Li  Li1  1  0.00000000  0.00000000  0.00000000  1
  Li  Li2  1  0.03810537  0.36191939  0.34084663  1
  Li  Li3  1  0.43762139  0.84386790  0.86267309  1
  Li  Li4  1  0.46189463  0.86191939  0.15915337  1
  Li  Li5  1  0.50000000  0.50000000  0.50000000  1
  Li  Li6  1  0.53810537  0.13808061  0.84084663  1
  Li  Li7  1  0.56237861  0.15613210  0.13732691  1
  Li  Li8  1  0.96189463  0.63808061  0.65915337  1
  Li  Li9  1  0.93762139  0.65613210  0.36267309  1
  V  V10  1  0.05388873  0.34186441  0.98013731  1
  V  V11  1  0.04884485  0.01456914  0.33858982  1
  V  V12  1  0.44611127  0.84186441  0.51986269  1
  V  V13  1  0.54884485  0.48543086  0.83858982  1
  V  V14  1  0.45115515  0.51456914  0.16141018  1
  V  V15  1  0.55388873  0.15813559  0.48013731  1
  V  V16  1  0.95115515  0.98543086  0.66141018  1
  V  V17  1  0.94611127  0.65813559  0.01986269  1
  O  O18  1  0.10463357  0.02177092  0.80716306  1
  O  O19  1  0.11571524  0.80283414  0.99580882  1
  O  O20  1  0.14772294  0.80992338  0.62701943  1
  O  O21  1  0.24895422  0.53970832  0.96158821  1
  O  O22  1  0.14152201  0.60695764  0.19832081  1
  O  O23  1  0.24813390  0.85076839  0.35942278  1
  O  O24  1  0.25104578  0.03970832  0.53841179  1
  O  O25  1  0.35227706  0.30992338  0.87298057  1
  O  O26  1  0.25186610  0.35076839  0.14057722  1
  O  O27  1  0.35847699  0.10695764  0.30167919  1
  O  O28  1  0.39536643  0.52177092  0.69283694  1
  O  O29  1  0.38428476  0.30283414  0.50419118  1
  O  O30  1  0.61571524  0.69716586  0.49580882  1
  O  O31  1  0.60463357  0.47822908  0.30716306  1
  O  O32  1  0.64152201  0.89304236  0.69832081  1
  O  O33  1  0.74813390  0.64923161  0.85942278  1
  O  O34  1  0.64772294  0.69007662  0.12701943  1
  O  O35  1  0.74895422  0.96029168  0.46158821  1
  O  O36  1  0.75186610  0.14923161  0.64057722  1
  O  O37  1  0.85847799  0.39304236  0.80167919  1
  O  O38  1  0.75104578  0.46029168  0.03841179  1
  O  O39  1  0.85227706  0.19007662  0.37298057  1
  O  O40  1  0.88428476  0.19716586  0.00419118  1
  O  O41  1  0.89536643  0.97822908  0.19283694  1
  F  F42  1  0.00000000  0.50000000  0.50000000  1
  F  F43  1  0.50000000  0.00000000  0.00000000  1
