# generated using pymatgen
data_Li5Fe2(BO4)2
_symmetry_space_group_name_H-M   'P 1'
_cell_length_a   5.20760429
_cell_length_b   6.68222786
_cell_length_c   10.70702883
_cell_angle_alpha   82.48792468
_cell_angle_beta   90.00000000
_cell_angle_gamma   90.00000000
_symmetry_Int_Tables_number   1
_chemical_formula_structural   Li5Fe2(BO4)2
_chemical_formula_sum   'Li10 Fe4 B4 O16'
_cell_volume   369.38966042
_cell_formula_units_Z   2
loop_
 _symmetry_equiv_pos_site_id
 _symmetry_equiv_pos_as_xyz
  1  'x, y, z'
loop_
 _atom_site_type_symbol
 _atom_site_label
 _atom_site_symmetry_multiplicity
 _atom_site_fract_x
 _atom_site_fract_y
 _atom_site_fract_z
 _atom_site_occupancy
  Li  Li0  1  0.40216233  0.13303290  0.21137551  1
  Li  Li1  1  0.09783767  0.13303290  0.71137551  1
  Li  Li2  1  0.16958518  0.21969659  0.42025719  1
  Li  Li3  1  0.33041482  0.21969659  0.92025719  1
  Li  Li4  1  0.66304844  0.77440373  0.08080182  1
  Li  Li5  1  0.83695156  0.77440373  0.58080182  1
  Li  Li6  1  0.09355855  0.88761696  0.16282074  1
  Li  Li7  1  0.82062097  0.89779125  0.31467527  1
  Li  Li8  1  0.40644145  0.88761696  0.66282074  1
  Li  Li9  1  0.67937903  0.89779125  0.81467527  1
  Fe  Fe10  1  0.14773617  0.49054873  0.13987377  1
  Fe  Fe11  1  0.65280478  0.49915581  0.34517421  1
  Fe  Fe12  1  0.35226383  0.49054873  0.63987377  1
  Fe  Fe13  1  0.84719522  0.49915581  0.84517421  1
  B  B14  1  0.83664813  0.18520380  0.06186683  1
  B  B15  1  0.66335187  0.18520380  0.56186683  1
  B  B16  1  0.31500530  0.81369617  0.43047454  1
  B  B17  1  0.18499470  0.81369617  0.93047454  1
  O  O18  1  0.72803336  0.03924223  0.14785906  1
  O  O19  1  0.77196664  0.03924223  0.64785906  1
  O  O20  1  0.10349626  0.21992345  0.07077588  1
  O  O21  1  0.81037325  0.29068398  0.46579900  1
  O  O22  1  0.39650374  0.21992345  0.57077588  1
  O  O23  1  0.36754091  0.37582369  0.28623709  1
  O  O24  1  0.68962675  0.29068398  0.96579900  1
  O  O25  1  0.13245909  0.37582369  0.78623709  1
  O  O26  1  0.86336442  0.63381513  0.21878313  1
  O  O27  1  0.30754148  0.74937950  0.04401099  1
  O  O28  1  0.63663558  0.63381513  0.71878313  1
  O  O29  1  0.57313754  0.74770314  0.42272944  1
  O  O30  1  0.19245852  0.74937950  0.54401099  1
  O  O31  1  0.92686246  0.74770314  0.92272944  1
  O  O32  1  0.19985663  0.94140591  0.33623953  1
  O  O33  1  0.30014337  0.94140591  0.83623953  1
