# generated using pymatgen
data_LiFe2(BO3)2
_symmetry_space_group_name_H-M   'P 1'
_cell_length_a   5.24006537
_cell_length_b   9.15870722
_cell_length_c   11.29737400
_cell_angle_alpha   67.89884100
_cell_angle_beta   76.41821845
_cell_angle_gamma   89.08583841
_symmetry_Int_Tables_number   1
_chemical_formula_structural   LiFe2(BO3)2
_chemical_formula_sum   'Li4 Fe8 B8 O24'
_cell_volume   486.71868742
_cell_formula_units_Z   4
loop_
 _symmetry_equiv_pos_site_id
 _symmetry_equiv_pos_as_xyz
  1  'x, y, z'
loop_
 _atom_site_type_symbol
 _atom_site_label
 _atom_site_symmetry_multiplicity
 _atom_site_fract_x
 _atom_site_fract_y
 _atom_site_fract_z
 _atom_site_occupancy
  Li  Li0  1  0.97036696  0.96596507  0.41098730  1
  Li  Li1  1  0.71817083  0.72146659  0.90297715  1
  Li  Li2  1  0.74828213  0.75773319  0.15055598  1
  Li  Li3  1  0.46629690  0.46551449  0.41758351  1
  Fe  Fe4  1  0.97192949  0.64967761  0.38256284  1
  Fe  Fe5  1  0.75019497  0.06589244  0.87491242  1
  Fe  Fe6  1  0.51325037  0.84325299  0.63181769  1
  Fe  Fe7  1  0.75407551  0.42778176  0.13042668  1
  Fe  Fe8  1  0.22959872  0.55848180  0.87762521  1
  Fe  Fe9  1  0.47624776  0.14676792  0.37963241  1
  Fe  Fe10  1  0.00816175  0.34648611  0.63919536  1
  Fe  Fe11  1  0.26789067  0.94056611  0.12367380  1
  B  B12  1  0.97844820  0.31036518  0.38051806  1
  B  B13  1  0.73005229  0.40212487  0.87404405  1
  B  B14  1  0.52426483  0.19205887  0.61956875  1
  B  B15  1  0.76133335  0.09186561  0.14023393  1
  B  B16  1  0.47452173  0.81968305  0.36925107  1
  B  B17  1  0.23172104  0.88047489  0.88787580  1
  B  B18  1  0.02318966  0.68303508  0.62825516  1
  B  B19  1  0.26844006  0.61586326  0.11947357  1
  O  O20  1  0.97022287  0.88138994  0.89061602  1
  O  O21  1  0.88367389  0.29562571  0.83403396  1
  O  O22  1  0.84767902  0.50413760  0.91650986  1
  O  O23  1  0.89442288  0.81633673  0.60711584  1
  O  O24  1  0.95041148  0.56760520  0.58587232  1
  O  O25  1  0.74976626  0.17984725  0.66594127  1
  O  O26  1  0.73105041  0.33116751  0.34804293  1
  O  O27  1  0.47284677  0.40910139  0.87408784  1
  O  O28  1  0.38962267  0.77401846  0.84671766  1
  O  O29  1  0.57769991  0.92575946  0.41169911  1
  O  O30  1  0.60605092  0.69205137  0.35966775  1
  O  O31  1  0.35443700  0.97879497  0.93053283  1
  O  O32  1  0.64413781  0.99272034  0.09556421  1
  O  O33  1  0.37502208  0.31876370  0.61135350  1
  O  O34  1  0.45835672  0.08083741  0.57326434  1
  O  O35  1  0.61546854  0.19866094  0.18301473  1
  O  O36  1  0.53334992  0.61542594  0.11489832  1
  O  O37  1  0.23758081  0.66078473  0.68389608  1
  O  O38  1  0.23599881  0.84801707  0.33348500  1
  O  O39  1  0.08138078  0.42070677  0.41679950  1
  O  O40  1  0.11232793  0.18092246  0.37719613  1
  O  O41  1  0.14305536  0.52155419  0.07649233  1
  O  O42  1  0.11830980  0.72214458  0.16574364  1
  O  O43  1  0.01715216  0.08008543  0.14437908  1
