# generated using pymatgen
data_Ca3Mn4O8
_symmetry_space_group_name_H-M   'P 1'
_cell_length_a   6.09520940
_cell_length_b   11.27571607
_cell_length_c   11.72691247
_cell_angle_alpha   89.04061221
_cell_angle_beta   90.01154015
_cell_angle_gamma   90.00287563
_symmetry_Int_Tables_number   1
_chemical_formula_structural   Ca3Mn4O8
_chemical_formula_sum   'Ca12 Mn16 O32'
_cell_volume   805.85248618
_cell_formula_units_Z   4
loop_
 _symmetry_equiv_pos_site_id
 _symmetry_equiv_pos_as_xyz
  1  'x, y, z'
loop_
 _atom_site_type_symbol
 _atom_site_label
 _atom_site_symmetry_multiplicity
 _atom_site_fract_x
 _atom_site_fract_y
 _atom_site_fract_z
 _atom_site_occupancy
  Ca  Ca0  1  0.24948695  0.98249376  0.76262169  1
  Ca  Ca1  1  0.26079410  0.49105473  0.76131137  1
  Ca  Ca2  1  0.25050764  0.98229660  0.26298922  1
  Ca  Ca3  1  0.23931913  0.49099172  0.26122858  1
  Ca  Ca4  1  0.75990096  0.99446564  0.76262175  1
  Ca  Ca5  1  0.74556313  0.47905330  0.76196012  1
  Ca  Ca6  1  0.74011057  0.99440673  0.26234435  1
  Ca  Ca7  1  0.75453781  0.47900457  0.26205657  1
  Ca  Ca8  1  0.99391820  0.75909780  0.48204062  1
  Ca  Ca9  1  0.01243347  0.26156896  0.98371539  1
  Ca  Ca10  1  0.48710693  0.26148267  0.48367940  1
  Ca  Ca11  1  0.50604825  0.75926035  0.98203033  1
  Mn  Mn12  1  0.25991843  0.23316661  0.73107118  1
  Mn  Mn13  1  0.26548391  0.73104892  0.70731187  1
  Mn  Mn14  1  0.24012015  0.23301472  0.23104533  1
  Mn  Mn15  1  0.23436899  0.73099559  0.20719561  1
  Mn  Mn16  1  0.76913753  0.23221070  0.70524765  1
  Mn  Mn17  1  0.76364747  0.73240835  0.73147333  1
  Mn  Mn18  1  0.73092597  0.23219007  0.20546935  1
  Mn  Mn19  1  0.73631238  0.73235102  0.23146473  1
  Mn  Mn20  1  0.49137725  0.03765198  0.99733928  1
  Mn  Mn21  1  0.49630299  0.48486004  0.02429191  1
  Mn  Mn22  1  0.50923381  0.97051089  0.52895569  1
  Mn  Mn23  1  0.50913260  0.55220482  0.48693985  1
  Mn  Mn24  1  0.99125101  0.97069214  0.02897073  1
  Mn  Mn25  1  0.99074682  0.55230915  0.98689334  1
  Mn  Mn26  1  0.00860714  0.03753455  0.49738258  1
  Mn  Mn27  1  0.00366998  0.48477441  0.52435296  1
  O  O28  1  0.02503833  0.35908288  0.69004376  1
  O  O29  1  0.99413201  0.84435416  0.68659874  1
  O  O30  1  0.00915102  0.34255812  0.18205836  1
  O  O31  1  0.97087422  0.85505383  0.18377873  1
  O  O32  1  0.49088767  0.34264008  0.68200641  1
  O  O33  1  0.52915661  0.85508521  0.68384917  1
  O  O34  1  0.47500606  0.35897899  0.19014468  1
  O  O35  1  0.50572923  0.84428358  0.18660345  1
  O  O36  1  0.25258511  0.41797703  0.93990719  1
  O  O37  1  0.27330759  0.91897566  0.94610117  1
  O  O38  1  0.24728468  0.41799711  0.43987077  1
  O  O39  1  0.22682974  0.91883289  0.44643656  1
  O  O40  1  0.74757887  0.41542220  0.94680210  1
  O  O41  1  0.71362015  0.92315871  0.93880478  1
  O  O42  1  0.75230268  0.41530828  0.44687333  1
  O  O43  1  0.78656423  0.92304228  0.43856549  1
  O  O44  1  0.48764857  0.13102050  0.80382883  1
  O  O45  1  0.51997158  0.64513272  0.80531490  1
  O  O46  1  0.47879483  0.14516531  0.30851461  1
  O  O47  1  0.51348037  0.63192841  0.31323911  1
  O  O48  1  0.02121167  0.14532331  0.80848089  1
  O  O49  1  0.98663970  0.63201133  0.81322504  1
  O  O50  1  0.01243700  0.13090229  0.30387952  1
  O  O51  1  0.98011313  0.64509032  0.30526491  1
  O  O52  1  0.25030299  0.11001471  0.58447128  1
  O  O53  1  0.22915819  0.60590979  0.57889716  1
  O  O54  1  0.24950527  0.10985426  0.08451249  1
  O  O55  1  0.27084662  0.60593987  0.07880751  1
  O  O56  1  0.75564450  0.10853775  0.57707039  1
  O  O57  1  0.78292328  0.60428257  0.58756541  1
  O  O58  1  0.74425606  0.10876511  0.07705578  1
  O  O59  1  0.71705247  0.60430396  0.08756973  1
