# generated using pymatgen
data_Na5VO5
_symmetry_space_group_name_H-M   'P 1'
_cell_length_a   5.92629958
_cell_length_b   5.92629958
_cell_length_c   10.08113541
_cell_angle_alpha   80.10737328
_cell_angle_beta   99.89262672
_cell_angle_gamma   63.44892763
_symmetry_Int_Tables_number   1
_chemical_formula_structural   Na5VO5
_chemical_formula_sum   'Na10 V2 O10'
_cell_volume   299.33784834
_cell_formula_units_Z   2
loop_
 _symmetry_equiv_pos_site_id
 _symmetry_equiv_pos_as_xyz
  1  'x, y, z'
loop_
 _atom_site_type_symbol
 _atom_site_label
 _atom_site_symmetry_multiplicity
 _atom_site_fract_x
 _atom_site_fract_y
 _atom_site_fract_z
 _atom_site_occupancy
  Na  Na0  1  0.25409350  0.93709554  0.58024694  1
  Na  Na1  1  0.50627314  0.76741802  0.94764761  1
  Na  Na2  1  0.41587740  0.41587740  0.75000000  1
  Na  Na3  1  0.06290446  0.74590650  0.08024694  1
  Na  Na4  1  0.23258198  0.49372686  0.44764761  1
  Na  Na5  1  0.76741802  0.50627314  0.55235239  1
  Na  Na6  1  0.93709554  0.25409350  0.91975306  1
  Na  Na7  1  0.58412260  0.58412260  0.25000000  1
  Na  Na8  1  0.49372686  0.23258198  0.05235239  1
  Na  Na9  1  0.74590650  0.06290446  0.41975306  1
  V  V10  1  0.84309990  0.84309990  0.75000000  1
  V  V11  1  0.15690010  0.15690010  0.25000000  1
  O  O12  1  0.17005270  0.66894742  0.87579172  1
  O  O13  1  0.00671649  0.70632717  0.60854371  1
  O  O14  1  0.33105358  0.82994730  0.37579172  1
  O  O15  1  0.29367283  0.99328351  0.10854371  1
  O  O16  1  0.66512268  0.66512268  0.75000000  1
  O  O17  1  0.33487732  0.33487732  0.25000000  1
  O  O18  1  0.70632717  0.00671649  0.89145629  1
  O  O19  1  0.66894742  0.17005270  0.62420828  1
  O  O20  1  0.99328351  0.29367283  0.39145629  1
  O  O21  1  0.82994730  0.33105358  0.12420828  1
