# generated using pymatgen
data_Li3Cr(CO3)3
_symmetry_space_group_name_H-M   'P 1'
_cell_length_a   9.48975634
_cell_length_b   6.01075569
_cell_length_c   6.01075569
_cell_angle_alpha   107.74517337
_cell_angle_beta   90.00000000
_cell_angle_gamma   90.00000000
_symmetry_Int_Tables_number   1
_chemical_formula_structural   Li3Cr(CO3)3
_chemical_formula_sum   'Li6 Cr2 C6 O18'
_cell_volume   326.54451622
_cell_formula_units_Z   2
loop_
 _symmetry_equiv_pos_site_id
 _symmetry_equiv_pos_as_xyz
  1  'x, y, z'
loop_
 _atom_site_type_symbol
 _atom_site_label
 _atom_site_symmetry_multiplicity
 _atom_site_fract_x
 _atom_site_fract_y
 _atom_site_fract_z
 _atom_site_occupancy
  Li  Li0  1  0.00000000  0.05064843  0.05064843  1
  Li  Li1  1  0.25000000  0.39500317  0.36480949  1
  Li  Li2  1  0.25000000  0.82749958  0.19762664  1
  Li  Li3  1  0.50000000  0.05064843  0.05064843  1
  Li  Li4  1  0.75000000  0.19762664  0.82749958  1
  Li  Li5  1  0.75000000  0.36480949  0.39500317  1
  Cr  Cr6  1  0.25000000  0.28115575  0.81028723  1
  Cr  Cr7  1  0.75000000  0.81028723  0.28115575  1
  C  C8  1  0.98360690  0.12570717  0.55912933  1
  C  C9  1  0.25000000  0.76885900  0.70293587  1
  C  C10  1  0.51639310  0.12570717  0.55912933  1
  C  C11  1  0.48360690  0.55912933  0.12570717  1
  C  C12  1  0.75000000  0.70293587  0.76885900  1
  C  C13  1  0.01639310  0.55912933  0.12570717  1
  O  O14  1  0.94385043  0.09717737  0.74847322  1
  O  O15  1  0.11206168  0.19451018  0.53284678  1
  O  O16  1  0.10274817  0.37735874  0.09026384  1
  O  O17  1  0.25000000  0.59098332  0.77822737  1
  O  O18  1  0.25000000  0.97438518  0.86779020  1
  O  O19  1  0.25000000  0.74431942  0.48620870  1
  O  O20  1  0.39725183  0.37735874  0.09026384  1
  O  O21  1  0.38793832  0.19451018  0.53284678  1
  O  O22  1  0.55614957  0.09717737  0.74847322  1
  O  O23  1  0.44385043  0.74847322  0.09717737  1
  O  O24  1  0.61206168  0.53284678  0.19451018  1
  O  O25  1  0.60274817  0.09026384  0.37735874  1
  O  O26  1  0.75000000  0.48620870  0.74431942  1
  O  O27  1  0.75000000  0.77822737  0.59098332  1
  O  O28  1  0.75000000  0.86779020  0.97438518  1
  O  O29  1  0.89725183  0.09026384  0.37735874  1
  O  O30  1  0.88793832  0.53284678  0.19451018  1
  O  O31  1  0.05614957  0.74847322  0.09717737  1
