# generated using pymatgen
data_LiNiPO4
_symmetry_space_group_name_H-M   'P 1'
_cell_length_a   5.61975985
_cell_length_b   10.55372024
_cell_length_c   9.95603422
_cell_angle_alpha   90.00000000
_cell_angle_beta   91.77423949
_cell_angle_gamma   90.00000000
_symmetry_Int_Tables_number   1
_chemical_formula_structural   LiNiPO4
_chemical_formula_sum   'Li8 Ni8 P8 O32'
_cell_volume   590.20305954
_cell_formula_units_Z   8
loop_
 _symmetry_equiv_pos_site_id
 _symmetry_equiv_pos_as_xyz
  1  'x, y, z'
loop_
 _atom_site_type_symbol
 _atom_site_label
 _atom_site_symmetry_multiplicity
 _atom_site_fract_x
 _atom_site_fract_y
 _atom_site_fract_z
 _atom_site_occupancy
  Li  Li0  1  0.12811854  0.14160278  0.88706531  1
  Li  Li1  1  0.12811854  0.35839722  0.38706531  1
  Li  Li2  1  0.38872666  0.66330710  0.64162129  1
  Li  Li3  1  0.38872666  0.83669290  0.14162129  1
  Li  Li4  1  0.61127334  0.16330710  0.85837871  1
  Li  Li5  1  0.61127334  0.33669290  0.35837871  1
  Li  Li6  1  0.87188146  0.64160278  0.61293469  1
  Li  Li7  1  0.87188146  0.85839722  0.11293469  1
  Ni  Ni8  1  0.11994852  0.90727484  0.73152148  1
  Ni  Ni9  1  0.11994852  0.59272516  0.23152148  1
  Ni  Ni10  1  0.34617592  0.37667287  0.98573560  1
  Ni  Ni11  1  0.34617592  0.12332713  0.48573560  1
  Ni  Ni12  1  0.65382408  0.87667287  0.51426440  1
  Ni  Ni13  1  0.65382408  0.62332713  0.01426440  1
  Ni  Ni14  1  0.88005148  0.40727484  0.76847852  1
  Ni  Ni15  1  0.88005148  0.09272516  0.26847852  1
  P  P16  1  0.12492024  0.64573373  0.90931286  1
  P  P17  1  0.12492024  0.85426627  0.40931286  1
  P  P18  1  0.37674044  0.39152456  0.66130115  1
  P  P19  1  0.37674044  0.10847544  0.16130115  1
  P  P20  1  0.62325956  0.89152456  0.83869885  1
  P  P21  1  0.62325956  0.60847544  0.33869885  1
  P  P22  1  0.87507976  0.14573373  0.59068714  1
  P  P23  1  0.87507976  0.35426627  0.09068714  1
  O  O24  1  0.08250252  0.78604924  0.54479665  1
  O  O25  1  0.10461369  0.06616730  0.62414335  1
  O  O26  1  0.08250252  0.71395076  0.04479665  1
  O  O27  1  0.10461369  0.43383270  0.12414335  1
  O  O28  1  0.16499506  0.73331357  0.79005004  1
  O  O29  1  0.14417641  0.47314896  0.65026316  1
  O  O30  1  0.16499506  0.76668643  0.29005004  1
  O  O31  1  0.14417641  0.02685104  0.15026316  1
  O  O32  1  0.34724677  0.55871871  0.92409784  1
  O  O33  1  0.37343442  0.30733542  0.79182397  1
  O  O34  1  0.34724677  0.94128129  0.42409784  1
  O  O35  1  0.38946547  0.30754112  0.53248456  1
  O  O36  1  0.40569971  0.98329148  0.83323744  1
  O  O37  1  0.37343442  0.19266458  0.29182397  1
  O  O38  1  0.38946547  0.19245888  0.03248456  1
  O  O39  1  0.40569971  0.51670852  0.33323744  1
  O  O40  1  0.59430029  0.48329148  0.66676256  1
  O  O41  1  0.61053453  0.80754112  0.96751544  1
  O  O42  1  0.62656558  0.80733542  0.70817603  1
  O  O43  1  0.59430029  0.01670852  0.16676256  1
  O  O44  1  0.61053453  0.69245888  0.46751544  1
  O  O45  1  0.65275323  0.05871871  0.57590216  1
  O  O46  1  0.62656558  0.69266458  0.20817603  1
  O  O47  1  0.65275323  0.44128129  0.07590216  1
  O  O48  1  0.85582359  0.97314896  0.84973684  1
  O  O49  1  0.83500494  0.23331357  0.70994996  1
  O  O50  1  0.85582359  0.52685104  0.34973684  1
  O  O51  1  0.83500494  0.26668643  0.20994996  1
  O  O52  1  0.89538631  0.56616730  0.87585665  1
  O  O53  1  0.91749748  0.28604924  0.95520335  1
  O  O54  1  0.89538631  0.93383270  0.37585665  1
  O  O55  1  0.91749748  0.21395076  0.45520335  1
