# generated using pymatgen
data_VF4
_symmetry_space_group_name_H-M   'P 1'
_cell_length_a   4.98743537
_cell_length_b   5.74086106
_cell_length_c   9.78050213
_cell_angle_alpha   31.95221009
_cell_angle_beta   89.47100053
_cell_angle_gamma   89.53318499
_symmetry_Int_Tables_number   1
_chemical_formula_structural   VF4
_chemical_formula_sum   'V2 F8'
_cell_volume   148.19254080
_cell_formula_units_Z   2
loop_
 _symmetry_equiv_pos_site_id
 _symmetry_equiv_pos_as_xyz
  1  'x, y, z'
loop_
 _atom_site_type_symbol
 _atom_site_label
 _atom_site_symmetry_multiplicity
 _atom_site_fract_x
 _atom_site_fract_y
 _atom_site_fract_z
 _atom_site_occupancy
  V  V0  1  0.25077555  0.33076038  0.33025937  1
  V  V1  1  0.75067596  0.68320301  0.65394131  1
  F  F2  1  0.07418602  0.82465516  0.48048515  1
  F  F3  1  0.12188749  0.72548898  0.02016233  1
  F  F4  1  0.37940438  0.72606111  0.24664704  1
  F  F5  1  0.42866828  0.82853947  0.68455530  1
  F  F6  1  0.62420586  0.29095556  0.73429398  1
  F  F7  1  0.57250569  0.18468999  0.30014925  1
  F  F8  1  0.92784964  0.18828531  0.50416961  1
  F  F9  1  0.87757313  0.29180101  0.96426466  1
