# generated using pymatgen
data_Li3Ti2(NiO4)2
_symmetry_space_group_name_H-M   'P 1'
_cell_length_a   5.90393403
_cell_length_b   5.87193745
_cell_length_c   5.87193686
_cell_angle_alpha   120.10695658
_cell_angle_beta   60.03496916
_cell_angle_gamma   119.96502796
_symmetry_Int_Tables_number   1
_chemical_formula_structural   Li3Ti2(NiO4)2
_chemical_formula_sum   'Li3 Ti2 Ni2 O8'
_cell_volume   143.90172577
_cell_formula_units_Z   1
loop_
 _symmetry_equiv_pos_site_id
 _symmetry_equiv_pos_as_xyz
  1  'x, y, z'
loop_
 _atom_site_type_symbol
 _atom_site_label
 _atom_site_symmetry_multiplicity
 _atom_site_fract_x
 _atom_site_fract_y
 _atom_site_fract_z
 _atom_site_occupancy
  Li  Li0  1  0.49999219  0.99999967  0.00000033  1
  Li  Li1  1  0.99999669  0.99999965  0.50000101  1
  Li  Li2  1  0.99999669  0.49999899  0.00000035  1
  Ti  Ti3  1  0.50000138  -0.00000641  0.49999673  1
  Ti  Ti4  1  0.50000138  0.50000327  0.00000641  1
  Ni  Ni5  1  0.49998952  0.49999295  0.50000705  1
  Ni  Ni6  1  0.00000224  0.50000124  0.49999876  1
  O  O7  1  0.72922966  0.24869422  0.75130578  1
  O  O8  1  0.71896260  0.71352938  0.73791277  1
  O  O9  1  0.71896260  0.26208723  0.28647062  1
  O  O10  1  0.27056206  0.24412173  0.75587827  1
  O  O11  1  0.72943133  0.75587672  0.24412328  1
  O  O12  1  0.28104626  0.73790906  0.71352041  1
  O  O13  1  0.28104626  0.28647959  0.26209094  1
  O  O14  1  0.27076915  0.75130871  0.24869129  1
