# generated using pymatgen
data_LiMnPO4
_symmetry_space_group_name_H-M   'P 1'
_cell_length_a   4.39892265
_cell_length_b   14.70806421
_cell_length_c   4.86028212
_cell_angle_alpha   90.00000000
_cell_angle_beta   90.00000000
_cell_angle_gamma   90.00000000
_symmetry_Int_Tables_number   1
_chemical_formula_structural   LiMnPO4
_chemical_formula_sum   'Li4 Mn4 P4 O16'
_cell_volume   314.45848787
_cell_formula_units_Z   4
loop_
 _symmetry_equiv_pos_site_id
 _symmetry_equiv_pos_as_xyz
  1  'x, y, z'
loop_
 _atom_site_type_symbol
 _atom_site_label
 _atom_site_symmetry_multiplicity
 _atom_site_fract_x
 _atom_site_fract_y
 _atom_site_fract_z
 _atom_site_occupancy
  Li  Li0  1  0.00000000  0.24849449  0.75000000  1
  Li  Li1  1  0.00000000  0.75150551  0.25000000  1
  Li  Li2  1  0.50000000  0.25150551  0.25000000  1
  Li  Li3  1  0.50000000  0.74849449  0.75000000  1
  Mn  Mn4  1  0.00000000  0.07041073  0.25000000  1
  Mn  Mn5  1  0.00000000  0.92958927  0.75000000  1
  Mn  Mn6  1  0.50000000  0.57041073  0.25000000  1
  Mn  Mn7  1  0.50000000  0.42958927  0.75000000  1
  P  P8  1  0.00000000  0.38618067  0.25000000  1
  P  P9  1  0.00000000  0.61381933  0.75000000  1
  P  P10  1  0.50000000  0.88618067  0.25000000  1
  P  P11  1  0.50000000  0.11381933  0.75000000  1
  O  O12  1  0.18262335  0.32641748  0.46011444  1
  O  O13  1  0.18262335  0.67358252  0.96011444  1
  O  O14  1  0.26766552  0.05484557  0.59180257  1
  O  O15  1  0.26766552  0.94515443  0.09180257  1
  O  O16  1  0.23233448  0.44515443  0.09180257  1
  O  O17  1  0.23233448  0.55484557  0.59180257  1
  O  O18  1  0.31737665  0.17358252  0.96011444  1
  O  O19  1  0.31737665  0.82641748  0.46011444  1
  O  O20  1  0.68262335  0.17358252  0.53988556  1
  O  O21  1  0.68262335  0.82641748  0.03988556  1
  O  O22  1  0.76766552  0.55484557  0.90819743  1
  O  O23  1  0.76766552  0.44515443  0.40819743  1
  O  O24  1  0.73233448  0.05484557  0.90819743  1
  O  O25  1  0.73233448  0.94515443  0.40819743  1
  O  O26  1  0.81737665  0.32641748  0.03988556  1
  O  O27  1  0.81737665  0.67358252  0.53988556  1
