# generated using pymatgen
data_Li6Fe9CoO20
_symmetry_space_group_name_H-M   'P 1'
_cell_length_a   21.13245501
_cell_length_b   2.96550207
_cell_length_c   6.04231451
_cell_angle_alpha   90.00000000
_cell_angle_beta   82.76517198
_cell_angle_gamma   90.00000000
_symmetry_Int_Tables_number   1
_chemical_formula_structural   Li6Fe9CoO20
_chemical_formula_sum   'Li6 Fe9 Co1 O20'
_cell_volume   375.64703511
_cell_formula_units_Z   1
loop_
 _symmetry_equiv_pos_site_id
 _symmetry_equiv_pos_as_xyz
  1  'x, y, z'
loop_
 _atom_site_type_symbol
 _atom_site_label
 _atom_site_symmetry_multiplicity
 _atom_site_fract_x
 _atom_site_fract_y
 _atom_site_fract_z
 _atom_site_occupancy
  Li  Li0  1  0.19331635  0.00000000  0.39349766  1
  Li  Li1  1  0.30695025  0.50000000  0.61936100  1
  Li  Li2  1  0.50035517  0.50000000  0.99647012  1
  Li  Li3  1  0.69371552  0.50000000  0.39034027  1
  Li  Li4  1  0.80733592  0.00000000  0.61115628  1
  Li  Li5  1  0.99933162  0.00000000  0.00033464  1
  Fe  Fe6  1  0.09967503  0.50000000  0.69857213  1
  Fe  Fe7  1  0.19473009  0.00000000  0.91800352  1
  Fe  Fe8  1  0.30217336  0.50000000  0.08614035  1
  Fe  Fe9  1  0.39956714  0.00000000  0.29768020  1
  Fe  Fe10  1  0.49956625  0.50000000  0.50068140  1
  Fe  Fe11  1  0.60040767  0.00000000  0.69827000  1
  Fe  Fe12  1  0.69771789  0.50000000  0.91506682  1
  Fe  Fe13  1  0.80459759  0.00000000  0.08770783  1
  Fe  Fe14  1  0.00014497  0.00000000  0.49691028  1
  Co  Co15  1  0.90069273  0.50000000  0.29997092  1
  O  O16  1  0.00871663  0.50000000  0.72705450  1
  O  O17  1  0.09725210  0.00000000  0.49064219  1
  O  O18  1  0.09974542  0.00000000  0.90674778  1
  O  O19  1  0.20467547  0.50000000  0.13976575  1
  O  O20  1  0.19025961  0.50000000  0.67470804  1
  O  O21  1  0.30648083  0.00000000  0.32741082  1
  O  O22  1  0.29215743  0.00000000  0.86389103  1
  O  O23  1  0.39858296  0.50000000  0.07985289  1
  O  O24  1  0.40251266  0.50000000  0.51572825  1
  O  O25  1  0.49218055  0.00000000  0.26916632  1
  O  O26  1  0.50585334  0.00000000  0.72669544  1
  O  O27  1  0.59671291  0.50000000  0.48072084  1
  O  O28  1  0.60119881  0.50000000  0.91521776  1
  O  O29  1  0.70729220  0.00000000  0.13842935  1
  O  O30  1  0.69502830  0.00000000  0.67235662  1
  O  O31  1  0.81106123  0.50000000  0.32433610  1
  O  O32  1  0.79554621  0.50000000  0.86430507  1
  O  O33  1  0.90033899  0.00000000  0.09790907  1
  O  O34  1  0.90307813  0.00000000  0.50253994  1
  O  O35  1  0.99069964  0.50000000  0.27261382  1
