# generated using pymatgen
data_Mn4O7F
_symmetry_space_group_name_H-M   'P 1'
_cell_length_a   8.95244408
_cell_length_b   5.49458435
_cell_length_c   4.96775747
_cell_angle_alpha   90.00000000
_cell_angle_beta   90.00000000
_cell_angle_gamma   88.65619587
_symmetry_Int_Tables_number   1
_chemical_formula_structural   Mn4O7F
_chemical_formula_sum   'Mn8 O14 F2'
_cell_volume   244.29658011
_cell_formula_units_Z   2
loop_
 _symmetry_equiv_pos_site_id
 _symmetry_equiv_pos_as_xyz
  1  'x, y, z'
loop_
 _atom_site_type_symbol
 _atom_site_label
 _atom_site_symmetry_multiplicity
 _atom_site_fract_x
 _atom_site_fract_y
 _atom_site_fract_z
 _atom_site_occupancy
  Mn  Mn0  1  0.00420871  0.16513472  0.25962630  1
  Mn  Mn1  1  0.00067585  0.84827667  0.73622162  1
  Mn  Mn2  1  0.24579129  0.33486528  0.75962630  1
  Mn  Mn3  1  0.24932415  0.65172333  0.23622162  1
  Mn  Mn4  1  0.50997997  0.86748064  0.75623552  1
  Mn  Mn5  1  0.49912019  0.14377824  0.24964780  1
  Mn  Mn6  1  0.75087981  0.35622176  0.74964780  1
  Mn  Mn7  1  0.74002003  0.63251936  0.25623552  1
  O  O8  1  0.10997388  0.10815921  0.92366341  1
  O  O9  1  0.11564657  0.88919640  0.41126830  1
  O  O10  1  0.14002612  0.39184079  0.42366341  1
  O  O11  1  0.13435343  0.61080360  0.91126830  1
  O  O12  1  0.36788512  0.38532849  0.07615517  1
  O  O13  1  0.38652043  0.11029828  0.57973126  1
  O  O14  1  0.38823821  0.89304965  0.07410903  1
  O  O15  1  0.62034522  0.11221406  0.92588086  1
  O  O16  1  0.61897409  0.88926464  0.42457374  1
  O  O17  1  0.62965478  0.38778594  0.42588086  1
  O  O18  1  0.63102591  0.61073536  0.92457374  1
  O  O19  1  0.86347957  0.38970172  0.07973126  1
  O  O20  1  0.86176179  0.60695035  0.57410903  1
  O  O21  1  0.88211488  0.11467151  0.57615517  1
  F  F22  1  0.37369800  0.62317075  0.58288497  1
  F  F23  1  0.87630200  0.87682925  0.08288497  1
