# generated using pymatgen
data_Li4Co7(OF7)2
_symmetry_space_group_name_H-M   'P 1'
_cell_length_a   10.50236427
_cell_length_b   5.95271371
_cell_length_c   5.10191150
_cell_angle_alpha   89.03812073
_cell_angle_beta   88.94730443
_cell_angle_gamma   92.41002042
_symmetry_Int_Tables_number   1
_chemical_formula_structural   Li4Co7(OF7)2
_chemical_formula_sum   'Li4 Co7 O2 F14'
_cell_volume   318.57395942
_cell_formula_units_Z   1
loop_
 _symmetry_equiv_pos_site_id
 _symmetry_equiv_pos_as_xyz
  1  'x, y, z'
loop_
 _atom_site_type_symbol
 _atom_site_label
 _atom_site_symmetry_multiplicity
 _atom_site_fract_x
 _atom_site_fract_y
 _atom_site_fract_z
 _atom_site_occupancy
  Li  Li0  1  0.08101164  0.23575888  0.45711289  1
  Li  Li1  1  0.40674478  0.74245770  0.97530413  1
  Li  Li2  1  0.59325522  0.25754230  0.02469587  1
  Li  Li3  1  0.91898836  0.76424112  0.54288711  1
  Co  Co4  1  0.00000000  0.50000000  0.00000000  1
  Co  Co5  1  0.24245628  0.74610050  0.50481306  1
  Co  Co6  1  0.25826046  0.23366633  0.01187439  1
  Co  Co7  1  0.50000000  0.00000000  0.50000000  1
  Co  Co8  1  0.50000000  0.50000000  0.50000000  1
  Co  Co9  1  0.74173954  0.76633367  0.98812561  1
  Co  Co10  1  0.75754372  0.25389950  0.49518694  1
  O  O11  1  0.41274892  0.74604506  0.33771986  1
  O  O12  1  0.58725108  0.25395494  0.66228014  1
  F  F13  1  0.07560531  0.71188589  0.70457962  1
  F  F14  1  0.09103068  0.25460185  0.81751600  1
  F  F15  1  0.17937075  0.01825394  0.29032086  1
  F  F16  1  0.16476448  0.48618667  0.24251566  1
  F  F17  1  0.33217843  0.49567530  0.77447791  1
  F  F18  1  0.32989911  0.98017407  0.78100551  1
  F  F19  1  0.43061733  0.24704069  0.21225683  1
  F  F20  1  0.56938267  0.75295931  0.78774317  1
  F  F21  1  0.67010089  0.01982593  0.21899449  1
  F  F22  1  0.66782157  0.50432470  0.22552209  1
  F  F23  1  0.83523552  0.51381333  0.75748434  1
  F  F24  1  0.82062925  0.98174606  0.70967914  1
  F  F25  1  0.90896932  0.74539815  0.18248400  1
  F  F26  1  0.92439469  0.28811411  0.29542038  1
