# generated using pymatgen
data_Li4TiS4
_symmetry_space_group_name_H-M   'P 1'
_cell_length_a   7.23531779
_cell_length_b   7.22643351
_cell_length_c   13.04466713
_cell_angle_alpha   90.00000000
_cell_angle_beta   102.82088264
_cell_angle_gamma   90.00000000
_symmetry_Int_Tables_number   1
_chemical_formula_structural   Li4TiS4
_chemical_formula_sum   'Li16 Ti4 S16'
_cell_volume   665.04306403
_cell_formula_units_Z   4
loop_
 _symmetry_equiv_pos_site_id
 _symmetry_equiv_pos_as_xyz
  1  'x, y, z'
loop_
 _atom_site_type_symbol
 _atom_site_label
 _atom_site_symmetry_multiplicity
 _atom_site_fract_x
 _atom_site_fract_y
 _atom_site_fract_z
 _atom_site_occupancy
  Li  Li0  1  0.99887884  0.51842754  0.63614561  1
  Li  Li1  1  0.17650096  0.07967996  0.61136734  1
  Li  Li2  1  0.99887884  0.98157246  0.13614561  1
  Li  Li3  1  0.39841719  0.77471436  0.85857790  1
  Li  Li4  1  0.41913534  0.68357136  0.61189666  1
  Li  Li5  1  0.17650096  0.42032004  0.11136734  1
  Li  Li6  1  0.58086466  0.18357136  0.88810334  1
  Li  Li7  1  0.39841719  0.72528564  0.35857790  1
  Li  Li8  1  0.60158281  0.27471436  0.64142210  1
  Li  Li9  1  0.41913534  0.81642864  0.11189666  1
  Li  Li10  1  0.82349904  0.57967996  0.88863266  1
  Li  Li11  1  0.58086466  0.31642864  0.38810334  1
  Li  Li12  1  0.60158281  0.22528564  0.14142210  1
  Li  Li13  1  0.00112116  0.01842754  0.86385439  1
  Li  Li14  1  0.82349904  0.92032004  0.38863266  1
  Li  Li15  1  0.00112116  0.48157246  0.36385439  1
  Ti  Ti16  1  0.21120542  0.40018321  0.87625853  1
  Ti  Ti17  1  0.21120542  0.09981679  0.37625853  1
  Ti  Ti18  1  0.78879458  0.90018321  0.62374147  1
  Ti  Ti19  1  0.78879458  0.59981679  0.12374147  1
  S  S20  1  0.07800383  0.83339197  0.72267612  1
  S  S21  1  0.18462502  0.65561941  0.97127279  1
  S  S22  1  0.29895448  0.15343313  0.98546041  1
  S  S23  1  0.07800383  0.66660803  0.22267612  1
  S  S24  1  0.18462502  0.84438059  0.47127279  1
  S  S25  1  0.42398206  0.45252284  0.77291392  1
  S  S26  1  0.29895448  0.34656687  0.48546041  1
  S  S27  1  0.42398206  0.04747716  0.27291392  1
  S  S28  1  0.57601794  0.95252284  0.72708608  1
  S  S29  1  0.70104552  0.65343313  0.51453959  1
  S  S30  1  0.57601794  0.54747716  0.22708608  1
  S  S31  1  0.81537498  0.15561941  0.52872721  1
  S  S32  1  0.92199617  0.33339197  0.77732388  1
  S  S33  1  0.70104552  0.84656687  0.01453959  1
  S  S34  1  0.81537498  0.34438059  0.02872721  1
  S  S35  1  0.92199617  0.16660803  0.27732388  1
