# generated using pymatgen
data_Li5BiS4
_symmetry_space_group_name_H-M   'P 1'
_cell_length_a   11.40879883
_cell_length_b   11.79332384
_cell_length_c   11.99537175
_cell_angle_alpha   90.00000000
_cell_angle_beta   90.00000000
_cell_angle_gamma   90.00000000
_symmetry_Int_Tables_number   1
_chemical_formula_structural   Li5BiS4
_chemical_formula_sum   'Li40 Bi8 S32'
_cell_volume   1613.94919053
_cell_formula_units_Z   8
loop_
 _symmetry_equiv_pos_site_id
 _symmetry_equiv_pos_as_xyz
  1  'x, y, z'
loop_
 _atom_site_type_symbol
 _atom_site_label
 _atom_site_symmetry_multiplicity
 _atom_site_fract_x
 _atom_site_fract_y
 _atom_site_fract_z
 _atom_site_occupancy
  Li  Li0  1  0.12522800  0.59797493  0.14759128  1
  Li  Li1  1  0.12522800  0.90202507  0.64759128  1
  Li  Li2  1  0.11651747  0.12968704  0.85344481  1
  Li  Li3  1  0.11651747  0.37031296  0.35344481  1
  Li  Li4  1  0.13125016  0.85259968  0.40705371  1
  Li  Li5  1  0.13125016  0.64740032  0.90705371  1
  Li  Li6  1  0.14187502  0.86422765  0.13702811  1
  Li  Li7  1  0.14187502  0.63577235  0.63702811  1
  Li  Li8  1  0.14811611  0.10654647  0.40021423  1
  Li  Li9  1  0.14811611  0.39345353  0.90021423  1
  Li  Li10  1  0.35188389  0.89345353  0.90021423  1
  Li  Li11  1  0.35188389  0.60654647  0.40021423  1
  Li  Li12  1  0.35812498  0.13577235  0.63702811  1
  Li  Li13  1  0.35812498  0.36422765  0.13702811  1
  Li  Li14  1  0.36874984  0.35259968  0.40705371  1
  Li  Li15  1  0.36874984  0.14740032  0.90705371  1
  Li  Li16  1  0.38348253  0.62968704  0.85344481  1
  Li  Li17  1  0.38348253  0.87031296  0.35344481  1
  Li  Li18  1  0.37477200  0.40202507  0.64759128  1
  Li  Li19  1  0.37477200  0.09797493  0.14759128  1
  Li  Li20  1  0.62522800  0.59797493  0.35240872  1
  Li  Li21  1  0.62522800  0.90202507  0.85240872  1
  Li  Li22  1  0.61651747  0.12968704  0.64655519  1
  Li  Li23  1  0.61651747  0.37031296  0.14655519  1
  Li  Li24  1  0.63125016  0.64740032  0.59294629  1
  Li  Li25  1  0.63125016  0.85259968  0.09294629  1
  Li  Li26  1  0.64187502  0.63577235  0.86297189  1
  Li  Li27  1  0.64187502  0.86422765  0.36297189  1
  Li  Li28  1  0.64811611  0.10654647  0.09978577  1
  Li  Li29  1  0.64811611  0.39345353  0.59978577  1
  Li  Li30  1  0.85188389  0.60654647  0.09978577  1
  Li  Li31  1  0.85188389  0.89345353  0.59978577  1
  Li  Li32  1  0.85812498  0.36422765  0.36297189  1
  Li  Li33  1  0.85812498  0.13577235  0.86297189  1
  Li  Li34  1  0.86874984  0.14740032  0.59294629  1
  Li  Li35  1  0.86874984  0.35259968  0.09294629  1
  Li  Li36  1  0.88348253  0.62968704  0.64655519  1
  Li  Li37  1  0.88348253  0.87031296  0.14655519  1
  Li  Li38  1  0.87477200  0.09797493  0.35240872  1
  Li  Li39  1  0.87477200  0.40202507  0.85240872  1
  Bi  Bi40  1  0.08412005  0.15059881  0.14218681  1
  Bi  Bi41  1  0.08412005  0.34940119  0.64218681  1
  Bi  Bi42  1  0.41587995  0.65059881  0.14218681  1
  Bi  Bi43  1  0.41587995  0.84940119  0.64218681  1
  Bi  Bi44  1  0.58412005  0.15059881  0.35781319  1
  Bi  Bi45  1  0.58412005  0.34940119  0.85781319  1
  Bi  Bi46  1  0.91587995  0.65059881  0.35781319  1
  Bi  Bi47  1  0.91587995  0.84940119  0.85781319  1
  S  S48  1  0.99385874  0.23502603  0.45640504  1
  S  S49  1  0.99385874  0.26497397  0.95640504  1
  S  S50  1  0.02128272  0.97138885  0.27379376  1
  S  S51  1  0.02128272  0.52861115  0.77379376  1
  S  S52  1  0.22152156  0.02695151  0.01344150  1
  S  S53  1  0.22152156  0.47304849  0.51344150  1
  S  S54  1  0.26050917  0.23051188  0.26831710  1
  S  S55  1  0.26050917  0.26948812  0.76831710  1
  S  S56  1  0.23949083  0.73051188  0.26831710  1
  S  S57  1  0.23949083  0.76948812  0.76831710  1
  S  S58  1  0.27847844  0.52695151  0.01344150  1
  S  S59  1  0.27847844  0.97304849  0.51344150  1
  S  S60  1  0.47871728  0.47138885  0.27379376  1
  S  S61  1  0.47871728  0.02861115  0.77379376  1
  S  S62  1  0.50614126  0.73502603  0.45640504  1
  S  S63  1  0.50614126  0.76497397  0.95640504  1
  S  S64  1  0.49385874  0.23502603  0.04359496  1
  S  S65  1  0.49385874  0.26497397  0.54359496  1
  S  S66  1  0.52128272  0.97138885  0.22620624  1
  S  S67  1  0.52128272  0.52861115  0.72620624  1
  S  S68  1  0.72152156  0.47304849  0.98655850  1
  S  S69  1  0.72152156  0.02695151  0.48655850  1
  S  S70  1  0.76050917  0.23051188  0.23168290  1
  S  S71  1  0.76050917  0.26948812  0.73168290  1
  S  S72  1  0.73949083  0.73051188  0.23168290  1
  S  S73  1  0.73949083  0.76948812  0.73168290  1
  S  S74  1  0.77847844  0.97304849  0.98655850  1
  S  S75  1  0.77847844  0.52695151  0.48655850  1
  S  S76  1  0.97871728  0.02861115  0.72620624  1
  S  S77  1  0.97871728  0.47138885  0.22620624  1
  S  S78  1  0.00614126  0.73502603  0.04359496  1
  S  S79  1  0.00614126  0.76497397  0.54359496  1
