# generated using pymatgen
data_Li2V4OF12
_symmetry_space_group_name_H-M   'P 1'
_cell_length_a   8.29565806
_cell_length_b   3.95359586
_cell_length_c   8.57465220
_cell_angle_alpha   87.49693881
_cell_angle_beta   80.90401690
_cell_angle_gamma   77.33029993
_symmetry_Int_Tables_number   1
_chemical_formula_structural   Li2V4OF12
_chemical_formula_sum   'Li2 V4 O1 F12'
_cell_volume   270.91877213
_cell_formula_units_Z   1
loop_
 _symmetry_equiv_pos_site_id
 _symmetry_equiv_pos_as_xyz
  1  'x, y, z'
loop_
 _atom_site_type_symbol
 _atom_site_label
 _atom_site_symmetry_multiplicity
 _atom_site_fract_x
 _atom_site_fract_y
 _atom_site_fract_z
 _atom_site_occupancy
  Li  Li0  1  0.58167345  0.88601780  0.72791182  1
  Li  Li1  1  0.43468051  0.07179255  0.27871358  1
  V  V2  1  0.16977945  0.92673060  0.64362991  1
  V  V3  1  0.81532868  0.11619890  0.98565305  1
  V  V4  1  0.19977871  0.90118159  0.99584302  1
  V  V5  1  0.81386911  0.07209520  0.37331973  1
  O  O6  1  0.03121179  0.99390180  0.85498612  1
  F  F7  1  0.97668749  0.00674417  0.51842756  1
  F  F8  1  0.17227296  0.42880407  0.64168293  1
  F  F9  1  0.35824818  0.83673400  0.78572229  1
  F  F10  1  0.66105758  0.20677246  0.83782633  1
  F  F11  1  0.79738926  0.61849644  0.99521564  1
  F  F12  1  0.33198081  0.87964362  0.45633136  1
  F  F13  1  0.62358371  0.11035716  0.52980773  1
  F  F14  1  0.19974348  0.40158583  0.01091783  1
  F  F15  1  0.37264172  0.81965006  0.12703531  1
  F  F16  1  0.66036719  0.14697907  0.20329647  1
  F  F17  1  0.81941377  0.56765928  0.36672318  1
  F  F18  1  0.98029117  0.00865642  0.16695614  1
