# generated using pymatgen
data_VFeP2(HO5)2
_symmetry_space_group_name_H-M   'P 1'
_cell_length_a   5.15136046
_cell_length_b   7.48439723
_cell_length_c   5.23302457
_cell_angle_alpha   109.75551020
_cell_angle_beta   98.19447372
_cell_angle_gamma   105.04586472
_symmetry_Int_Tables_number   1
_chemical_formula_structural   VFeP2(HO5)2
_chemical_formula_sum   'V1 Fe1 P2 H2 O10'
_cell_volume   177.39073237
_cell_formula_units_Z   1
loop_
 _symmetry_equiv_pos_site_id
 _symmetry_equiv_pos_as_xyz
  1  'x, y, z'
loop_
 _atom_site_type_symbol
 _atom_site_label
 _atom_site_symmetry_multiplicity
 _atom_site_fract_x
 _atom_site_fract_y
 _atom_site_fract_z
 _atom_site_occupancy
  V  V0  1  0.00000000  0.50000000  0.00000000  1
  Fe  Fe1  1  0.00000000  0.00000000  0.00000000  1
  P  P2  1  0.35146794  0.22194614  0.67889735  1
  P  P3  1  0.64853206  0.77805386  0.32110265  1
  H  H4  1  0.04240686  0.34456147  0.34737179  1
  H  H5  1  0.95759314  0.65543853  0.65262821  1
  O  O6  1  0.03130091  0.70803836  0.85885368  1
  O  O7  1  0.19164587  0.38087202  0.73249512  1
  O  O8  1  0.33441124  0.65509591  0.27103877  1
  O  O9  1  0.24358184  0.07769230  0.37294100  1
  O  O10  1  0.32974110  0.12134786  0.88663899  1
  O  O11  1  0.67025890  0.87865214  0.11336101  1
  O  O12  1  0.75641816  0.92230770  0.62705900  1
  O  O13  1  0.66558876  0.34490409  0.72896123  1
  O  O14  1  0.80835413  0.61912798  0.26750488  1
  O  O15  1  0.96869909  0.29196164  0.14114632  1
