# generated using pymatgen
data_BiP2O7
_symmetry_space_group_name_H-M   'P 1'
_cell_length_a   7.17858485
_cell_length_b   8.86145739
_cell_length_c   9.84219639
_cell_angle_alpha   90.00000000
_cell_angle_beta   105.78491701
_cell_angle_gamma   90.00000000
_symmetry_Int_Tables_number   1
_chemical_formula_structural   BiP2O7
_chemical_formula_sum   'Bi4 P8 O28'
_cell_volume   602.47887983
_cell_formula_units_Z   4
loop_
 _symmetry_equiv_pos_site_id
 _symmetry_equiv_pos_as_xyz
  1  'x, y, z'
loop_
 _atom_site_type_symbol
 _atom_site_label
 _atom_site_symmetry_multiplicity
 _atom_site_fract_x
 _atom_site_fract_y
 _atom_site_fract_z
 _atom_site_occupancy
  Bi  Bi0  1  0.28193803  0.23108798  0.99370743  1
  Bi  Bi1  1  0.28193803  0.26891202  0.49370743  1
  Bi  Bi2  1  0.71806197  0.73108798  0.50629257  1
  Bi  Bi3  1  0.71806197  0.76891202  0.00629257  1
  P  P4  1  0.06029695  0.46602015  0.71920186  1
  P  P5  1  0.06029695  0.03397985  0.21920186  1
  P  P6  1  0.44401996  0.58416162  0.70744488  1
  P  P7  1  0.55598004  0.08416162  0.79255512  1
  P  P8  1  0.44401996  0.91583838  0.20744488  1
  P  P9  1  0.55598004  0.41583838  0.29255512  1
  P  P10  1  0.93970305  0.96602015  0.78079814  1
  P  P11  1  0.93970305  0.53397985  0.28079814  1
  O  O12  1  0.08622548  0.42333917  0.87517678  1
  O  O13  1  0.13440553  0.04458439  0.83750609  1
  O  O14  1  0.08630497  0.32606416  0.63342710  1
  O  O15  1  0.08622548  0.07666083  0.37517678  1
  O  O16  1  0.21884691  0.59356331  0.70831349  1
  O  O17  1  0.13440553  0.45541561  0.33750609  1
  O  O18  1  0.08630497  0.17393584  0.13342710  1
  O  O19  1  0.21884691  0.90643669  0.20831349  1
  O  O20  1  0.43416985  0.08420077  0.63773606  1
  O  O21  1  0.52478266  0.93263257  0.85886250  1
  O  O22  1  0.52223532  0.22127895  0.87843208  1
  O  O23  1  0.47776468  0.72127895  0.62156792  1
  O  O24  1  0.47521734  0.43263257  0.64113750  1
  O  O25  1  0.56583015  0.58420077  0.86226394  1
  O  O26  1  0.43416985  0.41579923  0.13773606  1
  O  O27  1  0.52478266  0.56736743  0.35886250  1
  O  O28  1  0.52223532  0.27872105  0.37843208  1
  O  O29  1  0.47776468  0.77872105  0.12156792  1
  O  O30  1  0.47521734  0.06736743  0.14113750  1
  O  O31  1  0.56583015  0.91579923  0.36226394  1
  O  O32  1  0.78115309  0.09356331  0.79168651  1
  O  O33  1  0.91369503  0.82606416  0.86657290  1
  O  O34  1  0.86559447  0.54458439  0.66249391  1
  O  O35  1  0.78115309  0.40643669  0.29168651  1
  O  O36  1  0.91377452  0.92333917  0.62482322  1
  O  O37  1  0.91369503  0.67393584  0.36657290  1
  O  O38  1  0.86559447  0.95541561  0.16249391  1
  O  O39  1  0.91377452  0.57666083  0.12482322  1
