# generated using pymatgen
data_Li3V3P8O29
_symmetry_space_group_name_H-M   'P 1'
_cell_length_a   9.77310359
_cell_length_b   9.77343273
_cell_length_c   13.89416495
_cell_angle_alpha   89.99701396
_cell_angle_beta   89.99373961
_cell_angle_gamma   59.88680383
_symmetry_Int_Tables_number   1
_chemical_formula_structural   Li3V3P8O29
_chemical_formula_sum   'Li6 V6 P16 O58'
_cell_volume   1148.01141197
_cell_formula_units_Z   2
loop_
 _symmetry_equiv_pos_site_id
 _symmetry_equiv_pos_as_xyz
  1  'x, y, z'
loop_
 _atom_site_type_symbol
 _atom_site_label
 _atom_site_symmetry_multiplicity
 _atom_site_fract_x
 _atom_site_fract_y
 _atom_site_fract_z
 _atom_site_occupancy
  Li  Li0  1  0.90997287  0.32198708  0.56060532  1
  Li  Li1  1  0.77529089  0.31638863  0.05737117  1
  Li  Li2  1  0.32208465  0.90990700  0.06052580  1
  Li  Li3  1  0.67846991  0.22441499  0.44204421  1
  Li  Li4  1  0.31710530  0.77511740  0.55729883  1
  Li  Li5  1  0.22450948  0.67841307  0.94205615  1
  V  V6  1  0.56659419  0.43440875  0.24859070  1
  V  V7  1  0.43443535  0.56657512  0.74851518  1
  V  V8  1  0.56901820  0.99737122  0.75020273  1
  V  V9  1  0.43371801  0.00614227  0.25455960  1
  V  V10  1  0.99735824  0.56899653  0.25024517  1
  V  V11  1  0.00616475  0.43388743  0.75453320  1
  P  P12  1  0.91431086  0.77305751  0.84294178  1
  P  P13  1  0.77278777  0.91429138  0.34292621  1
  P  P14  1  0.91420307  0.31586193  0.34405299  1
  P  P15  1  0.66543757  0.66858019  0.12726763  1
  P  P16  1  0.66879762  0.66533068  0.62725935  1
  P  P17  1  0.77264072  0.31658574  0.84225275  1
  P  P18  1  0.68372681  0.22672823  0.65936388  1
  P  P19  1  0.31597193  0.91412015  0.84391161  1
  P  P20  1  0.68759518  0.08247561  0.15408265  1
  P  P21  1  0.31648253  0.77262696  0.34232513  1
  P  P22  1  0.22678887  0.68366718  0.15939339  1
  P  P23  1  0.33223600  0.33706107  0.37325437  1
  P  P24  1  0.33703891  0.33229004  0.87319958  1
  P  P25  1  0.08216855  0.68808501  0.65386786  1
  P  P26  1  0.22982344  0.08605698  0.65760335  1
  P  P27  1  0.08601554  0.22976543  0.15762126  1
  O  O28  1  0.00019837  0.76433004  0.56445809  1
  O  O29  1  0.91399049  0.74355781  0.33583644  1
  O  O30  1  0.76403394  0.00008715  0.06444041  1
  O  O31  1  0.74342610  0.91410381  0.83592841  1
  O  O32  1  0.90631262  0.61792316  0.82418843  1
  O  O33  1  0.81384841  0.66560536  0.17363110  1
  O  O34  1  0.90488999  0.47696313  0.32358975  1
  O  O35  1  0.99374514  0.23899394  0.07091970  1
  O  O36  1  0.91495714  0.34316318  0.83356918  1
  O  O37  1  0.66580677  0.81373651  0.67362131  1
  O  O38  1  0.61773968  0.90620910  0.32417715  1
  O  O39  1  0.81659182  0.51338309  0.66787066  1
  O  O40  1  0.66591961  0.65913565  0.02046656  1
  O  O41  1  0.65941018  0.66568800  0.52046868  1
  O  O42  1  0.66941170  0.51259472  0.17016441  1
  O  O43  1  0.47710258  0.90469331  0.82346638  1
  O  O44  1  0.51348377  0.81645081  0.16786031  1
  O  O45  1  0.74363640  0.33896138  0.33845366  1
  O  O46  1  0.79446843  0.20547432  0.75038096  1
  O  O47  1  0.75639469  0.24392864  0.56862335  1
  O  O48  1  0.75897287  0.24712070  0.93372866  1
  O  O49  1  0.61769274  0.47718901  0.82068289  1
  O  O50  1  0.51276957  0.66923969  0.67009395  1
  O  O51  1  0.65962488  0.25582744  0.16217790  1
  O  O52  1  0.47718206  0.61775482  0.32070718  1
  O  O53  1  0.34298232  0.91501848  0.33361389  1
  O  O54  1  0.79302680  0.00062472  0.24955760  1
  O  O55  1  0.75946469  0.00490284  0.43109952  1
  O  O56  1  0.23925031  0.99368119  0.57089703  1
  O  O57  1  0.65890501  0.08400158  0.66324352  1
  O  O58  1  0.52224116  0.38123556  0.67755221  1
  O  O59  1  0.33887691  0.74367274  0.83836065  1
  O  O60  1  0.48665118  0.33157536  0.33089488  1
  O  O61  1  0.38129719  0.52222680  0.17762408  1
  O  O62  1  0.24412778  0.75625719  0.06866131  1
  O  O63  1  0.24706434  0.75907567  0.43377839  1
  O  O64  1  0.20542875  0.79446289  0.25041518  1
  O  O65  1  0.25575551  0.65972710  0.66226288  1
  O  O66  1  0.48141236  0.18470061  0.82695866  1
  O  O67  1  0.52522225  0.09256904  0.17755500  1
  O  O68  1  0.33158675  0.48663214  0.83084779  1
  O  O69  1  0.33080501  0.33897216  0.97976346  1
  O  O70  1  0.33888710  0.33103070  0.47979258  1
  O  O71  1  0.18470707  0.48146960  0.32699370  1
  O  O72  1  0.38287390  0.09348591  0.67675102  1
  O  O73  1  0.33354050  0.18600716  0.32765440  1
  O  O74  1  0.08410520  0.65878414  0.16325996  1
  O  O75  1  0.00024590  0.79353649  0.74942098  1
  O  O76  1  0.00500860  0.75992587  0.93089750  1
  O  O77  1  0.09230142  0.52560409  0.67749514  1
  O  O78  1  0.18597108  0.33367445  0.82757424  1
  O  O79  1  0.09349453  0.38277359  0.17676943  1
  O  O80  1  0.25587950  0.08397920  0.16021873  1
  O  O81  1  0.24505241  0.99245553  0.93661671  1
  O  O82  1  0.20524273  0.00423364  0.75350050  1
  O  O83  1  0.08409998  0.25594649  0.66017890  1
  O  O84  1  0.99240735  0.24490352  0.43666272  1
  O  O85  1  0.00417720  0.20521920  0.25353706  1
