# generated using pymatgen
data_Li3Fe(CO3)3
_symmetry_space_group_name_H-M   'P 1'
_cell_length_a   10.00275854
_cell_length_b   5.98093008
_cell_length_c   5.98093008
_cell_angle_alpha   105.38045786
_cell_angle_beta   90.00000000
_cell_angle_gamma   90.00000000
_symmetry_Int_Tables_number   1
_chemical_formula_structural   Li3Fe(CO3)3
_chemical_formula_sum   'Li6 Fe2 C6 O18'
_cell_volume   344.99914800
_cell_formula_units_Z   2
loop_
 _symmetry_equiv_pos_site_id
 _symmetry_equiv_pos_as_xyz
  1  'x, y, z'
loop_
 _atom_site_type_symbol
 _atom_site_label
 _atom_site_symmetry_multiplicity
 _atom_site_fract_x
 _atom_site_fract_y
 _atom_site_fract_z
 _atom_site_occupancy
  Li  Li0  1  0.00000000  0.08728008  0.08728008  1
  Li  Li1  1  0.25000000  0.39386601  0.35081627  1
  Li  Li2  1  0.25000000  0.75192343  0.19550491  1
  Li  Li3  1  0.50000000  0.08728008  0.08728008  1
  Li  Li4  1  0.75000000  0.19550491  0.75192343  1
  Li  Li5  1  0.75000000  0.35081627  0.39386601  1
  Fe  Fe6  1  0.25000000  0.15232658  0.68830777  1
  Fe  Fe7  1  0.75000000  0.68830777  0.15232658  1
  C  C8  1  0.01125800  0.15323790  0.55994332  1
  C  C9  1  0.25000000  0.73519914  0.74445740  1
  C  C10  1  0.48874200  0.15323790  0.55994332  1
  C  C11  1  0.51125800  0.55994332  0.15323790  1
  C  C12  1  0.75000000  0.74445740  0.73519914  1
  C  C13  1  0.98874200  0.55994332  0.15323790  1
  O  O14  1  0.05230010  0.13693722  0.76392098  1
  O  O15  1  0.10951338  0.15488549  0.41331365  1
  O  O16  1  0.11044140  0.50962245  0.16525721  1
  O  O17  1  0.25000000  0.51772904  0.73262675  1
  O  O18  1  0.25000000  0.90017973  0.93643147  1
  O  O19  1  0.25000000  0.80153161  0.55262427  1
  O  O20  1  0.38955860  0.50962245  0.16525721  1
  O  O21  1  0.39048662  0.15488549  0.41331365  1
  O  O22  1  0.44769990  0.13693722  0.76392098  1
  O  O23  1  0.55230010  0.76392098  0.13693722  1
  O  O24  1  0.60951338  0.41331365  0.15488549  1
  O  O25  1  0.61044140  0.16525721  0.50962245  1
  O  O26  1  0.75000000  0.55262427  0.80153161  1
  O  O27  1  0.75000000  0.73262675  0.51772904  1
  O  O28  1  0.75000000  0.93643147  0.90017973  1
  O  O29  1  0.88955860  0.16525721  0.50962245  1
  O  O30  1  0.89048662  0.41331365  0.15488549  1
  O  O31  1  0.94769990  0.76392098  0.13693722  1
