# generated using pymatgen
data_Fe3CuNi2(PO4)6
_symmetry_space_group_name_H-M   'P 1'
_cell_length_a   8.48152134
_cell_length_b   8.48152094
_cell_length_c   8.48152061
_cell_angle_alpha   60.96258305
_cell_angle_beta   60.96258033
_cell_angle_gamma   60.96258041
_symmetry_Int_Tables_number   1
_chemical_formula_structural   Fe3CuNi2(PO4)6
_chemical_formula_sum   'Fe3 Cu1 Ni2 P6 O24'
_cell_volume   440.78246054
_cell_formula_units_Z   1
loop_
 _symmetry_equiv_pos_site_id
 _symmetry_equiv_pos_as_xyz
  1  'x, y, z'
loop_
 _atom_site_type_symbol
 _atom_site_label
 _atom_site_symmetry_multiplicity
 _atom_site_fract_x
 _atom_site_fract_y
 _atom_site_fract_z
 _atom_site_occupancy
  Fe  Fe0  1  0.14367861  0.14367861  0.14367861  1
  Fe  Fe1  1  0.35520430  0.35520430  0.35520430  1
  Fe  Fe2  1  0.64363405  0.64363405  0.64363405  1
  Cu  Cu3  1  0.85573384  0.85573384  0.85573384  1
  Ni  Ni4  1  0.99958469  0.99958469  0.99958469  1
  Ni  Ni5  1  0.49992752  0.49992752  0.49992752  1
  P  P6  1  0.04461863  0.75034346  0.45601488  1
  P  P7  1  0.45601488  0.04461863  0.75034346  1
  P  P8  1  0.75034346  0.45601488  0.04461863  1
  P  P9  1  0.24877149  0.54576607  0.95233707  1
  P  P10  1  0.54576607  0.95233707  0.24877149  1
  P  P11  1  0.95233707  0.24877149  0.54576607  1
  O  O12  1  0.10908314  0.31709283  0.50572602  1
  O  O13  1  0.31709283  0.50572602  0.10908314  1
  O  O14  1  0.05920886  0.90845619  0.25610705  1
  O  O15  1  0.50572602  0.10908314  0.31709283  1
  O  O16  1  0.01641787  0.81359679  0.61166474  1
  O  O17  1  0.24533838  0.59207535  0.43696858  1
  O  O18  1  0.25610705  0.05920886  0.90845619  1
  O  O19  1  0.43696858  0.24533838  0.59207535  1
  O  O20  1  0.18185384  0.38895732  0.99326372  1
  O  O21  1  0.59207535  0.43696858  0.24533838  1
  O  O22  1  0.08891301  0.74440970  0.94416006  1
  O  O23  1  0.38895732  0.99326372  0.18185384  1
  O  O24  1  0.61166474  0.01641787  0.81359679  1
  O  O25  1  0.90845619  0.25610705  0.05920886  1
  O  O26  1  0.40711497  0.56180496  0.75380773  1
  O  O27  1  0.81359679  0.61166474  0.01641787  1
  O  O28  1  0.56180496  0.75380773  0.40711497  1
  O  O29  1  0.74440970  0.94416006  0.08891301  1
  O  O30  1  0.75380773  0.40711497  0.56180496  1
  O  O31  1  0.99326372  0.18185384  0.38895732  1
  O  O32  1  0.49721929  0.88807996  0.68306905  1
  O  O33  1  0.94416006  0.08891301  0.74440970  1
  O  O34  1  0.68306905  0.49721929  0.88807996  1
  O  O35  1  0.88807996  0.68306905  0.49721929  1
