# generated using pymatgen
data_LiVSiO4
_symmetry_space_group_name_H-M   'P 1'
_cell_length_a   8.68237993
_cell_length_b   8.68237946
_cell_length_c   8.68237956
_cell_angle_alpha   107.68576045
_cell_angle_beta   107.68576595
_cell_angle_gamma   107.68576481
_symmetry_Int_Tables_number   1
_chemical_formula_structural   LiVSiO4
_chemical_formula_sum   'Li6 V6 Si6 O24'
_cell_volume   534.55773834
_cell_formula_units_Z   6
loop_
 _symmetry_equiv_pos_site_id
 _symmetry_equiv_pos_as_xyz
  1  'x, y, z'
loop_
 _atom_site_type_symbol
 _atom_site_label
 _atom_site_symmetry_multiplicity
 _atom_site_fract_x
 _atom_site_fract_y
 _atom_site_fract_z
 _atom_site_occupancy
  Li  Li0  1  0.12567157  0.89093767  0.72441649  1
  Li  Li1  1  0.21158719  0.43203350  0.60600678  1
  Li  Li2  1  0.43203350  0.60600678  0.21158719  1
  Li  Li3  1  0.89093767  0.72441649  0.12567157  1
  Li  Li4  1  0.60600678  0.21158719  0.43203350  1
  Li  Li5  1  0.72441649  0.12567157  0.89093767  1
  V  V6  1  0.05426477  0.46050102  0.23381677  1
  V  V7  1  0.53163108  0.76979208  0.94683968  1
  V  V8  1  0.76979208  0.94683968  0.53163108  1
  V  V9  1  0.23381677  0.05426477  0.46050102  1
  V  V10  1  0.46050102  0.23381677  0.05426477  1
  V  V11  1  0.94683968  0.53163108  0.76979208  1
  Si  Si12  1  0.27962656  0.87325067  0.09829450  1
  Si  Si13  1  0.38888463  0.79510792  0.56818187  1
  Si  Si14  1  0.09829450  0.27962656  0.87325067  1
  Si  Si15  1  0.56818187  0.38888463  0.79510792  1
  Si  Si16  1  0.79510792  0.56818187  0.38888463  1
  Si  Si17  1  0.87325067  0.09829450  0.27962656  1
  O  O18  1  0.30914908  0.98156128  0.97480806  1
  O  O19  1  0.06552797  0.73106961  0.01161500  1
  O  O20  1  0.26651689  0.90768335  0.58147812  1
  O  O21  1  0.40155125  0.75968331  0.09026716  1
  O  O22  1  0.59975732  0.93472346  0.63622037  1
  O  O23  1  0.30290914  0.63826284  0.36112635  1
  O  O24  1  0.09026716  0.40155125  0.75968331  1
  O  O25  1  0.37659032  0.69342143  0.69939805  1
  O  O26  1  0.02217225  0.30477106  0.35152755  1
  O  O27  1  0.01161500  0.06552797  0.73106961  1
  O  O28  1  0.30477106  0.35152755  0.02217225  1
  O  O29  1  0.69342143  0.69939805  0.37659032  1
  O  O30  1  0.98156128  0.97480806  0.30914908  1
  O  O31  1  0.63622037  0.59975732  0.93472346  1
  O  O32  1  0.36112635  0.30290914  0.63826284  1
  O  O33  1  0.63826284  0.36112635  0.30290914  1
  O  O34  1  0.93472346  0.63622037  0.59975732  1
  O  O35  1  0.58147812  0.26651689  0.90768335  1
  O  O36  1  0.69939805  0.37659032  0.69342143  1
  O  O37  1  0.35152755  0.02217225  0.30477106  1
  O  O38  1  0.90768335  0.58147812  0.26651689  1
  O  O39  1  0.97480806  0.30914908  0.98156128  1
  O  O40  1  0.75968331  0.09026716  0.40155125  1
  O  O41  1  0.73106961  0.01161500  0.06552797  1
