# generated using pymatgen
data_Li6Ni9(PO4)8
_symmetry_space_group_name_H-M   'P 1'
_cell_length_a   9.14528778
_cell_length_b   8.76445025
_cell_length_c   8.68493457
_cell_angle_alpha   102.06335674
_cell_angle_beta   99.80020215
_cell_angle_gamma   112.10791580
_symmetry_Int_Tables_number   1
_chemical_formula_structural   Li6Ni9(PO4)8
_chemical_formula_sum   'Li6 Ni9 P8 O32'
_cell_volume   606.44312893
_cell_formula_units_Z   1
loop_
 _symmetry_equiv_pos_site_id
 _symmetry_equiv_pos_as_xyz
  1  'x, y, z'
loop_
 _atom_site_type_symbol
 _atom_site_label
 _atom_site_symmetry_multiplicity
 _atom_site_fract_x
 _atom_site_fract_y
 _atom_site_fract_z
 _atom_site_occupancy
  Li  Li0  1  0.02830671  0.90068780  0.63848205  1
  Li  Li1  1  0.25533943  0.71927858  0.01918159  1
  Li  Li2  1  0.35294547  0.31537722  0.32179484  1
  Li  Li3  1  0.64705453  0.68462278  0.67820516  1
  Li  Li4  1  0.74466057  0.28072142  0.98081841  1
  Li  Li5  1  0.97169329  0.09931220  0.36151795  1
  Ni  Ni6  1  0.00000000  0.50000000  0.50000000  1
  Ni  Ni7  1  0.07089711  0.27057274  0.80485294  1
  Ni  Ni8  1  0.41664907  0.85457588  0.70187130  1
  Ni  Ni9  1  0.00000000  0.00000000  0.00000000  1
  Ni  Ni10  1  0.45763004  0.70683635  0.32152779  1
  Ni  Ni11  1  0.50000000  0.50000000  0.00000000  1
  Ni  Ni12  1  0.54236996  0.29316365  0.67847221  1
  Ni  Ni13  1  0.58335093  0.14542412  0.29812870  1
  Ni  Ni14  1  0.92910289  0.72942726  0.19514706  1
  P  P15  1  0.28370848  0.95748060  0.39119122  1
  P  P16  1  0.09004202  0.37943142  0.16679970  1
  P  P17  1  0.27892541  0.44815532  0.66071399  1
  P  P18  1  0.34745566  0.11994976  0.95411988  1
  P  P19  1  0.65254434  0.88005024  0.04588012  1
  P  P20  1  0.72107459  0.55184468  0.33928601  1
  P  P21  1  0.90995798  0.62056858  0.83320030  1
  P  P22  1  0.71629152  0.04251940  0.60880878  1
  O  O23  1  0.12312177  0.95631918  0.29986860  1
  O  O24  1  0.01886069  0.67673380  0.01114968  1
  O  O25  1  0.02349628  0.48215138  0.27832290  1
  O  O26  1  0.33182005  0.93676730  0.88581406  1
  O  O27  1  0.25881284  0.89925778  0.54398166  1
  O  O28  1  0.25102123  0.59330405  0.60193311  1
  O  O29  1  0.12357905  0.27286962  0.58211743  1
  O  O30  1  0.07709768  0.21163121  0.21049301  1
  O  O31  1  0.29532840  0.48427827  0.85048407  1
  O  O32  1  0.34282100  0.85060794  0.27075672  1
  O  O33  1  0.17401986  0.12080711  0.90157043  1
  O  O34  1  0.27466695  0.48244909  0.17970073  1
  O  O35  1  0.58781936  0.81439196  0.85786491  1
  O  O36  1  0.57524584  0.85285742  0.55409285  1
  O  O37  1  0.43339357  0.44255844  0.61971991  1
  O  O38  1  0.46155830  0.25578270  0.88310000  1
  O  O39  1  0.53844170  0.74421730  0.11690000  1
  O  O40  1  0.56660643  0.55744156  0.38028009  1
  O  O41  1  0.42475416  0.14714258  0.44590715  1
  O  O42  1  0.41218064  0.18560804  0.14213509  1
  O  O43  1  0.72533305  0.51755091  0.82029927  1
  O  O44  1  0.82598014  0.87919289  0.09842957  1
  O  O45  1  0.65717900  0.14939206  0.72924328  1
  O  O46  1  0.70467160  0.51572173  0.14951593  1
  O  O47  1  0.92290232  0.78836879  0.78950699  1
  O  O48  1  0.87642095  0.72713038  0.41788257  1
  O  O49  1  0.74897877  0.40669595  0.39806689  1
  O  O50  1  0.74118716  0.10074222  0.45601834  1
  O  O51  1  0.66817995  0.06323270  0.11418594  1
  O  O52  1  0.97650372  0.51784862  0.72167710  1
  O  O53  1  0.98113931  0.32326620  0.98885032  1
  O  O54  1  0.87687823  0.04368082  0.70013140  1
