# generated using pymatgen
data_Li3(CoS2)4
_symmetry_space_group_name_H-M   'P 1'
_cell_length_a   6.76529817
_cell_length_b   7.37900375
_cell_length_c   6.76557976
_cell_angle_alpha   62.59472354
_cell_angle_beta   60.00138175
_cell_angle_gamma   62.71509995
_symmetry_Int_Tables_number   1
_chemical_formula_structural   Li3(CoS2)4
_chemical_formula_sum   'Li3 Co4 S8'
_cell_volume   247.96334388
_cell_formula_units_Z   1
loop_
 _symmetry_equiv_pos_site_id
 _symmetry_equiv_pos_as_xyz
  1  'x, y, z'
loop_
 _atom_site_type_symbol
 _atom_site_label
 _atom_site_symmetry_multiplicity
 _atom_site_fract_x
 _atom_site_fract_y
 _atom_site_fract_z
 _atom_site_occupancy
  Li  Li0  1  0.35565329  0.42630631  0.35841429  1
  Li  Li1  1  0.85962611  0.42630631  0.35841429  1
  Li  Li2  1  0.35579511  0.42622218  0.86218859  1
  Co  Co3  1  0.99884255  0.99877432  0.00353958  1
  Co  Co4  1  0.99677933  0.99134357  0.50832539  1
  Co  Co5  1  0.50355072  0.99134357  0.50832539  1
  Co  Co6  1  0.50358381  0.99142172  0.00141166  1
  S  S7  1  0.26914546  0.18875460  0.27295549  1
  S  S8  1  0.77087897  0.18277823  0.27546382  1
  S  S9  1  0.72895235  0.81131550  0.23260885  1
  S  S10  1  0.22712429  0.81131550  0.23260885  1
  S  S11  1  0.27144464  0.18287340  0.77474201  1
  S  S12  1  0.77093895  0.18287340  0.77474201  1
  S  S13  1  0.22711938  0.81123863  0.73452161  1
  S  S14  1  0.72801603  0.81038276  0.73358618  1
