# generated using pymatgen
data_CrCoO4
_symmetry_space_group_name_H-M   'P 1'
_cell_length_a   6.08363669
_cell_length_b   10.46366022
_cell_length_c   4.95128712
_cell_angle_alpha   90.01017220
_cell_angle_beta   89.99475297
_cell_angle_gamma   89.99968845
_symmetry_Int_Tables_number   1
_chemical_formula_structural   CrCoO4
_chemical_formula_sum   'Cr4 Co4 O16'
_cell_volume   315.18460896
_cell_formula_units_Z   4
loop_
 _symmetry_equiv_pos_site_id
 _symmetry_equiv_pos_as_xyz
  1  'x, y, z'
loop_
 _atom_site_type_symbol
 _atom_site_label
 _atom_site_symmetry_multiplicity
 _atom_site_fract_x
 _atom_site_fract_y
 _atom_site_fract_z
 _atom_site_occupancy
  Cr  Cr0  1  0.24998662  0.09421950  0.40799396  1
  Cr  Cr1  1  0.24998940  0.59411617  0.09209030  1
  Cr  Cr2  1  0.74999914  0.40584076  0.90796882  1
  Cr  Cr3  1  0.75000043  0.90582236  0.59198026  1
  Co  Co4  1  0.25005568  0.26912139  0.97344860  1
  Co  Co5  1  0.25004956  0.76919178  0.52678295  1
  Co  Co6  1  0.75005978  0.23088963  0.47345134  1
  Co  Co7  1  0.75001646  0.73084393  0.02657914  1
  O  O8  1  0.03087445  0.17177834  0.27371168  1
  O  O9  1  0.03094622  0.67180957  0.22620820  1
  O  O10  1  0.24999728  0.44035806  0.16951295  1
  O  O11  1  0.24990236  0.11093944  0.73801347  1
  O  O12  1  0.24995764  0.61087954  0.76197372  1
  O  O13  1  0.24997847  0.94045192  0.33042195  1
  O  O14  1  0.46918308  0.17188935  0.27390519  1
  O  O15  1  0.46907567  0.67186661  0.22613804  1
  O  O16  1  0.53089697  0.82815194  0.72615537  1
  O  O17  1  0.53092861  0.32824247  0.77367810  1
  O  O18  1  0.74997079  0.55960921  0.83046771  1
  O  O19  1  0.74997222  0.05958086  0.66952623  1
  O  O20  1  0.74990089  0.38908768  0.23801645  1
  O  O21  1  0.74997634  0.88905816  0.26198713  1
  O  O22  1  0.96914491  0.32812543  0.77389328  1
  O  O23  1  0.96913703  0.82812591  0.72609616  1
