# generated using pymatgen
data_LiMn2OF3
_symmetry_space_group_name_H-M   'P 1'
_cell_length_a   10.74734803
_cell_length_b   6.36470848
_cell_length_c   5.25177335
_cell_angle_alpha   90.00000000
_cell_angle_beta   90.00000000
_cell_angle_gamma   90.00000000
_symmetry_Int_Tables_number   1
_chemical_formula_structural   LiMn2OF3
_chemical_formula_sum   'Li4 Mn8 O4 F12'
_cell_volume   359.24092377
_cell_formula_units_Z   4
loop_
 _symmetry_equiv_pos_site_id
 _symmetry_equiv_pos_as_xyz
  1  'x, y, z'
loop_
 _atom_site_type_symbol
 _atom_site_label
 _atom_site_symmetry_multiplicity
 _atom_site_fract_x
 _atom_site_fract_y
 _atom_site_fract_z
 _atom_site_occupancy
  Li  Li0  1  0.08764308  0.25000000  0.47607565  1
  Li  Li1  1  0.41235692  0.75000000  0.97607565  1
  Li  Li2  1  0.58764308  0.25000000  0.02392435  1
  Li  Li3  1  0.91235692  0.75000000  0.52392435  1
  Mn  Mn4  1  0.00000000  0.00000000  0.00000000  1
  Mn  Mn5  1  0.00000000  0.50000000  0.00000000  1
  Mn  Mn6  1  0.23942231  0.75000000  0.48838256  1
  Mn  Mn7  1  0.26057769  0.25000000  0.98838256  1
  Mn  Mn8  1  0.50000000  0.00000000  0.50000000  1
  Mn  Mn9  1  0.50000000  0.50000000  0.50000000  1
  Mn  Mn10  1  0.73942231  0.75000000  0.01161744  1
  Mn  Mn11  1  0.76057769  0.25000000  0.51161744  1
  O  O12  1  0.08445991  0.25000000  0.83294888  1
  O  O13  1  0.41554009  0.75000000  0.33294888  1
  O  O14  1  0.58445991  0.25000000  0.66705112  1
  O  O15  1  0.91554009  0.75000000  0.16705112  1
  F  F16  1  0.07281157  0.75000000  0.70985293  1
  F  F17  1  0.16677709  0.47889286  0.28145486  1
  F  F18  1  0.16677709  0.02110714  0.28145486  1
  F  F19  1  0.33322291  0.97889286  0.78145486  1
  F  F20  1  0.33322291  0.52110714  0.78145486  1
  F  F21  1  0.42718843  0.25000000  0.20985293  1
  F  F22  1  0.57281157  0.75000000  0.79014707  1
  F  F23  1  0.66677709  0.02110714  0.21854514  1
  F  F24  1  0.66677709  0.47889286  0.21854514  1
  F  F25  1  0.83322291  0.52110714  0.71854514  1
  F  F26  1  0.83322291  0.97889286  0.71854514  1
  F  F27  1  0.92718843  0.25000000  0.29014707  1
