# generated using pymatgen
data_Li6CrFeP2(CO7)2
_symmetry_space_group_name_H-M   'P 1'
_cell_length_a   8.61083629
_cell_length_b   5.01668137
_cell_length_c   6.47694320
_cell_angle_alpha   90.00000000
_cell_angle_beta   90.00000000
_cell_angle_gamma   85.36048041
_symmetry_Int_Tables_number   1
_chemical_formula_structural   Li6CrFeP2(CO7)2
_chemical_formula_sum   'Li6 Cr1 Fe1 P2 C2 O14'
_cell_volume   278.87305930
_cell_formula_units_Z   1
loop_
 _symmetry_equiv_pos_site_id
 _symmetry_equiv_pos_as_xyz
  1  'x, y, z'
loop_
 _atom_site_type_symbol
 _atom_site_label
 _atom_site_symmetry_multiplicity
 _atom_site_fract_x
 _atom_site_fract_y
 _atom_site_fract_z
 _atom_site_occupancy
  Li  Li0  1  0.09703269  0.76054871  0.25000000  1
  Li  Li1  1  0.27409250  0.24829004  0.02361279  1
  Li  Li2  1  0.27409250  0.24829004  0.47638721  1
  Li  Li3  1  0.72602532  0.75090780  0.52335483  1
  Li  Li4  1  0.72602532  0.75090780  0.97664517  1
  Li  Li5  1  0.90643368  0.23891039  0.75000000  1
  Cr  Cr6  1  0.66469597  0.21551172  0.25000000  1
  Fe  Fe7  1  0.33383860  0.78693327  0.75000000  1
  P  P8  1  0.41034195  0.71922667  0.25000000  1
  P  P9  1  0.58709334  0.28286067  0.75000000  1
  C  C10  1  0.03445369  0.70217702  0.75000000  1
  C  C11  1  0.96809900  0.29383209  0.25000000  1
  O  O12  1  0.07046976  0.94755373  0.75000000  1
  O  O13  1  0.11069961  0.36222748  0.25000000  1
  O  O14  1  0.14625712  0.51005111  0.75000000  1
  O  O15  1  0.31079221  0.82978294  0.06294396  1
  O  O16  1  0.31079221  0.82978294  0.43705604  1
  O  O17  1  0.42206961  0.18283257  0.75000000  1
  O  O18  1  0.42067096  0.40842755  0.25000000  1
  O  O19  1  0.57164413  0.59558878  0.75000000  1
  O  O20  1  0.57730196  0.81368516  0.25000000  1
  O  O21  1  0.68846792  0.17576302  0.93621334  1
  O  O22  1  0.68846792  0.17576302  0.56378666  1
  O  O23  1  0.85296589  0.48104207  0.25000000  1
  O  O24  1  0.88979438  0.64272379  0.75000000  1
  O  O25  1  0.93738177  0.04638164  0.25000000  1
