# generated using pymatgen
data_LiVP2HO7
_symmetry_space_group_name_H-M   'P 1'
_cell_length_a   6.58302562
_cell_length_b   6.61395793
_cell_length_c   6.60074968
_cell_angle_alpha   68.69406531
_cell_angle_beta   92.63298310
_cell_angle_gamma   97.04811787
_symmetry_Int_Tables_number   1
_chemical_formula_structural   LiVP2HO7
_chemical_formula_sum   'Li2 V2 P4 H2 O14'
_cell_volume   265.72964544
_cell_formula_units_Z   2
loop_
 _symmetry_equiv_pos_site_id
 _symmetry_equiv_pos_as_xyz
  1  'x, y, z'
loop_
 _atom_site_type_symbol
 _atom_site_label
 _atom_site_symmetry_multiplicity
 _atom_site_fract_x
 _atom_site_fract_y
 _atom_site_fract_z
 _atom_site_occupancy
  Li  Li0  1  0.14017710  0.25172224  0.77510399  1
  Li  Li1  1  0.85982202  0.74827704  0.22489448  1
  V  V2  1  0.34713597  0.10245961  0.27871334  1
  V  V3  1  0.65287224  0.89754057  0.72129417  1
  P  P4  1  0.15601264  0.78243684  0.75318817  1
  P  P5  1  0.38742344  0.63768984  0.17794891  1
  P  P6  1  0.61257534  0.36230855  0.82205132  1
  P  P7  1  0.84398499  0.21756374  0.24681068  1
  H  H8  1  0.18346051  0.67397606  0.47583080  1
  H  H9  1  0.81653924  0.32602478  0.52416694  1
  O  O10  1  0.09545927  0.61989454  0.62841969  1
  O  O11  1  0.01958977  0.10683548  0.20756173  1
  O  O12  1  0.23179069  0.62153243  0.98112755  1
  O  O13  1  0.27977126  0.77248942  0.28111537  1
  O  O14  1  0.33379249  0.95045041  0.63702437  1
  O  O15  1  0.38940817  0.40417684  0.32952125  1
  O  O16  1  0.40788384  0.24287764  0.92746682  1
  O  O17  1  0.59211461  0.75712302  0.07253342  1
  O  O18  1  0.61059108  0.59582318  0.67047860  1
  O  O19  1  0.66620713  0.04954850  0.36297721  1
  O  O20  1  0.72022696  0.22750908  0.71888392  1
  O  O21  1  0.76821016  0.37846738  0.01887178  1
  O  O22  1  0.98041112  0.89316539  0.79243727  1
  O  O23  1  0.90453995  0.38010642  0.37157819  1
