# generated using pymatgen
data_LiCo(SiO3)2
_symmetry_space_group_name_H-M   'P 1'
_cell_length_a   6.53571260
_cell_length_b   6.53571262
_cell_length_c   5.33971552
_cell_angle_alpha   75.07796806
_cell_angle_beta   104.92203525
_cell_angle_gamma   96.51802716
_symmetry_Int_Tables_number   1
_chemical_formula_structural   LiCo(SiO3)2
_chemical_formula_sum   'Li2 Co2 Si4 O12'
_cell_volume   212.69222137
_cell_formula_units_Z   2
loop_
 _symmetry_equiv_pos_site_id
 _symmetry_equiv_pos_as_xyz
  1  'x, y, z'
loop_
 _atom_site_type_symbol
 _atom_site_label
 _atom_site_symmetry_multiplicity
 _atom_site_fract_x
 _atom_site_fract_y
 _atom_site_fract_z
 _atom_site_occupancy
  Li  Li0  1  0.25900626  0.25900626  0.25000000  1
  Li  Li1  1  0.74099374  0.74099374  0.75000000  1
  Co  Co2  1  0.10036717  0.10036717  0.75000000  1
  Co  Co3  1  0.89963183  0.89963183  0.25000000  1
  Si  Si4  1  0.20616384  0.61467513  0.76536215  1
  Si  Si5  1  0.38532487  0.79383616  0.26536215  1
  Si  Si6  1  0.61467513  0.20616384  0.73463785  1
  Si  Si7  1  0.79383616  0.38532487  0.23463785  1
  O  O8  1  0.02884139  0.79723146  0.65122579  1
  O  O9  1  0.11247998  0.37143186  0.82760283  1
  O  O10  1  0.20276854  0.97115861  0.15122579  1
  O  O11  1  0.35938849  0.64774209  0.55726002  1
  O  O12  1  0.37143186  0.11247998  0.67239717  1
  O  O13  1  0.35225791  0.64061151  0.05726002  1
  O  O14  1  0.64774209  0.35938849  0.94273998  1
  O  O15  1  0.62856814  0.88752002  0.32760283  1
  O  O16  1  0.64061151  0.35225791  0.44273998  1
  O  O17  1  0.79723146  0.02884139  0.84877421  1
  O  O18  1  0.88752002  0.62856814  0.17239717  1
  O  O19  1  0.97115861  0.20276854  0.34877421  1
