# generated using pymatgen
data_Li8SbS6
_symmetry_space_group_name_H-M   'P 1'
_cell_length_a   6.86862165
_cell_length_b   7.45958319
_cell_length_c   6.86862230
_cell_angle_alpha   117.41222172
_cell_angle_beta   60.00000060
_cell_angle_gamma   117.41222218
_symmetry_Int_Tables_number   1
_chemical_formula_structural   Li8SbS6
_chemical_formula_sum   'Li8 Sb1 S6'
_cell_volume   258.14386721
_cell_formula_units_Z   1
loop_
 _symmetry_equiv_pos_site_id
 _symmetry_equiv_pos_as_xyz
  1  'x, y, z'
loop_
 _atom_site_type_symbol
 _atom_site_label
 _atom_site_symmetry_multiplicity
 _atom_site_fract_x
 _atom_site_fract_y
 _atom_site_fract_z
 _atom_site_occupancy
  Li  Li0  1  0.10246841  0.36285109  0.47899778  1
  Li  Li1  1  0.52100222  0.63714891  0.21861610  1
  Li  Li2  1  0.21861610  0.63714891  0.89753159  1
  Li  Li3  1  0.34426761  0.03280182  0.34426761  1
  Li  Li4  1  0.65573239  0.96719818  0.65573239  1
  Li  Li5  1  0.78138390  0.36285109  0.10246841  1
  Li  Li6  1  0.47899778  0.36285109  0.78138390  1
  Li  Li7  1  0.89753159  0.63714891  0.52100222  1
  Sb  Sb8  1  0.00000000  0.00000000  0.00000000  1
  S  S9  1  0.24392985  0.75787476  0.60925340  1
  S  S10  1  0.39074660  0.24212524  0.09530849  1
  S  S11  1  0.09530849  0.24212524  0.75607015  1
  S  S12  1  0.90469151  0.75787476  0.24392985  1
  S  S13  1  0.60925340  0.75787476  0.90469151  1
  S  S14  1  0.75607015  0.24212524  0.39074660  1
