# generated using pymatgen
data_LiVSO4F3
_symmetry_space_group_name_H-M   'P 1'
_cell_length_a   7.20745675
_cell_length_b   7.67992641
_cell_length_c   9.97817026
_cell_angle_alpha   90.00000000
_cell_angle_beta   90.00000000
_cell_angle_gamma   90.00000000
_symmetry_Int_Tables_number   1
_chemical_formula_structural   LiVSO4F3
_chemical_formula_sum   'Li4 V4 S4 O16 F12'
_cell_volume   552.31903857
_cell_formula_units_Z   4
loop_
 _symmetry_equiv_pos_site_id
 _symmetry_equiv_pos_as_xyz
  1  'x, y, z'
loop_
 _atom_site_type_symbol
 _atom_site_label
 _atom_site_symmetry_multiplicity
 _atom_site_fract_x
 _atom_site_fract_y
 _atom_site_fract_z
 _atom_site_occupancy
  Li  Li0  1  0.19083227  0.88869753  0.27731742  1
  Li  Li1  1  0.30916773  0.38869753  0.77731742  1
  Li  Li2  1  0.69083227  0.11130247  0.27731742  1
  Li  Li3  1  0.80916773  0.61130247  0.77731742  1
  V  V4  1  0.99503328  0.99787649  0.99055920  1
  V  V5  1  0.00496672  0.50212351  0.49055920  1
  V  V6  1  0.49503328  0.00212351  0.99055920  1
  V  V7  1  0.50496672  0.49787649  0.49055920  1
  S  S8  1  0.24161581  0.15981613  0.51157471  1
  S  S9  1  0.25838419  0.65981613  0.01157471  1
  S  S10  1  0.74161581  0.84018387  0.51157471  1
  S  S11  1  0.75838419  0.34018387  0.01157471  1
  O  O12  1  0.09726942  0.27898723  0.43994883  1
  O  O13  1  0.11399407  0.78537123  0.07267378  1
  O  O14  1  0.17589657  0.55597190  0.90424949  1
  O  O15  1  0.15517360  0.06788330  0.61941661  1
  O  O16  1  0.32410343  0.05597190  0.40424949  1
  O  O17  1  0.34482640  0.56788330  0.11941661  1
  O  O18  1  0.40273058  0.77898723  0.93994883  1
  O  O19  1  0.38600593  0.28537123  0.57267378  1
  O  O20  1  0.61399407  0.21462877  0.07267378  1
  O  O21  1  0.59726942  0.72101277  0.43994883  1
  O  O22  1  0.67589657  0.44402810  0.90424949  1
  O  O23  1  0.65517360  0.93211670  0.61941661  1
  O  O24  1  0.84482640  0.43211670  0.11941661  1
  O  O25  1  0.82410343  0.94402810  0.40424949  1
  O  O26  1  0.88600593  0.71462877  0.57267378  1
  O  O27  1  0.90273058  0.22101277  0.93994883  1
  F  F28  1  0.03860797  0.44859809  0.67053737  1
  F  F29  1  0.00354935  0.89416551  0.83143152  1
  F  F30  1  0.26079626  0.60357337  0.49126007  1
  F  F31  1  0.23920374  0.10357337  0.99126007  1
  F  F32  1  0.46139203  0.94859809  0.17053737  1
  F  F33  1  0.49645065  0.39416551  0.33143152  1
  F  F34  1  0.50354935  0.10583449  0.83143152  1
  F  F35  1  0.53860797  0.55140191  0.67053737  1
  F  F36  1  0.76079626  0.39642663  0.49126007  1
  F  F37  1  0.73920374  0.89642663  0.99126007  1
  F  F38  1  0.96139203  0.05140191  0.17053737  1
  F  F39  1  0.99645065  0.60583449  0.33143152  1
