# generated using pymatgen
data_LiNiPHO5
_symmetry_space_group_name_H-M   'P 1'
_cell_length_a   5.42759680
_cell_length_b   7.08908546
_cell_length_c   5.14982691
_cell_angle_alpha   107.95945255
_cell_angle_beta   100.19598200
_cell_angle_gamma   106.60495099
_symmetry_Int_Tables_number   1
_chemical_formula_structural   LiNiPHO5
_chemical_formula_sum   'Li2 Ni2 P2 H2 O10'
_cell_volume   172.82449063
_cell_formula_units_Z   2
loop_
 _symmetry_equiv_pos_site_id
 _symmetry_equiv_pos_as_xyz
  1  'x, y, z'
loop_
 _atom_site_type_symbol
 _atom_site_label
 _atom_site_symmetry_multiplicity
 _atom_site_fract_x
 _atom_site_fract_y
 _atom_site_fract_z
 _atom_site_occupancy
  Li  Li0  1  0.39109380  0.82077219  0.74607970  1
  Li  Li1  1  0.60890620  0.17922781  0.25392030  1
  Ni  Ni2  1  0.00000000  0.50000000  0.00000000  1
  Ni  Ni3  1  0.00000000  0.00000000  0.00000000  1
  P  P4  1  0.36199738  0.23767338  0.67602558  1
  P  P5  1  0.63800262  0.76232662  0.32397442  1
  H  H6  1  0.07511962  0.34483962  0.34938370  1
  H  H7  1  0.92488038  0.65516038  0.65061630  1
  O  O8  1  0.04580941  0.72806867  0.85183168  1
  O  O9  1  0.21176306  0.39435444  0.71194636  1
  O  O10  1  0.33691786  0.65634353  0.31014058  1
  O  O11  1  0.25259437  0.06685869  0.36322885  1
  O  O12  1  0.34314398  0.12147024  0.88625723  1
  O  O13  1  0.65685602  0.87852976  0.11374277  1
  O  O14  1  0.74740563  0.93314131  0.63677115  1
  O  O15  1  0.66308214  0.34365647  0.68985942  1
  O  O16  1  0.78823694  0.60564556  0.28805364  1
  O  O17  1  0.95419059  0.27193133  0.14816832  1
