# generated using pymatgen
data_Li4Mn2TeWO12
_symmetry_space_group_name_H-M   'P 1'
_cell_length_a   5.32073242
_cell_length_b   10.64344001
_cell_length_c   9.34421379
_cell_angle_alpha   28.56133588
_cell_angle_beta   51.84747637
_cell_angle_gamma   57.15196646
_symmetry_Int_Tables_number   1
_chemical_formula_structural   Li4Mn2TeWO12
_chemical_formula_sum   'Li4 Mn2 Te1 W1 O12'
_cell_volume   198.94849242
_cell_formula_units_Z   1
loop_
 _symmetry_equiv_pos_site_id
 _symmetry_equiv_pos_as_xyz
  1  'x, y, z'
loop_
 _atom_site_type_symbol
 _atom_site_label
 _atom_site_symmetry_multiplicity
 _atom_site_fract_x
 _atom_site_fract_y
 _atom_site_fract_z
 _atom_site_occupancy
  Li  Li0  1  0.29124885  0.00688943  0.27531117  1
  Li  Li1  1  0.27743680  0.49340520  0.29327623  1
  Li  Li2  1  0.77917599  0.99754502  0.78916699  1
  Li  Li3  1  0.78941560  0.50147856  0.78045772  1
  Mn  Mn4  1  0.50034595  0.00079045  0.50081958  1
  Mn  Mn5  1  0.50264628  0.49917450  0.50139434  1
  Te  Te6  1  0.00043315  0.50151034  0.99936210  1
  W  W7  1  0.00209978  0.99860801  0.00270992  1
  O  O8  1  0.37700133  0.30393947  0.11918632  1
  O  O9  1  0.24174682  0.11354692  0.63293452  1
  O  O10  1  0.13400259  0.31437205  0.73484189  1
  O  O11  1  0.87349889  0.19936125  0.22620529  1
  O  O12  1  0.36549916  0.80222472  0.13481166  1
  O  O13  1  0.73129181  0.37101182  0.37773088  1
  O  O14  1  0.23120128  0.62804313  0.62116053  1
  O  O15  1  0.63378432  0.18760641  0.86107001  1
  O  O16  1  0.12007434  0.82199395  0.73475578  1
  O  O17  1  0.86258950  0.69286163  0.24507312  1
  O  O18  1  0.73635078  0.88459177  0.36509241  1
  O  O19  1  0.62135778  0.68104537  0.87583955  1
