# generated using pymatgen
data_Li3MnPCO7
_symmetry_space_group_name_H-M   'P 1'
_cell_length_a   8.58176526
_cell_length_b   4.97262948
_cell_length_c   13.19028739
_cell_angle_alpha   89.92040370
_cell_angle_beta   90.55544277
_cell_angle_gamma   85.46035316
_symmetry_Int_Tables_number   1
_chemical_formula_structural   Li3MnPCO7
_chemical_formula_sum   'Li12 Mn4 P4 C4 O28'
_cell_volume   561.08796973
_cell_formula_units_Z   4
loop_
 _symmetry_equiv_pos_site_id
 _symmetry_equiv_pos_as_xyz
  1  'x, y, z'
loop_
 _atom_site_type_symbol
 _atom_site_label
 _atom_site_symmetry_multiplicity
 _atom_site_fract_x
 _atom_site_fract_y
 _atom_site_fract_z
 _atom_site_occupancy
  Li  Li0  1  0.09392553  0.76371602  0.12799399  1
  Li  Li1  1  0.09779065  0.76435757  0.62817782  1
  Li  Li2  1  0.27435849  0.24570944  0.51938564  1
  Li  Li3  1  0.27302279  0.24753912  0.24355913  1
  Li  Li4  1  0.27918920  0.23487508  0.73637054  1
  Li  Li5  1  0.35232361  0.77708267  0.86524224  1
  Li  Li6  1  0.71953942  0.75635507  0.97743808  1
  Li  Li7  1  0.72439150  0.75467175  0.26777737  1
  Li  Li8  1  0.72736448  0.75205261  0.48926847  1
  Li  Li9  1  0.72052704  0.75436302  0.76601243  1
  Li  Li10  1  0.90540301  0.23695526  0.37810411  1
  Li  Li11  1  0.90115867  0.23496948  0.86996310  1
  Mn  Mn12  1  0.25860625  0.25228426  0.99351372  1
  Mn  Mn13  1  0.34062728  0.77601897  0.37669497  1
  Mn  Mn14  1  0.65871392  0.22079776  0.12454841  1
  Mn  Mn15  1  0.65848925  0.22329408  0.62536179  1
  P  P16  1  0.40852637  0.72421193  0.12366561  1
  P  P17  1  0.40884452  0.72386034  0.62781095  1
  P  P18  1  0.59029971  0.27730065  0.37388669  1
  P  P19  1  0.58959867  0.28176693  0.87519090  1
  C  C20  1  0.03333665  0.70298894  0.37353795  1
  C  C21  1  0.03790591  0.70780084  0.88035401  1
  C  C22  1  0.96681300  0.29668645  0.62465979  1
  C  C23  1  0.96563927  0.29710662  0.12544392  1
  O  O24  1  0.06998718  0.95604203  0.88124985  1
  O  O25  1  0.06805723  0.95022228  0.37344873  1
  O  O26  1  0.11250426  0.35910806  0.12316709  1
  O  O27  1  0.11099957  0.35971924  0.62548988  1
  O  O28  1  0.14550820  0.50962979  0.37254620  1
  O  O29  1  0.15024317  0.51409006  0.88258227  1
  O  O30  1  0.31004814  0.83471394  0.53437844  1
  O  O31  1  0.31113394  0.82726592  0.02965173  1
  O  O32  1  0.31044662  0.83039904  0.21607908  1
  O  O33  1  0.31297842  0.82656767  0.71977396  1
  O  O34  1  0.42149105  0.18783946  0.37306906  1
  O  O35  1  0.42379381  0.17816407  0.87306486  1
  O  O36  1  0.42309629  0.40692771  0.62499894  1
  O  O37  1  0.41965297  0.40578553  0.12301848  1
  O  O38  1  0.57736145  0.59309586  0.37366078  1
  O  O39  1  0.57515123  0.59378721  0.87586017  1
  O  O40  1  0.57800881  0.80962409  0.12597753  1
  O  O41  1  0.57890021  0.81257641  0.62597595  1
  O  O42  1  0.68947069  0.16762958  0.46635096  1
  O  O43  1  0.68894988  0.16889273  0.28215997  1
  O  O44  1  0.68999618  0.17116756  0.78399652  1
  O  O45  1  0.68959030  0.16972824  0.96794792  1
  O  O46  1  0.85622653  0.49150290  0.12757394  1
  O  O47  1  0.85354880  0.48895539  0.62373381  1
  O  O48  1  0.88825736  0.64027069  0.37470636  1
  O  O49  1  0.89336498  0.64133234  0.87516207  1
  O  O50  1  0.93270070  0.04991957  0.12537674  1
  O  O51  1  0.93213986  0.04827877  0.62503306  1
