# generated using pymatgen
data_Rb2YHgF6
_symmetry_space_group_name_H-M   'P 1'
_cell_length_a   6.75397491
_cell_length_b   6.75397508
_cell_length_c   6.75397507
_cell_angle_alpha   59.99999938
_cell_angle_beta   59.99999910
_cell_angle_gamma   59.99999914
_symmetry_Int_Tables_number   1
_chemical_formula_structural   Rb2YHgF6
_chemical_formula_sum   'Rb2 Y1 Hg1 F6'
_cell_volume   217.85289956
_cell_formula_units_Z   1
loop_
 _symmetry_equiv_pos_site_id
 _symmetry_equiv_pos_as_xyz
  1  'x, y, z'
loop_
 _atom_site_type_symbol
 _atom_site_label
 _atom_site_symmetry_multiplicity
 _atom_site_fract_x
 _atom_site_fract_y
 _atom_site_fract_z
 _atom_site_occupancy
  Rb  Rb0  1  0.25000000  0.25000000  0.25000000  1
  Rb  Rb1  1  0.75000000  0.75000000  0.75000000  1
  Y  Y2  1  -0.00000000  0.00000000  -0.00000000  1
  Hg  Hg3  1  0.50000000  0.50000000  0.50000000  1
  F  F4  1  0.22854673  0.77145326  0.22854674  1
  F  F5  1  0.77145327  0.77145326  0.22854674  1
  F  F6  1  0.77145327  0.22854674  0.77145326  1
  F  F7  1  0.77145327  0.22854674  0.22854674  1
  F  F8  1  0.22854673  0.77145326  0.77145326  1
  F  F9  1  0.22854673  0.22854674  0.77145326  1
