# generated using pymatgen
data_LiFe2(PO4)2
_symmetry_space_group_name_H-M   'P 1'
_cell_length_a   8.88316027
_cell_length_b   8.17902524
_cell_length_c   15.25044765
_cell_angle_alpha   89.63677564
_cell_angle_beta   90.27516763
_cell_angle_gamma   89.54651569
_symmetry_Int_Tables_number   1
_chemical_formula_structural   LiFe2(PO4)2
_chemical_formula_sum   'Li6 Fe12 P12 O48'
_cell_volume   1107.96028592
_cell_formula_units_Z   6
loop_
 _symmetry_equiv_pos_site_id
 _symmetry_equiv_pos_as_xyz
  1  'x, y, z'
loop_
 _atom_site_type_symbol
 _atom_site_label
 _atom_site_symmetry_multiplicity
 _atom_site_fract_x
 _atom_site_fract_y
 _atom_site_fract_z
 _atom_site_occupancy
  Li  Li0  1  0.22717962  0.94458747  0.90474404  1
  Li  Li1  1  0.25695453  0.69609392  0.25070482  1
  Li  Li2  1  0.24924832  0.43322101  0.58977583  1
  Li  Li3  1  0.74566507  0.31085844  0.75118899  1
  Li  Li4  1  0.77463209  0.05404114  0.09748059  1
  Li  Li5  1  0.76723700  0.94451180  0.44107959  1
  Fe  Fe6  1  0.04477665  0.73219864  0.09374319  1
  Fe  Fe7  1  0.07830670  0.79478507  0.72653909  1
  Fe  Fe8  1  0.10620602  0.73633548  0.43261236  1
  Fe  Fe9  1  0.38256901  0.21936835  0.07265784  1
  Fe  Fe10  1  0.40346797  0.27300306  0.76988500  1
  Fe  Fe11  1  0.44985686  0.21627824  0.40359341  1
  Fe  Fe12  1  0.54818663  0.77951589  0.60112632  1
  Fe  Fe13  1  0.59876943  0.71501353  0.22986972  1
  Fe  Fe14  1  0.61603828  0.77947548  0.92394101  1
  Fe  Fe15  1  0.88764444  0.26656305  0.57068428  1
  Fe  Fe16  1  0.92170445  0.21475018  0.27283590  1
  Fe  Fe17  1  0.95687151  0.27183083  0.90779511  1
  P  P18  1  0.04580015  0.32844321  0.09596983  1
  P  P19  1  0.08657404  0.17367416  0.72757544  1
  P  P20  1  0.11866717  0.33525521  0.42703125  1
  P  P21  1  0.39466775  0.83836365  0.07609531  1
  P  P22  1  0.40504889  0.66584416  0.77403713  1
  P  P23  1  0.44083885  0.83541415  0.40894771  1
  P  P24  1  0.55929091  0.16092453  0.59185591  1
  P  P25  1  0.59021545  0.32467565  0.22494106  1
  P  P26  1  0.60745875  0.15933116  0.92302785  1
  P  P27  1  0.87855834  0.66745325  0.57496003  1
  P  P28  1  0.91624665  0.83795909  0.27237671  1
  P  P29  1  0.95390264  0.67361943  0.90243876  1
  O  O30  1  0.02602544  0.65500837  0.63313808  1
  O  O31  1  0.01772756  0.50382256  0.88610736  1
  O  O32  1  0.05425626  0.77926594  0.96301647  1
  O  O33  1  0.06641457  0.75179915  0.29749836  1
  O  O34  1  0.07646078  0.22536361  0.50460451  1
  O  O35  1  0.06686269  0.23474250  0.18528308  1
  O  O36  1  0.10177621  0.14263429  0.82833881  1
  O  O37  1  0.09086494  0.00619179  0.67927746  1
  O  O38  1  0.17219290  0.50226110  0.46293639  1
  O  O39  1  0.20615458  0.34029267  0.05391380  1
  O  O40  1  0.21756796  0.28122582  0.69360534  1
  O  O41  1  0.24872686  0.25509278  0.37300250  1
  O  O42  1  0.27195721  0.74706909  0.12788719  1
  O  O43  1  0.26358788  0.77636828  0.79295411  1
  O  O44  1  0.28599709  0.87618686  0.44612536  1
  O  O45  1  0.32382583  0.00250332  0.03879901  1
  O  O46  1  0.39360801  0.50030633  0.81769747  1
  O  O47  1  0.41565268  0.64805386  0.67098304  1
  O  O48  1  0.43039814  0.73755557  0.32332519  1
  O  O49  1  0.44183696  0.73952707  0.99295459  1
  O  O50  1  0.45268870  0.22884300  0.18931055  1
  O  O51  1  0.45686669  0.26386075  0.52728456  1
  O  O52  1  0.48036226  0.99731701  0.61482562  1
  O  O53  1  0.46994946  0.12032300  0.86480009  1
  O  O54  1  0.53320546  0.87375833  0.13343870  1
  O  O55  1  0.52981297  0.99896055  0.39154560  1
  O  O56  1  0.53971217  0.74049408  0.47835377  1
  O  O57  1  0.54650056  0.75940029  0.80630156  1
  O  O58  1  0.55811521  0.25929594  0.00487016  1
  O  O59  1  0.57875396  0.26081151  0.67667581  1
  O  O60  1  0.57454625  0.33612666  0.32671701  1
  O  O61  1  0.59984635  0.49108568  0.18162814  1
  O  O62  1  0.67766438  0.99498564  0.95973049  1
  O  O63  1  0.71048006  0.12090595  0.54573472  1
  O  O64  1  0.73604893  0.21990988  0.20638801  1
  O  O65  1  0.72975385  0.25186734  0.87201259  1
  O  O66  1  0.75258839  0.75013840  0.63135525  1
  O  O67  1  0.78171072  0.73748624  0.30221177  1
  O  O68  1  0.79263073  0.65948019  0.94357862  1
  O  O69  1  0.83054139  0.49780999  0.54751133  1
  O  O70  1  0.90621175  0.00336141  0.32630393  1
  O  O71  1  0.91331960  0.87871615  0.17219614  1
  O  O72  1  0.93319882  0.77026177  0.81394472  1
  O  O73  1  0.91137818  0.78266365  0.49615141  1
  O  O74  1  0.93489568  0.25838479  0.70460849  1
  O  O75  1  0.94436431  0.22037553  0.03700139  1
  O  O76  1  0.98222533  0.49935667  0.11053490  1
  O  O77  1  0.98301814  0.35706941  0.36228043  1
