# generated using pymatgen
data_Li3CuAsCO7
_symmetry_space_group_name_H-M   'P 1'
_cell_length_a   8.58423586
_cell_length_b   6.44072792
_cell_length_c   5.15793752
_cell_angle_alpha   90.00000000
_cell_angle_beta   85.29606622
_cell_angle_gamma   90.00000000
_symmetry_Int_Tables_number   1
_chemical_formula_structural   Li3CuAsCO7
_chemical_formula_sum   'Li6 Cu2 As2 C2 O14'
_cell_volume   284.21526148
_cell_formula_units_Z   2
loop_
 _symmetry_equiv_pos_site_id
 _symmetry_equiv_pos_as_xyz
  1  'x, y, z'
loop_
 _atom_site_type_symbol
 _atom_site_label
 _atom_site_symmetry_multiplicity
 _atom_site_fract_x
 _atom_site_fract_y
 _atom_site_fract_z
 _atom_site_occupancy
  Li  Li0  1  0.07829582  0.25000000  0.76307863  1
  Li  Li1  1  0.27015632  0.01352820  0.22129600  1
  Li  Li2  1  0.27015632  0.48647180  0.22129600  1
  Li  Li3  1  0.72984368  0.51352820  0.77870400  1
  Li  Li4  1  0.72984368  0.98647180  0.77870400  1
  Li  Li5  1  0.92170418  0.75000000  0.23692137  1
  Cu  Cu6  1  0.32627213  0.75000000  0.77671390  1
  Cu  Cu7  1  0.67372787  0.25000000  0.22328610  1
  As  As8  1  0.42010663  0.25000000  0.69298815  1
  As  As9  1  0.57989337  0.75000000  0.30701185  1
  C  C10  1  0.02298076  0.75000000  0.69085596  1
  C  C11  1  0.97701924  0.25000000  0.30914404  1
  O  O12  1  0.12847146  0.25000000  0.30560087  1
  O  O13  1  0.08799116  0.75000000  0.91194138  1
  O  O14  1  0.10621566  0.75000000  0.47288811  1
  O  O15  1  0.29770506  0.04951500  0.80453708  1
  O  O16  1  0.29770506  0.45048500  0.80453708  1
  O  O17  1  0.44467982  0.25000000  0.35450370  1
  O  O18  1  0.39825519  0.75000000  0.19884200  1
  O  O19  1  0.60174481  0.25000000  0.80115800  1
  O  O20  1  0.55532018  0.75000000  0.64549630  1
  O  O21  1  0.70229494  0.54951500  0.19546292  1
  O  O22  1  0.70229494  0.95048500  0.19546292  1
  O  O23  1  0.89378434  0.25000000  0.52711189  1
  O  O24  1  0.91200884  0.25000000  0.08805862  1
  O  O25  1  0.87152854  0.75000000  0.69439913  1
