# generated using pymatgen
data_LiMn2(PO4)2
_symmetry_space_group_name_H-M   'P 1'
_cell_length_a   8.66705432
_cell_length_b   5.19433861
_cell_length_c   17.03697874
_cell_angle_alpha   90.00000000
_cell_angle_beta   80.39776906
_cell_angle_gamma   90.00000000
_symmetry_Int_Tables_number   1
_chemical_formula_structural   LiMn2(PO4)2
_chemical_formula_sum   'Li4 Mn8 P8 O32'
_cell_volume   756.25222577
_cell_formula_units_Z   4
loop_
 _symmetry_equiv_pos_site_id
 _symmetry_equiv_pos_as_xyz
  1  'x, y, z'
loop_
 _atom_site_type_symbol
 _atom_site_label
 _atom_site_symmetry_multiplicity
 _atom_site_fract_x
 _atom_site_fract_y
 _atom_site_fract_z
 _atom_site_occupancy
  Li  Li0  1  0.00185122  0.32665962  0.25130303  1
  Li  Li1  1  0.00185122  0.67334038  0.75130303  1
  Li  Li2  1  0.61030569  0.83486810  0.49097741  1
  Li  Li3  1  0.61030569  0.16513190  0.99097741  1
  Mn  Mn4  1  0.37309374  0.32302977  0.13138103  1
  Mn  Mn5  1  0.37309374  0.67697023  0.63138103  1
  Mn  Mn6  1  0.46653753  0.19607375  0.36120964  1
  Mn  Mn7  1  0.46653753  0.80392625  0.86120964  1
  Mn  Mn8  1  0.88120866  0.68306576  0.11498344  1
  Mn  Mn9  1  0.88120866  0.31693424  0.61498344  1
  Mn  Mn10  1  0.97606138  0.83228400  0.37432330  1
  Mn  Mn11  1  0.97606138  0.16771600  0.87432330  1
  P  P12  1  0.17524514  0.82102090  0.18946870  1
  P  P13  1  0.17524514  0.17897910  0.68946870  1
  P  P14  1  0.29763131  0.68729717  0.43724709  1
  P  P15  1  0.29763131  0.31270283  0.93724709  1
  P  P16  1  0.69314840  0.17873473  0.18014111  1
  P  P17  1  0.69314840  0.82126527  0.68014111  1
  P  P18  1  0.78690748  0.32550835  0.42924417  1
  P  P19  1  0.78690748  0.67449165  0.92924417  1
  O  O20  1  0.06594143  0.69924365  0.26129295  1
  O  O21  1  0.09489957  0.76730195  0.11430367  1
  O  O22  1  0.19171698  0.11506249  0.20177949  1
  O  O23  1  0.12545614  0.77052688  0.45163969  1
  O  O24  1  0.06594143  0.30075635  0.76129295  1
  O  O25  1  0.09489957  0.23269805  0.61430467  1
  O  O26  1  0.37893855  0.27331690  0.01020753  1
  O  O27  1  0.29647241  0.39219249  0.41489916  1
  O  O28  1  0.33605186  0.69132872  0.17166068  1
  O  O29  1  0.19171698  0.88493751  0.70177949  1
  O  O30  1  0.12545614  0.22947312  0.95163969  1
  O  O31  1  0.39354343  0.83337079  0.36551564  1
  O  O32  1  0.37893855  0.72668310  0.51020753  1
  O  O33  1  0.29647241  0.60780751  0.91489916  1
  O  O34  1  0.33605186  0.30867128  0.67166068  1
  O  O35  1  0.57000284  0.25062497  0.25391792  1
  O  O36  1  0.61366005  0.22797731  0.10669640  1
  O  O37  1  0.39354343  0.16662921  0.86551564  1
  O  O38  1  0.73853593  0.89288798  0.18943200  1
  O  O39  1  0.62261051  0.19453512  0.43419686  1
  O  O40  1  0.57000284  0.74937503  0.75391792  1
  O  O41  1  0.61366005  0.77202269  0.60669640  1
  O  O42  1  0.83997974  0.75122253  0.00792932  1
  O  O43  1  0.77345993  0.62026587  0.41965860  1
  O  O44  1  0.84422149  0.34266848  0.17555847  1
  O  O45  1  0.73853593  0.10711202  0.68943200  1
  O  O46  1  0.62261051  0.80546488  0.93419686  1
  O  O47  1  0.90342058  0.20998345  0.35870372  1
  O  O48  1  0.83997974  0.24877747  0.50792932  1
  O  O49  1  0.77345993  0.37973413  0.91965860  1
  O  O50  1  0.84422149  0.65733152  0.67555847  1
  O  O51  1  0.90342058  0.79001655  0.85870372  1
