# generated using pymatgen
data_Y(Bi3O5)4
_symmetry_space_group_name_H-M   'P 1'
_cell_length_a   8.97086580
_cell_length_b   8.97086580
_cell_length_c   8.97086580
_cell_angle_alpha   109.47256414
_cell_angle_beta   109.47145072
_cell_angle_gamma   109.46964705
_symmetry_Int_Tables_number   1
_chemical_formula_structural   Y(Bi3O5)4
_chemical_formula_sum   'Y1 Bi12 O20'
_cell_volume   555.75219836
_cell_formula_units_Z   1
loop_
 _symmetry_equiv_pos_site_id
 _symmetry_equiv_pos_as_xyz
  1  'x, y, z'
loop_
 _atom_site_type_symbol
 _atom_site_label
 _atom_site_symmetry_multiplicity
 _atom_site_fract_x
 _atom_site_fract_y
 _atom_site_fract_z
 _atom_site_occupancy
  Y  Y0  1  0.00000000  0.00000000  0.00000000  1
  Bi  Bi1  1  0.81709947  0.14212782  0.31129818  1
  Bi  Bi2  1  0.85788680  0.67497144  0.16917859  1
  Bi  Bi3  1  0.49420716  0.32502856  0.18291536  1
  Bi  Bi4  1  0.32501678  0.18291884  0.49421178  1
  Bi  Bi5  1  0.67498322  0.16919500  0.85790206  1
  Bi  Bi6  1  0.83083063  0.50580129  0.68870182  1
  Bi  Bi7  1  0.18290053  0.49419871  0.32502834  1
  Bi  Bi8  1  0.68870705  0.83080500  0.50578822  1
  Bi  Bi9  1  0.31129295  0.81708116  0.14209794  1
  Bi  Bi10  1  0.14211320  0.31129180  0.81708464  1
  Bi  Bi11  1  0.50579284  0.68870820  0.83082141  1
  Bi  Bi12  1  0.16916937  0.85787218  0.67497166  1
  O  O13  1  0.64811828  0.00000125  -0.00000386  1
  O  O14  1  0.75373259  0.37819931  0.11351209  1
  O  O15  1  0.24423852  0.99999868  0.00000314  1
  O  O16  1  0.62447208  0.24626034  0.35979091  1
  O  O17  1  0.88646944  0.26468117  0.64020909  1
  O  O18  1  0.99999554  0.24423439  -0.00000414  1
  O  O19  1  0.00000446  0.00000132  0.24423984  1
  O  O20  1  0.73531278  0.62180069  0.37553328  1
  O  O21  1  0.35188172  0.35187786  0.35188297  1
  O  O22  1  0.35980340  0.62448323  0.24626273  1
  O  O23  1  0.64019660  0.88645933  0.26467983  1
  O  O24  1  0.37822050  0.11354067  0.75373727  1
  O  O25  1  0.62177950  0.37551677  0.73532017  1
  O  O26  1  0.00000511  0.64812214  0.00000386  1
  O  O27  1  0.99999489  0.99999875  0.64811703  1
  O  O28  1  0.24626741  0.35977950  0.62446672  1
  O  O29  1  0.75576148  0.75576561  0.75576016  1
  O  O30  1  0.37552792  0.73531883  0.62178826  1
  O  O31  1  0.11353056  0.75373966  0.37821174  1
  O  O32  1  0.26468722  0.64022050  0.88648791  1
