# generated using pymatgen
data_Ho(Bi3O5)4
_symmetry_space_group_name_H-M   'P 1'
_cell_length_a   8.96264163
_cell_length_b   8.96264163
_cell_length_c   8.96264163
_cell_angle_alpha   109.51772491
_cell_angle_beta   109.45150608
_cell_angle_gamma   109.44444101
_symmetry_Int_Tables_number   1
_chemical_formula_structural   Ho(Bi3O5)4
_chemical_formula_sum   'Ho1 Bi12 O20'
_cell_volume   554.22484183
_cell_formula_units_Z   1
loop_
 _symmetry_equiv_pos_site_id
 _symmetry_equiv_pos_as_xyz
  1  'x, y, z'
loop_
 _atom_site_type_symbol
 _atom_site_label
 _atom_site_symmetry_multiplicity
 _atom_site_fract_x
 _atom_site_fract_y
 _atom_site_fract_z
 _atom_site_occupancy
  Ho  Ho0  1  0.00000000  0.00000000  0.00000000  1
  Bi  Bi1  1  0.83076338  0.32511025  0.14100594  1
  Bi  Bi2  1  0.49460843  0.16881351  0.31032667  1
  Bi  Bi3  1  0.85848684  0.18428176  0.68967333  1
  Bi  Bi4  1  0.31017343  0.49469318  0.16880304  1
  Bi  Bi5  1  0.68982657  0.85862962  0.18451875  1
  Bi  Bi6  1  0.81589569  0.67488975  0.50565413  1
  Bi  Bi7  1  0.16923662  0.31024256  0.49434587  1
  Bi  Bi8  1  0.67410986  0.50530682  0.81548125  1
  Bi  Bi9  1  0.32589014  0.14137038  0.83119696  1
  Bi  Bi10  1  0.50539157  0.81571824  0.67420508  1
  Bi  Bi11  1  0.14151316  0.83118649  0.32579492  1
  Bi  Bi12  1  0.18410431  0.68975744  0.85899406  1
  O  O13  1  0.35493036  0.00017241  -0.00007795  1
  O  O14  1  0.73581299  0.11424103  0.35973343  1
  O  O15  1  0.88557141  0.62168399  0.24608806  1
  O  O16  1  0.62440507  0.37831601  0.26388742  1
  O  O17  1  0.24146157  0.24207419  0.24167321  1
  O  O18  1  0.75853843  0.00021163  0.00061262  1
  O  O19  1  0.75450760  0.37607956  0.64026657  1
  O  O20  1  0.00025036  0.35500831  0.00007795  1
  O  O21  1  0.37821723  0.26343666  0.62329502  1
  O  O22  1  0.62178277  0.24507879  0.88521943  1
  O  O23  1  0.64014064  0.75492121  0.37670498  1
  O  O24  1  0.35985936  0.73656334  0.11478057  1
  O  O25  1  0.64506964  0.64499169  0.64524205  1
  O  O26  1  0.26418701  0.62392044  0.37842804  1
  O  O27  1  0.00039999  0.99978837  0.75832679  1
  O  O28  1  0.99960001  0.75792581  0.99938738  1
  O  O29  1  0.11442859  0.36051765  0.73611258  1
  O  O30  1  0.37559493  0.63948235  0.75391194  1
  O  O31  1  0.24549240  0.88575897  0.62157196  1
  O  O32  1  0.99974964  0.99982759  0.35475795  1
