# generated using pymatgen
data_Na4Sb2C4SO16
_symmetry_space_group_name_H-M   'P 1'
_cell_length_a   10.44594087
_cell_length_b   10.14181485
_cell_length_c   10.44594040
_cell_angle_alpha   61.43344143
_cell_angle_beta   94.09928807
_cell_angle_gamma   61.43343867
_symmetry_Int_Tables_number   1
_chemical_formula_structural   Na4Sb2C4SO16
_chemical_formula_sum   'Na8 Sb4 C8 S2 O32'
_cell_volume   786.33627449
_cell_formula_units_Z   2
loop_
 _symmetry_equiv_pos_site_id
 _symmetry_equiv_pos_as_xyz
  1  'x, y, z'
loop_
 _atom_site_type_symbol
 _atom_site_label
 _atom_site_symmetry_multiplicity
 _atom_site_fract_x
 _atom_site_fract_y
 _atom_site_fract_z
 _atom_site_occupancy
  Na  Na0  1  0.07728765  0.84542470  0.82728765  1
  Na  Na1  1  0.07837307  0.25000000  0.82837307  1
  Na  Na2  1  0.32837307  0.75000000  0.57837307  1
  Na  Na3  1  0.32728765  0.34542470  0.57728765  1
  Na  Na4  1  0.67271235  0.65457530  0.42271235  1
  Na  Na5  1  0.67162693  0.25000000  0.42162693  1
  Na  Na6  1  0.92162693  0.75000000  0.17162693  1
  Na  Na7  1  0.92271235  0.15457530  0.17271235  1
  Sb  Sb8  1  0.00000000  0.50000000  0.00000000  1
  Sb  Sb9  1  0.50000000  0.00000000  0.50000000  1
  Sb  Sb10  1  0.50000000  0.50000000  0.00000000  1
  Sb  Sb11  1  0.50000000  0.00000000  0.00000000  1
  C  C12  1  0.34225624  0.94086961  0.77091046  1
  C  C13  1  0.27091046  0.44086961  0.84225624  1
  C  C14  1  0.71687415  0.94086961  0.78821993  1
  C  C15  1  0.71178007  0.55913039  0.78312585  1
  C  C16  1  0.28821993  0.44086961  0.21687415  1
  C  C17  1  0.28312585  0.05913039  0.21178007  1
  C  C18  1  0.72908954  0.55913039  0.15774376  1
  C  C19  1  0.65774376  0.05913039  0.22908954  1
  S  S20  1  0.12500000  0.75000000  0.37500000  1
  S  S21  1  0.87500000  0.25000000  0.62500000  1
  O  O22  1  0.33527657  0.81428401  0.88300145  1
  O  O23  1  0.07103455  0.87198069  0.43029493  1
  O  O24  1  0.35340309  0.94471384  0.64706141  1
  O  O25  1  0.14706141  0.44471384  0.85340309  1
  O  O26  1  0.70188308  0.94471384  0.90822475  1
  O  O27  1  0.28420647  0.56567121  0.83637148  1
  O  O28  1  0.05698476  0.87198069  0.19772438  1
  O  O29  1  0.06970507  0.62801931  0.42896545  1
  O  O30  1  0.40204269  0.93432879  0.34987768  1
  O  O31  1  0.59177525  0.55528616  0.79811692  1
  O  O32  1  0.38300145  0.31428401  0.83527657  1
  O  O33  1  0.30227562  0.62801931  0.44301524  1
  O  O34  1  0.85043942  0.81428401  0.80271454  1
  O  O35  1  0.69728546  0.68571599  0.64956058  1
  O  O36  1  0.33637148  0.06567121  0.78420647  1
  O  O37  1  0.15012232  0.56567121  0.09795731  1
  O  O38  1  0.84987768  0.43432879  0.90204269  1
  O  O39  1  0.66362852  0.93432879  0.21579353  1
  O  O40  1  0.30271454  0.31428401  0.35043942  1
  O  O41  1  0.14956058  0.18571599  0.19728546  1
  O  O42  1  0.69772438  0.37198069  0.55698476  1
  O  O43  1  0.61699855  0.68571599  0.16472343  1
  O  O44  1  0.40822475  0.44471384  0.20188308  1
  O  O45  1  0.59795731  0.06567121  0.65012232  1
  O  O46  1  0.93029493  0.37198069  0.57103455  1
  O  O47  1  0.94301524  0.12801931  0.80227562  1
  O  O48  1  0.71579353  0.43432879  0.16362852  1
  O  O49  1  0.29811692  0.05528616  0.09177525  1
  O  O50  1  0.85293859  0.55528616  0.14659691  1
  O  O51  1  0.64659691  0.05528616  0.35293859  1
  O  O52  1  0.92896545  0.12801931  0.56970507  1
  O  O53  1  0.66472343  0.18571599  0.11699855  1
