# generated using pymatgen
data_Sr3Ta2O8
_symmetry_space_group_name_H-M   'P 1'
_cell_length_a   6.98823584
_cell_length_b   6.98823584
_cell_length_c   9.43596405
_cell_angle_alpha   72.93312532
_cell_angle_beta   107.06687468
_cell_angle_gamma   97.56450113
_symmetry_Int_Tables_number   1
_chemical_formula_structural   Sr3Ta2O8
_chemical_formula_sum   'Sr6 Ta4 O16'
_cell_volume   420.59518013
_cell_formula_units_Z   2
loop_
 _symmetry_equiv_pos_site_id
 _symmetry_equiv_pos_as_xyz
  1  'x, y, z'
loop_
 _atom_site_type_symbol
 _atom_site_label
 _atom_site_symmetry_multiplicity
 _atom_site_fract_x
 _atom_site_fract_y
 _atom_site_fract_z
 _atom_site_occupancy
  Sr  Sr0  1  0.38543859  0.73707600  0.49680279  1
  Sr  Sr1  1  0.27648574  0.27648574  0.75000000  1
  Sr  Sr2  1  0.73707600  0.38543859  0.00319721  1
  Sr  Sr3  1  0.26292400  0.61456141  0.99680279  1
  Sr  Sr4  1  0.72351426  0.72351426  0.25000000  1
  Sr  Sr5  1  0.61456141  0.26292400  0.50319721  1
  Ta  Ta6  1  0.79094409  0.92936796  0.88034759  1
  Ta  Ta7  1  0.07063204  0.20905591  0.38034759  1
  Ta  Ta8  1  0.92936796  0.79094409  0.61965241  1
  Ta  Ta9  1  0.20905591  0.07063204  0.11965241  1
  O  O10  1  0.93496832  0.70271267  0.85131234  1
  O  O11  1  0.29728733  0.06503168  0.35131234  1
  O  O12  1  0.16121909  0.63377275  0.67952614  1
  O  O13  1  0.60941744  0.72270787  0.96463267  1
  O  O14  1  0.05459010  0.10116578  0.89236652  1
  O  O15  1  0.36622725  0.83878091  0.17952614  1
  O  O16  1  0.27729213  0.39058256  0.46463267  1
  O  O17  1  0.10116578  0.05459010  0.60763348  1
  O  O18  1  0.89883422  0.94540990  0.39236652  1
  O  O19  1  0.72270787  0.60941744  0.53536733  1
  O  O20  1  0.63377275  0.16121909  0.82047386  1
  O  O21  1  0.94540990  0.89883422  0.10763348  1
  O  O22  1  0.39058256  0.27729213  0.03536733  1
  O  O23  1  0.83878091  0.36622725  0.32047386  1
  O  O24  1  0.70271267  0.93496832  0.64868766  1
  O  O25  1  0.06503168  0.29728733  0.14868766  1
