# generated using pymatgen
data_Na4B4Sb2SO16
_symmetry_space_group_name_H-M   'P 1'
_cell_length_a   10.01864565
_cell_length_b   9.85391924
_cell_length_c   10.01864631
_cell_angle_alpha   60.75423279
_cell_angle_beta   92.23235473
_cell_angle_gamma   60.75422994
_symmetry_Int_Tables_number   1
_chemical_formula_structural   Na4B4Sb2SO16
_chemical_formula_sum   'Na8 B8 Sb4 S2 O32'
_cell_volume   701.13311135
_cell_formula_units_Z   2
loop_
 _symmetry_equiv_pos_site_id
 _symmetry_equiv_pos_as_xyz
  1  'x, y, z'
loop_
 _atom_site_type_symbol
 _atom_site_label
 _atom_site_symmetry_multiplicity
 _atom_site_fract_x
 _atom_site_fract_y
 _atom_site_fract_z
 _atom_site_occupancy
  Na  Na0  1  0.08116403  0.83767193  0.83116403  1
  Na  Na1  1  0.08165920  0.25000000  0.83165920  1
  Na  Na2  1  0.33165920  0.75000000  0.58165920  1
  Na  Na3  1  0.33116403  0.33767193  0.58116403  1
  Na  Na4  1  0.66883597  0.66232807  0.41883597  1
  Na  Na5  1  0.66834080  0.25000000  0.41834080  1
  Na  Na6  1  0.91834080  0.75000000  0.16834080  1
  Na  Na7  1  0.91883597  0.16232807  0.16883597  1
  B  B8  1  0.36205732  0.92709606  0.78053626  1
  B  B9  1  0.28053626  0.42709606  0.86205732  1
  B  B10  1  0.71084662  0.92709606  0.79236668  1
  B  B11  1  0.70763332  0.57290394  0.78915338  1
  B  B12  1  0.29236668  0.42709606  0.21084662  1
  B  B13  1  0.28915338  0.07290394  0.20763332  1
  B  B14  1  0.71946374  0.57290394  0.13794268  1
  B  B15  1  0.63794268  0.07290394  0.21946374  1
  Sb  Sb16  1  0.00000000  0.50000000  0.00000000  1
  Sb  Sb17  1  0.50000000  0.00000000  0.50000000  1
  Sb  Sb18  1  0.50000000  0.50000000  0.00000000  1
  Sb  Sb19  1  0.50000000  0.00000000  0.00000000  1
  S  S20  1  0.12500000  0.75000000  0.37500000  1
  S  S21  1  0.87500000  0.25000000  0.62500000  1
  O  O22  1  0.35700274  0.78043373  0.89999263  1
  O  O23  1  0.06706077  0.87541673  0.43352530  1
  O  O24  1  0.36471831  0.95138693  0.63325912  1
  O  O25  1  0.13325912  0.45138693  0.86471831  1
  O  O26  1  0.68389376  0.95138693  0.91535395  1
  O  O27  1  0.30749760  0.55545288  0.85640625  1
  O  O28  1  0.05752250  0.87541673  0.19105797  1
  O  O29  1  0.06647470  0.62458327  0.43293923  1
  O  O30  1  0.41185913  0.94454712  0.36294948  1
  O  O31  1  0.58464605  0.54861307  0.81610624  1
  O  O32  1  0.39999263  0.28043373  0.85700274  1
  O  O33  1  0.30894203  0.62458327  0.44247750  1
  O  O34  1  0.86256453  0.78043373  0.81957364  1
  O  O35  1  0.68042636  0.71956627  0.63743547  1
  O  O36  1  0.35640625  0.05545288  0.80749760  1
  O  O37  1  0.13705052  0.55545288  0.08814087  1
  O  O38  1  0.86294948  0.44454712  0.91185913  1
  O  O39  1  0.64359375  0.94454712  0.19250240  1
  O  O40  1  0.31957364  0.28043373  0.36256453  1
  O  O41  1  0.13743547  0.21956627  0.18042636  1
  O  O42  1  0.69105797  0.37541673  0.55752250  1
  O  O43  1  0.60000737  0.71956627  0.14299726  1
  O  O44  1  0.41535395  0.45138693  0.18389376  1
  O  O45  1  0.58814087  0.05545288  0.63705052  1
  O  O46  1  0.93352530  0.37541673  0.56706077  1
  O  O47  1  0.94247750  0.12458327  0.80894203  1
  O  O48  1  0.69250240  0.44454712  0.14359375  1
  O  O49  1  0.31610624  0.04861307  0.08464605  1
  O  O50  1  0.86674088  0.54861307  0.13528169  1
  O  O51  1  0.63528169  0.04861307  0.36674088  1
  O  O52  1  0.93293923  0.12458327  0.56647470  1
  O  O53  1  0.64299726  0.21956627  0.10000737  1
