# generated using pymatgen
data_Li3NbS4
_symmetry_space_group_name_H-M   'P 1'
_cell_length_a   13.83108646
_cell_length_b   7.57606134
_cell_length_c   13.31386022
_cell_angle_alpha   73.46996839
_cell_angle_beta   85.53079866
_cell_angle_gamma   74.10483479
_symmetry_Int_Tables_number   1
_chemical_formula_structural   Li3NbS4
_chemical_formula_sum   'Li24 Nb8 S32'
_cell_volume   1286.29905440
_cell_formula_units_Z   8
loop_
 _symmetry_equiv_pos_site_id
 _symmetry_equiv_pos_as_xyz
  1  'x, y, z'
loop_
 _atom_site_type_symbol
 _atom_site_label
 _atom_site_symmetry_multiplicity
 _atom_site_fract_x
 _atom_site_fract_y
 _atom_site_fract_z
 _atom_site_occupancy
  Li  Li0  1  0.00000000  0.99315646  0.00000000  1
  Li  Li1  1  0.00000000  0.47927733  0.00000000  1
  Li  Li2  1  0.49156632  0.77370838  0.99840645  1
  Li  Li3  1  0.75301857  0.32856961  0.05026123  1
  Li  Li4  1  0.27834448  0.16427460  0.18904772  1
  Li  Li5  1  0.68518069  0.72224567  0.22478848  1
  Li  Li6  1  0.94248360  0.63117540  0.24296014  1
  Li  Li7  1  0.44248360  0.62413554  0.25703986  1
  Li  Li8  1  0.18518069  0.69703315  0.27521152  1
  Li  Li9  1  0.77834448  0.10332232  0.31095228  1
  Li  Li10  1  0.25301857  0.12883084  0.44973877  1
  Li  Li11  1  0.99156632  0.52211482  0.50159355  1
  Li  Li12  1  0.50000000  0.74315646  0.50000000  1
  Li  Li13  1  0.50000000  0.22927733  0.50000000  1
  Li  Li14  1  0.00843368  0.01527470  0.49840645  1
  Li  Li15  1  0.74698143  0.83158818  0.55026123  1
  Li  Li16  1  0.22165552  0.19261908  0.68904772  1
  Li  Li17  1  0.81481931  0.15742636  0.72478848  1
  Li  Li18  1  0.55751640  0.32365900  0.74296014  1
  Li  Li19  1  0.05751640  0.81662014  0.75703986  1
  Li  Li20  1  0.31481931  0.63221384  0.77521152  1
  Li  Li21  1  0.72165552  0.63166580  0.81095228  1
  Li  Li22  1  0.24698143  0.13184941  0.94973877  1
  Li  Li23  1  0.50843368  0.26368114  0.00159355  1
  Nb  Nb24  1  0.23040858  0.67643171  0.01965855  1
  Nb  Nb25  1  0.01225787  0.16915231  0.24440679  1
  Nb  Nb26  1  0.51225787  0.16355810  0.25559321  1
  Nb  Nb27  1  0.73040858  0.44609025  0.48034145  1
  Nb  Nb28  1  0.26959142  0.65684028  0.51965855  1
  Nb  Nb29  1  0.48774213  0.93140918  0.74440679  1
  Nb  Nb30  1  0.98774213  0.42581596  0.75559321  1
  Nb  Nb31  1  0.76959142  0.92649883  0.98034145  1
  S  S32  1  0.68312611  0.70359584  0.99544981  1
  S  S33  1  0.32735969  0.79284820  0.10133160  1
  S  S34  1  0.08667366  0.64909489  0.11351792  1
  S  S35  1  0.10964270  0.14786836  0.09850432  1
  S  S36  1  0.81103439  0.94255085  0.14112287  1
  S  S37  1  0.57623891  0.39363486  0.14391637  1
  S  S38  1  0.50288432  0.95954731  0.16126268  1
  S  S39  1  0.85795943  0.37744345  0.19053512  1
  S  S40  1  0.35795943  0.31797857  0.30946488  1
  S  S41  1  0.00288432  0.87080899  0.33873732  1
  S  S42  1  0.07623891  0.28755124  0.35608363  1
  S  S43  1  0.31103439  0.83367371  0.35887713  1
  S  S44  1  0.60964270  0.99637268  0.40149568  1
  S  S45  1  0.58667366  0.51261280  0.38648208  1
  S  S46  1  0.82735969  0.64417980  0.39866840  1
  S  S47  1  0.18312611  0.44904565  0.50455019  1
  S  S48  1  0.81687389  0.13672296  0.49544981  1
  S  S49  1  0.17264031  0.87020789  0.60133160  1
  S  S50  1  0.41332634  0.48576855  0.61351792  1
  S  S51  1  0.39035730  0.00751106  0.59850432  1
  S  S52  1  0.68896561  0.50358624  0.64112287  1
  S  S53  1  0.92376109  0.71987277  0.64391637  1
  S  S54  1  0.99711568  0.21243063  0.66126268  1
  S  S55  1  0.64204057  0.98540288  0.69053512  1
  S  S56  1  0.14204057  0.42593800  0.80946488  1
  S  S57  1  0.49711568  0.62369331  0.83873732  1
  S  S58  1  0.42376109  0.11379014  0.85608363  1
  S  S59  1  0.18896561  0.89470810  0.85887713  1
  S  S60  1  0.89035730  0.35601538  0.90149568  1
  S  S61  1  0.91332634  0.84928646  0.88648208  1
  S  S62  1  0.67264031  0.22153849  0.89866840  1
  S  S63  1  0.31687389  0.38217276  0.00455019  1
