# generated using pymatgen
data_BaYCl5
_symmetry_space_group_name_H-M   'P 1'
_cell_length_a   7.21699308
_cell_length_b   24.05442616
_cell_length_c   9.90242527
_cell_angle_alpha   90.00000000
_cell_angle_beta   93.02948387
_cell_angle_gamma   90.00000000
_symmetry_Int_Tables_number   1
_chemical_formula_structural   BaYCl5
_chemical_formula_sum   'Ba8 Y8 Cl40'
_cell_volume   1716.66479061
_cell_formula_units_Z   8
loop_
 _symmetry_equiv_pos_site_id
 _symmetry_equiv_pos_as_xyz
  1  'x, y, z'
loop_
 _atom_site_type_symbol
 _atom_site_label
 _atom_site_symmetry_multiplicity
 _atom_site_fract_x
 _atom_site_fract_y
 _atom_site_fract_z
 _atom_site_occupancy
  Ba  Ba0  1  0.15126154  0.54269737  0.75619266  1
  Ba  Ba1  1  0.31723292  0.26608562  0.49201285  1
  Ba  Ba2  1  0.34873846  0.04269737  0.74380734  1
  Ba  Ba3  1  0.18276708  0.76608562  0.00798715  1
  Ba  Ba4  1  0.81723292  0.23391438  0.99201285  1
  Ba  Ba5  1  0.65126154  0.95730263  0.25619266  1
  Ba  Ba6  1  0.68276708  0.73391438  0.50798715  1
  Ba  Ba7  1  0.84873846  0.45730263  0.24380734  1
  Y  Y8  1  0.26366672  0.37041263  0.96408214  1
  Y  Y9  1  0.23633328  0.87041263  0.53591786  1
  Y  Y10  1  0.22775922  0.10696229  0.13281201  1
  Y  Y11  1  0.27224078  0.60696229  0.36718799  1
  Y  Y12  1  0.72775922  0.39303771  0.63281201  1
  Y  Y13  1  0.77224078  0.89303771  0.86718799  1
  Y  Y14  1  0.76366672  0.12958737  0.46408214  1
  Y  Y15  1  0.73633328  0.62958737  0.03591786  1
  Cl  Cl16  1  0.03304854  0.11996688  0.90427663  1
  Cl  Cl17  1  0.01960155  0.36387967  0.50552303  1
  Cl  Cl18  1  0.08205754  0.16123425  0.56992048  1
  Cl  Cl19  1  0.10009152  0.92070684  0.75660942  1
  Cl  Cl20  1  0.06778812  0.58898704  0.14075784  1
  Cl  Cl21  1  0.05701302  0.34563146  0.16546209  1
  Cl  Cl22  1  0.17634394  0.27626817  0.83829981  1
  Cl  Cl23  1  0.15770206  0.20995966  0.20707070  1
  Cl  Cl24  1  0.22234116  0.97232545  0.44368100  1
  Cl  Cl25  1  0.21318168  0.50369265  0.43504320  1
  Cl  Cl26  1  0.32365606  0.77626817  0.66170019  1
  Cl  Cl27  1  0.28681832  0.00369265  0.06495680  1
  Cl  Cl28  1  0.27765884  0.47232545  0.05631900  1
  Cl  Cl29  1  0.34229794  0.70995966  0.29292930  1
  Cl  Cl30  1  0.39990848  0.42070684  0.74339058  1
  Cl  Cl31  1  0.41794246  0.66123425  0.93007952  1
  Cl  Cl32  1  0.44298698  0.84563146  0.33453791  1
  Cl  Cl33  1  0.43221188  0.08898704  0.35924216  1
  Cl  Cl34  1  0.48039845  0.86387967  0.99447697  1
  Cl  Cl35  1  0.46695046  0.61996688  0.59572337  1
  Cl  Cl36  1  0.53304954  0.38003312  0.40427663  1
  Cl  Cl37  1  0.51960155  0.13612033  0.00552303  1
  Cl  Cl38  1  0.56778812  0.91101296  0.64075784  1
  Cl  Cl39  1  0.55701302  0.15436854  0.66546209  1
  Cl  Cl40  1  0.58205754  0.33876575  0.06992048  1
  Cl  Cl41  1  0.60009152  0.57929316  0.25660942  1
  Cl  Cl42  1  0.65770206  0.29004034  0.70707070  1
  Cl  Cl43  1  0.72234116  0.52767455  0.94368100  1
  Cl  Cl44  1  0.71318168  0.99630735  0.93504320  1
  Cl  Cl45  1  0.67634394  0.22373183  0.33829981  1
  Cl  Cl46  1  0.78681832  0.49630735  0.56495680  1
  Cl  Cl47  1  0.77765884  0.02767455  0.55631900  1
  Cl  Cl48  1  0.84229794  0.79004034  0.79292930  1
  Cl  Cl49  1  0.82365606  0.72373183  0.16170019  1
  Cl  Cl50  1  0.94298698  0.65436854  0.83453791  1
  Cl  Cl51  1  0.93221188  0.41101296  0.85924216  1
  Cl  Cl52  1  0.89990848  0.07929316  0.24339058  1
  Cl  Cl53  1  0.91794246  0.83876575  0.43007952  1
  Cl  Cl54  1  0.98039845  0.63612033  0.49447697  1
  Cl  Cl55  1  0.96695046  0.88003312  0.09572337  1
