# generated using pymatgen
data_LiMnBO3
_symmetry_space_group_name_H-M   'P 1'
_cell_length_a   8.37511673
_cell_length_b   8.37499337
_cell_length_c   3.20983339
_cell_angle_alpha   90.00000000
_cell_angle_beta   90.00000000
_cell_angle_gamma   120.00180344
_symmetry_Int_Tables_number   1
_chemical_formula_structural   LiMnBO3
_chemical_formula_sum   'Li3 Mn3 B3 O9'
_cell_volume   194.97573680
_cell_formula_units_Z   3
loop_
 _symmetry_equiv_pos_site_id
 _symmetry_equiv_pos_as_xyz
  1  'x, y, z'
loop_
 _atom_site_type_symbol
 _atom_site_label
 _atom_site_symmetry_multiplicity
 _atom_site_fract_x
 _atom_site_fract_y
 _atom_site_fract_z
 _atom_site_occupancy
  Li  Li0  1  0.37677225  0.36091627  0.00000000  1
  Li  Li1  1  0.63907976  0.01586405  0.00000000  1
  Li  Li2  1  0.98414847  0.62322898  0.00000000  1
  Mn  Mn3  1  0.29605627  0.98145710  0.50000000  1
  Mn  Mn4  1  0.01853125  0.31460883  0.50000000  1
  Mn  Mn5  1  0.68540740  0.70391124  0.50000000  1
  B  B6  1  0.33327020  0.66679004  0.50000000  1
  B  B7  1  0.00001426  0.99999721  0.00000000  1
  B  B8  1  0.66669404  0.33328560  0.50000000  1
  O  O9  1  0.10355782  0.91185283  0.00000000  1
  O  O10  1  0.14439193  0.59805664  0.50000000  1
  O  O11  1  0.08815819  0.19172646  0.00000000  1
  O  O12  1  0.45366501  0.85560458  0.50000000  1
  O  O13  1  0.40199043  0.54623264  0.50000000  1
  O  O14  1  0.47560976  0.25804475  0.50000000  1
  O  O15  1  0.80825915  0.89641127  0.00000000  1
  O  O16  1  0.78243090  0.52440896  0.50000000  1
  O  O17  1  0.74196289  0.21760255  0.50000000  1
