# generated using pymatgen
data_Li6Sn2B4SO16
_symmetry_space_group_name_H-M   'P 1'
_cell_length_a   9.56676786
_cell_length_b   9.56676735
_cell_length_c   9.56676739
_cell_angle_alpha   59.99999897
_cell_angle_beta   59.99999837
_cell_angle_gamma   59.99999824
_symmetry_Int_Tables_number   1
_chemical_formula_structural   Li6Sn2B4SO16
_chemical_formula_sum   'Li12 Sn4 B8 S2 O32'
_cell_volume   619.12829245
_cell_formula_units_Z   2
loop_
 _symmetry_equiv_pos_site_id
 _symmetry_equiv_pos_as_xyz
  1  'x, y, z'
loop_
 _atom_site_type_symbol
 _atom_site_label
 _atom_site_symmetry_multiplicity
 _atom_site_fract_x
 _atom_site_fract_y
 _atom_site_fract_z
 _atom_site_occupancy
  Li  Li0  1  0.09159935  0.65840065  0.09159935  1
  Li  Li1  1  0.09159935  0.09159935  0.65840065  1
  Li  Li2  1  0.09159935  0.65840065  0.65840065  1
  Li  Li3  1  0.65840065  0.09159935  0.09159935  1
  Li  Li4  1  0.34159935  0.90840065  0.34159935  1
  Li  Li5  1  0.34159935  0.34159935  0.90840065  1
  Li  Li6  1  0.65840065  0.65840065  0.09159935  1
  Li  Li7  1  0.65840065  0.09159935  0.65840065  1
  Li  Li8  1  0.34159935  0.90840065  0.90840065  1
  Li  Li9  1  0.90840065  0.34159935  0.34159935  1
  Li  Li10  1  0.90840065  0.34159935  0.90840065  1
  Li  Li11  1  0.90840065  0.90840065  0.34159935  1
  Sn  Sn12  1  0.00000000  0.50000000  0.50000000  1
  Sn  Sn13  1  0.50000000  0.00000000  0.50000000  1
  Sn  Sn14  1  0.50000000  0.50000000  0.00000000  1
  Sn  Sn15  1  0.50000000  0.50000000  0.50000000  1
  B  B16  1  0.27812319  0.27812319  0.27812319  1
  B  B17  1  0.27812319  0.27812319  0.66563142  1
  B  B18  1  0.27812319  0.66563142  0.27812319  1
  B  B19  1  0.66563142  0.27812319  0.27812319  1
  B  B20  1  0.33436858  0.72187681  0.72187681  1
  B  B21  1  0.72187681  0.33436858  0.72187681  1
  B  B22  1  0.72187681  0.72187681  0.33436858  1
  B  B23  1  0.72187681  0.72187681  0.72187681  1
  S  S24  1  0.12500000  0.12500000  0.12500000  1
  S  S25  1  0.87500000  0.87500000  0.87500000  1
  O  O26  1  0.06103986  0.06103986  0.06103986  1
  O  O27  1  0.06103986  0.31688141  0.06103986  1
  O  O28  1  0.06103986  0.06103986  0.31688141  1
  O  O29  1  0.31688141  0.06103986  0.06103986  1
  O  O30  1  0.12904412  0.41788756  0.28773064  1
  O  O31  1  0.28773064  0.12904412  0.41788756  1
  O  O32  1  0.12904412  0.28773064  0.66533768  1
  O  O33  1  0.41788756  0.28773064  0.12904412  1
  O  O34  1  0.12904412  0.66533768  0.41788756  1
  O  O35  1  0.28773064  0.66533768  0.12904412  1
  O  O36  1  0.41788756  0.12904412  0.66533768  1
  O  O37  1  0.28773064  0.41788756  0.66533768  1
  O  O38  1  0.66533768  0.12904412  0.28773064  1
  O  O39  1  0.41788756  0.66533768  0.28773064  1
  O  O40  1  0.66533768  0.41788756  0.12904412  1
  O  O41  1  0.33466232  0.71226936  0.58211244  1
  O  O42  1  0.66533768  0.28773064  0.41788756  1
  O  O43  1  0.33466232  0.58211244  0.87095588  1
  O  O44  1  0.58211244  0.33466232  0.71226936  1
  O  O45  1  0.33466232  0.87095588  0.71226936  1
  O  O46  1  0.71226936  0.58211244  0.33466232  1
  O  O47  1  0.58211244  0.87095588  0.33466232  1
  O  O48  1  0.71226936  0.33466232  0.87095588  1
  O  O49  1  0.87095588  0.33466232  0.58211244  1
  O  O50  1  0.58211244  0.71226936  0.87095588  1
  O  O51  1  0.87095588  0.71226936  0.33466232  1
  O  O52  1  0.71226936  0.87095588  0.58211244  1
  O  O53  1  0.87095588  0.58211244  0.71226936  1
  O  O54  1  0.68311859  0.93896014  0.93896014  1
  O  O55  1  0.93896014  0.68311859  0.93896014  1
  O  O56  1  0.93896014  0.93896014  0.68311859  1
  O  O57  1  0.93896014  0.93896014  0.93896014  1
