# generated using pymatgen
data_LiCuPO4
_symmetry_space_group_name_H-M   'P 1'
_cell_length_a   4.87860255
_cell_length_b   4.87857243
_cell_length_c   16.38515711
_cell_angle_alpha   89.80342777
_cell_angle_beta   90.19720060
_cell_angle_gamma   88.37242203
_symmetry_Int_Tables_number   1
_chemical_formula_structural   LiCuPO4
_chemical_formula_sum   'Li4 Cu4 P4 O16'
_cell_volume   389.81476097
_cell_formula_units_Z   4
loop_
 _symmetry_equiv_pos_site_id
 _symmetry_equiv_pos_as_xyz
  1  'x, y, z'
loop_
 _atom_site_type_symbol
 _atom_site_label
 _atom_site_symmetry_multiplicity
 _atom_site_fract_x
 _atom_site_fract_y
 _atom_site_fract_z
 _atom_site_occupancy
  Li  Li0  1  0.61125874  0.83740703  0.93738297  1
  Li  Li1  1  0.83740694  0.61125848  0.56261727  1
  Li  Li2  1  0.16259306  0.38874152  0.43738273  1
  Li  Li3  1  0.38874126  0.16259297  0.06261703  1
  Cu  Cu4  1  0.33502278  0.83430111  0.75029568  1
  Cu  Cu5  1  0.16569512  0.66497992  0.25029609  1
  Cu  Cu6  1  0.83430488  0.33502008  0.74970391  1
  Cu  Cu7  1  0.66497722  0.16569889  0.24970432  1
  P  P8  1  0.31111424  0.35442899  0.63571584  1
  P  P9  1  0.35443002  0.31111480  0.86428413  1
  P  P10  1  0.64556998  0.68888520  0.13571587  1
  P  P11  1  0.68888576  0.64557101  0.36428416  1
  O  O12  1  0.13434907  0.53440486  0.69983693  1
  O  O13  1  0.46559443  0.86565080  0.19983706  1
  O  O14  1  0.04932333  0.25453266  0.84714613  1
  O  O15  1  0.43184172  0.61683286  0.85029779  1
  O  O16  1  0.21486810  0.43637830  0.55103474  1
  O  O17  1  0.74546719  0.95067939  0.34714701  1
  O  O18  1  0.38316879  0.56815815  0.35029752  1
  O  O19  1  0.56362285  0.78513207  0.05103481  1
  O  O20  1  0.43637715  0.21486793  0.94896519  1
  O  O21  1  0.61683121  0.43184185  0.64970248  1
  O  O22  1  0.25453281  0.04932061  0.65285299  1
  O  O23  1  0.78513190  0.56362170  0.44896526  1
  O  O24  1  0.56815828  0.38316714  0.14970221  1
  O  O25  1  0.95067667  0.74546734  0.15285387  1
  O  O26  1  0.53440557  0.13434920  0.80016294  1
  O  O27  1  0.86565093  0.46559514  0.30016307  1
