# generated using pymatgen
data_LiVB2O5
_symmetry_space_group_name_H-M   'P 1'
_cell_length_a   12.09229869
_cell_length_b   5.48049529
_cell_length_c   10.84900651
_cell_angle_alpha   90.00000000
_cell_angle_beta   90.00000000
_cell_angle_gamma   79.14432018
_symmetry_Int_Tables_number   1
_chemical_formula_structural   LiVB2O5
_chemical_formula_sum   'Li8 V8 B16 O40'
_cell_volume   706.11661437
_cell_formula_units_Z   8
loop_
 _symmetry_equiv_pos_site_id
 _symmetry_equiv_pos_as_xyz
  1  'x, y, z'
loop_
 _atom_site_type_symbol
 _atom_site_label
 _atom_site_symmetry_multiplicity
 _atom_site_fract_x
 _atom_site_fract_y
 _atom_site_fract_z
 _atom_site_occupancy
  Li  Li0  1  0.05749185  0.36564005  0.37406003  1
  Li  Li1  1  0.05749185  0.86564005  0.12593997  1
  Li  Li2  1  0.44248753  0.12539668  0.88491147  1
  Li  Li3  1  0.44248753  0.62539668  0.61508853  1
  Li  Li4  1  0.55751247  0.37460332  0.38491147  1
  Li  Li5  1  0.55751247  0.87460332  0.11508853  1
  Li  Li6  1  0.94250815  0.13435995  0.87406003  1
  Li  Li7  1  0.94250815  0.63435995  0.62593997  1
  V  V8  1  0.23899237  0.27324296  0.62396736  1
  V  V9  1  0.25838555  0.25557265  0.12582674  1
  V  V10  1  0.23899237  0.77324296  0.87603264  1
  V  V11  1  0.25838555  0.75557265  0.37417326  1
  V  V12  1  0.74161445  0.24442735  0.62582674  1
  V  V13  1  0.76100763  0.22675704  0.12396736  1
  V  V14  1  0.74161445  0.74442735  0.87417326  1
  V  V15  1  0.76100763  0.72675704  0.37603264  1
  B  B16  1  0.00444984  0.14130872  0.63025790  1
  B  B17  1  0.00444984  0.64130872  0.86974210  1
  B  B18  1  0.16820469  0.30791147  0.88117345  1
  B  B19  1  0.16820469  0.80791147  0.61882655  1
  B  B20  1  0.33317670  0.20647886  0.37231857  1
  B  B21  1  0.33317670  0.70647886  0.12768143  1
  B  B22  1  0.50900609  0.15364770  0.61314105  1
  B  B23  1  0.49099391  0.34635230  0.11314105  1
  B  B24  1  0.50900609  0.65364770  0.88685895  1
  B  B25  1  0.49099391  0.84635230  0.38685895  1
  B  B26  1  0.66682330  0.29352114  0.87231857  1
  B  B27  1  0.66682330  0.79352114  0.62768143  1
  B  B28  1  0.83179531  0.19208853  0.38117345  1
  B  B29  1  0.83179531  0.69208853  0.11882655  1
  B  B30  1  0.99555016  0.35869128  0.13025790  1
  B  B31  1  0.99555016  0.85869128  0.36974210  1
  O  O32  1  0.06610795  0.31984127  0.60687570  1
  O  O33  1  0.05208531  0.38455634  0.89043876  1
  O  O34  1  0.10103272  0.31112691  0.17884461  1
  O  O35  1  0.06610795  0.81984127  0.89312430  1
  O  O36  1  0.05208531  0.88455634  0.60956124  1
  O  O37  1  0.10103272  0.81112691  0.32115539  1
  O  O38  1  0.22110663  0.11329073  0.95262349  1
  O  O39  1  0.25713971  0.10788240  0.44382491  1
  O  O40  1  0.22788389  0.43525282  0.80363963  1
  O  O41  1  0.22110663  0.61329073  0.54737651  1
  O  O42  1  0.29568716  0.40915764  0.29865350  1
  O  O43  1  0.25713971  0.60788240  0.05617509  1
  O  O44  1  0.22788389  0.93525282  0.69636037  1
  O  O45  1  0.29568716  0.90915764  0.20134650  1
  O  O46  1  0.40133151  0.24639839  0.64725949  1
  O  O47  1  0.44913842  0.10631144  0.37137003  1
  O  O48  1  0.42210590  0.19287123  0.07184648  1
  O  O49  1  0.40133151  0.74639839  0.85274051  1
  O  O50  1  0.44913842  0.60631144  0.12862997  1
  O  O51  1  0.42210590  0.69287123  0.42815352  1
  O  O52  1  0.57789410  0.30712877  0.57184648  1
  O  O53  1  0.55086158  0.39368856  0.87137003  1
  O  O54  1  0.59866849  0.25360161  0.14725949  1
  O  O55  1  0.57789410  0.80712877  0.92815352  1
  O  O56  1  0.55086158  0.89368856  0.62862997  1
  O  O57  1  0.59866849  0.75360161  0.35274051  1
  O  O58  1  0.70431284  0.09084236  0.79865350  1
  O  O59  1  0.77211611  0.06474718  0.30363963  1
  O  O60  1  0.74286029  0.39211760  0.94382491  1
  O  O61  1  0.70431284  0.59084236  0.70134650  1
  O  O62  1  0.77889337  0.38670927  0.45262349  1
  O  O63  1  0.77211611  0.56474718  0.19636037  1
  O  O64  1  0.74286029  0.89211760  0.55617509  1
  O  O65  1  0.77889337  0.88670927  0.04737651  1
  O  O66  1  0.89896728  0.18887309  0.67884461  1
  O  O67  1  0.94791469  0.11544366  0.39043876  1
  O  O68  1  0.93389205  0.18015873  0.10687570  1
  O  O69  1  0.89896728  0.68887309  0.82115539  1
  O  O70  1  0.94791469  0.61544366  0.10956124  1
  O  O71  1  0.93389205  0.68015873  0.39312430  1
