# generated using pymatgen
data_CoPO4
_symmetry_space_group_name_H-M   'P 1'
_cell_length_a   9.25838744
_cell_length_b   5.73708442
_cell_length_c   6.43061815
_cell_angle_alpha   100.37796283
_cell_angle_beta   106.25024659
_cell_angle_gamma   79.01976055
_symmetry_Int_Tables_number   1
_chemical_formula_structural   CoPO4
_chemical_formula_sum   'Co4 P4 O16'
_cell_volume   318.99146497
_cell_formula_units_Z   4
loop_
 _symmetry_equiv_pos_site_id
 _symmetry_equiv_pos_as_xyz
  1  'x, y, z'
loop_
 _atom_site_type_symbol
 _atom_site_label
 _atom_site_symmetry_multiplicity
 _atom_site_fract_x
 _atom_site_fract_y
 _atom_site_fract_z
 _atom_site_occupancy
  Co  Co0  1  0.19473755  0.67180295  0.89868489  1
  Co  Co1  1  0.43795947  0.21006877  0.17413287  1
  Co  Co2  1  0.56204053  0.78993123  0.82586713  1
  Co  Co3  1  0.80526245  0.32819705  0.10131511  1
  P  P4  1  0.10558867  0.18358397  0.87581639  1
  P  P5  1  0.48664246  0.33164974  0.72293100  1
  P  P6  1  0.51335754  0.66835026  0.27706900  1
  P  P7  1  0.89441133  0.81641603  0.12418361  1
  O  O8  1  0.13780999  0.37054707  0.75582827  1
  O  O9  1  0.12003122  0.92929512  0.73823006  1
  O  O10  1  0.04851272  0.75037949  0.07454831  1
  O  O11  1  0.23797655  0.15703938  0.09081234  1
  O  O12  1  0.46009869  0.14155746  0.85123020  1
  O  O13  1  0.38943335  0.58275451  0.76806272  1
  O  O14  1  0.45635275  0.23872999  0.48375888  1
  O  O15  1  0.34823284  0.60649069  0.17701316  1
  O  O16  1  0.65176716  0.39350931  0.82298584  1
  O  O17  1  0.54364725  0.76127001  0.51624112  1
  O  O18  1  0.61056665  0.41724549  0.23193728  1
  O  O19  1  0.53990131  0.85844254  0.14876980  1
  O  O20  1  0.76202345  0.84296062  0.90918766  1
  O  O21  1  0.95148728  0.24962051  0.92545169  1
  O  O22  1  0.87996878  0.07070488  0.26176994  1
  O  O23  1  0.86219001  0.62945293  0.24417173  1
