# generated using pymatgen
data_Gd2TiO5
_symmetry_space_group_name_H-M   'P 1'
_cell_length_a   7.55168092
_cell_length_b   3.67862707
_cell_length_c   15.73896742
_cell_angle_alpha   90.00126505
_cell_angle_beta   90.00019837
_cell_angle_gamma   89.99999168
_symmetry_Int_Tables_number   1
_chemical_formula_structural   Gd2TiO5
_chemical_formula_sum   'Gd8 Ti4 O20'
_cell_volume   437.22564812
_cell_formula_units_Z   4
loop_
 _symmetry_equiv_pos_site_id
 _symmetry_equiv_pos_as_xyz
  1  'x, y, z'
loop_
 _atom_site_type_symbol
 _atom_site_label
 _atom_site_symmetry_multiplicity
 _atom_site_fract_x
 _atom_site_fract_y
 _atom_site_fract_z
 _atom_site_occupancy
  Gd  Gd0  1  0.11076099  0.24999728  0.08168413  1
  Gd  Gd1  1  0.15438051  0.25000908  0.73890130  1
  Gd  Gd2  1  0.34562081  0.74998240  0.23891522  1
  Gd  Gd3  1  0.38919504  0.75000731  0.58169536  1
  Gd  Gd4  1  0.61078420  0.24999788  0.41831035  1
  Gd  Gd5  1  0.65437299  0.25000843  0.76107693  1
  Gd  Gd6  1  0.84563643  0.75001007  0.26108420  1
  Gd  Gd7  1  0.88921752  0.75000319  0.91832479  1
  Ti  Ti8  1  0.11568684  0.24999467  0.42323942  1
  Ti  Ti9  1  0.38428584  0.75000022  0.92323691  1
  Ti  Ti10  1  0.61574225  0.24999927  0.07679172  1
  Ti  Ti11  1  0.88434372  0.74999582  0.57673152  1
  O  O12  1  0.07698561  0.74999141  0.17306828  1
  O  O13  1  0.07724075  0.75000342  0.45298453  1
  O  O14  1  0.11446421  0.75000526  0.64835586  1
  O  O15  1  0.16004775  0.75000125  0.99318000  1
  O  O16  1  0.24659398  0.24999259  0.32460579  1
  O  O17  1  0.25341721  0.75000283  0.82461096  1
  O  O18  1  0.33997772  0.25001012  0.49318001  1
  O  O19  1  0.38555278  0.24999130  0.14835063  1
  O  O20  1  0.42277219  0.24999806  0.95299182  1
  O  O21  1  0.42301849  0.25000647  0.67306892  1
  O  O22  1  0.57698619  0.74999686  0.32694138  1
  O  O23  1  0.57723221  0.74999984  0.04701337  1
  O  O24  1  0.61444891  0.75000124  0.85164202  1
  O  O25  1  0.66001980  0.74999289  0.50680786  1
  O  O26  1  0.74656329  0.25000762  0.17537952  1
  O  O27  1  0.75339499  0.74999921  0.67540969  1
  O  O28  1  0.83994836  0.24999627  0.00682386  1
  O  O29  1  0.88553826  0.25000161  0.35165065  1
  O  O30  1  0.92275806  0.24998863  0.54701195  1
  O  O31  1  0.92301208  0.25000750  0.82693002  1
