# generated using pymatgen
data_Mn2PO5
_symmetry_space_group_name_H-M   'P 1'
_cell_length_a   8.70570479
_cell_length_b   6.42874089
_cell_length_c   6.45080549
_cell_angle_alpha   90.00000000
_cell_angle_beta   103.08872725
_cell_angle_gamma   90.00000000
_symmetry_Int_Tables_number   1
_chemical_formula_structural   Mn2PO5
_chemical_formula_sum   'Mn8 P4 O20'
_cell_volume   351.65105206
_cell_formula_units_Z   4
loop_
 _symmetry_equiv_pos_site_id
 _symmetry_equiv_pos_as_xyz
  1  'x, y, z'
loop_
 _atom_site_type_symbol
 _atom_site_label
 _atom_site_symmetry_multiplicity
 _atom_site_fract_x
 _atom_site_fract_y
 _atom_site_fract_z
 _atom_site_occupancy
  Mn  Mn0  1  0.15460218  0.38164755  0.99017292  1
  Mn  Mn1  1  0.15460218  0.11835245  0.49017292  1
  Mn  Mn2  1  0.49106407  0.35319896  0.77952276  1
  Mn  Mn3  1  0.50893593  0.85319896  0.72047724  1
  Mn  Mn4  1  0.49106407  0.14680104  0.27952276  1
  Mn  Mn5  1  0.50893593  0.64680104  0.22047724  1
  Mn  Mn6  1  0.84539782  0.88164755  0.50982708  1
  Mn  Mn7  1  0.84539782  0.61835245  0.00982708  1
  P  P8  1  0.20903758  0.91116696  0.99428353  1
  P  P9  1  0.20903758  0.58883304  0.49428353  1
  P  P10  1  0.79096242  0.41116696  0.50571647  1
  P  P11  1  0.79096242  0.08883304  0.00571647  1
  O  O12  1  0.10518223  0.72115185  0.00518908  1
  O  O13  1  0.13482410  0.07380559  0.82523041  1
  O  O14  1  0.10518223  0.77884815  0.50518908  1
  O  O15  1  0.25370535  0.46329960  0.70957643  1
  O  O16  1  0.13482410  0.42619441  0.32523041  1
  O  O17  1  0.25370535  0.03670040  0.20957643  1
  O  O18  1  0.40362891  0.10861072  0.62081903  1
  O  O19  1  0.37517826  0.66379835  0.46446581  1
  O  O20  1  0.40362891  0.39138928  0.12081903  1
  O  O21  1  0.37517826  0.83620165  0.96446581  1
  O  O22  1  0.62482174  0.16379835  0.03553419  1
  O  O23  1  0.59637109  0.60861072  0.87918097  1
  O  O24  1  0.62482174  0.33620165  0.53553419  1
  O  O25  1  0.59637109  0.89138928  0.37918097  1
  O  O26  1  0.74629465  0.96329960  0.79042357  1
  O  O27  1  0.86517590  0.57380559  0.67476959  1
  O  O28  1  0.74629465  0.53670040  0.29042357  1
  O  O29  1  0.89481777  0.22115185  0.49481092  1
  O  O30  1  0.86517590  0.92619441  0.17476959  1
  O  O31  1  0.89481777  0.27884815  0.99481092  1
