# generated using pymatgen
data_Li4Ti2Cr3Co3O16
_symmetry_space_group_name_H-M   'P 1'
_cell_length_a   5.75011046
_cell_length_b   5.79475779
_cell_length_c   9.38243887
_cell_angle_alpha   90.08052035
_cell_angle_beta   89.03394835
_cell_angle_gamma   119.92825596
_symmetry_Int_Tables_number   1
_chemical_formula_structural   Li4Ti2Cr3Co3O16
_chemical_formula_sum   'Li4 Ti2 Cr3 Co3 O16'
_cell_volume   270.89153531
_cell_formula_units_Z   1
loop_
 _symmetry_equiv_pos_site_id
 _symmetry_equiv_pos_as_xyz
  1  'x, y, z'
loop_
 _atom_site_type_symbol
 _atom_site_label
 _atom_site_symmetry_multiplicity
 _atom_site_fract_x
 _atom_site_fract_y
 _atom_site_fract_z
 _atom_site_occupancy
  Li  Li0  1  0.33158054  0.66605054  0.88960111  1
  Li  Li1  1  0.99201943  0.99422197  0.99343075  1
  Li  Li2  1  0.99661418  0.99777189  0.49675228  1
  Li  Li3  1  0.66426482  0.33406455  0.39492681  1
  Ti  Ti4  1  0.34233518  0.66788400  0.49941963  1
  Ti  Ti5  1  0.67439990  0.33568969  0.99744129  1
  Cr  Cr6  1  0.16860263  0.82003602  0.22217942  1
  Cr  Cr7  1  0.17162017  0.34204681  0.21312490  1
  Cr  Cr8  1  0.34658775  0.17291479  0.72319708  1
  Co  Co9  1  0.65877319  0.82995936  0.21322049  1
  Co  Co10  1  0.82916632  0.65788431  0.71301698  1
  Co  Co11  1  0.82902048  0.17113109  0.71302747  1
  O  O12  1  0.16744556  0.83476482  0.59820160  1
  O  O13  1  0.03492858  0.52675613  0.34397280  1
  O  O14  1  0.33965973  0.68167460  0.10382136  1
  O  O15  1  0.99464199  0.98825050  0.30485029  1
  O  O16  1  0.99901782  0.99936924  0.80175130  1
  O  O17  1  0.16687344  0.33231706  0.59761138  1
  O  O18  1  0.48383981  0.96151535  0.33937811  1
  O  O19  1  0.48754315  0.52943804  0.33976447  1
  O  O20  1  0.33209308  0.16200082  0.09438896  1
  O  O21  1  0.66662185  0.83383867  0.60095406  1
  O  O22  1  0.51945454  0.48016369  0.83942357  1
  O  O23  1  0.51987870  0.03959070  0.83938060  1
  O  O24  1  0.66579617  0.33314239  0.60839996  1
  O  O25  1  0.83196962  0.66566795  0.09809912  1
  O  O26  1  0.95573551  0.47775294  0.83274055  1
  O  O27  1  0.82951686  0.16440006  0.09576261  1
