# generated using pymatgen
data_LaBiO4
_symmetry_space_group_name_H-M   'P 1'
_cell_length_a   7.76902884
_cell_length_b   7.36045098
_cell_length_c   7.58485016
_cell_angle_alpha   90.00000000
_cell_angle_beta   118.38263833
_cell_angle_gamma   90.00000000
_symmetry_Int_Tables_number   1
_chemical_formula_structural   LaBiO4
_chemical_formula_sum   'La4 Bi4 O16'
_cell_volume   381.59132764
_cell_formula_units_Z   4
loop_
 _symmetry_equiv_pos_site_id
 _symmetry_equiv_pos_as_xyz
  1  'x, y, z'
loop_
 _atom_site_type_symbol
 _atom_site_label
 _atom_site_symmetry_multiplicity
 _atom_site_fract_x
 _atom_site_fract_y
 _atom_site_fract_z
 _atom_site_occupancy
  La  La0  1  0.22486278  0.65673114  0.36362739  1
  La  La1  1  0.27513722  0.15673114  0.13637261  1
  La  La2  1  0.72486278  0.84326886  0.86362739  1
  La  La3  1  0.77513722  0.34326886  0.63637261  1
  Bi  Bi4  1  0.23135648  0.69336324  0.90325684  1
  Bi  Bi5  1  0.26864352  0.19336324  0.59674316  1
  Bi  Bi6  1  0.73135648  0.80663676  0.40325684  1
  Bi  Bi7  1  0.76864352  0.30663676  0.09674316  1
  O  O8  1  0.14153834  0.24907678  0.77213696  1
  O  O9  1  0.04180726  0.36962396  0.35221520  1
  O  O10  1  0.22343395  0.98932741  0.39744941  1
  O  O11  1  0.08204716  0.83737890  0.02218607  1
  O  O12  1  0.35846166  0.74907678  0.72786304  1
  O  O13  1  0.41795284  0.33737890  0.47781393  1
  O  O14  1  0.27656605  0.48932741  0.10255059  1
  O  O15  1  0.54180726  0.13037604  0.85221520  1
  O  O16  1  0.45819274  0.86962396  0.14778480  1
  O  O17  1  0.72343395  0.51067259  0.89744941  1
  O  O18  1  0.58204716  0.66262110  0.52218607  1
  O  O19  1  0.64153834  0.25092322  0.27213696  1
  O  O20  1  0.91795284  0.16262110  0.97781393  1
  O  O21  1  0.77656605  0.01067259  0.60255059  1
  O  O22  1  0.95819274  0.63037604  0.64778480  1
  O  O23  1  0.85846166  0.75092322  0.22786304  1
