# generated using pymatgen
data_Fe5Ni(PO4)6
_symmetry_space_group_name_H-M   'P 1'
_cell_length_a   8.42649349
_cell_length_b   8.68227915
_cell_length_c   8.68227966
_cell_angle_alpha   59.99999789
_cell_angle_beta   58.99068586
_cell_angle_gamma   58.99067891
_symmetry_Int_Tables_number   1
_chemical_formula_structural   Fe5Ni(PO4)6
_chemical_formula_sum   'Fe5 Ni1 P6 O24'
_cell_volume   442.18356793
_cell_formula_units_Z   1
loop_
 _symmetry_equiv_pos_site_id
 _symmetry_equiv_pos_as_xyz
  1  'x, y, z'
loop_
 _atom_site_type_symbol
 _atom_site_label
 _atom_site_symmetry_multiplicity
 _atom_site_fract_x
 _atom_site_fract_y
 _atom_site_fract_z
 _atom_site_occupancy
  Fe  Fe0  1  0.99448293  0.00183936  0.00183936  1
  Fe  Fe1  1  0.06001310  0.64666230  0.64666230  1
  Fe  Fe2  1  0.49919468  0.50026844  0.50026844  1
  Fe  Fe3  1  0.43642466  0.85452511  0.85452511  1
  Fe  Fe4  1  0.94092043  0.35302619  0.35302619  1
  Ni  Ni5  1  0.56906209  0.14364597  0.14364597  1
  P  P6  1  0.25185324  0.24947710  0.54654496  1
  P  P7  1  0.25185324  0.95212470  0.24947710  1
  P  P8  1  0.25185324  0.54654496  0.95212470  1
  P  P9  1  0.74928301  0.45206569  0.04793923  1
  P  P10  1  0.74928301  0.04793923  0.75071307  1
  P  P11  1  0.74928301  0.75071307  0.45206569  1
  O  O12  1  0.06514427  0.10722425  0.32337178  1
  O  O13  1  0.06514427  0.50425871  0.10722425  1
  O  O14  1  0.06514427  0.32337178  0.50425871  1
  O  O15  1  0.21434265  0.09678053  0.75090039  1
  O  O16  1  0.43868032  0.17966419  0.39341024  1
  O  O17  1  0.28167845  0.40460393  0.56557009  1
  O  O18  1  0.21434265  0.93797542  0.09678053  1
  O  O19  1  0.28167845  0.74814753  0.40460393  1
  O  O20  1  0.56382811  0.60725900  0.00407061  1
  O  O21  1  0.28167845  0.56557009  0.74814753  1
  O  O22  1  0.78623882  0.25040023  0.06117078  1
  O  O23  1  0.56382811  0.00407061  0.82484228  1
  O  O24  1  0.43868032  0.98824525  0.17966419  1
  O  O25  1  0.21434265  0.75090039  0.93797542  1
  O  O26  1  0.71476894  0.43943472  0.25040234  1
  O  O27  1  0.43868032  0.39341024  0.98824525  1
  O  O28  1  0.71476894  0.25040234  0.59539400  1
  O  O29  1  0.78623882  0.06117078  0.90218917  1
  O  O30  1  0.71476894  0.59539400  0.43943472  1
  O  O31  1  0.56382811  0.82484228  0.60725900  1
  O  O32  1  0.78623882  0.90218917  0.25040023  1
  O  O33  1  0.93414756  0.67486257  0.49753074  1
  O  O34  1  0.93414756  0.49753074  0.89345913  1
  O  O35  1  0.93414756  0.89345913  0.67486257  1
