# generated using pymatgen
data_Ca2In2O5
_symmetry_space_group_name_H-M   'P 1'
_cell_length_a   5.89627383
_cell_length_b   15.16024076
_cell_length_c   5.91809792
_cell_angle_alpha   90.01458761
_cell_angle_beta   90.00343256
_cell_angle_gamma   89.99144419
_symmetry_Int_Tables_number   1
_chemical_formula_structural   Ca2In2O5
_chemical_formula_sum   'Ca8 In8 O20'
_cell_volume   529.01242154
_cell_formula_units_Z   4
loop_
 _symmetry_equiv_pos_site_id
 _symmetry_equiv_pos_as_xyz
  1  'x, y, z'
loop_
 _atom_site_type_symbol
 _atom_site_label
 _atom_site_symmetry_multiplicity
 _atom_site_fract_x
 _atom_site_fract_y
 _atom_site_fract_z
 _atom_site_occupancy
  Ca  Ca0  1  0.01942978  0.11156057  0.44180097  1
  Ca  Ca1  1  0.01944699  0.38843964  0.44174594  1
  Ca  Ca2  1  0.48057925  0.11154055  0.94181703  1
  Ca  Ca3  1  0.48057341  0.38848905  0.94174779  1
  Ca  Ca4  1  0.51946773  0.61154104  0.05827133  1
  Ca  Ca5  1  0.51945157  0.88846746  0.05824642  1
  Ca  Ca6  1  0.98052318  0.61155730  0.55826360  1
  Ca  Ca7  1  0.98046958  0.88845341  0.55823334  1
  In  In8  1  0.00006033  -0.00001344  0.00000174  1
  In  In9  1  0.00008712  0.50001267  -0.00001875  1
  In  In10  1  0.04759687  0.74997418  0.07041288  1
  In  In11  1  0.45248732  0.75006699  0.57056719  1
  In  In12  1  0.49997906  0.00004260  0.49995942  1
  In  In13  1  0.49998076  0.49999087  0.50001952  1
  In  In14  1  0.54774669  0.24989483  0.42949325  1
  In  In15  1  0.95240108  0.25000169  0.92946195  1
  O  O16  1  0.11301891  0.14016792  0.05956410  1
  O  O17  1  0.11304736  0.35981027  0.05945115  1
  O  O18  1  0.11805408  0.74995602  0.42456166  1
  O  O19  1  0.19388635  0.53032657  0.30255215  1
  O  O20  1  0.19389112  0.96970625  0.30254496  1
  O  O21  1  0.30609518  0.53031242  0.80259867  1
  O  O22  1  0.30602631  0.96969257  0.80253686  1
  O  O23  1  0.38188260  0.74997569  0.92434932  1
  O  O24  1  0.38678058  0.14016960  0.55948611  1
  O  O25  1  0.38673682  0.35984187  0.55948470  1
  O  O26  1  0.61308581  0.64017426  0.44039501  1
  O  O27  1  0.61316978  0.85983174  0.44045723  1
  O  O28  1  0.61820415  0.25000860  0.07561184  1
  O  O29  1  0.69387970  0.03030617  0.19743431  1
  O  O30  1  0.69396550  0.46968197  0.19745220  1
  O  O31  1  0.80614165  0.46969380  0.69749124  1
  O  O32  1  0.80612486  0.03032914  0.69744182  1
  O  O33  1  0.88193610  0.24998445  0.57566585  1
  O  O34  1  0.88691152  0.64019065  0.94051954  1
  O  O35  1  0.88688089  0.85982066  0.94037770  1
