# generated using pymatgen
data_Li4Mn3Co3(CuO8)2
_symmetry_space_group_name_H-M   'P 1'
_cell_length_a   5.73840456
_cell_length_b   5.73793717
_cell_length_c   9.54958030
_cell_angle_alpha   89.98399917
_cell_angle_beta   89.87924273
_cell_angle_gamma   119.94905430
_symmetry_Int_Tables_number   1
_chemical_formula_structural   Li4Mn3Co3(CuO8)2
_chemical_formula_sum   'Li4 Mn3 Co3 Cu2 O16'
_cell_volume   272.44767915
_cell_formula_units_Z   1
loop_
 _symmetry_equiv_pos_site_id
 _symmetry_equiv_pos_as_xyz
  1  'x, y, z'
loop_
 _atom_site_type_symbol
 _atom_site_label
 _atom_site_symmetry_multiplicity
 _atom_site_fract_x
 _atom_site_fract_y
 _atom_site_fract_z
 _atom_site_occupancy
  Li  Li0  1  0.32951755  0.66439008  0.89971850  1
  Li  Li1  1  0.00856850  0.00387897  0.99806213  1
  Li  Li2  1  0.01045043  0.00466826  0.49382560  1
  Li  Li3  1  0.66309876  0.33229358  0.39432996  1
  Mn  Mn4  1  0.66129138  0.83112429  0.21418515  1
  Mn  Mn5  1  0.83088761  0.66171793  0.71552533  1
  Mn  Mn6  1  0.83093477  0.16843858  0.71546142  1
  Co  Co7  1  0.16847694  0.83060886  0.21332119  1
  Co  Co8  1  0.16852153  0.33889285  0.21324383  1
  Co  Co9  1  0.33725498  0.16832380  0.71223236  1
  Cu  Cu10  1  0.33345216  0.66688305  0.48341502  1
  Cu  Cu11  1  0.66445063  0.33212304  0.99668053  1
  O  O12  1  0.16716129  0.84361553  0.60741503  1
  O  O13  1  0.03223934  0.51660987  0.32498822  1
  O  O14  1  0.33392314  0.66739270  0.10858651  1
  O  O15  1  0.99947365  0.00029558  0.30866524  1
  O  O16  1  0.00271951  0.00103563  0.81135952  1
  O  O17  1  0.16726039  0.32274423  0.60748237  1
  O  O18  1  0.47628904  0.96141797  0.33352143  1
  O  O19  1  0.47626759  0.51623140  0.33363219  1
  O  O20  1  0.31787123  0.15932387  0.10789714  1
  O  O21  1  0.68339342  0.84128939  0.60514620  1
  O  O22  1  0.51176262  0.47593188  0.83135581  1
  O  O23  1  0.51160820  0.03490132  0.83114714  1
  O  O24  1  0.66772275  0.33347493  0.60807156  1
  O  O25  1  0.84046997  0.68075019  0.10277009  1
  O  O26  1  0.96416783  0.48177544  0.83322600  1
  O  O27  1  0.84076580  0.16016476  0.10257355  1
