# generated using pymatgen
data_Li2BSeO4
_symmetry_space_group_name_H-M   'P 1'
_cell_length_a   7.44105054
_cell_length_b   5.05630008
_cell_length_c   10.83663632
_cell_angle_alpha   90.00000000
_cell_angle_beta   91.45495695
_cell_angle_gamma   90.00000000
_symmetry_Int_Tables_number   1
_chemical_formula_structural   Li2BSeO4
_chemical_formula_sum   'Li8 B4 Se4 O16'
_cell_volume   407.58815307
_cell_formula_units_Z   4
loop_
 _symmetry_equiv_pos_site_id
 _symmetry_equiv_pos_as_xyz
  1  'x, y, z'
loop_
 _atom_site_type_symbol
 _atom_site_label
 _atom_site_symmetry_multiplicity
 _atom_site_fract_x
 _atom_site_fract_y
 _atom_site_fract_z
 _atom_site_occupancy
  Li  Li0  1  0.10556503  0.34396930  0.78332195  1
  Li  Li1  1  0.10556503  0.15603070  0.28332195  1
  Li  Li2  1  0.18078242  0.16882899  0.55152713  1
  Li  Li3  1  0.18078242  0.33117101  0.05152713  1
  Li  Li4  1  0.81921758  0.66882899  0.94847287  1
  Li  Li5  1  0.81921758  0.83117101  0.44847287  1
  Li  Li6  1  0.89443497  0.84396930  0.71667805  1
  Li  Li7  1  0.89443497  0.65603070  0.21667805  1
  B  B8  1  0.15600194  0.84098003  0.91813362  1
  B  B9  1  0.15600194  0.65901997  0.41813362  1
  B  B10  1  0.84399806  0.34098003  0.58186638  1
  B  B11  1  0.84399806  0.15901997  0.08186638  1
  Se  Se12  1  0.55186836  0.12911380  0.90277836  1
  Se  Se13  1  0.44813164  0.62911380  0.59722164  1
  Se  Se14  1  0.55186836  0.37088620  0.40277836  1
  Se  Se15  1  0.44813164  0.87088620  0.09722164  1
  O  O16  1  0.03912229  0.68301975  0.85621024  1
  O  O17  1  0.03912229  0.81698025  0.35621024  1
  O  O18  1  0.18873112  0.10216649  0.90785400  1
  O  O19  1  0.18873112  0.39783351  0.40785400  1
  O  O20  1  0.26784312  0.80245170  0.51338093  1
  O  O21  1  0.34954547  0.37331233  0.66944685  1
  O  O22  1  0.26784312  0.69754830  0.01338093  1
  O  O23  1  0.34954547  0.12668767  0.16944685  1
  O  O24  1  0.65045453  0.87331233  0.83055315  1
  O  O25  1  0.73215688  0.30245170  0.98661907  1
  O  O26  1  0.65045453  0.62668767  0.33055315  1
  O  O27  1  0.73215688  0.19754830  0.48661907  1
  O  O28  1  0.81126888  0.60216649  0.59214600  1
  O  O29  1  0.81126888  0.89783351  0.09214600  1
  O  O30  1  0.96087771  0.18301975  0.64378976  1
  O  O31  1  0.96087771  0.31698025  0.14378976  1
