# generated using pymatgen
data_Li9Al(CoO4)2
_symmetry_space_group_name_H-M   'P 1'
_cell_length_a   15.93186883
_cell_length_b   6.38820751
_cell_length_c   7.57898251
_cell_angle_alpha   90.00001215
_cell_angle_beta   89.99827490
_cell_angle_gamma   90.00003825
_symmetry_Int_Tables_number   1
_chemical_formula_structural   Li9Al(CoO4)2
_chemical_formula_sum   'Li36 Al4 Co8 O32'
_cell_volume   771.35916122
_cell_formula_units_Z   4
loop_
 _symmetry_equiv_pos_site_id
 _symmetry_equiv_pos_as_xyz
  1  'x, y, z'
loop_
 _atom_site_type_symbol
 _atom_site_label
 _atom_site_symmetry_multiplicity
 _atom_site_fract_x
 _atom_site_fract_y
 _atom_site_fract_z
 _atom_site_occupancy
  Li  Li0  1  0.06912196  0.51835463  0.53393806  1
  Li  Li1  1  0.06912201  0.98164484  0.53393755  1
  Li  Li2  1  0.14142544  0.24999993  0.33813299  1
  Li  Li3  1  0.11996037  0.50883655  0.10087708  1
  Li  Li4  1  0.11996052  0.99116385  0.10087656  1
  Li  Li5  1  0.16146456  0.74999991  0.33040261  1
  Li  Li6  1  0.19405764  0.24999986  0.80490318  1
  Li  Li7  1  0.21140899  0.00929636  0.55069624  1
  Li  Li8  1  0.21140900  0.49070379  0.55069618  1
  Li  Li9  1  0.28857617  0.50932913  0.05069130  1
  Li  Li10  1  0.28857634  0.99067111  0.05069133  1
  Li  Li11  1  0.30592773  0.75000023  0.30488994  1
  Li  Li12  1  0.33853107  0.25000029  0.83038364  1
  Li  Li13  1  0.38004377  0.49117779  0.60087898  1
  Li  Li14  1  0.38004384  0.00882281  0.60087912  1
  Li  Li15  1  0.35858627  0.74999995  0.83814228  1
  Li  Li16  1  0.43086917  0.01835931  0.03394545  1
  Li  Li17  1  0.43086921  0.48164061  0.03394526  1
  Li  Li18  1  0.56910671  0.51835461  0.96605935  1
  Li  Li19  1  0.56910651  0.98164517  0.96605857  1
  Li  Li20  1  0.64139022  0.25000010  0.16183994  1
  Li  Li21  1  0.61996254  0.99117518  0.39911208  1
  Li  Li22  1  0.61996216  0.50882510  0.39911221  1
  Li  Li23  1  0.66146446  0.75000017  0.16958667  1
  Li  Li24  1  0.69407541  0.24999920  0.69511073  1
  Li  Li25  1  0.71141211  0.00931685  0.94931716  1
  Li  Li26  1  0.71141183  0.49068327  0.94931748  1
  Li  Li27  1  0.78858999  0.50935065  0.44933044  1
  Li  Li28  1  0.78858973  0.99064910  0.44933068  1
  Li  Li29  1  0.80593261  0.75000025  0.19513489  1
  Li  Li30  1  0.83854419  0.24999981  0.66959236  1
  Li  Li31  1  0.88005102  0.49121000  0.89912719  1
  Li  Li32  1  0.88005086  0.00879007  0.89912765  1
  Li  Li33  1  0.85860535  0.75000087  0.66181883  1
  Li  Li34  1  0.93089647  0.01832845  0.46605447  1
  Li  Li35  1  0.93089650  0.48167151  0.46605483  1
  Al  Al36  1  0.00475718  0.74999923  0.83935224  1
  Al  Al37  1  0.49525537  0.25000028  0.33935511  1
  Al  Al38  1  0.50471919  0.75000033  0.66064977  1
  Al  Al39  1  0.99527639  0.25000060  0.16065487  1
  Co  Co40  1  0.03300497  0.24999888  0.76825470  1
  Co  Co41  1  0.19841947  0.75000074  0.79645856  1
  Co  Co42  1  0.30158012  0.25000086  0.29646952  1
  Co  Co43  1  0.46698377  0.74999991  0.26824090  1
  Co  Co44  1  0.53299348  0.25000251  0.73177639  1
  Co  Co45  1  0.69839844  0.74999816  0.70351508  1
  Co  Co46  1  0.80161888  0.25000073  0.20353112  1
  Co  Co47  1  0.96702173  0.74999994  0.23176025  1
  O  O48  1  0.02366712  0.47659128  0.28947478  1
  O  O49  1  0.02366681  0.02340866  0.28947554  1
  O  O50  1  0.08334307  0.24999993  0.00514439  1
  O  O51  1  0.12929766  0.25000034  0.59136501  1
  O  O52  1  0.14156766  0.74999865  0.56850650  1
  O  O53  1  0.10060123  0.74999930  0.96022768  1
  O  O54  1  0.22323280  0.00317860  0.27882056  1
  O  O55  1  0.22323320  0.49682065  0.27881951  1
  O  O56  1  0.27674982  0.50316150  0.77882342  1
  O  O57  1  0.27674879  0.99684025  0.77882275  1
  O  O58  1  0.39941858  0.25000077  0.46025710  1
  O  O59  1  0.35841278  0.24999890  0.06848660  1
  O  O60  1  0.37069067  0.74999936  0.09135418  1
  O  O61  1  0.41666212  0.74999992  0.50514746  1
  O  O62  1  0.47632304  0.97659288  0.78948347  1
  O  O63  1  0.47632376  0.52340705  0.78948472  1
  O  O64  1  0.52365544  0.47655851  0.21050394  1
  O  O65  1  0.52365434  0.02344212  0.21050471  1
  O  O66  1  0.58332796  0.25000082  0.49488806  1
  O  O67  1  0.62929802  0.24999767  0.90860737  1
  O  O68  1  0.64155188  0.75000088  0.93145432  1
  O  O69  1  0.60058258  0.74999976  0.53980419  1
  O  O70  1  0.72323737  0.00317901  0.22119789  1
  O  O71  1  0.72323757  0.49682094  0.22119957  1
  O  O72  1  0.77676563  0.50320760  0.72118562  1
  O  O73  1  0.77676571  0.99679349  0.72118469  1
  O  O74  1  0.89942249  0.25000152  0.03976734  1
  O  O75  1  0.85844834  0.24999917  0.43145223  1
  O  O76  1  0.87070216  0.74999918  0.40862809  1
  O  O77  1  0.91669110  0.74999969  0.99489967  1
  O  O78  1  0.97634426  0.97655942  0.71050737  1
  O  O79  1  0.97634440  0.52343869  0.71050755  1
