# generated using pymatgen
data_Li2Fe3CuO8
_symmetry_space_group_name_H-M   'P 1'
_cell_length_a   5.94577745
_cell_length_b   5.92497732
_cell_length_c   9.45908701
_cell_angle_alpha   90.13804858
_cell_angle_beta   89.93121629
_cell_angle_gamma   119.88434711
_symmetry_Int_Tables_number   1
_chemical_formula_structural   Li2Fe3CuO8
_chemical_formula_sum   'Li4 Fe6 Cu2 O16'
_cell_volume   288.92084657
_cell_formula_units_Z   2
loop_
 _symmetry_equiv_pos_site_id
 _symmetry_equiv_pos_as_xyz
  1  'x, y, z'
loop_
 _atom_site_type_symbol
 _atom_site_label
 _atom_site_symmetry_multiplicity
 _atom_site_fract_x
 _atom_site_fract_y
 _atom_site_fract_z
 _atom_site_occupancy
  Li  Li0  1  0.33282851  0.66858815  0.89829677  1
  Li  Li1  1  0.99924945  0.99832863  0.99159127  1
  Li  Li2  1  0.00075055  0.99907918  0.49159127  1
  Li  Li3  1  0.66717149  0.33575963  0.39829677  1
  Fe  Fe4  1  0.17143586  0.82755508  0.21124375  1
  Fe  Fe5  1  0.16884543  0.34217289  0.21164749  1
  Fe  Fe6  1  0.65743591  0.82939202  0.21108850  1
  Fe  Fe7  1  0.34256409  0.17195712  0.71108850  1
  Fe  Fe8  1  0.82856414  0.65612022  0.71124375  1
  Fe  Fe9  1  0.83115457  0.17332746  0.71164749  1
  Cu  Cu10  1  0.33379371  0.66742607  0.48583486  1
  Cu  Cu11  1  0.66620629  0.33363236  0.98583486  1
  O  O12  1  0.17007600  0.83051681  0.60107258  1
  O  O13  1  0.04297914  0.52130329  0.34550522  1
  O  O14  1  0.33262619  0.66644487  0.10199853  1
  O  O15  1  0.00242428  0.99868266  0.30033895  1
  O  O16  1  0.99757572  0.99625838  0.80033895  1
  O  O17  1  0.17082752  0.34077232  0.59906493  1
  O  O18  1  0.47734647  0.95463631  0.34817350  1
  O  O19  1  0.47796946  0.52318460  0.34678037  1
  O  O20  1  0.33814552  0.16913652  0.10128329  1
  O  O21  1  0.66185448  0.83099100  0.60128329  1
  O  O22  1  0.52265353  0.47729084  0.84817350  1
  O  O23  1  0.52203054  0.04521513  0.84678037  1
  O  O24  1  0.66737381  0.33381868  0.60199853  1
  O  O25  1  0.82992400  0.66043982  0.10107258  1
  O  O26  1  0.95702086  0.47832515  0.84550522  1
  O  O27  1  0.82917247  0.16994480  0.09906493  1
