# generated using pymatgen
data_Li3Mn(BO3)2
_symmetry_space_group_name_H-M   'P 1'
_cell_length_a   5.88133351
_cell_length_b   8.05764671
_cell_length_c   9.89626806
_cell_angle_alpha   90.00000000
_cell_angle_beta   85.19432661
_cell_angle_gamma   90.00000000
_symmetry_Int_Tables_number   1
_chemical_formula_structural   Li3Mn(BO3)2
_chemical_formula_sum   'Li12 Mn4 B8 O24'
_cell_volume   467.33257826
_cell_formula_units_Z   4
loop_
 _symmetry_equiv_pos_site_id
 _symmetry_equiv_pos_as_xyz
  1  'x, y, z'
loop_
 _atom_site_type_symbol
 _atom_site_label
 _atom_site_symmetry_multiplicity
 _atom_site_fract_x
 _atom_site_fract_y
 _atom_site_fract_z
 _atom_site_occupancy
  Li  Li0  1  0.98443875  0.77537653  0.39910641  1
  Li  Li1  1  0.03390338  0.71801375  0.91058618  1
  Li  Li2  1  0.13359920  0.93862697  0.13039472  1
  Li  Li3  1  0.36640080  0.43862697  0.36960528  1
  Li  Li4  1  0.51556125  0.27537653  0.10089359  1
  Li  Li5  1  0.53390338  0.78198625  0.41058618  1
  Li  Li6  1  0.46609662  0.21801375  0.58941382  1
  Li  Li7  1  0.48443875  0.72462347  0.89910641  1
  Li  Li8  1  0.63359920  0.56137303  0.63039472  1
  Li  Li9  1  0.86640080  0.06137303  0.86960528  1
  Li  Li10  1  0.96609662  0.28198625  0.08941382  1
  Li  Li11  1  0.01556125  0.22462347  0.60089359  1
  Mn  Mn12  1  0.25935934  0.88903848  0.65309456  1
  Mn  Mn13  1  0.24064066  0.38903848  0.84690544  1
  Mn  Mn14  1  0.75935934  0.61096152  0.15309456  1
  Mn  Mn15  1  0.74064066  0.11096252  0.34690544  1
  B  B16  1  0.24608836  0.61273569  0.13873425  1
  B  B17  1  0.20375803  0.56034326  0.60795311  1
  B  B18  1  0.25391164  0.11273569  0.36126575  1
  B  B19  1  0.29624197  0.06034326  0.89204689  1
  B  B20  1  0.70375803  0.93965674  0.10795311  1
  B  B21  1  0.74608836  0.88726431  0.63873425  1
  B  B22  1  0.79624197  0.43965674  0.39204689  1
  B  B23  1  0.75391164  0.38726431  0.86126575  1
  O  O24  1  0.06194385  0.70740902  0.19692295  1
  O  O25  1  0.07310626  0.08411606  0.28288051  1
  O  O26  1  0.24077139  0.55803473  0.00872563  1
  O  O27  1  0.21780448  0.70475659  0.52773844  1
  O  O28  1  0.15662076  0.58556846  0.74671405  1
  O  O29  1  0.25922861  0.05803473  0.49127437  1
  O  O30  1  0.25643035  0.40858651  0.55625086  1
  O  O31  1  0.24356965  0.90858651  0.94374914  1
  O  O32  1  0.34337924  0.08556846  0.75328595  1
  O  O33  1  0.28219552  0.20475659  0.97226156  1
  O  O34  1  0.42689374  0.58411606  0.21711949  1
  O  O35  1  0.43805615  0.20740902  0.30307705  1
  O  O36  1  0.56194385  0.79259098  0.69692295  1
  O  O37  1  0.57310626  0.41588394  0.78288051  1
  O  O38  1  0.71780448  0.79524341  0.02773844  1
  O  O39  1  0.65662076  0.91443154  0.24671405  1
  O  O40  1  0.75643035  0.09141349  0.05625086  1
  O  O41  1  0.74356965  0.59141349  0.44374914  1
  O  O42  1  0.74077139  0.94196527  0.50872563  1
  O  O43  1  0.84337924  0.41443154  0.25328595  1
  O  O44  1  0.78219552  0.29524341  0.47226156  1
  O  O45  1  0.75922861  0.44196527  0.99127437  1
  O  O46  1  0.92689374  0.91588394  0.71711949  1
  O  O47  1  0.93805615  0.29259098  0.80307705  1
