# generated using pymatgen
data_Li7CrO6
_symmetry_space_group_name_H-M   'P 1'
_cell_length_a   5.58868775
_cell_length_b   5.58858738
_cell_length_c   10.73392004
_cell_angle_alpha   90.00467238
_cell_angle_beta   90.03907928
_cell_angle_gamma   60.61512634
_symmetry_Int_Tables_number   1
_chemical_formula_structural   Li7CrO6
_chemical_formula_sum   'Li14 Cr2 O12'
_cell_volume   292.11877071
_cell_formula_units_Z   2
loop_
 _symmetry_equiv_pos_site_id
 _symmetry_equiv_pos_as_xyz
  1  'x, y, z'
loop_
 _atom_site_type_symbol
 _atom_site_label
 _atom_site_symmetry_multiplicity
 _atom_site_fract_x
 _atom_site_fract_y
 _atom_site_fract_z
 _atom_site_occupancy
  Li  Li0  1  0.00101600  0.62136331  0.74109543  1
  Li  Li1  1  0.99958508  0.61288928  0.13808501  1
  Li  Li2  1  0.32011108  0.70690102  0.26168858  1
  Li  Li3  1  0.02656977  0.29111910  0.25836531  1
  Li  Li4  1  0.38695462  0.61407957  0.63674567  1
  Li  Li5  1  0.33441072  0.34757300  0.40707831  1
  Li  Li6  1  0.65080403  0.68793748  0.90801442  1
  Li  Li7  1  0.34810402  0.33440354  0.90751251  1
  Li  Li8  1  0.68747590  0.65075156  0.40760273  1
  Li  Li9  1  0.61413092  0.38699939  0.13632308  1
  Li  Li10  1  0.29090495  0.02628559  0.75868497  1
  Li  Li11  1  0.70650381  0.31959359  0.76234541  1
  Li  Li12  1  0.61234812  0.00032097  0.63820347  1
  Li  Li13  1  0.62134500  0.00152516  0.24076087  1
  Cr  Cr14  1  0.99526102  0.00861712  0.49800922  1
  Cr  Cr15  1  0.00915362  0.99481247  0.99763923  1
  O  O16  1  0.99834118  0.70366818  0.95209273  1
  O  O17  1  0.29717146  0.71245259  0.45150389  1
  O  O18  1  0.01657137  0.28471089  0.44641071  1
  O  O19  1  0.32534810  0.36268402  0.22516649  1
  O  O20  1  0.63751122  0.68899981  0.72626307  1
  O  O21  1  0.98147237  0.99625192  0.16132724  1
  O  O22  1  0.99648377  0.98391311  0.66184603  1
  O  O23  1  0.36205508  0.32583904  0.72567825  1
  O  O24  1  0.68897888  0.63757726  0.22576990  1
  O  O25  1  0.28365283  0.01714361  0.94502232  1
  O  O26  1  0.71427162  0.29774363  0.95194375  1
  O  O27  1  0.70536346  0.99614277  0.45186038  1
