# generated using pymatgen
data_Li3V(FeO2)4
_symmetry_space_group_name_H-M   'P 1'
_cell_length_a   5.98513562
_cell_length_b   5.98513575
_cell_length_c   5.96818548
_cell_angle_alpha   90.38278369
_cell_angle_beta   60.11255426
_cell_angle_gamma   60.23447698
_symmetry_Int_Tables_number   1
_chemical_formula_structural   Li3V(FeO2)4
_chemical_formula_sum   'Li3 V1 Fe4 O8'
_cell_volume   151.45807047
_cell_formula_units_Z   1
loop_
 _symmetry_equiv_pos_site_id
 _symmetry_equiv_pos_as_xyz
  1  'x, y, z'
loop_
 _atom_site_type_symbol
 _atom_site_label
 _atom_site_symmetry_multiplicity
 _atom_site_fract_x
 _atom_site_fract_y
 _atom_site_fract_z
 _atom_site_occupancy
  Li  Li0  1  0.00000000  0.00000000  0.50000000  1
  Li  Li1  1  0.50000000  0.00000000  0.50000000  1
  Li  Li2  1  0.50000000  0.50000000  0.50000000  1
  V  V3  1  0.50000000  0.50000000  0.00000000  1
  Fe  Fe4  1  0.00000000  0.50000000  0.50000000  1
  Fe  Fe5  1  0.00000000  0.00000000  0.00000000  1
  Fe  Fe6  1  0.50000000  0.00000000  0.00000000  1
  Fe  Fe7  1  0.00000000  0.50000000  0.00000000  1
  O  O8  1  0.48376469  0.26302918  0.77926450  1
  O  O9  1  0.99017277  0.25031354  0.74991176  1
  O  O10  1  0.50040078  0.74008553  0.74991176  1
  O  O11  1  0.00499786  0.75044633  0.74544947  1
  O  O12  1  0.99500214  0.24955367  0.25455053  1
  O  O13  1  0.49959922  0.25991447  0.25008824  1
  O  O14  1  0.00982723  0.74968646  0.25008824  1
  O  O15  1  0.51623531  0.73697082  0.22073550  1
