# generated using pymatgen
data_Na3CuSiCO7
_symmetry_space_group_name_H-M   'P 1'
_cell_length_a   9.10060461
_cell_length_b   6.54588380
_cell_length_c   5.15325323
_cell_angle_alpha   90.00000000
_cell_angle_beta   88.98788335
_cell_angle_gamma   90.00000000
_symmetry_Int_Tables_number   1
_chemical_formula_structural   Na3CuSiCO7
_chemical_formula_sum   'Na6 Cu2 Si2 C2 O14'
_cell_volume   306.93913070
_cell_formula_units_Z   2
loop_
 _symmetry_equiv_pos_site_id
 _symmetry_equiv_pos_as_xyz
  1  'x, y, z'
loop_
 _atom_site_type_symbol
 _atom_site_label
 _atom_site_symmetry_multiplicity
 _atom_site_fract_x
 _atom_site_fract_y
 _atom_site_fract_z
 _atom_site_occupancy
  Na  Na0  1  0.08989921  0.25000000  0.76465710  1
  Na  Na1  1  0.26699588  0.00890460  0.25216688  1
  Na  Na2  1  0.26699588  0.49109540  0.25216688  1
  Na  Na3  1  0.73300412  0.50890460  0.74783312  1
  Na  Na4  1  0.73300412  0.99109540  0.74783312  1
  Na  Na5  1  0.91010079  0.75000000  0.23534290  1
  Cu  Cu6  1  0.34911087  0.75000000  0.78935678  1
  Cu  Cu7  1  0.65088913  0.25000000  0.21064322  1
  Si  Si8  1  0.42355889  0.25000000  0.70710943  1
  Si  Si9  1  0.57644111  0.75000000  0.29289057  1
  C  C10  1  0.05976710  0.75000000  0.72822205  1
  C  C11  1  0.94023290  0.25000000  0.27177795  1
  O  O12  1  0.08136801  0.25000000  0.28473983  1
  O  O13  1  0.12296938  0.75000000  0.95230263  1
  O  O14  1  0.14148161  0.75000000  0.51989500  1
  O  O15  1  0.31531022  0.05439657  0.77990215  1
  O  O16  1  0.31531022  0.44560343  0.77990215  1
  O  O17  1  0.45827694  0.25000000  0.39025209  1
  O  O18  1  0.41799784  0.75000000  0.14944250  1
  O  O19  1  0.58200216  0.25000000  0.85055750  1
  O  O20  1  0.54172306  0.75000000  0.60974791  1
  O  O21  1  0.68468978  0.55439657  0.22009785  1
  O  O22  1  0.68468978  0.94560343  0.22009785  1
  O  O23  1  0.85851839  0.25000000  0.48010500  1
  O  O24  1  0.87703062  0.25000000  0.04769737  1
  O  O25  1  0.91863199  0.75000000  0.71526017  1
