# generated using pymatgen
data_Li3SiSnBO7
_symmetry_space_group_name_H-M   'P 1'
_cell_length_a   8.54479950
_cell_length_b   6.57489001
_cell_length_c   5.13879536
_cell_angle_alpha   90.00000000
_cell_angle_beta   84.56417446
_cell_angle_gamma   90.00000000
_symmetry_Int_Tables_number   1
_chemical_formula_structural   Li3SiSnBO7
_chemical_formula_sum   'Li6 Si2 Sn2 B2 O14'
_cell_volume   287.40494279
_cell_formula_units_Z   2
loop_
 _symmetry_equiv_pos_site_id
 _symmetry_equiv_pos_as_xyz
  1  'x, y, z'
loop_
 _atom_site_type_symbol
 _atom_site_label
 _atom_site_symmetry_multiplicity
 _atom_site_fract_x
 _atom_site_fract_y
 _atom_site_fract_z
 _atom_site_occupancy
  Li  Li0  1  0.09306149  0.25000000  0.74936205  1
  Li  Li1  1  0.23688922  0.00826925  0.25257059  1
  Li  Li2  1  0.23688922  0.49173075  0.25257059  1
  Li  Li3  1  0.76311078  0.50826925  0.74742941  1
  Li  Li4  1  0.76311078  0.99173075  0.74742941  1
  Li  Li5  1  0.90693851  0.75000000  0.25063795  1
  Si  Si6  1  0.41975121  0.25000000  0.73126668  1
  Si  Si7  1  0.58024879  0.75000000  0.26873332  1
  Sn  Sn8  1  0.32733239  0.75000000  0.79058856  1
  Sn  Sn9  1  0.67266761  0.25000000  0.20941144  1
  B  B10  1  0.03489759  0.75000000  0.71129554  1
  B  B11  1  0.96510241  0.25000000  0.28870446  1
  O  O12  1  0.11403267  0.25000000  0.35832834  1
  O  O13  1  0.08135323  0.75000000  0.96604733  1
  O  O14  1  0.16433179  0.75000000  0.51437748  1
  O  O15  1  0.30477418  0.06028013  0.83278636  1
  O  O16  1  0.30477418  0.43971987  0.83278636  1
  O  O17  1  0.45336383  0.25000000  0.40854141  1
  O  O18  1  0.40722058  0.75000000  0.15545754  1
  O  O19  1  0.59277942  0.25000000  0.84454246  1
  O  O20  1  0.54663617  0.75000000  0.59145859  1
  O  O21  1  0.69522582  0.56028013  0.16721364  1
  O  O22  1  0.69522582  0.93971987  0.16721364  1
  O  O23  1  0.83566821  0.25000000  0.48562252  1
  O  O24  1  0.91864677  0.25000000  0.03395267  1
  O  O25  1  0.88596733  0.75000000  0.64167166  1
