# generated using pymatgen
data_Li6V(BO3)3
_symmetry_space_group_name_H-M   'P 1'
_cell_length_a   7.04817767
_cell_length_b   16.29471366
_cell_length_c   6.55286284
_cell_angle_alpha   90.00000000
_cell_angle_beta   104.72728900
_cell_angle_gamma   90.00000000
_symmetry_Int_Tables_number   1
_chemical_formula_structural   Li6V(BO3)3
_chemical_formula_sum   'Li24 V4 B12 O36'
_cell_volume   727.85864726
_cell_formula_units_Z   4
loop_
 _symmetry_equiv_pos_site_id
 _symmetry_equiv_pos_as_xyz
  1  'x, y, z'
loop_
 _atom_site_type_symbol
 _atom_site_label
 _atom_site_symmetry_multiplicity
 _atom_site_fract_x
 _atom_site_fract_y
 _atom_site_fract_z
 _atom_site_occupancy
  Li  Li0  1  0.06513033  0.99470999  0.67912241  1
  Li  Li1  1  0.13546902  0.55480780  0.58714129  1
  Li  Li2  1  0.06513033  0.50529001  0.17912241  1
  Li  Li3  1  0.30580220  0.46272387  0.94885381  1
  Li  Li4  1  0.13546902  0.94519220  0.08714129  1
  Li  Li5  1  0.27053489  0.70741555  0.63488056  1
  Li  Li6  1  0.30580220  0.03727613  0.44885381  1
  Li  Li7  1  0.41637761  0.29380695  0.95187908  1
  Li  Li8  1  0.46060013  0.96879042  0.83033460  1
  Li  Li9  1  0.27053489  0.79258445  0.13488056  1
  Li  Li10  1  0.41637761  0.20619305  0.45187908  1
  Li  Li11  1  0.46060013  0.53120958  0.33033460  1
  Li  Li12  1  0.53939987  0.46879042  0.66966540  1
  Li  Li13  1  0.58362239  0.79380695  0.54812092  1
  Li  Li14  1  0.72946511  0.20741555  0.86511944  1
  Li  Li15  1  0.53939987  0.03120958  0.16966540  1
  Li  Li16  1  0.58362239  0.70619305  0.04812092  1
  Li  Li17  1  0.69419780  0.96272387  0.55114619  1
  Li  Li18  1  0.72946511  0.29258445  0.36511944  1
  Li  Li19  1  0.86453098  0.05480780  0.91285871  1
  Li  Li20  1  0.69419780  0.53727613  0.05114619  1
  Li  Li21  1  0.93486967  0.49470999  0.82087759  1
  Li  Li22  1  0.86453098  0.44519220  0.41285871  1
  Li  Li23  1  0.93486967  0.00529001  0.32087759  1
  V  V24  1  0.07777360  0.18324400  0.66771605  1
  V  V25  1  0.07777360  0.31675600  0.16771605  1
  V  V26  1  0.92222640  0.68324400  0.83228395  1
  V  V27  1  0.92222640  0.81675600  0.33228395  1
  B  B28  1  0.08275575  0.36150743  0.65409730  1
  B  B29  1  0.08275575  0.13849257  0.15409730  1
  B  B30  1  0.27781465  0.87518192  0.49924823  1
  B  B31  1  0.43016060  0.11859851  0.81159655  1
  B  B32  1  0.27781465  0.62481808  0.99924823  1
  B  B33  1  0.43016060  0.38140149  0.31159655  1
  B  B34  1  0.56983940  0.61859851  0.68840345  1
  B  B35  1  0.72218535  0.37518192  0.00075177  1
  B  B36  1  0.56983940  0.88140149  0.18840345  1
  B  B37  1  0.72218535  0.12481808  0.50075177  1
  B  B38  1  0.91724425  0.86150743  0.84590270  1
  B  B39  1  0.91724425  0.63849257  0.34590270  1
  O  O40  1  0.99719838  0.66539319  0.55051412  1
  O  O41  1  0.10791535  0.57844118  0.96591367  1
  O  O42  1  0.10536692  0.44512724  0.68573003  1
  O  O43  1  0.12201759  0.30447098  0.81745188  1
  O  O44  1  0.99719838  0.83460681  0.05051412  1
  O  O45  1  0.10791535  0.92155882  0.46591367  1
  O  O46  1  0.24245512  0.70551986  0.93386056  1
  O  O47  1  0.10536692  0.05487276  0.18573003  1
  O  O48  1  0.12201759  0.19552902  0.31745188  1
  O  O49  1  0.26283091  0.07172754  0.73413053  1
  O  O50  1  0.24245512  0.79448014  0.43386056  1
  O  O51  1  0.26283091  0.42827246  0.23413053  1
  O  O52  1  0.40131763  0.20096076  0.76068184  1
  O  O53  1  0.39951026  0.58264320  0.57639191  1
  O  O54  1  0.54026010  0.40826673  0.91892962  1
  O  O55  1  0.45973990  0.90826673  0.58107038  1
  O  O56  1  0.40131763  0.29903924  0.26068184  1
  O  O57  1  0.60048974  0.08264320  0.92360809  1
  O  O58  1  0.39951026  0.91735680  0.07639191  1
  O  O59  1  0.59868237  0.70096076  0.73931816  1
  O  O60  1  0.54026010  0.09173327  0.41892962  1
  O  O61  1  0.45973990  0.59173327  0.08107038  1
  O  O62  1  0.60048974  0.41735680  0.42360809  1
  O  O63  1  0.59868237  0.79903924  0.23931816  1
  O  O64  1  0.73716909  0.57172754  0.76586947  1
  O  O65  1  0.75754488  0.20551986  0.56613944  1
  O  O66  1  0.73716909  0.92827246  0.26586947  1
  O  O67  1  0.87798241  0.80447098  0.68254812  1
  O  O68  1  0.89463308  0.94512724  0.81426997  1
  O  O69  1  0.75754488  0.29448014  0.06613944  1
  O  O70  1  0.89208465  0.07844118  0.53408633  1
  O  O71  1  0.00280162  0.16539319  0.94948588  1
  O  O72  1  0.87798241  0.69552902  0.18254912  1
  O  O73  1  0.89463308  0.55487276  0.31426997  1
  O  O74  1  0.89208465  0.42155882  0.03408633  1
  O  O75  1  0.00280162  0.33460681  0.44948588  1
