# generated using pymatgen
data_Li7Cr3(WO8)2
_symmetry_space_group_name_H-M   'P 1'
_cell_length_a   5.91169132
_cell_length_b   5.88656389
_cell_length_c   9.68773538
_cell_angle_alpha   89.99996061
_cell_angle_beta   90.25756639
_cell_angle_gamma   119.85821530
_symmetry_Int_Tables_number   1
_chemical_formula_structural   Li7Cr3(WO8)2
_chemical_formula_sum   'Li7 Cr3 W2 O16'
_cell_volume   292.37443105
_cell_formula_units_Z   1
loop_
 _symmetry_equiv_pos_site_id
 _symmetry_equiv_pos_as_xyz
  1  'x, y, z'
loop_
 _atom_site_type_symbol
 _atom_site_label
 _atom_site_symmetry_multiplicity
 _atom_site_fract_x
 _atom_site_fract_y
 _atom_site_fract_z
 _atom_site_occupancy
  Li  Li0  1  0.16844983  0.83024206  0.21027608  1
  Li  Li1  1  0.33578316  0.66789258  0.90207301  1
  Li  Li2  1  -0.00002099  -0.00000410  0.99566432  1
  Li  Li3  1  0.98907562  0.99457454  0.48762236  1
  Li  Li4  1  0.16844746  0.33822462  0.21026874  1
  Li  Li5  1  0.33049676  0.16527373  0.70880886  1
  Li  Li6  1  0.67115833  0.33557641  0.40279062  1
  Cr  Cr7  1  0.64095123  0.82043042  0.23646664  1
  Cr  Cr8  1  0.81025648  0.65315005  0.71968703  1
  Cr  Cr9  1  0.81026340  0.15713686  0.71967990  1
  W  W10  1  0.29499866  0.64753147  0.48802007  1
  W  W11  1  0.66949495  0.33475517  0.99562746  1
  O  O12  1  0.16203525  0.82578950  0.58967025  1
  O  O13  1  0.03694813  0.51848493  0.35545541  1
  O  O14  1  0.40057049  0.70029605  0.11310048  1
  O  O15  1  0.96009033  0.98006353  0.29363972  1
  O  O16  1  0.98422142  0.99212014  0.79887138  1
  O  O17  1  0.16208056  0.33629082  0.58966378  1
  O  O18  1  0.49831360  0.96119231  0.35537724  1
  O  O19  1  0.49832399  0.53709925  0.35539157  1
  O  O20  1  0.34844645  0.17425532  0.07498281  1
  O  O21  1  0.65299683  0.82650617  0.60146786  1
  O  O22  1  0.53962760  0.49791947  0.84052830  1
  O  O23  1  0.53962392  0.04176372  0.84051911  1
  O  O24  1  0.70555190  0.35279048  0.60961433  1
  O  O25  1  0.83055588  0.65507742  0.08594851  1
  O  O26  1  0.96069090  0.48035817  0.84068903  1
  O  O27  1  0.83056985  0.17550691  0.08593714  1
