# generated using pymatgen
data_Li2CoBO4
_symmetry_space_group_name_H-M   'P 1'
_cell_length_a   6.42507586
_cell_length_b   5.10600351
_cell_length_c   10.68289634
_cell_angle_alpha   90.00000000
_cell_angle_beta   95.18844200
_cell_angle_gamma   90.00000000
_symmetry_Int_Tables_number   1
_chemical_formula_structural   Li2CoBO4
_chemical_formula_sum   'Li8 Co4 B4 O16'
_cell_volume   349.03202404
_cell_formula_units_Z   4
loop_
 _symmetry_equiv_pos_site_id
 _symmetry_equiv_pos_as_xyz
  1  'x, y, z'
loop_
 _atom_site_type_symbol
 _atom_site_label
 _atom_site_symmetry_multiplicity
 _atom_site_fract_x
 _atom_site_fract_y
 _atom_site_fract_z
 _atom_site_occupancy
  Li  Li0  1  0.10038515  0.34754205  0.79241670  1
  Li  Li1  1  0.10038515  0.15245795  0.29241670  1
  Li  Li2  1  0.21739351  0.17225734  0.57066488  1
  Li  Li3  1  0.21739351  0.32774266  0.07066488  1
  Li  Li4  1  0.78260649  0.67225734  0.92933512  1
  Li  Li5  1  0.78260649  0.82774266  0.42933512  1
  Li  Li6  1  0.89961485  0.84754205  0.70758330  1
  Li  Li7  1  0.89961485  0.65245795  0.20758330  1
  Co  Co8  1  0.50293023  0.15975480  0.84589085  1
  Co  Co9  1  0.49706977  0.65975480  0.65410915  1
  Co  Co10  1  0.50293023  0.34024520  0.34589085  1
  Co  Co11  1  0.49706977  0.84024520  0.15410915  1
  B  B12  1  0.19610096  0.82365589  0.93699274  1
  B  B13  1  0.19610096  0.67634411  0.43699274  1
  B  B14  1  0.80389904  0.32365589  0.56300726  1
  B  B15  1  0.80389904  0.17634411  0.06300726  1
  O  O16  1  0.05542235  0.69856822  0.85640351  1
  O  O17  1  0.05542235  0.80143178  0.35640351  1
  O  O18  1  0.24790372  0.09044832  0.92307858  1
  O  O19  1  0.24790372  0.40955168  0.42307858  1
  O  O20  1  0.29248560  0.80684025  0.54196206  1
  O  O21  1  0.38764570  0.34114158  0.71168199  1
  O  O22  1  0.29248560  0.69315975  0.04196206  1
  O  O23  1  0.38764570  0.15885842  0.21168199  1
  O  O24  1  0.61235430  0.84114158  0.78831801  1
  O  O25  1  0.70751440  0.30684025  0.95803794  1
  O  O26  1  0.61235430  0.65885842  0.28831801  1
  O  O27  1  0.70751440  0.19315975  0.45803794  1
  O  O28  1  0.75209628  0.59044832  0.57692142  1
  O  O29  1  0.75209628  0.90955168  0.07692142  1
  O  O30  1  0.94457765  0.19856822  0.64359649  1
  O  O31  1  0.94457765  0.30143178  0.14359649  1
