# generated using pymatgen
data_Li3TiMn4O8
_symmetry_space_group_name_H-M   'P 1'
_cell_length_a   6.15935941
_cell_length_b   6.15935968
_cell_length_c   6.11280146
_cell_angle_alpha   90.13795025
_cell_angle_beta   59.83765110
_cell_angle_gamma   60.06900872
_symmetry_Int_Tables_number   1
_chemical_formula_structural   Li3TiMn4O8
_chemical_formula_sum   'Li3 Ti1 Mn4 O8'
_cell_volume   163.55047691
_cell_formula_units_Z   1
loop_
 _symmetry_equiv_pos_site_id
 _symmetry_equiv_pos_as_xyz
  1  'x, y, z'
loop_
 _atom_site_type_symbol
 _atom_site_label
 _atom_site_symmetry_multiplicity
 _atom_site_fract_x
 _atom_site_fract_y
 _atom_site_fract_z
 _atom_site_occupancy
  Li  Li0  1  0.00000000  0.00000000  0.50000000  1
  Li  Li1  1  0.50000000  0.00000000  0.50000000  1
  Li  Li2  1  0.50000000  0.50000000  0.50000000  1
  Ti  Ti3  1  0.50000000  0.50000000  0.00000000  1
  Mn  Mn4  1  0.00000000  0.50000000  0.50000000  1
  Mn  Mn5  1  0.00000000  0.00000000  0.00000000  1
  Mn  Mn6  1  0.50000000  0.00000000  0.00000000  1
  Mn  Mn7  1  0.00000000  0.50000000  0.00000000  1
  O  O8  1  0.49737783  0.27224567  0.77486684  1
  O  O9  1  0.97057957  0.26113784  0.76033394  1
  O  O10  1  0.50080290  0.73091352  0.76033394  1
  O  O11  1  0.98849233  0.75097855  0.76248621  1
  O  O12  1  0.01150767  0.24902145  0.23751379  1
  O  O13  1  0.49919710  0.26908648  0.23966606  1
  O  O14  1  0.02942043  0.73886216  0.23966606  1
  O  O15  1  0.50262217  0.72775433  0.22513216  1
