# generated using pymatgen
data_Li3Zr4(PO4)6
_symmetry_space_group_name_H-M   'P 1'
_cell_length_a   9.01981221
_cell_length_b   8.94682914
_cell_length_c   9.01497705
_cell_angle_alpha   60.26141565
_cell_angle_beta   61.37812069
_cell_angle_gamma   60.40715371
_symmetry_Int_Tables_number   1
_chemical_formula_structural   Li3Zr4(PO4)6
_chemical_formula_sum   'Li3 Zr4 P6 O24'
_cell_volume   522.22445034
_cell_formula_units_Z   1
loop_
 _symmetry_equiv_pos_site_id
 _symmetry_equiv_pos_as_xyz
  1  'x, y, z'
loop_
 _atom_site_type_symbol
 _atom_site_label
 _atom_site_symmetry_multiplicity
 _atom_site_fract_x
 _atom_site_fract_y
 _atom_site_fract_z
 _atom_site_occupancy
  Li  Li0  1  0.31626040  0.44930119  0.68033173  1
  Li  Li1  1  0.68400560  0.54682218  0.32155627  1
  Li  Li2  1  0.85634861  0.03456589  0.15060354  1
  Zr  Zr3  1  0.35578033  0.35515323  0.36056868  1
  Zr  Zr4  1  0.14600650  0.13828373  0.13860547  1
  Zr  Zr5  1  0.63591713  0.64471382  0.64529963  1
  Zr  Zr6  1  0.86216380  0.86380699  0.85626193  1
  P  P7  1  0.03523402  0.74743716  0.46555696  1
  P  P8  1  0.54702867  0.95667426  0.24945390  1
  P  P9  1  0.25082457  0.54185626  0.95454739  1
  P  P10  1  0.74561013  0.45642499  0.04776950  1
  P  P11  1  0.45762709  0.04165090  0.75293080  1
  P  P12  1  0.95581398  0.25781670  0.53137815  1
  O  O13  1  0.04604491  0.90930519  0.28473700  1
  O  O14  1  0.99906212  0.79882680  0.62318850  1
  O  O15  1  0.08994475  0.72037502  0.94135205  1
  O  O16  1  0.38835598  0.00141786  0.19624498  1
  O  O17  1  0.49339193  0.89341550  0.68728434  1
  O  O18  1  0.21630939  0.58643339  0.45522403  1
  O  O19  1  0.72775877  0.94251639  0.09259662  1
  O  O20  1  0.57117584  0.76560276  0.39896067  1
  O  O21  1  0.30900095  0.49306712  0.11171813  1
  O  O22  1  0.11291805  0.30475469  0.50221362  1
  O  O23  1  0.20368629  0.38702498  0.97100348  1
  O  O24  1  0.40444928  0.56431799  0.77117670  1
  O  O25  1  0.58911182  0.44248771  0.22793169  1
  O  O26  1  0.80418825  0.60609157  0.02309199  1
  O  O27  1  0.87903000  0.69397590  0.50319715  1
  O  O28  1  0.69005348  0.50378827  0.88837727  1
  O  O29  1  0.28538847  0.05423937  0.91373005  1
  O  O30  1  0.43122615  0.23331379  0.60282044  1
  O  O31  1  0.77782539  0.42418117  0.53664969  1
  O  O32  1  0.52295870  0.10320814  0.31051664  1
  O  O33  1  0.62026625  0.99500109  0.80361180  1
  O  O34  1  0.89749915  0.26719176  0.06912024  1
  O  O35  1  0.99606139  0.20881443  0.37090014  1
  O  O36  1  0.92727386  0.10074280  0.71158484  1
