# generated using pymatgen
data_Li4V3Co3(TeO8)2
_symmetry_space_group_name_H-M   'P 1'
_cell_length_a   6.05455298
_cell_length_b   5.89091028
_cell_length_c   10.28429273
_cell_angle_alpha   89.81013748
_cell_angle_beta   90.11286300
_cell_angle_gamma   119.18895061
_symmetry_Int_Tables_number   1
_chemical_formula_structural   Li4V3Co3(TeO8)2
_chemical_formula_sum   'Li4 V3 Co3 Te2 O16'
_cell_volume   320.22761182
_cell_formula_units_Z   1
loop_
 _symmetry_equiv_pos_site_id
 _symmetry_equiv_pos_as_xyz
  1  'x, y, z'
loop_
 _atom_site_type_symbol
 _atom_site_label
 _atom_site_symmetry_multiplicity
 _atom_site_fract_x
 _atom_site_fract_y
 _atom_site_fract_z
 _atom_site_occupancy
  Li  Li0  1  0.32736792  0.66831528  0.90237772  1
  Li  Li1  1  0.99633417  0.99675216  0.99573663  1
  Li  Li2  1  0.98590889  0.99144637  0.48502934  1
  Li  Li3  1  0.68495322  0.34318447  0.40565229  1
  V  V4  1  0.64072203  0.82012995  0.23491668  1
  V  V5  1  0.80162913  0.64449001  0.72059715  1
  V  V6  1  0.81451207  0.15593597  0.72186807  1
  Co  Co7  1  0.17103519  0.82806141  0.21572531  1
  Co  Co8  1  0.17131461  0.34347909  0.21537494  1
  Co  Co9  1  0.33245890  0.16347830  0.70549017  1
  Te  Te10  1  0.29267008  0.64663273  0.49751039  1
  Te  Te11  1  0.66138286  0.33215057  0.01431558  1
  O  O12  1  0.14302980  0.82604809  0.59083978  1
  O  O13  1  0.04387310  0.52083358  0.35515573  1
  O  O14  1  0.38042444  0.69049564  0.11056186  1
  O  O15  1  0.97044576  0.98568524  0.30007172  1
  O  O16  1  0.99211764  0.98599152  0.80782961  1
  O  O17  1  0.13311657  0.31360703  0.59515925  1
  O  O18  1  0.51646921  0.98364357  0.33202456  1
  O  O19  1  0.51728471  0.53208818  0.33106800  1
  O  O20  1  0.32636185  0.16328620  0.09553415  1
  O  O21  1  0.71332511  0.84462394  0.61096480  1
  O  O22  1  0.52828963  0.51555452  0.81780348  1
  O  O23  1  0.53081476  0.01441682  0.81334303  1
  O  O24  1  0.68936339  0.35741055  0.60805832  1
  O  O25  1  0.83123478  0.66715779  0.10387069  1
  O  O26  1  0.97245087  0.50086061  0.81879514  1
  O  O27  1  0.83110730  0.16454240  0.10216563  1
