# generated using pymatgen
data_Li5Mn2Fe5O12
_symmetry_space_group_name_H-M   'P 1'
_cell_length_a   5.21215958
_cell_length_b   5.21215979
_cell_length_c   10.05027751
_cell_angle_alpha   84.45141118
_cell_angle_beta   95.54858904
_cell_angle_gamma   59.35979128
_symmetry_Int_Tables_number   1
_chemical_formula_structural   Li5Mn2Fe5O12
_chemical_formula_sum   'Li5 Mn2 Fe5 O12'
_cell_volume   230.39019827
_cell_formula_units_Z   1
loop_
 _symmetry_equiv_pos_site_id
 _symmetry_equiv_pos_as_xyz
  1  'x, y, z'
loop_
 _atom_site_type_symbol
 _atom_site_label
 _atom_site_symmetry_multiplicity
 _atom_site_fract_x
 _atom_site_fract_y
 _atom_site_fract_z
 _atom_site_occupancy
  Li  Li0  1  0.15657029  0.66576211  0.50242308  1
  Li  Li1  1  0.33228133  0.83760038  0.99742037  1
  Li  Li2  1  0.66576211  0.15657029  0.99757692  1
  Li  Li3  1  0.83760038  0.33228133  0.50257963  1
  Li  Li4  1  0.91764387  0.91764387  0.75000000  1
  Mn  Mn5  1  0.25071636  0.25071636  0.75000000  1
  Mn  Mn6  1  0.75354763  0.75354763  0.25000000  1
  Fe  Fe7  1  0.08189532  0.08189532  0.25000000  1
  Fe  Fe8  1  0.00105484  0.50332419  0.99621843  1
  Fe  Fe9  1  0.50332419  0.00105484  0.50378157  1
  Fe  Fe10  1  0.42237661  0.42237661  0.25000000  1
  Fe  Fe11  1  0.57909954  0.57909954  0.75000000  1
  O  O12  1  0.97461752  0.22817907  0.86618376  1
  O  O13  1  0.22817907  0.97461752  0.63381624  1
  O  O14  1  0.11656612  0.40357597  0.36395160  1
  O  O15  1  0.40357597  0.11656612  0.13604840  1
  O  O16  1  0.30472216  0.51053230  0.86104116  1
  O  O17  1  0.51053230  0.30472216  0.63895884  1
  O  O18  1  0.45891895  0.70363436  0.36834621  1
  O  O19  1  0.70363436  0.45891895  0.13165379  1
  O  O20  1  0.59924215  0.87877424  0.86469721  1
  O  O21  1  0.87877424  0.59924215  0.63530279  1
  O  O22  1  0.76951171  0.04985598  0.37666294  1
  O  O23  1  0.04985598  0.76951171  0.12333706  1
