# generated using pymatgen
data_Fe(SO4)2
_symmetry_space_group_name_H-M   'P 1'
_cell_length_a   8.96725081
_cell_length_b   8.96725107
_cell_length_c   8.96725069
_cell_angle_alpha   56.21308955
_cell_angle_beta   56.21308560
_cell_angle_gamma   56.21308848
_symmetry_Int_Tables_number   1
_chemical_formula_structural   Fe(SO4)2
_chemical_formula_sum   'Fe3 S6 O24'
_cell_volume   465.18548289
_cell_formula_units_Z   3
loop_
 _symmetry_equiv_pos_site_id
 _symmetry_equiv_pos_as_xyz
  1  'x, y, z'
loop_
 _atom_site_type_symbol
 _atom_site_label
 _atom_site_symmetry_multiplicity
 _atom_site_fract_x
 _atom_site_fract_y
 _atom_site_fract_z
 _atom_site_occupancy
  Fe  Fe0  1  0.35615118  0.35615118  0.35615118  1
  Fe  Fe1  1  0.64349798  0.64349798  0.64349798  1
  Fe  Fe2  1  0.85105499  0.85105499  0.85105499  1
  S  S3  1  0.03926044  0.74395678  0.46712528  1
  S  S4  1  0.46712528  0.03926044  0.74395678  1
  S  S5  1  0.74395678  0.46712528  0.03926044  1
  S  S6  1  0.24937486  0.53928147  0.96036623  1
  S  S7  1  0.53928147  0.96036623  0.24937486  1
  S  S8  1  0.96036623  0.24937486  0.53928147  1
  O  O9  1  0.11417725  0.29116978  0.51332822  1
  O  O10  1  0.29116978  0.51332822  0.11417725  1
  O  O11  1  0.00498891  0.94319804  0.33901686  1
  O  O12  1  0.51332822  0.11417725  0.29116978  1
  O  O13  1  0.02366655  0.71866171  0.65506440  1
  O  O14  1  0.23213734  0.61074028  0.38799094  1
  O  O15  1  0.38799094  0.23213734  0.61074028  1
  O  O16  1  0.33901686  0.00498891  0.94319804  1
  O  O17  1  0.61074028  0.38799094  0.23213734  1
  O  O18  1  0.04764394  0.67904314  0.98052816  1
  O  O19  1  0.27386840  0.35913538  0.97065071  1
  O  O20  1  0.35913538  0.97065071  0.27386840  1
  O  O21  1  0.65506440  0.02366655  0.71866171  1
  O  O22  1  0.71866171  0.65506440  0.02366655  1
  O  O23  1  0.94319804  0.33901686  0.00498891  1
  O  O24  1  0.38051388  0.62892201  0.76893695  1
  O  O25  1  0.67904314  0.98052816  0.04764394  1
  O  O26  1  0.62892201  0.76893695  0.38051388  1
  O  O27  1  0.76893695  0.38051388  0.62892201  1
  O  O28  1  0.97065071  0.27386840  0.35913538  1
  O  O29  1  0.50461646  0.89431883  0.67997564  1
  O  O30  1  0.98052816  0.04764394  0.67904314  1
  O  O31  1  0.67997564  0.50461646  0.89431883  1
  O  O32  1  0.89431883  0.67997564  0.50461646  1
