# generated using pymatgen
data_Li(CoO2)2
_symmetry_space_group_name_H-M   'P 1'
_cell_length_a   5.64438328
_cell_length_b   5.69351241
_cell_length_c   9.11001749
_cell_angle_alpha   90.03641547
_cell_angle_beta   89.98163409
_cell_angle_gamma   120.28835014
_symmetry_Int_Tables_number   1
_chemical_formula_structural   Li(CoO2)2
_chemical_formula_sum   'Li4 Co8 O16'
_cell_volume   252.80012672
_cell_formula_units_Z   4
loop_
 _symmetry_equiv_pos_site_id
 _symmetry_equiv_pos_as_xyz
  1  'x, y, z'
loop_
 _atom_site_type_symbol
 _atom_site_label
 _atom_site_symmetry_multiplicity
 _atom_site_fract_x
 _atom_site_fract_y
 _atom_site_fract_z
 _atom_site_occupancy
  Li  Li0  1  0.33725964  0.66839533  0.89409924  1
  Li  Li1  1  0.99714343  0.99937311  0.99830137  1
  Li  Li2  1  0.00285657  0.00222968  0.49830137  1
  Li  Li3  1  0.66274036  0.33113569  0.39409924  1
  Co  Co4  1  0.16660251  0.82913160  0.21058301  1
  Co  Co5  1  0.32771731  0.66384080  0.48290491  1
  Co  Co6  1  0.16675583  0.33722656  0.21050330  1
  Co  Co7  1  0.65741915  0.82869978  0.21449792  1
  Co  Co8  1  0.34258085  0.17127962  0.71449792  1
  Co  Co9  1  0.67228269  0.33612349  0.98290491  1
  Co  Co10  1  0.83339749  0.66252909  0.71058301  1
  Co  Co11  1  0.83324417  0.17046973  0.71050330  1
  O  O12  1  0.15908029  0.82932138  0.60314706  1
  O  O13  1  0.04118861  0.52043136  0.33762735  1
  O  O14  1  0.33055366  0.66503818  0.10637731  1
  O  O15  1  0.00038758  0.00020732  0.30866211  1
  O  O16  1  0.99961242  0.99981974  0.80866211  1
  O  O17  1  0.15961284  0.33047123  0.60352680  1
  O  O18  1  0.47399423  0.95642793  0.33996445  1
  O  O19  1  0.47427552  0.51759790  0.33966999  1
  O  O20  1  0.33105864  0.16551216  0.10405617  1
  O  O21  1  0.66894136  0.83445352  0.60405617  1
  O  O22  1  0.52600577  0.48243370  0.83996445  1
  O  O23  1  0.52572448  0.04332338  0.83966999  1
  O  O24  1  0.66944634  0.33448452  0.60637731  1
  O  O25  1  0.84091971  0.67024108  0.10314706  1
  O  O26  1  0.95881139  0.47924275  0.83762735  1
  O  O27  1  0.84038716  0.17085939  0.10352680  1
