# generated using pymatgen
data_FeH4(SO5)2
_symmetry_space_group_name_H-M   'P 1'
_cell_length_a   7.47145652
_cell_length_b   10.50681316
_cell_length_c   6.54559772
_cell_angle_alpha   71.59584025
_cell_angle_beta   113.15279054
_cell_angle_gamma   109.34809145
_symmetry_Int_Tables_number   1
_chemical_formula_structural   FeH4(SO5)2
_chemical_formula_sum   'Fe2 H8 S4 O20'
_cell_volume   435.46545829
_cell_formula_units_Z   2
loop_
 _symmetry_equiv_pos_site_id
 _symmetry_equiv_pos_as_xyz
  1  'x, y, z'
loop_
 _atom_site_type_symbol
 _atom_site_label
 _atom_site_symmetry_multiplicity
 _atom_site_fract_x
 _atom_site_fract_y
 _atom_site_fract_z
 _atom_site_occupancy
  Fe  Fe0  1  0.48026397  0.75099854  0.75136426  1
  Fe  Fe1  1  0.51973603  0.24900146  0.24863574  1
  H  H2  1  0.19877180  0.79119389  0.86934673  1
  H  H3  1  0.08286267  0.71186821  0.65986292  1
  H  H4  1  0.17846451  0.29950034  0.13999268  1
  H  H5  1  0.15942856  0.13659796  0.26720163  1
  H  H6  1  0.84057144  0.86340204  0.73279837  1
  H  H7  1  0.82153549  0.70049966  0.86000732  1
  H  H8  1  0.91713733  0.28813179  0.34013708  1
  H  H9  1  0.80122820  0.20880511  0.13065327  1
  S  S10  1  0.27572240  0.92629399  0.24783741  1
  S  S11  1  0.26969704  0.41848169  0.76913873  1
  S  S12  1  0.73030296  0.58151831  0.23086127  1
  S  S13  1  0.72427760  0.07370601  0.75216259  1
  O  O14  1  0.14793343  0.95475240  0.34059399  1
  O  O15  1  0.21061570  0.73486944  0.78101867  1
  O  O16  1  0.15850784  0.42860297  0.90228935  1
  O  O17  1  0.16536935  0.87618377  0.03662613  1
  O  O18  1  0.14069571  0.36615506  0.56364607  1
  O  O19  1  0.56636790  0.94431326  0.79978361  1
  O  O20  1  0.38385153  0.81780349  0.41456048  1
  O  O21  1  0.39576283  0.55882583  0.69570738  1
  O  O22  1  0.41041237  0.32419915  0.91115113  1
  O  O23  1  0.24427835  0.23183706  0.27133741  1
  O  O24  1  0.75572165  0.76816294  0.72866259  1
  O  O25  1  0.58958763  0.67580085  0.08884887  1
  O  O26  1  0.60423717  0.44117417  0.30429262  1
  O  O27  1  0.61614847  0.18219651  0.58543952  1
  O  O28  1  0.43363210  0.05568674  0.20021639  1
  O  O29  1  0.85930429  0.63384494  0.43635393  1
  O  O30  1  0.83463065  0.12381623  0.96337387  1
  O  O31  1  0.84149216  0.57139703  0.09771065  1
  O  O32  1  0.78938430  0.26513056  0.21898133  1
  O  O33  1  0.85206657  0.04524760  0.65940601  1
