# generated using pymatgen
data_Li4Ti3Cr2Fe3O16
_symmetry_space_group_name_H-M   'P 1'
_cell_length_a   5.93658010
_cell_length_b   5.92610276
_cell_length_c   9.60517361
_cell_angle_alpha   89.99344449
_cell_angle_beta   90.38080237
_cell_angle_gamma   119.95969570
_symmetry_Int_Tables_number   1
_chemical_formula_structural   Li4Ti3Cr2Fe3O16
_chemical_formula_sum   'Li4 Ti3 Cr2 Fe3 O16'
_cell_volume   292.75548176
_cell_formula_units_Z   1
loop_
 _symmetry_equiv_pos_site_id
 _symmetry_equiv_pos_as_xyz
  1  'x, y, z'
loop_
 _atom_site_type_symbol
 _atom_site_label
 _atom_site_symmetry_multiplicity
 _atom_site_fract_x
 _atom_site_fract_y
 _atom_site_fract_z
 _atom_site_occupancy
  Li  Li0  1  0.33806818  0.66880617  0.89187130  1
  Li  Li1  1  0.99294047  0.99640859  0.99487154  1
  Li  Li2  1  0.99368224  0.99686642  0.49666247  1
  Li  Li3  1  0.66621469  0.33324653  0.39551015  1
  Ti  Ti4  1  0.16964551  0.83300680  0.21351544  1
  Ti  Ti5  1  0.17045552  0.33734575  0.21351036  1
  Ti  Ti6  1  0.33885082  0.16939775  0.71419930  1
  Cr  Cr7  1  0.33168427  0.66615485  0.48625307  1
  Cr  Cr8  1  0.67322607  0.33631468  0.98254379  1
  Fe  Fe9  1  0.66211232  0.83154611  0.21366700  1
  Fe  Fe10  1  0.83117754  0.66123821  0.71263946  1
  Fe  Fe11  1  0.83111929  0.16989884  0.71257962  1
  O  O12  1  0.17206169  0.84200309  0.60052516  1
  O  O13  1  0.03900020  0.51910588  0.33691192  1
  O  O14  1  0.32616157  0.66316414  0.10413174  1
  O  O15  1  0.00523479  0.00254232  0.31101218  1
  O  O16  1  0.00167815  0.00084816  0.80907170  1
  O  O17  1  0.17229193  0.33021674  0.60051941  1
  O  O18  1  0.47106598  0.95769475  0.34180911  1
  O  O19  1  0.47168291  0.51439891  0.34176369  1
  O  O20  1  0.33072006  0.16559142  0.10553795  1
  O  O21  1  0.66832131  0.83437411  0.59952922  1
  O  O22  1  0.51418243  0.47335479  0.84095964  1
  O  O23  1  0.51380524  0.04037178  0.84088718  1
  O  O24  1  0.66072291  0.33044360  0.60303634  1
  O  O25  1  0.84606186  0.67286242  0.10153522  1
  O  O26  1  0.96220838  0.48078744  0.84124496  1
  O  O27  1  0.84562467  0.17230876  0.10154108  1
