# generated using pymatgen
data_Li2BiAsCO7
_symmetry_space_group_name_H-M   'P 1'
_cell_length_a   9.34412839
_cell_length_b   7.17260209
_cell_length_c   5.13904516
_cell_angle_alpha   90.00000000
_cell_angle_beta   90.29749888
_cell_angle_gamma   90.00000000
_symmetry_Int_Tables_number   1
_chemical_formula_structural   Li2BiAsCO7
_chemical_formula_sum   'Li4 Bi2 As2 C2 O14'
_cell_volume   344.42297590
_cell_formula_units_Z   2
loop_
 _symmetry_equiv_pos_site_id
 _symmetry_equiv_pos_as_xyz
  1  'x, y, z'
loop_
 _atom_site_type_symbol
 _atom_site_label
 _atom_site_symmetry_multiplicity
 _atom_site_fract_x
 _atom_site_fract_y
 _atom_site_fract_z
 _atom_site_occupancy
  Li  Li0  1  0.21007194  0.05695657  0.21345419  1
  Li  Li1  1  0.21007194  0.44304343  0.21345419  1
  Li  Li2  1  0.78992806  0.55695657  0.78654581  1
  Li  Li3  1  0.78992806  0.94304343  0.78654581  1
  Bi  Bi4  1  0.36004844  0.75000000  0.77861140  1
  Bi  Bi5  1  0.63995156  0.25000000  0.22138860  1
  As  As6  1  0.38676412  0.25000000  0.72767188  1
  As  As7  1  0.61323588  0.75000000  0.27232812  1
  C  C8  1  0.06902131  0.75000000  0.74388648  1
  C  C9  1  0.93097869  0.25000000  0.25611352  1
  O  O10  1  0.06730843  0.25000000  0.26145683  1
  O  O11  1  0.14018049  0.75000000  0.96777948  1
  O  O12  1  0.14663946  0.75000000  0.53227950  1
  O  O13  1  0.31197913  0.05941019  0.87907275  1
  O  O14  1  0.31197913  0.44058981  0.87907275  1
  O  O15  1  0.42810144  0.75000000  0.22735016  1
  O  O16  1  0.35852843  0.25000000  0.39907885  1
  O  O17  1  0.64147157  0.75000000  0.60092115  1
  O  O18  1  0.57189856  0.25000000  0.77264984  1
  O  O19  1  0.68802087  0.55941019  0.12092725  1
  O  O20  1  0.68802087  0.94058981  0.12092725  1
  O  O21  1  0.85336054  0.25000000  0.46772050  1
  O  O22  1  0.85981951  0.25000000  0.03222052  1
  O  O23  1  0.93269157  0.75000000  0.73854317  1
