# generated using pymatgen
data_LiVPO5
_symmetry_space_group_name_H-M   'P 1'
_cell_length_a   7.59013755
_cell_length_b   6.41902950
_cell_length_c   8.29762362
_cell_angle_alpha   90.00000000
_cell_angle_beta   90.00000000
_cell_angle_gamma   90.00000000
_symmetry_Int_Tables_number   1
_chemical_formula_structural   LiVPO5
_chemical_formula_sum   'Li4 V4 P4 O20'
_cell_volume   404.27114943
_cell_formula_units_Z   4
loop_
 _symmetry_equiv_pos_site_id
 _symmetry_equiv_pos_as_xyz
  1  'x, y, z'
loop_
 _atom_site_type_symbol
 _atom_site_label
 _atom_site_symmetry_multiplicity
 _atom_site_fract_x
 _atom_site_fract_y
 _atom_site_fract_z
 _atom_site_occupancy
  Li  Li0  1  0.12433446  0.35170157  0.99761377  1
  Li  Li1  1  0.37566554  0.64829843  0.49761377  1
  Li  Li2  1  0.62433446  0.14829843  0.00238623  1
  Li  Li3  1  0.87566554  0.85170157  0.50238623  1
  V  V4  1  0.17052139  0.87058860  0.15345039  1
  V  V5  1  0.32947861  0.12941140  0.65345039  1
  V  V6  1  0.67052139  0.62941140  0.84654961  1
  V  V7  1  0.82947861  0.37058860  0.34654961  1
  P  P8  1  0.05720126  0.85315737  0.84920935  1
  P  P9  1  0.44279874  0.14684263  0.34920935  1
  P  P10  1  0.55720126  0.64684263  0.15079065  1
  P  P11  1  0.94279874  0.35315737  0.65079065  1
  O  O12  1  0.02430859  0.85626658  0.29878139  1
  O  O13  1  0.07476550  0.04052304  0.97031808  1
  O  O14  1  0.13203023  0.32178063  0.71199651  1
  O  O15  1  0.17601879  0.88504357  0.70015122  1
  O  O16  1  0.12177739  0.67342767  0.96329124  1
  O  O17  1  0.37822261  0.32657233  0.46329124  1
  O  O18  1  0.32398121  0.11495643  0.20015122  1
  O  O19  1  0.36796977  0.67821937  0.21199651  1
  O  O20  1  0.42523450  0.95947696  0.47031808  1
  O  O21  1  0.47569141  0.14373342  0.79878139  1
  O  O22  1  0.52430859  0.64373342  0.70121861  1
  O  O23  1  0.57476550  0.45947696  0.02968192  1
  O  O24  1  0.63203023  0.17821937  0.28800349  1
  O  O25  1  0.67601879  0.61495643  0.29984878  1
  O  O26  1  0.62177739  0.82657233  0.03670876  1
  O  O27  1  0.87822261  0.17342767  0.53670876  1
  O  O28  1  0.82398121  0.38504357  0.79984878  1
  O  O29  1  0.86796977  0.82178063  0.78800349  1
  O  O30  1  0.92523450  0.54052304  0.52968192  1
  O  O31  1  0.97569141  0.35626658  0.20121861  1
