# generated using pymatgen
data_Li4CoNi5O12
_symmetry_space_group_name_H-M   'P 1'
_cell_length_a   5.04386651
_cell_length_b   4.92861770
_cell_length_c   9.99764843
_cell_angle_alpha   88.84105180
_cell_angle_beta   87.71930237
_cell_angle_gamma   59.22695985
_symmetry_Int_Tables_number   1
_chemical_formula_structural   Li4CoNi5O12
_chemical_formula_sum   'Li4 Co1 Ni5 O12'
_cell_volume   213.37181654
_cell_formula_units_Z   1
loop_
 _symmetry_equiv_pos_site_id
 _symmetry_equiv_pos_as_xyz
  1  'x, y, z'
loop_
 _atom_site_type_symbol
 _atom_site_label
 _atom_site_symmetry_multiplicity
 _atom_site_fract_x
 _atom_site_fract_y
 _atom_site_fract_z
 _atom_site_occupancy
  Li  Li0  1  0.13558962  0.52778960  0.75278142  1
  Li  Li1  1  0.34285947  0.51941330  0.24730359  1
  Li  Li2  1  0.66023865  0.47413321  0.75145413  1
  Li  Li3  1  0.85934276  0.48916253  0.24935620  1
  Co  Co4  1  0.99891571  0.00495572  0.99984301  1
  Ni  Ni5  1  0.16842933  0.66553019  0.50041125  1
  Ni  Ni6  1  0.66422842  0.67409310  0.99935913  1
  Ni  Ni7  1  0.33342946  0.33568876  0.99949454  1
  Ni  Ni8  1  0.83838774  0.32599431  0.50026846  1
  Ni  Ni9  1  0.49977809  0.00254938  0.50066408  1
  O  O10  1  0.01968991  0.66860810  0.10535738  1
  O  O11  1  0.31433522  0.66845681  0.89403977  1
  O  O12  1  0.17950145  0.35791670  0.39072200  1
  O  O13  1  0.50645292  0.64908271  0.39829022  1
  O  O14  1  0.46472706  0.35753624  0.60978897  1
  O  O15  1  0.16752205  0.99497954  0.59549809  1
  O  O16  1  0.84722215  0.64877284  0.60235415  1
  O  O17  1  0.68415894  0.34173012  0.10613431  1
  O  O18  1  0.31786322  0.00479226  0.09424500  1
  O  O19  1  0.97721272  0.34135914  0.89337177  1
  O  O20  1  0.68077208  0.00522055  0.90464751  1
  O  O21  1  0.83943502  0.99470489  0.40545803  1
