# generated using pymatgen
data_FeSn3(PO4)6
_symmetry_space_group_name_H-M   'P 1'
_cell_length_a   9.04291257
_cell_length_b   9.04291349
_cell_length_c   9.04291282
_cell_angle_alpha   58.25472386
_cell_angle_beta   58.25472016
_cell_angle_gamma   58.25472551
_symmetry_Int_Tables_number   1
_chemical_formula_structural   FeSn3(PO4)6
_chemical_formula_sum   'Fe1 Sn3 P6 O24'
_cell_volume   501.98496917
_cell_formula_units_Z   1
loop_
 _symmetry_equiv_pos_site_id
 _symmetry_equiv_pos_as_xyz
  1  'x, y, z'
loop_
 _atom_site_type_symbol
 _atom_site_label
 _atom_site_symmetry_multiplicity
 _atom_site_fract_x
 _atom_site_fract_y
 _atom_site_fract_z
 _atom_site_occupancy
  Fe  Fe0  1  0.85568973  0.85568973  0.85568973  1
  Sn  Sn1  1  0.14443565  0.14443565  0.14443565  1
  Sn  Sn2  1  0.35593949  0.35593949  0.35593949  1
  Sn  Sn3  1  0.64305149  0.64305149  0.64305149  1
  P  P4  1  0.03867725  0.74713985  0.46542526  1
  P  P5  1  0.46542526  0.03867725  0.74713985  1
  P  P6  1  0.74713985  0.46542526  0.03867725  1
  P  P7  1  0.24470681  0.54339174  0.96291804  1
  P  P8  1  0.54339174  0.96291804  0.24470681  1
  P  P9  1  0.96291804  0.24470681  0.54339174  1
  O  O10  1  0.13115166  0.27010863  0.51747670  1
  O  O11  1  0.27010863  0.51747670  0.13115166  1
  O  O12  1  0.06116260  0.91985643  0.28978736  1
  O  O13  1  0.51747670  0.13115166  0.27010863  1
  O  O14  1  0.21619246  0.57678649  0.44417954  1
  O  O15  1  0.00525704  0.77815153  0.63379598  1
  O  O16  1  0.28978736  0.06116260  0.91985643  1
  O  O17  1  0.44417954  0.21619246  0.57678649  1
  O  O18  1  0.57678649  0.44417954  0.21619246  1
  O  O19  1  0.21974066  0.37478770  0.98718660  1
  O  O20  1  0.07229424  0.71646917  0.93788068  1
  O  O21  1  0.37478770  0.98718660  0.21974066  1
  O  O22  1  0.63379598  0.00525704  0.77815153  1
  O  O23  1  0.91985643  0.28978736  0.06116260  1
  O  O24  1  0.77815153  0.63379598  0.00525704  1
  O  O25  1  0.40999159  0.57436325  0.78086327  1
  O  O26  1  0.57436325  0.78086327  0.40999159  1
  O  O27  1  0.71646917  0.93788068  0.07229424  1
  O  O28  1  0.98718660  0.21974066  0.37478770  1
  O  O29  1  0.78086327  0.40999159  0.57436325  1
  O  O30  1  0.48957590  0.87284836  0.71871384  1
  O  O31  1  0.93788068  0.07229424  0.71646917  1
  O  O32  1  0.71871384  0.48957590  0.87284836  1
  O  O33  1  0.87284836  0.71871384  0.48957590  1
