# generated using pymatgen
data_Li2Cr2O7
_symmetry_space_group_name_H-M   'P 1'
_cell_length_a   13.46957194
_cell_length_b   7.32158743
_cell_length_c   6.10793147
_cell_angle_alpha   90.00000000
_cell_angle_beta   81.48177492
_cell_angle_gamma   90.00000000
_symmetry_Int_Tables_number   1
_chemical_formula_structural   Li2Cr2O7
_chemical_formula_sum   'Li8 Cr8 O28'
_cell_volume   595.71123665
_cell_formula_units_Z   4
loop_
 _symmetry_equiv_pos_site_id
 _symmetry_equiv_pos_as_xyz
  1  'x, y, z'
loop_
 _atom_site_type_symbol
 _atom_site_label
 _atom_site_symmetry_multiplicity
 _atom_site_fract_x
 _atom_site_fract_y
 _atom_site_fract_z
 _atom_site_occupancy
  Li  Li0  1  0.09111423  0.14160672  0.17102580  1
  Li  Li1  1  0.16679878  0.87448026  0.56901983  1
  Li  Li2  1  0.33320122  0.37448026  0.93098017  1
  Li  Li3  1  0.40888577  0.64160672  0.32897420  1
  Li  Li4  1  0.59111423  0.35839328  0.67102580  1
  Li  Li5  1  0.66679878  0.62551974  0.06901983  1
  Li  Li6  1  0.83320122  0.12551974  0.43098017  1
  Li  Li7  1  0.90888577  0.85839328  0.82897420  1
  Cr  Cr8  1  0.09765213  0.35272322  0.67481956  1
  Cr  Cr9  1  0.11734693  0.72875364  0.07914064  1
  Cr  Cr10  1  0.38265307  0.22875364  0.42085936  1
  Cr  Cr11  1  0.40234787  0.85272322  0.82518044  1
  Cr  Cr12  1  0.59765213  0.14727678  0.17481956  1
  Cr  Cr13  1  0.61734693  0.77124636  0.57914064  1
  Cr  Cr14  1  0.88265307  0.27124636  0.92085936  1
  Cr  Cr15  1  0.90234787  0.64727678  0.32518044  1
  O  O16  1  0.02589690  0.57257192  0.20580501  1
  O  O17  1  0.08066519  0.20086423  0.48648251  1
  O  O18  1  0.07794298  0.83265994  0.86593844  1
  O  O19  1  0.16257999  0.52415510  0.56634727  1
  O  O20  1  0.14760967  0.26058733  0.88006968  1
  O  O21  1  0.13556872  0.88729135  0.26208340  1
  O  O22  1  0.21855833  0.61483190  0.00268382  1
  O  O23  1  0.28144167  0.11483190  0.49731618  1
  O  O24  1  0.35239033  0.76058733  0.61993032  1
  O  O25  1  0.33742001  0.02415510  0.93365273  1
  O  O26  1  0.36443128  0.38729135  0.23791660  1
  O  O27  1  0.42205702  0.33265994  0.63406156  1
  O  O28  1  0.41933481  0.70086423  0.01351749  1
  O  O29  1  0.47410310  0.07257192  0.29419499  1
  O  O30  1  0.52589690  0.92742808  0.70580501  1
  O  O31  1  0.58066519  0.29913577  0.98648251  1
  O  O32  1  0.57794298  0.66734006  0.36593844  1
  O  O33  1  0.63556872  0.61270865  0.76208340  1
  O  O34  1  0.66257999  0.97584490  0.06634727  1
  O  O35  1  0.64760967  0.23941267  0.38006968  1
  O  O36  1  0.71855833  0.88516810  0.50268382  1
  O  O37  1  0.78144167  0.38516810  0.99731618  1
  O  O38  1  0.86443128  0.11270865  0.73791660  1
  O  O39  1  0.85239033  0.73941267  0.11993032  1
  O  O40  1  0.83742001  0.47584490  0.43365273  1
  O  O41  1  0.92205702  0.16734006  0.13406156  1
  O  O42  1  0.91933481  0.79913577  0.51351749  1
  O  O43  1  0.97410310  0.42742808  0.79419499  1
