# generated using pymatgen
data_Na3CuBAsO7
_symmetry_space_group_name_H-M   'P 1'
_cell_length_a   9.17156649
_cell_length_b   6.60593540
_cell_length_c   5.28431067
_cell_angle_alpha   90.00000000
_cell_angle_beta   88.63157711
_cell_angle_gamma   90.00000000
_symmetry_Int_Tables_number   1
_chemical_formula_structural   Na3CuBAsO7
_chemical_formula_sum   'Na6 Cu2 B2 As2 O14'
_cell_volume   320.06803730
_cell_formula_units_Z   2
loop_
 _symmetry_equiv_pos_site_id
 _symmetry_equiv_pos_as_xyz
  1  'x, y, z'
loop_
 _atom_site_type_symbol
 _atom_site_label
 _atom_site_symmetry_multiplicity
 _atom_site_fract_x
 _atom_site_fract_y
 _atom_site_fract_z
 _atom_site_occupancy
  Na  Na0  1  0.07901357  0.25000000  0.75891461  1
  Na  Na1  1  0.25095092  0.99965351  0.24531416  1
  Na  Na2  1  0.25095092  0.50034649  0.24531416  1
  Na  Na3  1  0.74904908  0.49965351  0.75468584  1
  Na  Na4  1  0.74904908  0.00034649  0.75468584  1
  Na  Na5  1  0.92098643  0.75000000  0.24108539  1
  Cu  Cu6  1  0.33417129  0.75000000  0.77887410  1
  Cu  Cu7  1  0.66582871  0.25000000  0.22112590  1
  B  B8  1  0.06171906  0.75000000  0.73381554  1
  B  B9  1  0.93828094  0.25000000  0.26618446  1
  As  As10  1  0.42386421  0.25000000  0.70115310  1
  As  As11  1  0.57613579  0.75000000  0.29884690  1
  O  O12  1  0.08427326  0.25000000  0.28951621  1
  O  O13  1  0.13054990  0.75000000  0.96528870  1
  O  O14  1  0.15865409  0.75000000  0.52745782  1
  O  O15  1  0.30843015  0.05131592  0.78518406  1
  O  O16  1  0.30843015  0.44868408  0.78518406  1
  O  O17  1  0.45473034  0.25000000  0.37574202  1
  O  O18  1  0.41396250  0.75000000  0.15138751  1
  O  O19  1  0.58603750  0.25000000  0.84861249  1
  O  O20  1  0.54526966  0.75000000  0.62425798  1
  O  O21  1  0.69156985  0.55131592  0.21481594  1
  O  O22  1  0.69156985  0.94868408  0.21481594  1
  O  O23  1  0.84134591  0.25000000  0.47254218  1
  O  O24  1  0.86945010  0.25000000  0.03471130  1
  O  O25  1  0.91572774  0.75000000  0.71048379  1
