# generated using pymatgen
data_NbCu3(PO4)4
_symmetry_space_group_name_H-M   'P 1'
_cell_length_a   5.00566503
_cell_length_b   9.89929248
_cell_length_c   6.04011295
_cell_angle_alpha   90.00000000
_cell_angle_beta   90.00000000
_cell_angle_gamma   88.75950686
_symmetry_Int_Tables_number   1
_chemical_formula_structural   NbCu3(PO4)4
_chemical_formula_sum   'Nb1 Cu3 P4 O16'
_cell_volume   299.23280543
_cell_formula_units_Z   1
loop_
 _symmetry_equiv_pos_site_id
 _symmetry_equiv_pos_as_xyz
  1  'x, y, z'
loop_
 _atom_site_type_symbol
 _atom_site_label
 _atom_site_symmetry_multiplicity
 _atom_site_fract_x
 _atom_site_fract_y
 _atom_site_fract_z
 _atom_site_occupancy
  Nb  Nb0  1  0.96788849  0.28122088  0.25000000  1
  Cu  Cu1  1  0.05109016  0.72250904  0.75000000  1
  Cu  Cu2  1  0.39484306  0.20298354  0.75000000  1
  Cu  Cu3  1  0.58887606  0.78427865  0.25000000  1
  P  P4  1  0.08856603  0.61260461  0.25000000  1
  P  P5  1  0.40385764  0.09111440  0.25000000  1
  P  P6  1  0.57799252  0.89828609  0.75000000  1
  P  P7  1  0.93345513  0.40617275  0.75000000  1
  O  O8  1  0.14467435  0.44939883  0.25000000  1
  O  O9  1  0.22787973  0.66936016  0.04505147  1
  O  O10  1  0.22787973  0.66936016  0.45494853  1
  O  O11  1  0.23433014  0.37813640  0.75000000  1
  O  O12  1  0.27500096  0.88151251  0.75000000  1
  O  O13  1  0.24477377  0.16754608  0.05779093  1
  O  O14  1  0.24477377  0.16754608  0.44220907  1
  O  O15  1  0.36149587  0.94170338  0.25000000  1
  O  O16  1  0.62994277  0.05250565  0.75000000  1
  O  O17  1  0.73277904  0.82841478  0.55253889  1
  O  O18  1  0.73277904  0.82841478  0.94746111  1
  O  O19  1  0.69646935  0.13326184  0.25000000  1
  O  O20  1  0.78238553  0.61870514  0.25000000  1
  O  O21  1  0.80488464  0.33094633  0.54169210  1
  O  O22  1  0.80488464  0.33094633  0.95830790  1
  O  O23  1  0.84849857  0.55307258  0.75000000  1
