# generated using pymatgen
data_Li2Nb4O11
_symmetry_space_group_name_H-M   'P 1'
_cell_length_a   6.35359049
_cell_length_b   6.35359049
_cell_length_c   12.92980281
_cell_angle_alpha   75.68196041
_cell_angle_beta   104.31803959
_cell_angle_gamma   120.75100025
_symmetry_Int_Tables_number   1
_chemical_formula_structural   Li2Nb4O11
_chemical_formula_sum   'Li4 Nb8 O22'
_cell_volume   430.02865065
_cell_formula_units_Z   2
loop_
 _symmetry_equiv_pos_site_id
 _symmetry_equiv_pos_as_xyz
  1  'x, y, z'
loop_
 _atom_site_type_symbol
 _atom_site_label
 _atom_site_symmetry_multiplicity
 _atom_site_fract_x
 _atom_site_fract_y
 _atom_site_fract_z
 _atom_site_occupancy
  Li  Li0  1  0.14484120  0.35719555  0.43989647  1
  Li  Li1  1  0.35719555  0.14484120  0.06010353  1
  Li  Li2  1  0.64280445  0.85515880  0.93989647  1
  Li  Li3  1  0.85515880  0.64280445  0.56010353  1
  Nb  Nb4  1  0.24889685  0.60366893  0.74988840  1
  Nb  Nb5  1  0.39633107  0.75110315  0.24988840  1
  Nb  Nb6  1  0.00000000  0.50000000  0.00000000  1
  Nb  Nb7  1  0.88664709  0.88664709  0.75000000  1
  Nb  Nb8  1  0.11335291  0.11335291  0.25000000  1
  Nb  Nb9  1  0.60366893  0.24889685  0.75011160  1
  Nb  Nb10  1  0.50000000  0.00000000  0.50000000  1
  Nb  Nb11  1  0.75110315  0.39633107  0.25011160  1
  O  O12  1  0.24904717  0.01177530  0.74862309  1
  O  O13  1  0.98822470  0.75095283  0.24862309  1
  O  O14  1  0.25397133  0.58976338  0.90591649  1
  O  O15  1  0.24315109  0.73498376  0.59285378  1
  O  O16  1  0.59366050  0.90754653  0.78048614  1
  O  O17  1  0.41023662  0.74602867  0.40591649  1
  O  O18  1  0.75986384  0.91279707  0.59281420  1
  O  O19  1  0.26501624  0.75684891  0.09285378  1
  O  O20  1  0.09245347  0.40633950  0.28048614  1
  O  O21  1  0.50161439  0.50161439  0.75000000  1
  O  O22  1  0.91279707  0.75986384  0.90718580  1
  O  O23  1  0.08720293  0.24013616  0.09281420  1
  O  O24  1  0.49838561  0.49838561  0.25000000  1
  O  O25  1  0.90754653  0.59366050  0.71951386  1
  O  O26  1  0.73498376  0.24315109  0.90714622  1
  O  O27  1  0.24013616  0.08720293  0.40718580  1
  O  O28  1  0.58976338  0.25397133  0.59408351  1
  O  O29  1  0.40633950  0.09245347  0.21951386  1
  O  O30  1  0.75684891  0.26501624  0.40714622  1
  O  O31  1  0.74602867  0.41023662  0.09408351  1
  O  O32  1  0.01177530  0.24904717  0.75137691  1
  O  O33  1  0.75095283  0.98822470  0.25137691  1
