# generated using pymatgen
data_BiBOF4
_symmetry_space_group_name_H-M   'P 1'
_cell_length_a   4.31132967
_cell_length_b   4.31132967
_cell_length_c   9.46970283
_cell_angle_alpha   90.00000000
_cell_angle_beta   90.00000000
_cell_angle_gamma   90.78827061
_symmetry_Int_Tables_number   1
_chemical_formula_structural   BiBOF4
_chemical_formula_sum   'Bi2 B2 O2 F8'
_cell_volume   176.00204454
_cell_formula_units_Z   2
loop_
 _symmetry_equiv_pos_site_id
 _symmetry_equiv_pos_as_xyz
  1  'x, y, z'
loop_
 _atom_site_type_symbol
 _atom_site_label
 _atom_site_symmetry_multiplicity
 _atom_site_fract_x
 _atom_site_fract_y
 _atom_site_fract_z
 _atom_site_occupancy
  Bi  Bi0  1  0.49736169  0.00263831  0.12185152  1
  Bi  Bi1  1  0.99736169  0.50263831  0.87814848  1
  B  B2  1  0.01520448  0.48479552  0.33600319  1
  B  B3  1  0.51520448  0.98479552  0.66399681  1
  O  O4  1  0.93251982  0.06748018  -0.00000000  1
  O  O5  1  0.43251982  0.56748018  0.00000000  1
  F  F6  1  0.95460670  0.16530154  0.31384100  1
  F  F7  1  0.83469846  0.04539330  0.68615900  1
  F  F8  1  0.33469846  0.54539330  0.31384100  1
  F  F9  1  0.45460670  0.66530154  0.68615900  1
  F  F10  1  0.90356521  0.59643479  0.45820222  1
  F  F11  1  0.40356521  0.09643479  0.54179778  1
  F  F12  1  0.86979365  0.63020635  0.20728300  1
  F  F13  1  0.36979365  0.13020635  0.79271700  1
