# generated using pymatgen
data_NaCrAsCO7
_symmetry_space_group_name_H-M   'P 1'
_cell_length_a   9.26561309
_cell_length_b   6.47245533
_cell_length_c   5.37264476
_cell_angle_alpha   90.00000000
_cell_angle_beta   87.27337290
_cell_angle_gamma   90.00000000
_symmetry_Int_Tables_number   1
_chemical_formula_structural   NaCrAsCO7
_chemical_formula_sum   'Na2 Cr2 As2 C2 O14'
_cell_volume   321.83953731
_cell_formula_units_Z   2
loop_
 _symmetry_equiv_pos_site_id
 _symmetry_equiv_pos_as_xyz
  1  'x, y, z'
loop_
 _atom_site_type_symbol
 _atom_site_label
 _atom_site_symmetry_multiplicity
 _atom_site_fract_x
 _atom_site_fract_y
 _atom_site_fract_z
 _atom_site_occupancy
  Na  Na0  1  0.21727093  0.48472663  0.23057005  1
  Na  Na1  1  0.78272907  0.98472663  0.76942995  1
  Cr  Cr2  1  0.33357626  0.76246026  0.79232886  1
  Cr  Cr3  1  0.66642374  0.26246026  0.20767114  1
  As  As4  1  0.43455690  0.25468761  0.71698300  1
  As  As5  1  0.56544310  0.75468761  0.28301700  1
  C  C6  1  0.07951587  0.74433171  0.72640573  1
  C  C7  1  0.92048413  0.24433171  0.27359427  1
  O  O8  1  0.04838438  0.25076139  0.32157621  1
  O  O9  1  0.13457513  0.75027375  0.94857207  1
  O  O10  1  0.18932544  0.73391149  0.54927861  1
  O  O11  1  0.31987871  0.05022926  0.79260262  1
  O  O12  1  0.32501604  0.45613541  0.80814370  1
  O  O13  1  0.41006472  0.74082981  0.12279563  1
  O  O14  1  0.47659636  0.26950467  0.40291227  1
  O  O15  1  0.52340364  0.76950467  0.59708773  1
  O  O16  1  0.58993528  0.24082981  0.87720437  1
  O  O17  1  0.67498396  0.95613541  0.19185630  1
  O  O18  1  0.68012129  0.55022926  0.20739738  1
  O  O19  1  0.81067456  0.23391149  0.45072139  1
  O  O20  1  0.86542487  0.25027375  0.05142793  1
  O  O21  1  0.95161562  0.75076139  0.67842379  1
