# generated using pymatgen
data_LuBiO3
_symmetry_space_group_name_H-M   'P 1'
_cell_length_a   5.89287462
_cell_length_b   5.89273343
_cell_length_c   6.10801691
_cell_angle_alpha   61.16627685
_cell_angle_beta   118.83184610
_cell_angle_gamma   119.98926181
_symmetry_Int_Tables_number   1
_chemical_formula_structural   LuBiO3
_chemical_formula_sum   'Lu2 Bi2 O6'
_cell_volume   152.58311981
_cell_formula_units_Z   2
loop_
 _symmetry_equiv_pos_site_id
 _symmetry_equiv_pos_as_xyz
  1  'x, y, z'
loop_
 _atom_site_type_symbol
 _atom_site_label
 _atom_site_symmetry_multiplicity
 _atom_site_fract_x
 _atom_site_fract_y
 _atom_site_fract_z
 _atom_site_occupancy
  Lu  Lu0  1  0.85476911  0.14523593  0.56436185  1
  Lu  Lu1  1  0.14523420  0.85476294  0.43564296  1
  Bi  Bi2  1  0.64122718  0.35881074  0.92354647  1
  Bi  Bi3  1  0.35877762  0.64118681  0.07645132  1
  O  O4  1  0.98058627  0.78380582  0.74358424  1
  O  O5  1  0.54675301  0.01935112  0.74361206  1
  O  O6  1  0.21617953  0.45319399  0.74354359  1
  O  O7  1  0.78380557  0.54680725  0.25645747  1
  O  O8  1  0.45325041  0.98062888  0.25638664  1
  O  O9  1  0.01941610  0.21621551  0.25641339  1
