# generated using pymatgen
data_BaLa2Cl8
_symmetry_space_group_name_H-M   'P 1'
_cell_length_a   10.39263512
_cell_length_b   10.39263569
_cell_length_c   10.72125683
_cell_angle_alpha   64.39139106
_cell_angle_beta   115.60860785
_cell_angle_gamma   121.25879516
_symmetry_Int_Tables_number   1
_chemical_formula_structural   BaLa2Cl8
_chemical_formula_sum   'Ba2 La4 Cl16'
_cell_volume   859.54269503
_cell_formula_units_Z   2
loop_
 _symmetry_equiv_pos_site_id
 _symmetry_equiv_pos_as_xyz
  1  'x, y, z'
loop_
 _atom_site_type_symbol
 _atom_site_label
 _atom_site_symmetry_multiplicity
 _atom_site_fract_x
 _atom_site_fract_y
 _atom_site_fract_z
 _atom_site_occupancy
  Ba  Ba0  1  0.01966271  0.01966271  0.75000000  1
  Ba  Ba1  1  0.98033729  0.98033729  0.25000000  1
  La  La2  1  0.99753111  0.47554689  0.22863239  1
  La  La3  1  0.52445311  0.00246889  0.72863239  1
  La  La4  1  0.47554689  0.99753111  0.27136761  1
  La  La5  1  0.00246889  0.52445311  0.77136761  1
  Cl  Cl6  1  0.05388486  0.35457713  0.67914297  1
  Cl  Cl7  1  0.03130752  0.20291578  0.41900386  1
  Cl  Cl8  1  0.33279751  0.68597805  0.81662066  1
  Cl  Cl9  1  0.03706331  0.33884708  0.06160893  1
  Cl  Cl10  1  0.35457713  0.05388486  0.82085703  1
  Cl  Cl11  1  0.31402195  0.66720249  0.31662066  1
  Cl  Cl12  1  0.79708422  0.96869248  0.91900386  1
  Cl  Cl13  1  0.66115292  0.96293669  0.56160893  1
  Cl  Cl14  1  0.33884708  0.03706331  0.43839107  1
  Cl  Cl15  1  0.20291578  0.03130752  0.08099614  1
  Cl  Cl16  1  0.68597805  0.33279751  0.68337934  1
  Cl  Cl17  1  0.64542287  0.94611514  0.17914297  1
  Cl  Cl18  1  0.96293669  0.66115292  0.93839107  1
  Cl  Cl19  1  0.66720249  0.31402195  0.18337934  1
  Cl  Cl20  1  0.96869248  0.79708422  0.58099614  1
  Cl  Cl21  1  0.94611514  0.64542287  0.32085703  1
