# generated using pymatgen
data_Mn3CrO8
_symmetry_space_group_name_H-M   'P 1'
_cell_length_a   10.20296069
_cell_length_b   10.17442095
_cell_length_c   14.41118411
_cell_angle_alpha   19.38289282
_cell_angle_beta   19.33554590
_cell_angle_gamma   33.37005213
_symmetry_Int_Tables_number   1
_chemical_formula_structural   Mn3CrO8
_chemical_formula_sum   'Mn3 Cr1 O8'
_cell_volume   142.33441651
_cell_formula_units_Z   1
loop_
 _symmetry_equiv_pos_site_id
 _symmetry_equiv_pos_as_xyz
  1  'x, y, z'
loop_
 _atom_site_type_symbol
 _atom_site_label
 _atom_site_symmetry_multiplicity
 _atom_site_fract_x
 _atom_site_fract_y
 _atom_site_fract_z
 _atom_site_occupancy
  Mn  Mn0  1  0.99961235  0.50460710  0.99710296  1
  Mn  Mn1  1  0.50011513  0.00450942  0.99674884  1
  Mn  Mn2  1  0.50032349  0.50445281  0.99645001  1
  Cr  Cr3  1  0.99966810  0.00401371  0.99645979  1
  O  O4  1  0.00265903  0.00499591  0.26120846  1
  O  O5  1  0.00200497  0.50206107  0.26366443  1
  O  O6  1  0.49794752  0.00398076  0.26498621  1
  O  O7  1  0.99848440  0.00477707  0.73130057  1
  O  O8  1  0.50389535  0.50674091  0.25946466  1
  O  O9  1  0.99805284  0.50524792  0.73043191  1
  O  O10  1  0.49933126  0.00373833  0.73068039  1
  O  O11  1  0.49716555  0.50383399  0.73193277  1
