# generated using pymatgen
data_Mn5FeO12
_symmetry_space_group_name_H-M   'P 1'
_cell_length_a   5.08897658
_cell_length_b   5.09481853
_cell_length_c   9.82453233
_cell_angle_alpha   89.95261634
_cell_angle_beta   89.90512484
_cell_angle_gamma   60.03792611
_symmetry_Int_Tables_number   1
_chemical_formula_structural   Mn5FeO12
_chemical_formula_sum   'Mn5 Fe1 O12'
_cell_volume   220.68201561
_cell_formula_units_Z   1
loop_
 _symmetry_equiv_pos_site_id
 _symmetry_equiv_pos_as_xyz
  1  'x, y, z'
loop_
 _atom_site_type_symbol
 _atom_site_label
 _atom_site_symmetry_multiplicity
 _atom_site_fract_x
 _atom_site_fract_y
 _atom_site_fract_z
 _atom_site_occupancy
  Mn  Mn0  1  0.16667615  0.66664770  0.50000000  1
  Mn  Mn1  1  0.66673280  0.66653340  1.00000000  1
  Mn  Mn2  1  0.33326720  0.33346660  0.00000000  1
  Mn  Mn3  1  0.83332385  0.33335230  0.50000000  1
  Mn  Mn4  1  0.50000000  0.00000000  0.50000000  1
  Fe  Fe5  1  0.00000000  0.00000000  0.00000000  1
  O  O6  1  0.99985578  0.66015223  0.09834334  1
  O  O7  1  0.33999200  0.66015223  0.90165666  1
  O  O8  1  0.16708136  0.33333426  0.40316057  1
  O  O9  1  0.50041563  0.66666574  0.40316057  1
  O  O10  1  0.49958437  0.33333426  0.59683943  1
  O  O11  1  0.16624188  0.00000000  0.59685276  1
  O  O12  1  0.83291864  0.66666574  0.59683943  1
  O  O13  1  0.66000800  0.33984777  0.09834334  1
  O  O14  1  0.33872115  1.00000000  0.09805152  1
  O  O15  1  0.00014422  0.33984777  0.90165666  1
  O  O16  1  0.66127885  0.00000000  0.90194848  1
  O  O17  1  0.83375812  1.00000000  0.40314724  1
