# generated using pymatgen
data_Sm2Zr2O7
_symmetry_space_group_name_H-M   'P 1'
_cell_length_a   7.98392073
_cell_length_b   13.92435696
_cell_length_c   5.63867404
_cell_angle_alpha   90.00000000
_cell_angle_beta   90.00000000
_cell_angle_gamma   98.44165048
_symmetry_Int_Tables_number   1
_chemical_formula_structural   Sm2Zr2O7
_chemical_formula_sum   'Sm8 Zr8 O28'
_cell_volume   620.06537573
_cell_formula_units_Z   4
loop_
 _symmetry_equiv_pos_site_id
 _symmetry_equiv_pos_as_xyz
  1  'x, y, z'
loop_
 _atom_site_type_symbol
 _atom_site_label
 _atom_site_symmetry_multiplicity
 _atom_site_fract_x
 _atom_site_fract_y
 _atom_site_fract_z
 _atom_site_occupancy
  Sm  Sm0  1  0.13896583  0.56180370  0.33364504  1
  Sm  Sm1  1  0.23452257  0.92249796  0.77492407  1
  Sm  Sm2  1  0.28521410  0.13064015  0.24556628  1
  Sm  Sm3  1  0.35831916  0.39647358  0.75987086  1
  Sm  Sm4  1  0.64168084  0.60352642  0.25987086  1
  Sm  Sm5  1  0.71478590  0.86935985  0.74556628  1
  Sm  Sm6  1  0.76547743  0.07750204  0.27492407  1
  Sm  Sm7  1  0.86103417  0.43819630  0.83364504  1
  Zr  Zr8  1  0.07461436  0.31905089  0.26702822  1
  Zr  Zr9  1  0.02865639  0.11814239  0.76341427  1
  Zr  Zr10  1  0.41172564  0.67461385  0.77816968  1
  Zr  Zr11  1  0.46948448  0.87677593  0.26485916  1
  Zr  Zr12  1  0.53051552  0.12322407  0.76485916  1
  Zr  Zr13  1  0.58827436  0.32538615  0.27816968  1
  Zr  Zr14  1  0.97134361  0.88185761  0.26341427  1
  Zr  Zr15  1  0.92538564  0.68094911  0.76702822  1
  O  O16  1  0.07978520  0.41461241  0.55058500  1
  O  O17  1  0.00466391  0.17549742  0.42595627  1
  O  O18  1  0.17181110  0.68292172  0.64807485  1
  O  O19  1  0.22238914  0.88669500  0.36825394  1
  O  O20  1  0.14339110  0.43332924  0.04639922  1
  O  O21  1  0.06789271  0.02047920  0.04548539  1
  O  O22  1  0.13521454  0.22916118  0.96719102  1
  O  O23  1  0.36865271  0.61944475  0.10213967  1
  O  O24  1  0.42128474  0.82572694  0.92178381  1
  O  O25  1  0.27162739  0.08497074  0.64571145  1
  O  O26  1  0.32431217  0.29990661  0.39299391  1
  O  O27  1  0.41527421  0.55035123  0.57504127  1
  O  O28  1  0.55573850  0.97815451  0.54212751  1
  O  O29  1  0.52194888  0.76791027  0.47326711  1
  O  O30  1  0.47805112  0.23208973  0.97326711  1
  O  O31  1  0.44426150  0.02184549  0.04212751  1
  O  O32  1  0.58472579  0.44964877  0.07504127  1
  O  O33  1  0.67568783  0.70009339  0.89299391  1
  O  O34  1  0.72837261  0.91502926  0.14571145  1
  O  O35  1  0.57871526  0.17427306  0.42178381  1
  O  O36  1  0.63134729  0.38055525  0.60213967  1
  O  O37  1  0.86478546  0.77083882  0.46719102  1
  O  O38  1  0.93210729  0.97952080  0.54548539  1
  O  O39  1  0.85660890  0.56667076  0.54639922  1
  O  O40  1  0.77761086  0.11330500  0.86825394  1
  O  O41  1  0.82818890  0.31707828  0.14807485  1
  O  O42  1  0.99533609  0.82450258  0.92595627  1
  O  O43  1  0.92021480  0.58538759  0.05058500  1
