# generated using pymatgen
data_Li5Fe3(CuO5)2
_symmetry_space_group_name_H-M   'P 1'
_cell_length_a   5.11735521
_cell_length_b   5.13252729
_cell_length_c   7.90227916
_cell_angle_alpha   108.75993619
_cell_angle_beta   102.21008561
_cell_angle_gamma   100.00627973
_symmetry_Int_Tables_number   1
_chemical_formula_structural   Li5Fe3(CuO5)2
_chemical_formula_sum   'Li5 Fe3 Cu2 O10'
_cell_volume   185.41030302
_cell_formula_units_Z   1
loop_
 _symmetry_equiv_pos_site_id
 _symmetry_equiv_pos_as_xyz
  1  'x, y, z'
loop_
 _atom_site_type_symbol
 _atom_site_label
 _atom_site_symmetry_multiplicity
 _atom_site_fract_x
 _atom_site_fract_y
 _atom_site_fract_z
 _atom_site_occupancy
  Li  Li0  1  0.21278412  0.90267786  0.41447981  1
  Li  Li1  1  0.38318948  0.28507588  0.77637722  1
  Li  Li2  1  0.50000000  0.50000000  0.50000000  1
  Li  Li3  1  0.61681052  0.71492412  0.22362278  1
  Li  Li4  1  0.78721588  0.09732214  0.58552019  1
  Fe  Fe5  1  0.00000000  0.50000000  0.00000000  1
  Fe  Fe6  1  0.68748076  0.89070675  0.88566464  1
  Fe  Fe7  1  0.31251924  0.10929325  0.11433536  1
  Cu  Cu8  1  0.09672850  0.69591267  0.68952419  1
  Cu  Cu9  1  0.90327150  0.30408733  0.31047581  1
  O  O10  1  0.04843237  0.10666781  0.86177614  1
  O  O11  1  0.33532122  0.71210255  0.94546060  1
  O  O12  1  0.13575982  0.31293476  0.54457417  1
  O  O13  1  0.23251019  0.48181020  0.23270767  1
  O  O14  1  0.44835323  0.89696423  0.66191776  1
  O  O15  1  0.55164677  0.10303577  0.33808224  1
  O  O16  1  0.76748981  0.51818980  0.76729233  1
  O  O17  1  0.86424018  0.68706524  0.45542583  1
  O  O18  1  0.66467878  0.28789745  0.05453940  1
  O  O19  1  0.95156763  0.89333219  0.13822386  1
