# generated using pymatgen
data_Li3Cr(NiO3)2
_symmetry_space_group_name_H-M   'P 1'
_cell_length_a   15.25391295
_cell_length_b   9.68980810
_cell_length_c   9.68980820
_cell_angle_alpha   17.17910140
_cell_angle_beta   16.74966350
_cell_angle_gamma   16.74966222
_symmetry_Int_Tables_number   1
_chemical_formula_structural   Li3Cr(NiO3)2
_chemical_formula_sum   'Li3 Cr1 Ni2 O6'
_cell_volume   105.44441062
_cell_formula_units_Z   1
loop_
 _symmetry_equiv_pos_site_id
 _symmetry_equiv_pos_as_xyz
  1  'x, y, z'
loop_
 _atom_site_type_symbol
 _atom_site_label
 _atom_site_symmetry_multiplicity
 _atom_site_fract_x
 _atom_site_fract_y
 _atom_site_fract_z
 _atom_site_occupancy
  Li  Li0  1  0.16666700  0.50000000  0.50000000  1
  Li  Li1  1  0.50272106  0.49520175  0.49520175  1
  Li  Li2  1  0.83061294  0.50479825  0.50479825  1
  Cr  Cr3  1  0.66666700  0.00000000  0.00000000  1
  Ni  Ni4  1  0.99731886  0.00310110  0.00310110  1
  Ni  Ni5  1  0.33601414  0.99689890  0.99689890  1
  O  O6  1  0.25442903  0.25420196  0.25420196  1
  O  O7  1  0.57122937  0.26415453  0.26415453  1
  O  O8  1  0.07890397  0.74579804  0.74579804  1
  O  O9  1  0.89457495  0.27017554  0.27017554  1
  O  O10  1  0.43875805  0.72982446  0.72982446  1
  O  O11  1  0.76210363  0.73584547  0.73584547  1
