# generated using pymatgen
data_Co3OF5
_symmetry_space_group_name_H-M   'P 1'
_cell_length_a   7.37626796
_cell_length_b   5.68296339
_cell_length_c   5.68296339
_cell_angle_alpha   74.11224056
_cell_angle_beta   73.07463720
_cell_angle_gamma   73.07463720
_symmetry_Int_Tables_number   1
_chemical_formula_structural   Co3OF5
_chemical_formula_sum   'Co6 O2 F10'
_cell_volume   213.33452775
_cell_formula_units_Z   2
loop_
 _symmetry_equiv_pos_site_id
 _symmetry_equiv_pos_as_xyz
  1  'x, y, z'
loop_
 _atom_site_type_symbol
 _atom_site_label
 _atom_site_symmetry_multiplicity
 _atom_site_fract_x
 _atom_site_fract_y
 _atom_site_fract_z
 _atom_site_occupancy
  Co  Co0  1  0.83394867  0.66991563  0.66991563  1
  Co  Co1  1  0.32616899  0.64264488  0.64264488  1
  Co  Co2  1  0.66666700  0.33333300  0.33333300  1
  Co  Co3  1  0.16666700  0.33333300  0.33333300  1
  Co  Co4  1  0.49938433  0.99675137  0.99675137  1
  Co  Co5  1  0.00716401  0.02402212  0.02402212  1
  O  O6  1  0.97062218  0.23178999  0.23178999  1
  O  O7  1  0.36271082  0.43487701  0.43487701  1
  F  F8  1  0.33094112  0.36024094  0.96477182  1
  F  F9  1  0.66666700  0.03103474  0.63563126  1
  F  F10  1  0.62504932  0.57214538  0.57214538  1
  F  F11  1  0.29834494  0.88801692  0.88801692  1
  F  F12  1  0.03498906  0.77865008  0.77865008  1
  F  F13  1  0.70828368  0.09452162  0.09452162  1
  F  F14  1  0.33094112  0.96477182  0.36024094  1
  F  F15  1  0.66666700  0.63563126  0.03103474  1
  F  F16  1  0.00239288  0.30642606  0.70189418  1
  F  F17  1  0.00239288  0.70189418  0.30642606  1
