# generated using pymatgen
data_Mn3BiO8
_symmetry_space_group_name_H-M   'P 1'
_cell_length_a   8.60947538
_cell_length_b   8.60945769
_cell_length_c   8.60927554
_cell_angle_alpha   90.00132051
_cell_angle_beta   89.99894789
_cell_angle_gamma   90.00259704
_symmetry_Int_Tables_number   1
_chemical_formula_structural   Mn3BiO8
_chemical_formula_sum   'Mn12 Bi4 O32'
_cell_volume   638.14459014
_cell_formula_units_Z   4
loop_
 _symmetry_equiv_pos_site_id
 _symmetry_equiv_pos_as_xyz
  1  'x, y, z'
loop_
 _atom_site_type_symbol
 _atom_site_label
 _atom_site_symmetry_multiplicity
 _atom_site_fract_x
 _atom_site_fract_y
 _atom_site_fract_z
 _atom_site_occupancy
  Mn  Mn0  1  0.09888670  0.15112447  0.62501403  1
  Mn  Mn1  1  0.12500646  0.40112201  0.84889033  1
  Mn  Mn2  1  0.15111153  0.62501020  0.09891635  1
  Mn  Mn3  1  0.34888631  0.37499958  0.59890536  1
  Mn  Mn4  1  0.37498849  0.59889566  0.34890655  1
  Mn  Mn5  1  0.40110908  0.84888950  0.12501886  1
  Mn  Mn6  1  0.59888721  0.34888310  0.37498404  1
  Mn  Mn7  1  0.62500977  0.09889021  0.15109764  1
  Mn  Mn8  1  0.65110616  0.87499517  0.90108930  1
  Mn  Mn9  1  0.84888525  0.12500683  0.40110974  1
  Mn  Mn10  1  0.87499704  0.90111817  0.65111229  1
  Mn  Mn11  1  0.90111254  0.65111334  0.87499242  1
  Bi  Bi12  1  0.12498473  0.87502856  0.37503384  1
  Bi  Bi13  1  0.37500611  0.12498140  0.87502704  1
  Bi  Bi14  1  0.62500527  0.62496760  0.62496683  1
  Bi  Bi15  1  0.87501641  0.37501841  0.12497387  1
  O  O16  1  0.07159320  0.13843815  0.40264377  1
  O  O17  1  0.09738310  0.92841439  0.63844712  1
  O  O18  1  0.12570839  0.62570877  0.87431277  1
  O  O19  1  0.11159238  0.17841358  0.84737411  1
  O  O20  1  0.13842518  0.40262962  0.07160242  1
  O  O21  1  0.12431926  0.37569122  0.62429761  1
  O  O22  1  0.15262940  0.61158913  0.32162254  1
  O  O23  1  0.17840576  0.84735439  0.11158880  1
  O  O24  1  0.32159369  0.15265336  0.61158329  1
  O  O25  1  0.34736657  0.38841224  0.82160966  1
  O  O26  1  0.37567439  0.62432495  0.12431427  1
  O  O27  1  0.36158233  0.59738180  0.57161835  1
  O  O28  1  0.38840560  0.82160255  0.34738101  1
  O  O29  1  0.37429355  0.37430133  0.37430930  1
  O  O30  1  0.40262385  0.07159951  0.13845124  1
  O  O31  1  0.42840141  0.86156037  0.90264324  1
  O  O32  1  0.57159262  0.36156101  0.59736095  1
  O  O33  1  0.59737873  0.57159786  0.36155263  1
  O  O34  1  0.62570306  0.87430348  0.12569122  1
  O  O35  1  0.61159622  0.32159621  0.15262484  1
  O  O36  1  0.63843052  0.09737880  0.92839208  1
  O  O37  1  0.62431684  0.12431814  0.37569951  1
  O  O38  1  0.65263797  0.88840763  0.67838788  1
  O  O39  1  0.67840203  0.65264827  0.88840992  1
  O  O40  1  0.82159586  0.34735388  0.38842121  1
  O  O41  1  0.84736447  0.11159062  0.17840102  1
  O  O42  1  0.87567790  0.87568352  0.87570062  1
  O  O43  1  0.86157140  0.90262327  0.42840256  1
  O  O44  1  0.88841987  0.67841077  0.65263000  1
  O  O45  1  0.87429456  0.12570860  0.62570758  1
  O  O46  1  0.90262173  0.42840229  0.86155503  1
  O  O47  1  0.92840009  0.63843608  0.09736894  1
