# generated using pymatgen
data_Mn7V(PO4)12
_symmetry_space_group_name_H-M   'P 1'
_cell_length_a   8.47939294
_cell_length_b   8.45042600
_cell_length_c   11.78100118
_cell_angle_alpha   89.97163400
_cell_angle_beta   89.94495243
_cell_angle_gamma   90.04000876
_symmetry_Int_Tables_number   1
_chemical_formula_structural   Mn7V(PO4)12
_chemical_formula_sum   'Mn7 V1 P12 O48'
_cell_volume   844.16084427
_cell_formula_units_Z   1
loop_
 _symmetry_equiv_pos_site_id
 _symmetry_equiv_pos_as_xyz
  1  'x, y, z'
loop_
 _atom_site_type_symbol
 _atom_site_label
 _atom_site_symmetry_multiplicity
 _atom_site_fract_x
 _atom_site_fract_y
 _atom_site_fract_z
 _atom_site_occupancy
  Mn  Mn0  1  0.25003817  0.96621830  0.61914025  1
  Mn  Mn1  1  0.25059508  0.53437511  0.38141937  1
  Mn  Mn2  1  0.24981811  0.03491803  0.11821912  1
  Mn  Mn3  1  0.24974665  0.46621143  0.88152879  1
  Mn  Mn4  1  0.75017656  0.53458005  0.11913156  1
  Mn  Mn5  1  0.75038805  0.96629213  0.88204703  1
  Mn  Mn6  1  0.74973304  0.03400740  0.38168794  1
  V  V7  1  0.74971506  0.46927667  0.62205983  1
  P  P8  1  0.03744234  0.24790781  0.49932145  1
  P  P9  1  0.10618453  0.39134709  0.14527283  1
  P  P10  1  0.10651671  0.10869488  0.85497373  1
  P  P11  1  0.38937588  0.60858420  0.64548660  1
  P  P12  1  0.39327817  0.89156577  0.35515744  1
  P  P13  1  0.46381281  0.75015799  0.00016820  1
  P  P14  1  0.53666780  0.25041365  0.00014622  1
  P  P15  1  0.60585838  0.39212447  0.35437631  1
  P  P16  1  0.60509745  0.10520873  0.64527820  1
  P  P17  1  0.89648821  0.61059136  0.85758750  1
  P  P18  1  0.89353247  0.89164288  0.14542132  1
  P  P19  1  0.96547831  0.75267752  0.49864574  1
  O  O20  1  0.06204252  0.64361141  0.42191624  1
  O  O21  1  0.05930042  0.85771695  0.57977765  1
  O  O22  1  0.07524995  0.90085397  0.16015766  1
  O  O23  1  0.07625360  0.60139353  0.84237909  1
  O  O24  1  0.14494447  0.15937315  0.58319354  1
  O  O25  1  0.14572537  0.34120386  0.41859264  1
  O  O26  1  0.15884235  0.43858555  0.02656410  1
  O  O27  1  0.15865459  0.06148184  0.97395662  1
  O  O28  1  0.15109532  0.22094832  0.17631291  1
  O  O29  1  0.15072986  0.27935931  0.82402797  1
  O  O30  1  0.17929705  0.51358703  0.22762429  1
  O  O31  1  0.17959478  0.98599276  0.77320047  1
  O  O32  1  0.32060658  0.01405561  0.27253549  1
  O  O33  1  0.31785817  0.48622383  0.72723099  1
  O  O34  1  0.35163926  0.78054503  0.67594569  1
  O  O35  1  0.34930501  0.72103584  0.32366430  1
  O  O36  1  0.33999297  0.56311470  0.52582177  1
  O  O37  1  0.33989814  0.93923134  0.47370270  1
  O  O38  1  0.35333974  0.84065605  0.08185438  1
  O  O39  1  0.35488709  0.65907569  0.91845324  1
  O  O40  1  0.42428314  0.10126815  0.65982785  1
  O  O41  1  0.42449968  0.39946220  0.34241883  1
  O  O42  1  0.44064222  0.14065220  0.07739150  1
  O  O43  1  0.44050915  0.35893835  0.92258575  1
  O  O44  1  0.55971908  0.64135048  0.07793474  1
  O  O45  1  0.55997798  0.85967740  0.92291960  1
  O  O46  1  0.57251685  0.59095851  0.65599091  1
  O  O47  1  0.57481547  0.90086772  0.34022381  1
  O  O48  1  0.64626546  0.34050720  0.08250766  1
  O  O49  1  0.64652997  0.16029877  0.91771825  1
  O  O50  1  0.65742553  0.05874371  0.52619638  1
  O  O51  1  0.66287181  0.43899947  0.47378172  1
  O  O52  1  0.65176896  0.22166441  0.32503342  1
  O  O53  1  0.65304676  0.27906889  0.67035015  1
  O  O54  1  0.67972546  0.51447680  0.27305459  1
  O  O55  1  0.68215838  0.98682092  0.72738348  1
  O  O56  1  0.82015780  0.01424300  0.22735867  1
  O  O57  1  0.82221076  0.49302200  0.76943132  1
  O  O58  1  0.84920575  0.72105071  0.17624917  1
  O  O59  1  0.84831391  0.77923460  0.82481387  1
  O  O60  1  0.83915673  0.55891197  0.97386623  1
  O  O61  1  0.84171166  0.93888841  0.02648182  1
  O  O62  1  0.85564624  0.65169914  0.57675089  1
  O  O63  1  0.85336298  0.84115754  0.41843914  1
  O  O64  1  0.92505231  0.10038604  0.84088654  1
  O  O65  1  0.92463291  0.40020558  0.15990831  1
  O  O66  1  0.94184370  0.13856787  0.42188064  1
  O  O67  1  0.93274934  0.35404074  0.57463258  1
