# generated using pymatgen
data_LiFePO4
_symmetry_space_group_name_H-M   'P 1'
_cell_length_a   8.74640023
_cell_length_b   7.90014623
_cell_length_c   15.32486626
_cell_angle_alpha   90.00000000
_cell_angle_beta   91.10109891
_cell_angle_gamma   90.00000000
_symmetry_Int_Tables_number   1
_chemical_formula_structural   LiFePO4
_chemical_formula_sum   'Li12 Fe12 P12 O48'
_cell_volume   1058.71963408
_cell_formula_units_Z   12
loop_
 _symmetry_equiv_pos_site_id
 _symmetry_equiv_pos_as_xyz
  1  'x, y, z'
loop_
 _atom_site_type_symbol
 _atom_site_label
 _atom_site_symmetry_multiplicity
 _atom_site_fract_x
 _atom_site_fract_y
 _atom_site_fract_z
 _atom_site_occupancy
  Li  Li0  1  0.20933607  0.99144675  0.93575418  1
  Li  Li1  1  0.22879792  0.01063129  0.58534406  1
  Li  Li2  1  0.24937744  0.87131229  0.24549597  1
  Li  Li3  1  0.25062256  0.37131229  0.25450403  1
  Li  Li4  1  0.27120208  0.51063129  0.91465594  1
  Li  Li5  1  0.29066393  0.49144675  0.56424582  1
  Li  Li6  1  0.70933607  0.50855325  0.43575418  1
  Li  Li7  1  0.72879792  0.48936871  0.08534406  1
  Li  Li8  1  0.74937744  0.62868771  0.74549597  1
  Li  Li9  1  0.75062256  0.12868771  0.75450403  1
  Li  Li10  1  0.77120208  0.98936871  0.41465594  1
  Li  Li11  1  0.79066393  0.00855325  0.06424582  1
  Fe  Fe12  1  0.05200913  0.66875015  0.40316335  1
  Fe  Fe13  1  0.07578360  0.82375458  0.76573016  1
  Fe  Fe14  1  0.10146376  0.66835018  0.08067453  1
  Fe  Fe15  1  0.39853624  0.16835018  0.41932547  1
  Fe  Fe16  1  0.42421640  0.32375458  0.73426984  1
  Fe  Fe17  1  0.44799087  0.16875015  0.09683665  1
  Fe  Fe18  1  0.55200913  0.83124985  0.90316335  1
  Fe  Fe19  1  0.57578360  0.67624542  0.26573016  1
  Fe  Fe20  1  0.60146376  0.83164982  0.58067453  1
  Fe  Fe21  1  0.89853624  0.33164982  0.91932547  1
  Fe  Fe22  1  0.92421640  0.17624542  0.23426984  1
  Fe  Fe23  1  0.94799087  0.33124985  0.59683665  1
  P  P24  1  0.04814514  0.26049245  0.40950536  1
  P  P25  1  0.08372275  0.22470709  0.77520988  1
  P  P26  1  0.11307374  0.26594910  0.07237034  1
  P  P27  1  0.38692626  0.76594910  0.42762966  1
  P  P28  1  0.41627725  0.72470709  0.72479012  1
  P  P29  1  0.45185486  0.76049245  0.09049464  1
  P  P30  1  0.54814514  0.23950755  0.90950536  1
  P  P31  1  0.58372275  0.27529291  0.27520988  1
  P  P32  1  0.61307374  0.23405090  0.57237034  1
  P  P33  1  0.88692626  0.73405090  0.92762966  1
  P  P34  1  0.91627725  0.77529291  0.22479012  1
  P  P35  1  0.95185486  0.73950755  0.59049464  1
  O  O36  1  0.03845369  0.56865219  0.60234178  1
  O  O37  1  0.05108645  0.87967051  0.63496428  1
  O  O38  1  0.04933181  0.78080761  0.96365000  1
  O  O39  1  0.08172181  0.05442498  0.82652228  1
  O  O40  1  0.09041969  0.36830869  0.84442162  1
  O  O41  1  0.06800258  0.75899284  0.28027019  1
  O  O42  1  0.07892280  0.21874351  0.50766608  1
  O  O43  1  0.10416800  0.27968601  0.17376346  1
  O  O44  1  0.16875830  0.43811194  0.03533676  1
  O  O45  1  0.21602892  0.23051179  0.70953939  1
  O  O46  1  0.20634662  0.26916829  0.36432896  1
  O  O47  1  0.22935140  0.12827212  0.04598422  1
  O  O48  1  0.27064860  0.62827212  0.45401578  1
  O  O49  1  0.29365338  0.76916829  0.13567104  1
  O  O50  1  0.28397108  0.73051179  0.79046061  1
  O  O51  1  0.33124270  0.93811194  0.46466324  1
  O  O52  1  0.39583200  0.77968601  0.32623654  1
  O  O53  1  0.42107720  0.71874351  0.99233392  1
  O  O54  1  0.40958031  0.86830869  0.65557838  1
  O  O55  1  0.43199742  0.25899284  0.21972981  1
  O  O56  1  0.41827819  0.55442498  0.67347772  1
  O  O57  1  0.45066819  0.28080761  0.53635000  1
  O  O58  1  0.44891355  0.37967051  0.86503572  1
  O  O59  1  0.46154631  0.06865219  0.89765822  1
  O  O60  1  0.53845369  0.93134781  0.10234178  1
  O  O61  1  0.55108645  0.62032949  0.13496428  1
  O  O62  1  0.54933181  0.71919239  0.46365000  1
  O  O63  1  0.58172181  0.44557502  0.32652228  1
  O  O64  1  0.56800258  0.74100716  0.78027019  1
  O  O65  1  0.59041969  0.13169131  0.34442162  1
  O  O66  1  0.57892280  0.28125649  0.00766608  1
  O  O67  1  0.60416800  0.22031399  0.67376346  1
  O  O68  1  0.66875730  0.06188806  0.53533676  1
  O  O69  1  0.71602892  0.26948821  0.20953939  1
  O  O70  1  0.70634662  0.23083171  0.86432896  1
  O  O71  1  0.72935140  0.37172788  0.54598422  1
  O  O72  1  0.77064860  0.87172788  0.95401578  1
  O  O73  1  0.79365338  0.73083171  0.63567104  1
  O  O74  1  0.78397108  0.76948821  0.29046061  1
  O  O75  1  0.83124270  0.56188806  0.96466324  1
  O  O76  1  0.89583200  0.72031399  0.82623654  1
  O  O77  1  0.92107720  0.78125649  0.49233392  1
  O  O78  1  0.93199742  0.24100716  0.71972981  1
  O  O79  1  0.90958031  0.63169131  0.15557838  1
  O  O80  1  0.91827819  0.94557502  0.17347772  1
  O  O81  1  0.95066819  0.21919239  0.03635000  1
  O  O82  1  0.94891355  0.12032949  0.36503572  1
  O  O83  1  0.96154631  0.43134781  0.39765822  1
