# generated using pymatgen
data_CrNi(PO4)2
_symmetry_space_group_name_H-M   'P 1'
_cell_length_a   9.96060513
_cell_length_b   5.80755593
_cell_length_c   4.79426328
_cell_angle_alpha   90.00000000
_cell_angle_beta   91.01767338
_cell_angle_gamma   90.00000000
_symmetry_Int_Tables_number   1
_chemical_formula_structural   CrNi(PO4)2
_chemical_formula_sum   'Cr2 Ni2 P4 O16'
_cell_volume   277.28890650
_cell_formula_units_Z   2
loop_
 _symmetry_equiv_pos_site_id
 _symmetry_equiv_pos_as_xyz
  1  'x, y, z'
loop_
 _atom_site_type_symbol
 _atom_site_label
 _atom_site_symmetry_multiplicity
 _atom_site_fract_x
 _atom_site_fract_y
 _atom_site_fract_z
 _atom_site_occupancy
  Cr  Cr0  1  0.22364192  0.75000000  0.46756172  1
  Cr  Cr1  1  0.77635808  0.25000000  0.53243828  1
  Ni  Ni2  1  0.27693049  0.25000000  0.94072329  1
  Ni  Ni3  1  0.72306951  0.75000000  0.05927671  1
  P  P4  1  0.09288635  0.25000000  0.41545195  1
  P  P5  1  0.40236639  0.75000000  0.90591704  1
  P  P6  1  0.59763361  0.25000000  0.09408296  1
  P  P7  1  0.90711365  0.75000000  0.58454805  1
  O  O8  1  0.05547299  0.75000000  0.67648810  1
  O  O9  1  0.10675748  0.25000000  0.73089520  1
  O  O10  1  0.16724768  0.03969940  0.27944914  1
  O  O11  1  0.16724768  0.46030060  0.27944914  1
  O  O12  1  0.32655157  0.95155707  0.74487936  1
  O  O13  1  0.32655157  0.54844293  0.74487936  1
  O  O14  1  0.37556876  0.75000000  0.21804888  1
  O  O15  1  0.44920725  0.25000000  0.14960451  1
  O  O16  1  0.55079275  0.75000000  0.85039549  1
  O  O17  1  0.62443124  0.25000000  0.78195112  1
  O  O18  1  0.67344843  0.04844293  0.25512064  1
  O  O19  1  0.67344843  0.45155707  0.25512064  1
  O  O20  1  0.83275232  0.53969940  0.72055086  1
  O  O21  1  0.83275232  0.96030060  0.72055086  1
  O  O22  1  0.89324252  0.75000000  0.26910480  1
  O  O23  1  0.94452701  0.25000000  0.32351190  1
