# generated using pymatgen
data_Na3Co(BO3)2
_symmetry_space_group_name_H-M   'P 1'
_cell_length_a   5.54073056
_cell_length_b   9.53043473
_cell_length_c   10.48543257
_cell_angle_alpha   90.00000000
_cell_angle_beta   94.06693812
_cell_angle_gamma   90.00000000
_symmetry_Int_Tables_number   1
_chemical_formula_structural   Na3Co(BO3)2
_chemical_formula_sum   'Na12 Co4 B8 O24'
_cell_volume   552.29499431
_cell_formula_units_Z   4
loop_
 _symmetry_equiv_pos_site_id
 _symmetry_equiv_pos_as_xyz
  1  'x, y, z'
loop_
 _atom_site_type_symbol
 _atom_site_label
 _atom_site_symmetry_multiplicity
 _atom_site_fract_x
 _atom_site_fract_y
 _atom_site_fract_z
 _atom_site_occupancy
  Na  Na0  1  0.16014628  0.97150498  0.65544562  1
  Na  Na1  1  0.16322084  0.66400981  0.62285615  1
  Na  Na2  1  0.18835871  0.99109185  0.11244285  1
  Na  Na3  1  0.33677916  0.16400981  0.87714385  1
  Na  Na4  1  0.31164129  0.49109185  0.38755715  1
  Na  Na5  1  0.33985372  0.47150498  0.84455438  1
  Na  Na6  1  0.66014628  0.52849502  0.15544562  1
  Na  Na7  1  0.68835871  0.50890815  0.61244285  1
  Na  Na8  1  0.66322084  0.83599019  0.12285615  1
  Na  Na9  1  0.81164129  0.00890815  0.88755715  1
  Na  Na10  1  0.83677916  0.33599019  0.37714385  1
  Na  Na11  1  0.83985372  0.02849502  0.34455438  1
  Co  Co12  1  0.14732939  0.32690768  0.12544576  1
  Co  Co13  1  0.35267061  0.82690768  0.37455424  1
  Co  Co14  1  0.64732939  0.17309232  0.62544576  1
  Co  Co15  1  0.85267061  0.67309232  0.87455424  1
  B  B16  1  0.16927822  0.31274781  0.61904018  1
  B  B17  1  0.15658206  0.65226173  0.13030291  1
  B  B18  1  0.33072178  0.81274781  0.88095982  1
  B  B19  1  0.34341794  0.15226173  0.36969709  1
  B  B20  1  0.65658206  0.84773827  0.63030291  1
  B  B21  1  0.66927822  0.18725219  0.11904018  1
  B  B22  1  0.84341794  0.34773827  0.86969709  1
  B  B23  1  0.83072178  0.68725219  0.38095982  1
  O  O24  1  0.06542204  0.32675382  0.93596526  1
  O  O25  1  0.08087839  0.70119676  0.40489379  1
  O  O26  1  0.21795376  0.94004330  0.88693174  1
  O  O27  1  0.20645220  0.26158844  0.31869266  1
  O  O28  1  0.19487085  0.69257344  0.84827241  1
  O  O29  1  0.25335732  0.01391463  0.35089519  1
  O  O30  1  0.30512915  0.19257344  0.65172759  1
  O  O31  1  0.24664268  0.51391463  0.14910481  1
  O  O32  1  0.28204624  0.44004330  0.61306826  1
  O  O33  1  0.29354780  0.76158844  0.18130734  1
  O  O34  1  0.43457796  0.82675382  0.56403474  1
  O  O35  1  0.41912161  0.20119676  0.09510621  1
  O  O36  1  0.58087839  0.79880324  0.90489379  1
  O  O37  1  0.56542204  0.17324618  0.43596526  1
  O  O38  1  0.70645220  0.23841156  0.81869266  1
  O  O39  1  0.71795376  0.55995670  0.38693174  1
  O  O40  1  0.75335732  0.48608537  0.85089519  1
  O  O41  1  0.69487085  0.80742656  0.34827241  1
  O  O42  1  0.74664268  0.98608537  0.64910481  1
  O  O43  1  0.80512915  0.30742656  0.15172759  1
  O  O44  1  0.79354780  0.73841156  0.68130734  1
  O  O45  1  0.78204624  0.05995670  0.11306826  1
  O  O46  1  0.91912161  0.29880324  0.59510621  1
  O  O47  1  0.93457796  0.67324618  0.06403474  1
