# generated using pymatgen
data_Sn2N2O
_symmetry_space_group_name_H-M   'P 1'
_cell_length_a   8.83730547
_cell_length_b   8.85100588
_cell_length_c   8.84177490
_cell_angle_alpha   109.45514478
_cell_angle_beta   109.27718355
_cell_angle_gamma   109.55654093
_symmetry_Int_Tables_number   1
_chemical_formula_structural   Sn2N2O
_chemical_formula_sum   'Sn16 N16 O8'
_cell_volume   533.20613467
_cell_formula_units_Z   8
loop_
 _symmetry_equiv_pos_site_id
 _symmetry_equiv_pos_as_xyz
  1  'x, y, z'
loop_
 _atom_site_type_symbol
 _atom_site_label
 _atom_site_symmetry_multiplicity
 _atom_site_fract_x
 _atom_site_fract_y
 _atom_site_fract_z
 _atom_site_occupancy
  Sn  Sn0  1  0.96650634  0.24773145  0.21570238  1
  Sn  Sn1  1  0.50532914  0.00384563  0.99614490  1
  Sn  Sn2  1  0.79042347  0.02634467  0.76027435  1
  Sn  Sn3  1  0.71326528  0.46450349  0.24837312  1
  Sn  Sn4  1  0.75602241  0.29026337  0.53037755  1
  Sn  Sn5  1  0.74820518  0.77385995  0.02787248  1
  Sn  Sn6  1  0.01311524  0.50527126  0.99879454  1
  Sn  Sn7  1  0.00457342  0.99142002  0.50418307  1
  Sn  Sn8  1  0.50535150  0.51180206  0.51154232  1
  Sn  Sn9  1  0.45822395  0.25019774  0.71959239  1
  Sn  Sn10  1  0.53598082  0.75314685  0.28856054  1
  Sn  Sn11  1  0.26456856  0.72533611  0.47547277  1
  Sn  Sn12  1  0.24350216  0.21857514  0.95722187  1
  Sn  Sn13  1  0.27183075  0.52511819  0.73506007  1
  Sn  Sn14  1  0.21883983  0.95564109  0.25077792  1
  Sn  Sn15  1  0.02661338  0.74246737  0.77681591  1
  N  N16  1  0.73747964  0.22827194  0.27061781  1
  N  N17  1  0.76391397  0.72987544  0.26456647  1
  N  N18  1  0.03735283  0.27407692  0.00285563  1
  N  N19  1  0.76027062  0.53925716  0.52967195  1
  N  N20  1  0.22457622  0.45683230  0.45142014  1
  N  N21  1  0.50334739  0.23959693  0.96668034  1
  N  N22  1  0.27761124  0.73029403  0.22853858  1
  N  N23  1  0.99886062  0.95472329  0.73491763  1
  N  N24  1  0.96283526  0.73351596  0.99959097  1
  N  N25  1  0.53786231  0.53329046  0.77194185  1
  N  N26  1  0.54858944  0.77974726  0.54662383  1
  N  N27  1  0.21661540  0.26804631  0.72493541  1
  N  N28  1  0.03065264  0.48969369  0.75904722  1
  N  N29  1  0.73444170  0.98688868  0.96466130  1
  N  N30  1  0.27045274  0.77536563  0.73623733  1
  N  N31  1  0.23834247  0.96313419  0.50412312  1
  O  O32  1  0.76795021  0.04492263  0.49605997  1
  O  O33  1  0.95669458  0.51273822  0.22879802  1
  O  O34  1  0.28319679  0.01861513  0.06160985  1
  O  O35  1  0.46200561  0.22311668  0.45060107  1
  O  O36  1  0.44378029  0.45761681  0.22483047  1
  O  O37  1  0.01554692  0.04973525  0.28200046  1
  O  O38  1  0.71573416  0.25716649  0.76013889  1
  O  O39  1  0.48953651  0.76795621  0.04276554  1
