# generated using pymatgen
data_LiFePO4
_symmetry_space_group_name_H-M   'P 1'
_cell_length_a   8.48569682
_cell_length_b   7.40018358
_cell_length_c   14.84516155
_cell_angle_alpha   90.00000000
_cell_angle_beta   90.95803661
_cell_angle_gamma   90.00000000
_symmetry_Int_Tables_number   1
_chemical_formula_structural   LiFePO4
_chemical_formula_sum   'Li12 Fe12 P12 O48'
_cell_volume   932.08220761
_cell_formula_units_Z   12
loop_
 _symmetry_equiv_pos_site_id
 _symmetry_equiv_pos_as_xyz
  1  'x, y, z'
loop_
 _atom_site_type_symbol
 _atom_site_label
 _atom_site_symmetry_multiplicity
 _atom_site_fract_x
 _atom_site_fract_y
 _atom_site_fract_z
 _atom_site_occupancy
  Li  Li0  1  0.06670736  0.66869360  0.40750292  1
  Li  Li1  1  0.07862641  0.82213439  0.75858160  1
  Li  Li2  1  0.09636245  0.67447225  0.08025151  1
  Li  Li3  1  0.40363755  0.17447225  0.41974849  1
  Li  Li4  1  0.42137359  0.32213439  0.74141840  1
  Li  Li5  1  0.43329264  0.16869360  0.09249708  1
  Li  Li6  1  0.56670736  0.83130640  0.90750292  1
  Li  Li7  1  0.57862641  0.67786561  0.25858160  1
  Li  Li8  1  0.59636245  0.82552775  0.58025151  1
  Li  Li9  1  0.90363755  0.32552775  0.91974849  1
  Li  Li10  1  0.92137359  0.17786561  0.24141840  1
  Li  Li11  1  0.93329264  0.33130640  0.59249708  1
  Fe  Fe12  1  0.23697375  0.96141475  0.92368095  1
  Fe  Fe13  1  0.24117462  0.04402030  0.58657421  1
  Fe  Fe14  1  0.24841914  0.95448330  0.24455493  1
  Fe  Fe15  1  0.25158086  0.45448330  0.25544507  1
  Fe  Fe16  1  0.25882538  0.54402030  0.91342579  1
  Fe  Fe17  1  0.26302625  0.46141475  0.57631905  1
  Fe  Fe18  1  0.73697375  0.53858525  0.42368095  1
  Fe  Fe19  1  0.74117462  0.45597970  0.08657421  1
  Fe  Fe20  1  0.74841914  0.54551670  0.74455493  1
  Fe  Fe21  1  0.75158086  0.04551670  0.75544507  1
  Fe  Fe22  1  0.75882538  0.95597970  0.41342579  1
  Fe  Fe23  1  0.76302625  0.03858525  0.07631905  1
  P  P24  1  0.05246695  0.25871764  0.41092121  1
  P  P25  1  0.08172639  0.23877781  0.77074417  1
  P  P26  1  0.10945157  0.26446993  0.07550165  1
  P  P27  1  0.39054843  0.76446993  0.42449835  1
  P  P28  1  0.41827361  0.73877781  0.72925583  1
  P  P29  1  0.44753305  0.75871764  0.08907879  1
  P  P30  1  0.55246695  0.24128236  0.91092121  1
  P  P31  1  0.58172639  0.26122219  0.27074417  1
  P  P32  1  0.60945157  0.23553007  0.57550165  1
  P  P33  1  0.89054843  0.73553007  0.92449835  1
  P  P34  1  0.91827361  0.76122219  0.22925583  1
  P  P35  1  0.94753305  0.74128236  0.58907879  1
  O  O36  1  0.04318221  0.56433246  0.60242866  1
  O  O37  1  0.04245293  0.89908994  0.63055054  1
  O  O38  1  0.06543520  0.76630459  0.95632182  1
  O  O39  1  0.07889248  0.05515890  0.82108913  1
  O  O40  1  0.09688472  0.38921703  0.84229508  1
  O  O41  1  0.08322386  0.73765240  0.27880943  1
  O  O42  1  0.09319783  0.23160615  0.51320520  1
  O  O43  1  0.11059791  0.27544301  0.18135419  1
  O  O44  1  0.17266969  0.44356498  0.03816681  1
  O  O45  1  0.21337415  0.24284757  0.69917140  1
  O  O46  1  0.21149000  0.27533493  0.36038428  1
  O  O47  1  0.21668698  0.10774625  0.04603656  1
  O  O48  1  0.28331302  0.60774625  0.45396344  1
  O  O49  1  0.28851000  0.77533493  0.13961572  1
  O  O50  1  0.28662585  0.74284757  0.80082860  1
  O  O51  1  0.32733031  0.94356498  0.46183319  1
  O  O52  1  0.38940209  0.77544301  0.31864581  1
  O  O53  1  0.40680217  0.73160615  0.98679480  1
  O  O54  1  0.40311528  0.88921703  0.65770492  1
  O  O55  1  0.41677614  0.23765240  0.22119057  1
  O  O56  1  0.42110752  0.55515890  0.67891087  1
  O  O57  1  0.43456480  0.26630459  0.54367818  1
  O  O58  1  0.45754807  0.39908994  0.86944946  1
  O  O59  1  0.45681779  0.06433246  0.89757134  1
  O  O60  1  0.54318221  0.93566754  0.10242866  1
  O  O61  1  0.54245293  0.60091006  0.13055054  1
  O  O62  1  0.56543520  0.73369541  0.45632182  1
  O  O63  1  0.57889248  0.44484110  0.32108913  1
  O  O64  1  0.58322386  0.76234760  0.77880943  1
  O  O65  1  0.59688472  0.11078297  0.34229508  1
  O  O66  1  0.59319783  0.26839385  0.01320520  1
  O  O67  1  0.61059791  0.22455699  0.68135419  1
  O  O68  1  0.67266969  0.05643502  0.53816681  1
  O  O69  1  0.71337415  0.25715243  0.19917140  1
  O  O70  1  0.71149000  0.22466507  0.86038428  1
  O  O71  1  0.71668698  0.39225375  0.54603656  1
  O  O72  1  0.78331302  0.89225375  0.95396344  1
  O  O73  1  0.78851000  0.72466507  0.63961572  1
  O  O74  1  0.78662585  0.75715243  0.30082860  1
  O  O75  1  0.82733031  0.55643502  0.96183319  1
  O  O76  1  0.88940209  0.72455699  0.81864581  1
  O  O77  1  0.90680217  0.76839385  0.48679480  1
  O  O78  1  0.91677614  0.26234760  0.72119057  1
  O  O79  1  0.90311528  0.61078297  0.15770492  1
  O  O80  1  0.92110752  0.94484110  0.17891087  1
  O  O81  1  0.93456480  0.23369541  0.04367818  1
  O  O82  1  0.95754707  0.10091006  0.36944946  1
  O  O83  1  0.95681779  0.43566754  0.39757134  1
