# generated using pymatgen
data_CrFe3Cu2(PO4)6
_symmetry_space_group_name_H-M   'P 1'
_cell_length_a   8.58136196
_cell_length_b   8.58136152
_cell_length_c   8.58136207
_cell_angle_alpha   60.34596872
_cell_angle_beta   60.34596666
_cell_angle_gamma   60.34596170
_symmetry_Int_Tables_number   1
_chemical_formula_structural   CrFe3Cu2(PO4)6
_chemical_formula_sum   'Cr1 Fe3 Cu2 P6 O24'
_cell_volume   450.33890828
_cell_formula_units_Z   1
loop_
 _symmetry_equiv_pos_site_id
 _symmetry_equiv_pos_as_xyz
  1  'x, y, z'
loop_
 _atom_site_type_symbol
 _atom_site_label
 _atom_site_symmetry_multiplicity
 _atom_site_fract_x
 _atom_site_fract_y
 _atom_site_fract_z
 _atom_site_occupancy
  Cr  Cr0  1  0.85872746  0.85872746  0.85872746  1
  Fe  Fe1  1  0.14389260  0.14389260  0.14389260  1
  Fe  Fe2  1  0.35567607  0.35567607  0.35567607  1
  Fe  Fe3  1  0.64427766  0.64427766  0.64427766  1
  Cu  Cu4  1  0.00068925  0.00068925  0.00068925  1
  Cu  Cu5  1  0.50013249  0.50013249  0.50013249  1
  P  P6  1  0.04271546  0.75034916  0.45805558  1
  P  P7  1  0.45805558  0.04271546  0.75034916  1
  P  P8  1  0.75034916  0.45805558  0.04271546  1
  P  P9  1  0.24884347  0.54383887  0.95526579  1
  P  P10  1  0.54383887  0.95526579  0.24884347  1
  P  P11  1  0.95526579  0.24884347  0.54383887  1
  O  O12  1  0.11309775  0.30922512  0.50920483  1
  O  O13  1  0.30922512  0.50920483  0.11309775  1
  O  O14  1  0.05614073  0.91374600  0.26260240  1
  O  O15  1  0.50920483  0.11309775  0.30922512  1
  O  O16  1  0.00186082  0.81227778  0.61919965  1
  O  O17  1  0.23989290  0.58645909  0.44715168  1
  O  O18  1  0.26260240  0.05614073  0.91374600  1
  O  O19  1  0.44715168  0.23989290  0.58645909  1
  O  O20  1  0.18653951  0.38655738  0.99262673  1
  O  O21  1  0.58645909  0.44715168  0.23989290  1
  O  O22  1  0.08344520  0.74100503  0.93981324  1
  O  O23  1  0.38655738  0.99262673  0.18653951  1
  O  O24  1  0.61919965  0.00186082  0.81227778  1
  O  O25  1  0.91374600  0.26260240  0.05614073  1
  O  O26  1  0.41122215  0.56098335  0.75662196  1
  O  O27  1  0.81227778  0.61919965  0.00186082  1
  O  O28  1  0.56098335  0.75662196  0.41122215  1
  O  O29  1  0.74100503  0.93981324  0.08344520  1
  O  O30  1  0.75662196  0.41122215  0.56098335  1
  O  O31  1  0.99262673  0.18653951  0.38655738  1
  O  O32  1  0.49504526  0.88637518  0.68644339  1
  O  O33  1  0.93981324  0.08344520  0.74100503  1
  O  O34  1  0.68644339  0.49504526  0.88637518  1
  O  O35  1  0.88637518  0.68644339  0.49504526  1
