# generated using pymatgen
data_Li3Sb2(PO4)3
_symmetry_space_group_name_H-M   'P 1'
_cell_length_a   9.16816079
_cell_length_b   13.02754016
_cell_length_c   9.20421463
_cell_angle_alpha   90.00000000
_cell_angle_beta   90.00000000
_cell_angle_gamma   89.91882432
_symmetry_Int_Tables_number   1
_chemical_formula_structural   Li3Sb2(PO4)3
_chemical_formula_sum   'Li12 Sb8 P12 O48'
_cell_volume   1099.33724934
_cell_formula_units_Z   4
loop_
 _symmetry_equiv_pos_site_id
 _symmetry_equiv_pos_as_xyz
  1  'x, y, z'
loop_
 _atom_site_type_symbol
 _atom_site_label
 _atom_site_symmetry_multiplicity
 _atom_site_fract_x
 _atom_site_fract_y
 _atom_site_fract_z
 _atom_site_occupancy
  Li  Li0  1  0.08378244  0.70094456  0.10539344  1
  Li  Li1  1  0.08161953  0.74354758  0.72264746  1
  Li  Li2  1  0.20583752  0.18410188  0.76825937  1
  Li  Li3  1  0.29416248  0.31589812  0.26825937  1
  Li  Li4  1  0.41838047  0.75645242  0.22264746  1
  Li  Li5  1  0.41621756  0.79905544  0.60539344  1
  Li  Li6  1  0.58378244  0.20094456  0.39460656  1
  Li  Li7  1  0.58161953  0.24354758  0.77735254  1
  Li  Li8  1  0.70583752  0.68410188  0.73174063  1
  Li  Li9  1  0.79416248  0.81589812  0.23174063  1
  Li  Li10  1  0.91838047  0.25645242  0.27735254  1
  Li  Li11  1  0.91621756  0.29905544  0.89460656  1
  Sb  Sb12  1  0.23903746  0.09862057  0.45366995  1
  Sb  Sb13  1  0.25035641  0.90519636  0.04057462  1
  Sb  Sb14  1  0.24964359  0.59480364  0.54057462  1
  Sb  Sb15  1  0.26096254  0.40137943  0.95366995  1
  Sb  Sb16  1  0.73903746  0.59862057  0.04633005  1
  Sb  Sb17  1  0.75035641  0.40519636  0.45942538  1
  Sb  Sb18  1  0.74964359  0.09480364  0.95942538  1
  Sb  Sb19  1  0.76096254  0.90137943  0.54633005  1
  P  P20  1  0.10007616  0.83654059  0.39942363  1
  P  P21  1  0.09473676  0.16522917  0.08792919  1
  P  P22  1  0.40526324  0.33477083  0.58792919  1
  P  P23  1  0.39992384  0.66345941  0.89942363  1
  P  P24  1  0.60007616  0.33654059  0.10057637  1
  P  P25  1  0.59473676  0.66522917  0.41207081  1
  P  P26  1  0.90526324  0.83477083  0.91207081  1
  P  P27  1  0.89992384  0.16345941  0.60057637  1
  P  P28  1  0.05368219  0.49126258  0.23957529  1
  P  P29  1  0.44631781  0.00873742  0.73957529  1
  P  P30  1  0.55368219  0.99126258  0.26042471  1
  P  P31  1  0.94631781  0.50873742  0.76042471  1
  O  O32  1  0.00936730  0.43002115  0.86856572  1
  O  O33  1  0.05815589  0.59059812  0.71354545  1
  O  O34  1  0.07692563  0.82794247  0.90304078  1
  O  O35  1  0.07184581  0.16755094  0.59838913  1
  O  O36  1  0.11105881  0.55130950  0.37401210  1
  O  O37  1  0.15247895  0.79189211  0.25359401  1
  O  O38  1  0.18819533  0.43367167  0.17031508  1
  O  O39  1  0.14699857  0.95071501  0.41391330  1
  O  O40  1  0.14524879  0.05449316  0.05945693  1
  O  O41  1  0.14767888  0.20849536  0.23507719  1
  O  O42  1  0.14107305  0.23513000  0.95812940  1
  O  O43  1  0.16329364  0.77466169  0.53001852  1
  O  O44  1  0.33670636  0.72533831  0.03001852  1
  O  O45  1  0.35892695  0.26487000  0.45812940  1
  O  O46  1  0.35232112  0.29150464  0.73507719  1
  O  O47  1  0.35475121  0.44550684  0.55945693  1
  O  O48  1  0.35300143  0.54928499  0.91391330  1
  O  O49  1  0.31180467  0.06632833  0.67031508  1
  O  O50  1  0.34752105  0.70810789  0.75359401  1
  O  O51  1  0.38894119  0.94869050  0.87401210  1
  O  O52  1  0.42815419  0.33244906  0.09838913  1
  O  O53  1  0.42307437  0.67205753  0.40304078  1
  O  O54  1  0.44184411  0.90940188  0.21354545  1
  O  O55  1  0.49063270  0.06997885  0.36856572  1
  O  O56  1  0.50936730  0.93002115  0.63143428  1
  O  O57  1  0.55815589  0.09059812  0.78645455  1
  O  O58  1  0.57692563  0.32794247  0.59695922  1
  O  O59  1  0.57184581  0.66755094  0.90161087  1
  O  O60  1  0.61105881  0.05130950  0.12598790  1
  O  O61  1  0.65247895  0.29189211  0.24640599  1
  O  O62  1  0.68819533  0.93367167  0.32968492  1
  O  O63  1  0.64699857  0.45071501  0.08608670  1
  O  O64  1  0.64524879  0.55449316  0.44054307  1
  O  O65  1  0.64767888  0.70849536  0.26492281  1
  O  O66  1  0.64107305  0.73513000  0.54187060  1
  O  O67  1  0.66329364  0.27466169  0.96998148  1
  O  O68  1  0.83670636  0.22533831  0.46998148  1
  O  O69  1  0.85892695  0.76487000  0.04187060  1
  O  O70  1  0.85232112  0.79150464  0.76492281  1
  O  O71  1  0.85475121  0.94550684  0.94054307  1
  O  O72  1  0.85300143  0.04928499  0.58608670  1
  O  O73  1  0.81180467  0.56632833  0.82968492  1
  O  O74  1  0.84752105  0.20810789  0.74640599  1
  O  O75  1  0.88894119  0.44869050  0.62598790  1
  O  O76  1  0.92815419  0.83244906  0.40161087  1
  O  O77  1  0.92307437  0.17205753  0.09695922  1
  O  O78  1  0.94184411  0.40940188  0.28645455  1
  O  O79  1  0.99063270  0.56997885  0.13143428  1
