# generated using pymatgen
data_LiCuOF
_symmetry_space_group_name_H-M   'P 1'
_cell_length_a   4.98839286
_cell_length_b   5.71744821
_cell_length_c   6.36170651
_cell_angle_alpha   26.07108151
_cell_angle_beta   38.35304757
_cell_angle_gamma   29.24365717
_symmetry_Int_Tables_number   1
_chemical_formula_structural   LiCuOF
_chemical_formula_sum   'Li1 Cu1 O1 F1'
_cell_volume   38.95534154
_cell_formula_units_Z   1
loop_
 _symmetry_equiv_pos_site_id
 _symmetry_equiv_pos_as_xyz
  1  'x, y, z'
loop_
 _atom_site_type_symbol
 _atom_site_label
 _atom_site_symmetry_multiplicity
 _atom_site_fract_x
 _atom_site_fract_y
 _atom_site_fract_z
 _atom_site_occupancy
  Li  Li0  1  0.73299522  0.51524118  0.49994858  1
  Cu  Cu1  1  0.73097868  0.51533826  0.99987258  1
  O  O2  1  0.22935934  0.51532611  0.49987670  1
  F  F3  1  0.23060176  0.51519745  0.99997714  1
