# generated using pymatgen
data_Li4V2Co3Sb3O16
_symmetry_space_group_name_H-M   'P 1'
_cell_length_a   6.13703448
_cell_length_b   6.09815662
_cell_length_c   9.74016336
_cell_angle_alpha   89.98111929
_cell_angle_beta   90.79922081
_cell_angle_gamma   119.77830625
_symmetry_Int_Tables_number   1
_chemical_formula_structural   Li4V2Co3Sb3O16
_chemical_formula_sum   'Li4 V2 Co3 Sb3 O16'
_cell_volume   316.34797825
_cell_formula_units_Z   1
loop_
 _symmetry_equiv_pos_site_id
 _symmetry_equiv_pos_as_xyz
  1  'x, y, z'
loop_
 _atom_site_type_symbol
 _atom_site_label
 _atom_site_symmetry_multiplicity
 _atom_site_fract_x
 _atom_site_fract_y
 _atom_site_fract_z
 _atom_site_occupancy
  Li  Li0  1  0.33912702  0.66973550  0.88670427  1
  Li  Li1  1  0.95646434  0.97825746  0.98058291  1
  Li  Li2  1  0.98770435  0.99388332  0.50788834  1
  Li  Li3  1  0.64885572  0.32438333  0.40338374  1
  V  V4  1  0.35656490  0.67821143  0.49999804  1
  V  V5  1  0.69444604  0.34731193  0.97561840  1
  Co  Co6  1  0.65807700  0.82899006  0.21546692  1
  Co  Co7  1  0.85076355  0.65811535  0.71661501  1
  Co  Co8  1  0.85118444  0.19324424  0.71670259  1
  Sb  Sb9  1  0.16264764  0.82873965  0.21519639  1
  Sb  Sb10  1  0.16265841  0.33398439  0.21520455  1
  Sb  Sb11  1  0.35310853  0.17631907  0.71335981  1
  O  O12  1  0.18511668  0.84458727  0.59275781  1
  O  O13  1  0.02719170  0.51356092  0.33858580  1
  O  O14  1  0.31252147  0.65630990  0.10289925  1
  O  O15  1  0.00748191  0.00378548  0.32027298  1
  O  O16  1  0.01631780  0.00811161  0.79784403  1
  O  O17  1  0.18510914  0.34042557  0.59282969  1
  O  O18  1  0.46091559  0.95498793  0.33965011  1
  O  O19  1  0.46088852  0.50579731  0.33965569  1
  O  O20  1  0.31298332  0.15659666  0.10333897  1
  O  O21  1  0.64577157  0.82253283  0.58132009  1
  O  O22  1  0.51657346  0.47624125  0.84452986  1
  O  O23  1  0.51699666  0.04006026  0.84407320  1
  O  O24  1  0.66456674  0.33241844  0.60346230  1
  O  O25  1  0.84654397  0.68013184  0.10358059  1
  O  O26  1  0.97307055  0.48672703  0.85281327  1
  O  O27  1  0.84634897  0.16684800  0.10350238  1
