# generated using pymatgen
data_Co3P6WO24
_symmetry_space_group_name_H-M   'P 1'
_cell_length_a   8.90410439
_cell_length_b   8.90410406
_cell_length_c   8.90410378
_cell_angle_alpha   58.59126809
_cell_angle_beta   58.59126816
_cell_angle_gamma   58.59126556
_symmetry_Int_Tables_number   1
_chemical_formula_structural   Co3P6WO24
_chemical_formula_sum   'Co3 P6 W1 O24'
_cell_volume   483.10004843
_cell_formula_units_Z   1
loop_
 _symmetry_equiv_pos_site_id
 _symmetry_equiv_pos_as_xyz
  1  'x, y, z'
loop_
 _atom_site_type_symbol
 _atom_site_label
 _atom_site_symmetry_multiplicity
 _atom_site_fract_x
 _atom_site_fract_y
 _atom_site_fract_z
 _atom_site_occupancy
  Co  Co0  1  0.14191853  0.14191853  0.14191853  1
  Co  Co1  1  0.35828852  0.35828852  0.35828852  1
  Co  Co2  1  0.64120319  0.64120319  0.64120319  1
  P  P3  1  0.03434883  0.74850608  0.46252892  1
  P  P4  1  0.46252892  0.03434883  0.74850608  1
  P  P5  1  0.74850608  0.46252892  0.03434883  1
  P  P6  1  0.25457088  0.53077356  0.96643521  1
  P  P7  1  0.53077356  0.96643521  0.25457088  1
  P  P8  1  0.96643521  0.25457088  0.53077356  1
  W  W9  1  0.85851130  0.85851130  0.85851130  1
  O  O10  1  0.13885794  0.27255104  0.50969171  1
  O  O11  1  0.27255104  0.50969171  0.13885794  1
  O  O12  1  0.06723563  0.91850657  0.28573894  1
  O  O13  1  0.50969171  0.13885794  0.27255104  1
  O  O14  1  0.21344192  0.57671533  0.44394772  1
  O  O15  1  0.99769331  0.78406225  0.63820594  1
  O  O16  1  0.28573894  0.06723563  0.91850657  1
  O  O17  1  0.44394772  0.21344192  0.57671533  1
  O  O18  1  0.57671533  0.44394772  0.21344192  1
  O  O19  1  0.21870488  0.36567157  0.99694065  1
  O  O20  1  0.07519465  0.71383259  0.93372117  1
  O  O21  1  0.36567157  0.99694065  0.21870488  1
  O  O22  1  0.63820594  0.99769331  0.78406225  1
  O  O23  1  0.91850657  0.28573894  0.06723563  1
  O  O24  1  0.78406225  0.63820594  0.99769331  1
  O  O25  1  0.42086694  0.56451310  0.78861732  1
  O  O26  1  0.56451310  0.78861732  0.42086694  1
  O  O27  1  0.71383259  0.93372117  0.07519465  1
  O  O28  1  0.99694065  0.21870488  0.36567157  1
  O  O29  1  0.78861732  0.42086694  0.56451310  1
  O  O30  1  0.49267676  0.86522103  0.72030501  1
  O  O31  1  0.93372117  0.07519465  0.71383259  1
  O  O32  1  0.72030501  0.49267676  0.86522103  1
  O  O33  1  0.86522103  0.72030501  0.49267676  1
