# generated using pymatgen
data_Li5La3(SbO6)2
_symmetry_space_group_name_H-M   'P 1'
_cell_length_a   11.24991179
_cell_length_b   11.27351094
_cell_length_c   11.23140963
_cell_angle_alpha   109.07554961
_cell_angle_beta   109.51986753
_cell_angle_gamma   109.85217136
_symmetry_Int_Tables_number   1
_chemical_formula_structural   Li5La3(SbO6)2
_chemical_formula_sum   'Li20 La12 Sb8 O48'
_cell_volume   1096.03306320
_cell_formula_units_Z   4
loop_
 _symmetry_equiv_pos_site_id
 _symmetry_equiv_pos_as_xyz
  1  'x, y, z'
loop_
 _atom_site_type_symbol
 _atom_site_label
 _atom_site_symmetry_multiplicity
 _atom_site_fract_x
 _atom_site_fract_y
 _atom_site_fract_z
 _atom_site_occupancy
  Li  Li0  1  0.75076133  0.31007407  0.20212444  1
  Li  Li1  1  0.90588461  0.89419802  0.16935047  1
  Li  Li2  1  0.71230244  0.39220414  0.46932430  1
  Li  Li3  1  0.89600162  0.18692149  0.93732790  1
  Li  Li4  1  0.60893533  0.52506818  0.28113498  1
  Li  Li5  1  0.24945365  0.04091808  0.43122793  1
  Li  Li6  1  0.54351063  0.29063750  0.59798728  1
  Li  Li7  1  0.95367762  0.55897876  0.74977027  1
  Li  Li8  1  0.68785093  0.79162025  0.25515107  1
  Li  Li9  1  0.03947977  0.43086413  0.24451297  1
  Li  Li10  1  0.30932243  0.20953489  0.75343789  1
  Li  Li11  1  0.38485078  0.45819726  0.70598250  1
  Li  Li12  1  0.10593831  0.81811335  0.07204665  1
  Li  Li13  1  0.75648644  0.97904130  0.58201751  1
  Li  Li14  1  0.07545973  0.10963898  0.82059384  1
  Li  Li15  1  0.22386706  0.73934078  0.32766545  1
  Li  Li16  1  0.28821907  0.60461697  0.53007682  1
  Li  Li17  1  0.56960476  0.75652636  0.96717957  1
  Li  Li18  1  0.25626419  0.67971858  0.79174247  1
  Li  Li19  1  0.19316426  0.94350765  0.89570581  1
  La  La20  1  0.74836548  0.12054320  0.36971305  1
  La  La21  1  0.38316960  0.13340312  0.24259539  1
  La  La22  1  0.88260652  0.63143178  0.24891481  1
  La  La23  1  0.25862621  0.38400095  0.13292500  1
  La  La24  1  0.12059317  0.24347052  0.36867947  1
  La  La25  1  0.86910279  0.75049387  0.62157723  1
  La  La26  1  0.62629694  0.24781309  0.87573155  1
  La  La27  1  0.37442365  0.75173002  0.13117456  1
  La  La28  1  0.74665688  0.61822713  0.86908317  1
  La  La29  1  0.11062575  0.36738684  0.75036222  1
  La  La30  1  0.61984307  0.87110092  0.75007905  1
  La  La31  1  0.25245238  0.88053120  0.63153614  1
  Sb  Sb32  1  0.50327411  0.00145247  0.00088513  1
  Sb  Sb33  1  0.99794993  0.00172434  0.00044858  1
  Sb  Sb34  1  0.50352392  0.00218430  0.49888758  1
  Sb  Sb35  1  0.49664480  0.49736944  0.99762593  1
  Sb  Sb36  1  0.49829646  0.50183934  0.50134084  1
  Sb  Sb37  1  0.00241572  0.99873661  0.50141526  1
  Sb  Sb38  1  0.99560748  0.49633767  0.99649942  1
  Sb  Sb39  1  0.00164572  0.50291948  0.50023190  1
  O  O40  1  0.88312515  0.40606160  0.08237936  1
  O  O41  1  0.93062006  0.31714075  0.32570544  1
  O  O42  1  0.97567549  0.67252579  0.08985710  1
  O  O43  1  0.92547811  0.11180101  0.59743107  1
  O  O44  1  0.59286152  0.17281665  0.20106222  1
  O  O45  1  0.18918181  0.11353596  0.01400661  1
  O  O46  1  0.62628388  0.43454278  0.10115947  1
  O  O47  1  0.88473903  0.98845912  0.80867092  1
  O  O48  1  0.67144173  0.06736596  0.69011847  1
  O  O49  1  0.82378228  0.51888653  0.40118789  1
  O  O50  1  0.69085568  0.67975103  0.07335959  1
  O  O51  1  0.80510646  0.87472884  0.97568792  1
  O  O52  1  0.58249676  0.17187187  0.46117450  1
  O  O53  1  0.89800008  0.38660167  0.57248028  1
  O  O54  1  0.11097418  0.01495335  0.19361878  1
  O  O55  1  0.48183192  0.39121846  0.30956387  1
  O  O56  1  0.02790905  0.32845539  0.91597089  1
  O  O57  1  0.03166224  0.20274369  0.11771466  1
  O  O58  1  0.48776619  0.59814396  0.17528115  1
  O  O59  1  0.43004509  0.10826830  0.61288387  1
  O  O60  1  0.90246511  0.01557229  0.32764301  1
  O  O61  1  0.58090193  0.91048230  0.11569759  1
  O  O62  1  0.38348008  0.30256423  0.47558794  1
  O  O63  1  0.67110128  0.09465938  0.97217425  1
  O  O64  1  0.82953143  0.79840271  0.41580978  1
  O  O65  1  0.69481218  0.51817448  0.61639795  1
  O  O66  1  0.79985902  0.42181099  0.82854709  1
  O  O67  1  0.40261538  0.07250931  0.87735010  1
  O  O68  1  0.62345983  0.70080888  0.53730332  1
  O  O69  1  0.17499686  0.19458257  0.57903771  1
  O  O70  1  0.29577721  0.46822632  0.38451781  1
  O  O71  1  0.18979464  0.57710605  0.17158628  1
  O  O72  1  0.50813475  0.39636158  0.82076160  1
  O  O73  1  0.59132775  0.91841592  0.38696534  1
  O  O74  1  0.51702619  0.61014509  0.69587877  1
  O  O75  1  0.32161497  0.91444083  0.30278538  1
  O  O76  1  0.17798163  0.48787280  0.60301426  1
  O  O77  1  0.29270322  0.32789095  0.91343083  1
  O  O78  1  0.39527070  0.83163710  0.52177698  1
  O  O79  1  0.10200256  0.61752942  0.42133273  1
  O  O80  1  0.38334573  0.57798223  0.89969315  1
  O  O81  1  0.08884348  0.88857085  0.41481017  1
  O  O82  1  0.42134811  0.82272735  0.80792254  1
  O  O83  1  0.07915811  0.69354757  0.67703075  1
  O  O84  1  0.11253995  0.59050433  0.91596244  1
  O  O85  1  0.09350319  0.97778046  0.67771515  1
  O  O86  1  0.32710045  0.91289100  0.02555834  1
  O  O87  1  0.98631100  0.81051228  0.88432723  1
