# generated using pymatgen
data_Bi24B2O39
_symmetry_space_group_name_H-M   'P 1'
_cell_length_a   8.88414541
_cell_length_b   8.73859582
_cell_length_c   14.25180562
_cell_angle_alpha   89.82874476
_cell_angle_beta   89.96600688
_cell_angle_gamma   109.73363643
_symmetry_Int_Tables_number   1
_chemical_formula_structural   Bi24B2O39
_chemical_formula_sum   'Bi24 B2 O39'
_cell_volume   1041.45376846
_cell_formula_units_Z   1
loop_
 _symmetry_equiv_pos_site_id
 _symmetry_equiv_pos_as_xyz
  1  'x, y, z'
loop_
 _atom_site_type_symbol
 _atom_site_label
 _atom_site_symmetry_multiplicity
 _atom_site_fract_x
 _atom_site_fract_y
 _atom_site_fract_z
 _atom_site_occupancy
  Bi  Bi0  1  0.79096358  0.61482367  0.08214182  1
  Bi  Bi1  1  0.40838820  0.24292700  0.08918992  1
  Bi  Bi2  1  0.47851509  0.18835143  0.36139894  1
  Bi  Bi3  1  0.82665582  0.52440798  0.33541558  1
  Bi  Bi4  1  0.03143501  0.32903876  0.16408279  1
  Bi  Bi5  1  0.65776671  0.99225144  0.17573837  1
  Bi  Bi6  1  0.73853923  0.24182269  0.57232244  1
  Bi  Bi7  1  0.23136842  0.75665236  0.07312621  1
  Bi  Bi8  1  0.44181963  0.58083116  0.25095663  1
  Bi  Bi9  1  0.94065743  0.07269443  0.75980481  1
  Bi  Bi10  1  0.27508296  0.08440449  0.58440459  1
  Bi  Bi11  1  0.72772250  0.88715332  0.40793779  1
  Bi  Bi12  1  0.89183988  0.73086105  0.59033139  1
  Bi  Bi13  1  0.08445281  0.27679952  0.42032112  1
  Bi  Bi14  1  0.08188080  0.94857606  0.24253041  1
  Bi  Bi15  1  0.56692967  0.44390777  0.72403023  1
  Bi  Bi16  1  0.23842099  0.73462887  0.42788896  1
  Bi  Bi17  1  0.74372508  0.27257160  0.91755697  1
  Bi  Bi18  1  0.32345652  0.01079502  0.83862579  1
  Bi  Bi19  1  0.98829937  0.67181019  0.85211318  1
  Bi  Bi20  1  0.52081250  0.82807951  0.65799906  1
  Bi  Bi21  1  0.14956679  0.48802605  0.65458591  1
  Bi  Bi22  1  0.20150085  0.36073739  0.91472026  1
  Bi  Bi23  1  0.56490222  0.73512311  0.90332344  1
  B  B24  1  0.01166173  0.98867064  0.99664554  1
  B  B25  1  0.50915942  0.50826697  0.50228545  1
  O  O26  1  0.70514637  0.31897398  0.05833757  1
  O  O27  1  0.91278707  0.04656925  0.29816862  1
  O  O28  1  0.18311515  0.99168799  0.99655738  1
  O  O29  1  0.43228713  0.03772962  0.15788301  1
  O  O30  1  0.93776084  0.58724697  0.19303385  1
  O  O31  1  0.92829787  0.90597699  0.08539662  1
  O  O32  1  0.00981188  0.16356835  0.99247215  1
  O  O33  1  0.54995685  0.41833891  0.19722417  1
  O  O34  1  0.82123335  0.21299620  0.43683330  1
  O  O35  1  0.20442538  0.20266347  0.19912614  1
  O  O36  1  0.24591632  0.50074047  0.11228080  1
  O  O37  1  0.52805147  0.75395919  0.12966736  1
  O  O38  1  0.24130315  0.02448490  0.37535899  1
  O  O39  1  0.99422673  0.73946938  0.39075323  1
  O  O40  1  0.50048956  0.10310315  0.50237534  1
  O  O41  1  0.00320412  0.60517212  0.00129209  1
  O  O42  1  0.69838436  0.69732004  0.29968265  1
  O  O43  1  0.67750221  0.50618121  0.50477604  1
  O  O44  1  0.41675696  0.40592319  0.42029304  1
  O  O45  1  0.08260481  0.43645015  0.30818052  1
  O  O46  1  0.92549993  0.54481132  0.67437070  1
  O  O47  1  0.43827453  0.08212325  0.69215444  1
  O  O48  1  0.55676740  0.93870077  0.31809144  1
  O  O49  1  0.50682965  0.68083916  0.49443548  1
  O  O50  1  0.42041828  0.43177952  0.59418428  1
  O  O51  1  0.69778527  0.70098456  0.69726236  1
  O  O52  1  0.10582304  0.50103122  0.50115497  1
  O  O53  1  0.73956721  0.99446253  0.61123304  1
  O  O54  1  0.01272409  0.24249336  0.62991532  1
  O  O55  1  0.48706430  0.22090042  0.89972610  1
  O  O56  1  0.74393182  0.51727791  0.87375759  1
  O  O57  1  0.19710185  0.19373197  0.80122617  1
  O  O58  1  0.21338579  0.81890013  0.56432729  1
  O  O59  1  0.42223765  0.55145247  0.80411803  1
  O  O60  1  0.92445952  0.89732063  0.90973837  1
  O  O61  1  0.57772387  0.92655777  0.81058935  1
  O  O62  1  0.03003395  0.41749397  0.83123420  1
  O  O63  1  0.04861449  0.91914199  0.69408597  1
  O  O64  1  0.33226456  0.74722803  0.93922143  1
