# generated using pymatgen
data_Li4Mn3Fe2Sb3O16
_symmetry_space_group_name_H-M   'P 1'
_cell_length_a   6.26514165
_cell_length_b   6.05658616
_cell_length_c   9.83442907
_cell_angle_alpha   89.97915621
_cell_angle_beta   92.10977395
_cell_angle_gamma   118.93570629
_symmetry_Int_Tables_number   1
_chemical_formula_structural   Li4Mn3Fe2Sb3O16
_chemical_formula_sum   'Li4 Mn3 Fe2 Sb3 O16'
_cell_volume   326.29922543
_cell_formula_units_Z   1
loop_
 _symmetry_equiv_pos_site_id
 _symmetry_equiv_pos_as_xyz
  1  'x, y, z'
loop_
 _atom_site_type_symbol
 _atom_site_label
 _atom_site_symmetry_multiplicity
 _atom_site_fract_x
 _atom_site_fract_y
 _atom_site_fract_z
 _atom_site_occupancy
  Li  Li0  1  0.32224738  0.66117162  0.88132438  1
  Li  Li1  1  0.97503421  0.98726242  0.98942444  1
  Li  Li2  1  0.00004733  0.99983691  0.50353237  1
  Li  Li3  1  0.64709766  0.32380653  0.39923719  1
  Mn  Mn4  1  0.66252592  0.83162697  0.21362114  1
  Mn  Mn5  1  0.82735871  0.65901779  0.71296830  1
  Mn  Mn6  1  0.82749873  0.16807161  0.71259112  1
  Fe  Fe7  1  0.35346056  0.67670637  0.50211153  1
  Fe  Fe8  1  0.68564580  0.34305110  0.98490177  1
  Sb  Sb9  1  0.16717208  0.83150610  0.21764541  1
  Sb  Sb10  1  0.16724345  0.33583563  0.21756506  1
  Sb  Sb11  1  0.34422162  0.17204417  0.71660741  1
  O  O12  1  0.19063260  0.85522347  0.59446550  1
  O  O13  1  0.03341815  0.51670316  0.33866742  1
  O  O14  1  0.30794162  0.65423339  0.10223158  1
  O  O15  1  0.01951600  0.00976312  0.32069350  1
  O  O16  1  0.00948715  0.00433672  0.80372433  1
  O  O17  1  0.19035882  0.33516747  0.59453315  1
  O  O18  1  0.45865966  0.95725755  0.34378904  1
  O  O19  1  0.45849930  0.50174890  0.34377450  1
  O  O20  1  0.31169383  0.15593501  0.10679852  1
  O  O21  1  0.68619877  0.84313552  0.59839740  1
  O  O22  1  0.50375864  0.47730644  0.83849980  1
  O  O23  1  0.50434506  0.02697798  0.83855413  1
  O  O24  1  0.66086439  0.33078864  0.60642582  1
  O  O25  1  0.86470030  0.68751410  0.10138820  1
  O  O26  1  0.95535227  0.47709562  0.82321026  1
  O  O27  1  0.86501797  0.17717668  0.10115971  1
