# generated using pymatgen
data_Li4Co3Ni2Sn3O16
_symmetry_space_group_name_H-M   'P 1'
_cell_length_a   5.96144853
_cell_length_b   5.98356686
_cell_length_c   9.64326854
_cell_angle_alpha   89.97241982
_cell_angle_beta   89.65553885
_cell_angle_gamma   120.12656855
_symmetry_Int_Tables_number   1
_chemical_formula_structural   Li4Co3Ni2Sn3O16
_chemical_formula_sum   'Li4 Co3 Ni2 Sn3 O16'
_cell_volume   297.50901416
_cell_formula_units_Z   1
loop_
 _symmetry_equiv_pos_site_id
 _symmetry_equiv_pos_as_xyz
  1  'x, y, z'
loop_
 _atom_site_type_symbol
 _atom_site_label
 _atom_site_symmetry_multiplicity
 _atom_site_fract_x
 _atom_site_fract_y
 _atom_site_fract_z
 _atom_site_occupancy
  Li  Li0  1  0.35776282  0.67893672  0.88515281  1
  Li  Li1  1  0.95000983  0.97510003  0.99229097  1
  Li  Li2  1  0.96411202  0.98202600  0.50282084  1
  Li  Li3  1  0.68493172  0.34252201  0.39896658  1
  Co  Co4  1  0.66412655  0.83206107  0.21506974  1
  Co  Co5  1  0.83547221  0.66411442  0.71415803  1
  Co  Co6  1  0.83551828  0.17146945  0.71418042  1
  Ni  Ni7  1  0.32900848  0.66450559  0.49429384  1
  Ni  Ni8  1  0.66707536  0.33359083  0.98699302  1
  Sn  Sn9  1  0.17248741  0.83386396  0.21419893  1
  Sn  Sn10  1  0.17240260  0.33863841  0.21417853  1
  Sn  Sn11  1  0.34113948  0.17061494  0.71499561  1
  O  O12  1  0.13955439  0.82744278  0.60183742  1
  O  O13  1  0.03802123  0.51878227  0.34447622  1
  O  O14  1  0.35727650  0.67890632  0.09822873  1
  O  O15  1  0.97656160  0.98806946  0.31871706  1
  O  O16  1  0.98040700  0.99014644  0.81034600  1
  O  O17  1  0.13932795  0.31203420  0.60181447  1
  O  O18  1  0.50535065  0.96919096  0.33445033  1
  O  O19  1  0.50525087  0.53589883  0.33441300  1
  O  O20  1  0.31143339  0.15596823  0.08764923  1
  O  O21  1  0.67793481  0.83889955  0.61958311  1
  O  O22  1  0.54457477  0.50220161  0.83445144  1
  O  O23  1  0.54474803  0.04238326  0.83437108  1
  O  O24  1  0.69257998  0.34640010  0.60799298  1
  O  O25  1  0.82170061  0.67881992  0.10615109  1
  O  O26  1  0.96943421  0.48464492  0.82002508  1
  O  O27  1  0.82179828  0.14306874  0.10603244  1
