# generated using pymatgen
data_Ti2N2O
_symmetry_space_group_name_H-M   'P 1'
_cell_length_a   8.23203182
_cell_length_b   8.23473349
_cell_length_c   8.21171458
_cell_angle_alpha   109.46434364
_cell_angle_beta   109.48891148
_cell_angle_gamma   109.60480711
_symmetry_Int_Tables_number   1
_chemical_formula_structural   Ti2N2O
_chemical_formula_sum   'Ti16 N16 O8'
_cell_volume   427.75156920
_cell_formula_units_Z   8
loop_
 _symmetry_equiv_pos_site_id
 _symmetry_equiv_pos_as_xyz
  1  'x, y, z'
loop_
 _atom_site_type_symbol
 _atom_site_label
 _atom_site_symmetry_multiplicity
 _atom_site_fract_x
 _atom_site_fract_y
 _atom_site_fract_z
 _atom_site_occupancy
  Ti  Ti0  1  0.49790755  0.99708655  0.98576477  1
  Ti  Ti1  1  0.76212145  0.30216486  0.55393524  1
  Ti  Ti2  1  0.21000901  0.94874069  0.24961787  1
  Ti  Ti3  1  0.71292186  0.46686713  0.25184256  1
  Ti  Ti4  1  0.24765867  0.20800013  0.94660619  1
  Ti  Ti5  1  0.03726599  0.74345490  0.78352996  1
  Ti  Ti6  1  0.54160910  0.74991016  0.29892362  1
  Ti  Ti7  1  0.50150314  0.50658651  0.51250406  1
  Ti  Ti8  1  0.45807142  0.24938040  0.71341751  1
  Ti  Ti9  1  0.95841952  0.26066856  0.21173967  1
  Ti  Ti10  1  0.00911424  0.99628909  0.50778861  1
  Ti  Ti11  1  0.99568984  0.50775234  0.99633285  1
  Ti  Ti12  1  0.75128166  0.79043633  0.04229596  1
  Ti  Ti13  1  0.28952429  0.53944219  0.74128956  1
  Ti  Ti14  1  0.78727795  0.03974082  0.75354247  1
  Ti  Ti15  1  0.24904155  0.70660898  0.45590127  1
  N  N16  1  0.72513692  0.99424356  0.95324343  1
  N  N17  1  0.50804665  0.23262350  0.96245045  1
  N  N18  1  0.77045661  0.72521480  0.26386569  1
  N  N19  1  0.23211726  0.96027126  0.50756096  1
  N  N20  1  0.72548760  0.26324073  0.77219434  1
  N  N21  1  0.77178436  0.54495502  0.53594688  1
  N  N22  1  0.27919351  0.73820128  0.22441813  1
  N  N23  1  0.95194375  0.72607356  0.99357041  1
  N  N24  1  0.99202617  0.95302497  0.72605145  1
  N  N25  1  0.22422455  0.27580951  0.73822225  1
  N  N26  1  0.55026855  0.54223147  0.77432643  1
  N  N27  1  0.54345322  0.77206212  0.54807428  1
  N  N28  1  0.22247951  0.44484831  0.45685306  1
  N  N29  1  0.95780237  0.50551655  0.23258838  1
  N  N30  1  0.03855391  0.48625538  0.76168549  1
  N  N31  1  0.26816814  0.77733368  0.72795437  1
  O  O32  1  0.76115164  0.03926975  0.48635298  1
  O  O33  1  0.27712212  0.00843073  0.05330741  1
  O  O34  1  0.73741889  0.22285757  0.27850304  1
  O  O35  1  0.05327509  0.27411131  0.01414528  1
  O  O36  1  0.00815735  0.04907968  0.27365331  1
  O  O37  1  0.44507709  0.45969982  0.22087906  1
  O  O38  1  0.45474269  0.22293787  0.44670204  1
  O  O39  1  0.49249483  0.76857593  0.04241769  1
