# generated using pymatgen
data_Li3Fe2F7
_symmetry_space_group_name_H-M   'P 1'
_cell_length_a   7.68322896
_cell_length_b   10.51152925
_cell_length_c   8.08803077
_cell_angle_alpha   90.00000000
_cell_angle_beta   74.94224671
_cell_angle_gamma   90.00000000
_symmetry_Int_Tables_number   1
_chemical_formula_structural   Li3Fe2F7
_chemical_formula_sum   'Li12 Fe8 F28'
_cell_volume   630.78116505
_cell_formula_units_Z   4
loop_
 _symmetry_equiv_pos_site_id
 _symmetry_equiv_pos_as_xyz
  1  'x, y, z'
loop_
 _atom_site_type_symbol
 _atom_site_label
 _atom_site_symmetry_multiplicity
 _atom_site_fract_x
 _atom_site_fract_y
 _atom_site_fract_z
 _atom_site_occupancy
  Li  Li0  1  0.04112416  0.91261245  0.22067763  1
  Li  Li1  1  0.11236887  0.29389382  0.52811261  1
  Li  Li2  1  0.18825535  0.58699428  0.69981413  1
  Li  Li3  1  0.45887584  0.41261245  0.27932237  1
  Li  Li4  1  0.61236887  0.20610618  0.02811261  1
  Li  Li5  1  0.31174465  0.08699428  0.80018587  1
  Li  Li6  1  0.68825535  0.91300572  0.19981413  1
  Li  Li7  1  0.38763113  0.79389382  0.97188739  1
  Li  Li8  1  0.54112416  0.58738755  0.72067763  1
  Li  Li9  1  0.81174465  0.41300572  0.30018587  1
  Li  Li10  1  0.88763113  0.70610618  0.47188739  1
  Li  Li11  1  0.95887584  0.08738755  0.77932237  1
  Fe  Fe12  1  0.16195719  0.22028329  0.12435134  1
  Fe  Fe13  1  0.12764366  0.58526963  0.11099265  1
  Fe  Fe14  1  0.37235634  0.08526963  0.38900735  1
  Fe  Fe15  1  0.33804281  0.72028329  0.37564866  1
  Fe  Fe16  1  0.66195719  0.27971671  0.62435134  1
  Fe  Fe17  1  0.62764366  0.91473037  0.61099265  1
  Fe  Fe18  1  0.87235634  0.41473037  0.88900735  1
  Fe  Fe19  1  0.83804281  0.77971671  0.87564866  1
  F  F20  1  0.18204548  0.05097440  0.24905467  1
  F  F21  1  0.17606075  0.12267735  0.60162907  1
  F  F22  1  0.20635937  0.77619523  0.18909554  1
  F  F23  1  0.09009552  0.70296304  0.56088595  1
  F  F24  1  0.95944922  0.61136503  0.91621497  1
  F  F25  1  0.10000669  0.41405462  0.70211830  1
  F  F26  1  0.07341710  0.12370053  0.94706386  1
  F  F27  1  0.29364063  0.27619523  0.31090446  1
  F  F28  1  0.31795452  0.55097440  0.25094533  1
  F  F29  1  0.67606075  0.37732265  0.10162907  1
  F  F30  1  0.42658290  0.62370053  0.55293614  1
  F  F31  1  0.59009552  0.79703696  0.06088595  1
  F  F32  1  0.39999331  0.91405462  0.79788170  1
  F  F33  1  0.45944922  0.88863497  0.41621497  1
  F  F34  1  0.54055078  0.11136603  0.58378503  1
  F  F35  1  0.60000669  0.08594538  0.20211830  1
  F  F36  1  0.40990448  0.20296304  0.93911405  1
  F  F37  1  0.57341710  0.37629947  0.44706386  1
  F  F38  1  0.32393925  0.62267735  0.89837093  1
  F  F39  1  0.68204548  0.44902560  0.74905467  1
  F  F40  1  0.70635937  0.72380477  0.68909554  1
  F  F41  1  0.92658290  0.87629947  0.05293614  1
  F  F42  1  0.89999331  0.58594538  0.29788170  1
  F  F43  1  0.04055078  0.38863397  0.08378503  1
  F  F44  1  0.90990448  0.29703696  0.43911405  1
  F  F45  1  0.79364063  0.22380477  0.81090446  1
  F  F46  1  0.82393925  0.87732265  0.39837093  1
  F  F47  1  0.81795452  0.94902560  0.75094533  1
