# generated using pymatgen
data_Li5Fe3Ni2(PO4)6
_symmetry_space_group_name_H-M   'P 1'
_cell_length_a   8.40658431
_cell_length_b   8.49910683
_cell_length_c   8.51548386
_cell_angle_alpha   61.96078078
_cell_angle_beta   62.34155424
_cell_angle_gamma   62.31270724
_symmetry_Int_Tables_number   1
_chemical_formula_structural   Li5Fe3Ni2(PO4)6
_chemical_formula_sum   'Li5 Fe3 Ni2 P6 O24'
_cell_volume   451.39197187
_cell_formula_units_Z   1
loop_
 _symmetry_equiv_pos_site_id
 _symmetry_equiv_pos_as_xyz
  1  'x, y, z'
loop_
 _atom_site_type_symbol
 _atom_site_label
 _atom_site_symmetry_multiplicity
 _atom_site_fract_x
 _atom_site_fract_y
 _atom_site_fract_z
 _atom_site_occupancy
  Li  Li0  1  0.75256645  0.14075097  0.35536549  1
  Li  Li1  1  0.18606499  0.85314539  0.67532166  1
  Li  Li2  1  0.67308233  0.18134702  0.85934046  1
  Li  Li3  1  0.85908051  0.67001082  0.18111977  1
  Li  Li4  1  0.84036312  0.83923226  0.83764558  1
  Fe  Fe5  1  0.14601518  0.14640037  0.14383410  1
  Fe  Fe6  1  0.35399374  0.35724327  0.35408603  1
  Fe  Fe7  1  0.64744749  0.65084320  0.65265891  1
  Ni  Ni8  1  0.00671012  0.99721610  0.99750757  1
  Ni  Ni9  1  0.49266507  0.50146071  0.50290133  1
  P  P10  1  0.75295577  0.45248586  0.05307620  1
  P  P11  1  0.05722553  0.74895838  0.45167451  1
  P  P12  1  0.44570856  0.05392782  0.75837664  1
  P  P13  1  0.25566122  0.54220468  0.95756265  1
  P  P14  1  0.55346599  0.96156025  0.25733380  1
  P  P15  1  0.94671024  0.25216011  0.53746287  1
  O  O16  1  0.10623901  0.33444789  0.45477038  1
  O  O17  1  0.35359247  0.47935398  0.09830345  1
  O  O18  1  0.05466028  0.91192039  0.25893147  1
  O  O19  1  0.53268697  0.10151399  0.33679979  1
  O  O20  1  0.03135971  0.81366907  0.60179126  1
  O  O21  1  0.25326662  0.59180804  0.42494397  1
  O  O22  1  0.24833700  0.06396380  0.91372865  1
  O  O23  1  0.43077277  0.24687893  0.59399075  1
  O  O24  1  0.18354490  0.38839695  0.99664943  1
  O  O25  1  0.60028932  0.42269976  0.25497164  1
  O  O26  1  0.09527846  0.73268385  0.96378503  1
  O  O27  1  0.37719018  0.02079025  0.20691049  1
  O  O28  1  0.59852699  0.02497813  0.82469800  1
  O  O29  1  0.90075178  0.24842590  0.07195891  1
  O  O30  1  0.39459191  0.58120809  0.74886155  1
  O  O31  1  0.81964988  0.60307220  0.02403312  1
  O  O32  1  0.57879837  0.75525843  0.40016620  1
  O  O33  1  0.74002542  0.95546683  0.08867505  1
  O  O34  1  0.74244265  0.39888198  0.58360970  1
  O  O35  1  0.95372577  0.18951471  0.39058666  1
  O  O36  1  0.49047271  0.89170707  0.69352519  1
  O  O37  1  0.96209511  0.09212939  0.72608126  1
  O  O38  1  0.68937262  0.49645336  0.89061267  1
  O  O39  1  0.89261180  0.68283180  0.49934683  1
