# generated using pymatgen
data_Ti2N2O
_symmetry_space_group_name_H-M   'P 1'
_cell_length_a   8.22448804
_cell_length_b   8.22418002
_cell_length_c   8.23517447
_cell_angle_alpha   109.59604041
_cell_angle_beta   109.52533183
_cell_angle_gamma   109.43673155
_symmetry_Int_Tables_number   1
_chemical_formula_structural   Ti2N2O
_chemical_formula_sum   'Ti16 N16 O8'
_cell_volume   428.03094219
_cell_formula_units_Z   8
loop_
 _symmetry_equiv_pos_site_id
 _symmetry_equiv_pos_as_xyz
  1  'x, y, z'
loop_
 _atom_site_type_symbol
 _atom_site_label
 _atom_site_symmetry_multiplicity
 _atom_site_fract_x
 _atom_site_fract_y
 _atom_site_fract_z
 _atom_site_occupancy
  Ti  Ti0  1  0.95773477  0.25124273  0.20480680  1
  Ti  Ti1  1  0.51141217  0.00785990  0.99881347  1
  Ti  Ti2  1  0.70104765  0.45316672  0.23783162  1
  Ti  Ti3  1  0.79327381  0.04846452  0.75577351  1
  Ti  Ti4  1  0.74993280  0.78452017  0.03869317  1
  Ti  Ti5  1  0.74476361  0.28496753  0.53167910  1
  Ti  Ti6  1  0.01135291  0.51403621  0.99940660  1
  Ti  Ti7  1  0.48966303  0.49503393  0.51038068  1
  Ti  Ti8  1  0.55158719  0.76256859  0.30689523  1
  Ti  Ti9  1  0.99846812  0.99629919  0.49526771  1
  Ti  Ti10  1  0.44797166  0.24694329  0.70809665  1
  Ti  Ti11  1  0.26210446  0.71165590  0.46610116  1
  Ti  Ti12  1  0.24497881  0.21197396  0.95358966  1
  Ti  Ti13  1  0.21942671  0.95507112  0.26088235  1
  Ti  Ti14  1  0.28639792  0.54195133  0.74454140  1
  Ti  Ti15  1  0.04202271  0.74132504  0.78817105  1
  N  N16  1  0.76527658  0.04093211  0.49262212  1
  N  N17  1  0.73488926  0.22816563  0.27485500  1
  N  N18  1  0.46184204  0.22355334  0.44801172  1
  N  N19  1  0.77502579  0.72392799  0.26426545  1
  N  N20  1  0.05032136  0.27348901  0.00922638  1
  N  N21  1  0.22329041  0.44672039  0.45751202  1
  N  N22  1  0.27775384  0.73491251  0.22390759  1
  N  N23  1  0.51296623  0.23713837  0.96167054  1
  N  N24  1  0.54772869  0.54174892  0.77485724  1
  N  N25  1  0.95332060  0.72772030  0.99454323  1
  N  N26  1  0.22323019  0.27396273  0.73862019  1
  N  N27  1  0.53978795  0.77282686  0.54921900  1
  N  N28  1  0.03600141  0.48865443  0.76444558  1
  N  N29  1  0.72347862  0.98837716  0.94923647  1
  N  N30  1  0.23048386  0.95867187  0.50694528  1
  N  N31  1  0.26316227  0.77406730  0.72643048  1
  O  O32  1  0.95777960  0.50621025  0.23179844  1
  O  O33  1  0.26759180  0.00815459  0.04207495  1
  O  O34  1  0.45413364  0.45692609  0.22588026  1
  O  O35  1  0.72336244  0.26189065  0.77620610  1
  O  O36  1  0.00616538  0.05258217  0.27836472  1
  O  O37  1  0.77793964  0.55524337  0.54204453  1
  O  O38  1  0.49155748  0.76820684  0.04310451  1
  O  O39  1  0.99077461  0.94883695  0.72322805  1
