# generated using pymatgen
data_Na3CoO3
_symmetry_space_group_name_H-M   'P 1'
_cell_length_a   7.49803482
_cell_length_b   7.49803482
_cell_length_c   7.49803482
_cell_angle_alpha   90.00000000
_cell_angle_beta   90.00000000
_cell_angle_gamma   90.00000000
_symmetry_Int_Tables_number   1
_chemical_formula_structural   Na3CoO3
_chemical_formula_sum   'Na12 Co4 O12'
_cell_volume   421.54346276
_cell_formula_units_Z   4
loop_
 _symmetry_equiv_pos_site_id
 _symmetry_equiv_pos_as_xyz
  1  'x, y, z'
loop_
 _atom_site_type_symbol
 _atom_site_label
 _atom_site_symmetry_multiplicity
 _atom_site_fract_x
 _atom_site_fract_y
 _atom_site_fract_z
 _atom_site_occupancy
  Na  Na0  1  0.03303689  0.03303689  0.03303689  1
  Na  Na1  1  0.21263159  0.28736841  0.71263159  1
  Na  Na2  1  0.23278338  0.73278338  0.76721662  1
  Na  Na3  1  0.26721662  0.26721662  0.26721662  1
  Na  Na4  1  0.28736841  0.71263159  0.21263159  1
  Na  Na5  1  0.46696311  0.96696311  0.53303689  1
  Na  Na6  1  0.53303689  0.46696311  0.96696311  1
  Na  Na7  1  0.71263159  0.21263159  0.28736841  1
  Na  Na8  1  0.73278338  0.76721662  0.23278338  1
  Na  Na9  1  0.76721662  0.23278338  0.73278338  1
  Na  Na10  1  0.78736841  0.78736841  0.78736841  1
  Na  Na11  1  0.96696311  0.53303689  0.46696311  1
  Co  Co12  1  0.97867856  0.02132144  0.52132144  1
  Co  Co13  1  0.52132144  0.97867856  0.02132144  1
  Co  Co14  1  0.47867856  0.47867856  0.47867856  1
  Co  Co15  1  0.02132144  0.52132144  0.97867856  1
  O  O16  1  0.00161498  0.22364605  0.40106458  1
  O  O17  1  0.09893542  0.99838502  0.72364605  1
  O  O18  1  0.22364605  0.40106458  0.00161498  1
  O  O19  1  0.27635395  0.59893542  0.50161498  1
  O  O20  1  0.40106458  0.00161498  0.22364605  1
  O  O21  1  0.49838502  0.77635395  0.90106458  1
  O  O22  1  0.50161498  0.27635395  0.59893542  1
  O  O23  1  0.59893542  0.50161498  0.27635395  1
  O  O24  1  0.72364605  0.09893542  0.99838502  1
  O  O25  1  0.77635395  0.90106458  0.49838502  1
  O  O26  1  0.90106458  0.49838502  0.77635395  1
  O  O27  1  0.99838502  0.72364605  0.09893542  1
