# generated using pymatgen
data_Li4Fe2OF8
_symmetry_space_group_name_H-M   'P 1'
_cell_length_a   5.11546418
_cell_length_b   5.10432657
_cell_length_c   14.02581480
_cell_angle_alpha   89.92075578
_cell_angle_beta   89.96522991
_cell_angle_gamma   119.98581498
_symmetry_Int_Tables_number   1
_chemical_formula_structural   Li4Fe2OF8
_chemical_formula_sum   'Li8 Fe4 O2 F16'
_cell_volume   317.20745671
_cell_formula_units_Z   2
loop_
 _symmetry_equiv_pos_site_id
 _symmetry_equiv_pos_as_xyz
  1  'x, y, z'
loop_
 _atom_site_type_symbol
 _atom_site_label
 _atom_site_symmetry_multiplicity
 _atom_site_fract_x
 _atom_site_fract_y
 _atom_site_fract_z
 _atom_site_occupancy
  Li  Li0  1  0.32183811  0.65297927  0.30966202  1
  Li  Li1  1  0.33311107  0.67593974  0.01596465  1
  Li  Li2  1  0.32974956  0.64990515  0.80913208  1
  Li  Li3  1  0.33868696  0.66941070  0.51341587  1
  Li  Li4  1  0.68869202  0.33749466  0.18985979  1
  Li  Li5  1  0.64932680  0.33188924  0.68979584  1
  Li  Li6  1  0.66722705  0.34321608  0.98390931  1
  Li  Li7  1  0.67171752  0.33767604  0.48605529  1
  Fe  Fe8  1  0.00554884  0.02067615  0.14913234  1
  Fe  Fe9  1  0.01367654  0.01534312  0.65027207  1
  Fe  Fe10  1  0.99864308  0.01469322  0.35043757  1
  Fe  Fe11  1  0.01709174  0.01822986  0.84979011  1
  O  O12  1  0.00438129  0.27472079  0.24971888  1
  O  O13  1  0.27199892  0.27348101  0.74978248  1
  F  F14  1  0.98416867  0.68518042  0.75160993  1
  F  F15  1  0.02187688  0.68348665  0.41235528  1
  F  F16  1  0.32299243  0.97722295  0.91833150  1
  F  F17  1  0.02005683  0.35199671  0.91749977  1
  F  F18  1  0.32815474  0.34704693  0.41830186  1
  F  F19  1  0.64980345  0.97358049  0.41713182  1
  F  F20  1  0.34912592  0.32774595  0.07903463  1
  F  F21  1  0.30067677  0.98616516  0.24744196  1
  F  F22  1  0.65971102  0.68720924  0.91361184  1
  F  F23  1  0.34872467  0.01938938  0.58151405  1
  F  F24  1  0.70208000  0.68861976  0.25115628  1
  F  F25  1  0.68422741  0.65928273  0.58664697  1
  F  F26  1  0.97555600  0.66254223  0.08627651  1
  F  F27  1  0.67656510  0.02567684  0.08242236  1
  F  F28  1  0.68664962  0.98642251  0.74830631  1
  F  F29  1  0.97629299  0.32258904  0.57993962  1
