# generated using pymatgen
data_Ca2Ti6N2O11
_symmetry_space_group_name_H-M   'P 1'
_cell_length_a   3.80419486
_cell_length_b   7.64547273
_cell_length_c   9.39857034
_cell_angle_alpha   80.56721751
_cell_angle_beta   90.00000000
_cell_angle_gamma   75.59423436
_symmetry_Int_Tables_number   1
_chemical_formula_structural   Ca2Ti6N2O11
_chemical_formula_sum   'Ca2 Ti6 N2 O11'
_cell_volume   260.94346331
_cell_formula_units_Z   1
loop_
 _symmetry_equiv_pos_site_id
 _symmetry_equiv_pos_as_xyz
  1  'x, y, z'
loop_
 _atom_site_type_symbol
 _atom_site_label
 _atom_site_symmetry_multiplicity
 _atom_site_fract_x
 _atom_site_fract_y
 _atom_site_fract_z
 _atom_site_occupancy
  Ca  Ca0  1  0.55959578  0.88080844  0.74198964  1
  Ca  Ca1  1  0.45855545  0.08288809  0.20114929  1
  Ti  Ti2  1  0.12199042  0.75601816  0.07807173  1
  Ti  Ti3  1  0.15745972  0.68508056  0.43490725  1
  Ti  Ti4  1  0.24316598  0.51366805  0.77189997  1
  Ti  Ti5  1  0.77329453  0.45341193  0.24686224  1
  Ti  Ti6  1  0.83503026  0.32993948  0.57923261  1
  Ti  Ti7  1  0.87741315  0.24517471  0.90347552  1
  N  N8  1  0.75958346  0.48083209  0.74646095  1
  N  N9  1  0.35404457  0.29191086  0.90828970  1
  O  O10  1  0.05837271  0.88325358  0.29325252  1
  O  O11  1  0.11544247  0.76911507  0.60543429  1
  O  O12  1  0.14807270  0.70385460  0.89115826  1
  O  O13  1  0.64083933  0.71832034  0.11287510  1
  O  O14  1  0.69668229  0.60663541  0.42731381  1
  O  O15  1  0.23917999  0.52164003  0.24517377  1
  O  O16  1  0.30123813  0.39752374  0.57207352  1
  O  O17  1  0.84485955  0.31027991  0.11111501  1
  O  O18  1  0.87439623  0.25120654  0.39563218  1
  O  O19  1  0.94043113  0.11913674  0.71787115  1
  O  O20  1  0.00035017  -0.00070033  0.01575848  1
