# generated using pymatgen
data_MnV5O12
_symmetry_space_group_name_H-M   'P 1'
_cell_length_a   6.89428855
_cell_length_b   6.89428817
_cell_length_c   5.88416794
_cell_angle_alpha   74.92028491
_cell_angle_beta   105.07971727
_cell_angle_gamma   95.61103930
_symmetry_Int_Tables_number   1
_chemical_formula_structural   MnV5O12
_chemical_formula_sum   'Mn1 V5 O12'
_cell_volume   260.61564573
_cell_formula_units_Z   1
loop_
 _symmetry_equiv_pos_site_id
 _symmetry_equiv_pos_as_xyz
  1  'x, y, z'
loop_
 _atom_site_type_symbol
 _atom_site_label
 _atom_site_symmetry_multiplicity
 _atom_site_fract_x
 _atom_site_fract_y
 _atom_site_fract_z
 _atom_site_occupancy
  Mn  Mn0  1  0.91187015  0.91187015  0.25000000  1
  V  V1  1  0.08568738  0.08568738  0.75000000  1
  V  V2  1  0.20884780  0.60959147  0.76797964  1
  V  V3  1  0.38812601  0.79329676  0.26163398  1
  V  V4  1  0.60959147  0.20884780  0.73202036  1
  V  V5  1  0.79329676  0.38812601  0.23836702  1
  O  O6  1  0.03894720  0.80231776  0.65365494  1
  O  O7  1  0.09822167  0.37813299  0.78650769  1
  O  O8  1  0.19331967  0.96002883  0.12990525  1
  O  O9  1  0.36212140  0.64901529  0.55415948  1
  O  O10  1  0.37813299  0.09822167  0.71349231  1
  O  O11  1  0.36180626  0.63192071  0.05941050  1
  O  O12  1  0.64901529  0.36212140  0.94584052  1
  O  O13  1  0.61392718  0.91282149  0.28713443  1
  O  O14  1  0.63192071  0.36180626  0.44058950  1
  O  O15  1  0.80231776  0.03894720  0.84634506  1
  O  O16  1  0.91282149  0.61392718  0.21286557  1
  O  O17  1  0.96002883  0.19331967  0.37009475  1
