# generated using pymatgen
data_LiVF4
_symmetry_space_group_name_H-M   'P 1'
_cell_length_a   3.96627677
_cell_length_b   8.03885753
_cell_length_c   12.62622459
_cell_angle_alpha   59.75373397
_cell_angle_beta   89.73082072
_cell_angle_gamma   75.73898530
_symmetry_Int_Tables_number   1
_chemical_formula_structural   LiVF4
_chemical_formula_sum   'Li4 V4 F16'
_cell_volume   333.61348470
_cell_formula_units_Z   4
loop_
 _symmetry_equiv_pos_site_id
 _symmetry_equiv_pos_as_xyz
  1  'x, y, z'
loop_
 _atom_site_type_symbol
 _atom_site_label
 _atom_site_symmetry_multiplicity
 _atom_site_fract_x
 _atom_site_fract_y
 _atom_site_fract_z
 _atom_site_occupancy
  Li  Li0  1  0.79696129  0.39915827  0.83536194  1
  Li  Li1  1  0.65333679  0.68205014  0.32225187  1
  Li  Li2  1  0.34177211  0.31896167  0.67549226  1
  Li  Li3  1  0.19612260  0.60208709  0.16562053  1
  V  V4  1  0.02937621  0.93077455  0.86828642  1
  V  V5  1  0.13852383  0.72380631  0.64177809  1
  V  V6  1  0.85915645  0.27433930  0.35821473  1
  V  V7  1  0.96441446  0.06674281  0.13370669  1
  F  F8  1  0.51536664  0.96290311  0.85067200  1
  F  F9  1  0.07226830  0.84970581  0.74317296  1
  F  F10  1  0.17056028  0.66419822  0.00064838  1
  F  F11  1  0.64924864  0.70152054  0.65941366  1
  F  F12  1  0.27474889  0.44711528  0.78594210  1
  F  F13  1  0.20082865  0.59977230  0.54590123  1
  F  F14  1  0.10942272  0.77128393  0.25712823  1
  F  F15  1  0.89036200  0.22409283  0.74327108  1
  F  F16  1  0.79306568  0.39794081  0.45395458  1
  F  F17  1  0.72180272  0.55142956  0.21362837  1
  F  F18  1  0.34808606  0.29633812  0.34040541  1
  F  F19  1  0.83027361  0.33393501  -0.00060681  1
  F  F20  1  0.00186729  0.99829018  0.49950945  1
  F  F21  1  0.92216459  0.14923379  0.25575280  1
  F  F22  1  0.48173544  0.03057871  0.15284831  1
  F  F23  1  0.99823875  0.99722067  0.00198875  1
