# generated using pymatgen
data_Mn7Sb(PO4)12
_symmetry_space_group_name_H-M   'P 1'
_cell_length_a   8.48723533
_cell_length_b   8.47984748
_cell_length_c   11.82462546
_cell_angle_alpha   90.03725735
_cell_angle_beta   89.97815522
_cell_angle_gamma   90.01172192
_symmetry_Int_Tables_number   1
_chemical_formula_structural   Mn7Sb(PO4)12
_chemical_formula_sum   'Mn7 Sb1 P12 O48'
_cell_volume   851.02348755
_cell_formula_units_Z   1
loop_
 _symmetry_equiv_pos_site_id
 _symmetry_equiv_pos_as_xyz
  1  'x, y, z'
loop_
 _atom_site_type_symbol
 _atom_site_label
 _atom_site_symmetry_multiplicity
 _atom_site_fract_x
 _atom_site_fract_y
 _atom_site_fract_z
 _atom_site_occupancy
  Mn  Mn0  1  0.25025010  0.96524522  0.61799919  1
  Mn  Mn1  1  0.25005388  0.53515096  0.38194314  1
  Mn  Mn2  1  0.24970489  0.03506775  0.11746900  1
  Mn  Mn3  1  0.24974591  0.46577458  0.88165647  1
  Mn  Mn4  1  0.75048048  0.53571739  0.11797801  1
  Mn  Mn5  1  0.75045519  0.96430491  0.88221581  1
  Mn  Mn6  1  0.74953917  0.03359312  0.38118822  1
  Sb  Sb7  1  0.74960809  0.46662406  0.62068936  1
  P  P8  1  0.04173690  0.24677291  0.49797062  1
  P  P9  1  0.46363372  0.74998461  -0.00003386  1
  P  P10  1  0.53707099  0.25041190  0.99982575  1
  P  P11  1  0.96565643  0.75458787  0.49810056  1
  P  P12  1  0.10714151  0.39139282  0.14498653  1
  P  P13  1  0.10715128  0.10855425  0.85466858  1
  P  P14  1  0.38678435  0.60912257  0.64604759  1
  P  P15  1  0.39270156  0.89165692  0.35480433  1
  P  P16  1  0.60517704  0.10088027  0.64596514  1
  P  P17  1  0.60393397  0.39051365  0.34947913  1
  P  P18  1  0.89655455  0.60949094  0.85867853  1
  P  P19  1  0.89293368  0.89185150  0.14519740  1
  O  O20  1  0.05975792  0.64121209  0.42344653  1
  O  O21  1  0.06151027  0.86241920  0.57527022  1
  O  O22  1  0.07449326  0.90146779  0.15877425  1
  O  O23  1  0.07650891  0.60181733  0.84420363  1
  O  O24  1  0.14895459  0.15745726  0.58019912  1
  O  O25  1  0.14797697  0.34006365  0.41696928  1
  O  O26  1  0.15974913  0.43808838  0.02676620  1
  O  O27  1  0.15956756  0.06201780  0.97332652  1
  O  O28  1  0.15341353  0.22212015  0.17623364  1
  O  O29  1  0.15279013  0.27822549  0.82429361  1
  O  O30  1  0.17742888  0.51436164  0.22787990  1
  O  O31  1  0.17844210  0.98692585  0.77213950  1
  O  O32  1  0.32110072  0.01305408  0.27179700  1
  O  O33  1  0.31727478  0.48628874  0.72763869  1
  O  O34  1  0.34162892  0.77861083  0.67654361  1
  O  O35  1  0.34705227  0.72197404  0.32361484  1
  O  O36  1  0.34002906  0.56150593  0.52629771  1
  O  O37  1  0.34125638  0.93808942  0.47356139  1
  O  O38  1  0.35306026  0.84054928  0.08110746  1
  O  O39  1  0.35481416  0.65832986  0.91899699  1
  O  O40  1  0.42467536  0.09643134  0.65846022  1
  O  O41  1  0.42306599  0.39977421  0.33881741  1
  O  O42  1  0.44084992  0.14079303  0.07657603  1
  O  O43  1  0.44048506  0.35877032  0.92319038  1
  O  O44  1  0.55975932  0.64059937  0.07655852  1
  O  O45  1  0.55999297  0.85928136  0.92339270  1
  O  O46  1  0.57044696  0.60548635  0.65884099  1
  O  O47  1  0.57437258  0.90092605  0.34102500  1
  O  O48  1  0.64687631  0.34135911  0.08079672  1
  O  O49  1  0.64675767  0.15789592  0.91893697  1
  O  O50  1  0.66022258  0.06315819  0.52659868  1
  O  O51  1  0.65709088  0.43941145  0.46931748  1
  O  O52  1  0.65251561  0.22112016  0.32234404  1
  O  O53  1  0.65023675  0.27267318  0.67993157  1
  O  O54  1  0.67905913  0.51290606  0.27011682  1
  O  O55  1  0.67992975  0.98229317  0.72841316  1
  O  O56  1  0.82057329  0.01359385  0.22756084  1
  O  O57  1  0.82101827  0.48390999  0.77841194  1
  O  O58  1  0.84628337  0.72262512  0.17655415  1
  O  O59  1  0.84647063  0.77686156  0.82507524  1
  O  O60  1  0.84247463  0.56405141  0.97667427  1
  O  O61  1  0.84051751  0.93833985  0.02669499  1
  O  O62  1  0.85654321  0.66499912  0.58229068  1
  O  O63  1  0.85545266  0.84296424  0.41668452  1
  O  O64  1  0.92518112  0.09869117  0.84131359  1
  O  O65  1  0.92562213  0.40148329  0.15908202  1
  O  O66  1  0.94016710  0.14115577  0.42320275  1
  O  O67  1  0.94623274  0.35716837  0.57725072  1
