# generated using pymatgen
data_LiV2OF5
_symmetry_space_group_name_H-M   'P 1'
_cell_length_a   5.23161493
_cell_length_b   5.55164300
_cell_length_c   12.87574294
_cell_angle_alpha   92.21192469
_cell_angle_beta   88.95367336
_cell_angle_gamma   61.62135883
_symmetry_Int_Tables_number   1
_chemical_formula_structural   LiV2OF5
_chemical_formula_sum   'Li3 V6 O3 F15'
_cell_volume   328.49277582
_cell_formula_units_Z   3
loop_
 _symmetry_equiv_pos_site_id
 _symmetry_equiv_pos_as_xyz
  1  'x, y, z'
loop_
 _atom_site_type_symbol
 _atom_site_label
 _atom_site_symmetry_multiplicity
 _atom_site_fract_x
 _atom_site_fract_y
 _atom_site_fract_z
 _atom_site_occupancy
  Li  Li0  1  0.36602180  0.22904705  0.10683780  1
  Li  Li1  1  0.38386299  0.22140985  0.58211886  1
  Li  Li2  1  0.72144520  0.57145660  0.92238592  1
  V  V3  1  0.32539693  0.31758565  0.34195784  1
  V  V4  1  0.00789924  0.00447645  0.49435523  1
  V  V5  1  0.34273991  0.35242560  0.82882127  1
  V  V6  1  0.99553433  0.02061497  0.00253789  1
  V  V7  1  0.68742166  0.63877260  0.16606346  1
  V  V8  1  0.65709733  0.66025571  0.67351816  1
  O  O9  1  0.20335076  0.19449994  0.45447256  1
  O  O10  1  0.54281350  0.53943633  0.79178239  1
  O  O11  1  0.94700056  0.33144288  0.08015334  1
  F  F12  1  0.09525937  0.17225264  0.87854939  1
  F  F13  1  0.09395396  0.45197365  0.69797344  1
  F  F14  1  0.02793312  0.68157769  0.91458095  1
  F  F15  1  0.28363369  0.65120051  0.42355823  1
  F  F16  1  0.61075097  0.99851040  0.75826512  1
  F  F17  1  0.44899545  0.45396104  0.20841094  1
  F  F18  1  0.26290615  0.89954422  0.62285479  1
  F  F19  1  0.56218788  0.23258018  0.96695882  1
  F  F20  1  0.43228112  0.80043715  0.03553401  1
  F  F21  1  0.74131392  0.11153983  0.37617317  1
  F  F22  1  0.39243779  0.00357755  0.23237574  1
  F  F23  1  0.68910275  0.33845258  0.58165310  1
  F  F24  1  0.92265214  0.53469484  0.28791137  1
  F  F25  1  0.77694231  0.82903703  0.55738548  1
  F  F26  1  0.87491115  0.86581606  0.11669772  1
