# generated using pymatgen
data_SrAl7Tl5Si5O24
_symmetry_space_group_name_H-M   'P 1'
_cell_length_a   12.77541403
_cell_length_b   12.48204967
_cell_length_c   12.56344453
_cell_angle_alpha   89.77312643
_cell_angle_beta   89.54659007
_cell_angle_gamma   88.13413325
_symmetry_Int_Tables_number   1
_chemical_formula_structural   SrAl7Tl5Si5O24
_chemical_formula_sum   'Sr2 Al14 Tl10 Si10 O48'
_cell_volume   2002.27032524
_cell_formula_units_Z   2
loop_
 _symmetry_equiv_pos_site_id
 _symmetry_equiv_pos_as_xyz
  1  'x, y, z'
loop_
 _atom_site_type_symbol
 _atom_site_label
 _atom_site_symmetry_multiplicity
 _atom_site_fract_x
 _atom_site_fract_y
 _atom_site_fract_z
 _atom_site_occupancy
  Sr  Sr0  1  0.22807680  0.21395066  0.77979787  1
  Sr  Sr1  1  0.40915616  0.44195070  0.04492049  1
  Al  Al2  1  0.01028506  0.63174541  0.19242669  1
  Al  Al3  1  0.00492818  0.83286090  0.37644723  1
  Al  Al4  1  0.01965118  0.63814703  0.81432340  1
  Al  Al5  1  0.37751088  0.18575796  0.00668518  1
  Al  Al6  1  0.37779355  0.99740030  0.81542168  1
  Al  Al7  1  0.37750801  0.81399701  0.00891474  1
  Al  Al8  1  0.62080060  0.00667203  0.19376031  1
  Al  Al9  1  0.61617111  0.20738742  0.00077032  1
  Al  Al10  1  0.62336635  0.01496378  0.81714733  1
  Al  Al11  1  0.63312780  0.83124179  0.00964590  1
  Al  Al12  1  0.81996355  0.02534235  0.37550757  1
  Al  Al13  1  0.82781494  0.01982948  0.62730027  1
  Al  Al14  1  0.82753939  0.37616382  0.00766173  1
  Al  Al15  1  0.83585460  0.63578040  0.00269278  1
  Tl  Tl16  1  0.26868831  0.24618694  0.26741220  1
  Tl  Tl17  1  0.60320880  0.58402547  0.00434427  1
  Tl  Tl18  1  0.59005528  0.10137274  0.57929374  1
  Tl  Tl19  1  0.63927124  0.24215877  0.26483791  1
  Tl  Tl20  1  0.14309236  0.87738080  0.87415418  1
  Tl  Tl21  1  0.13092204  0.85479499  0.15149508  1
  Tl  Tl22  1  0.86325335  0.13017781  0.13278000  1
  Tl  Tl23  1  0.82852461  0.14099068  0.86358389  1
  Tl  Tl24  1  0.85982833  0.86065675  0.14909295  1
  Tl  Tl25  1  0.85854614  0.86402073  0.86394410  1
  Si  Si26  1  0.01290991  0.20005686  0.37929221  1
  Si  Si27  1  0.00626618  0.38033891  0.19225673  1
  Si  Si28  1  0.00843569  0.20115536  0.62448803  1
  Si  Si29  1  0.00687469  0.38058296  0.81712967  1
  Si  Si30  1  0.01241650  0.83109295  0.62824030  1
  Si  Si31  1  0.18795045  0.01086007  0.62398835  1
  Si  Si32  1  0.19432649  0.62987557  0.00122747  1
  Si  Si33  1  0.19036116  0.01269180  0.37911765  1
  Si  Si34  1  0.17589245  0.37526479  0.00195196  1
  Si  Si35  1  0.37525079  0.00102557  0.19416246  1
  O  O36  1  0.02954484  0.29570317  0.29191589  1
  O  O37  1  0.02944074  0.29529129  0.71496381  1
  O  O38  1  0.01996895  0.79227379  0.50761657  1
  O  O39  1  0.02159585  0.50068537  0.77789824  1
  O  O40  1  0.02718812  0.73486991  0.71363158  1
  O  O41  1  0.12091338  0.12877971  0.63760577  1
  O  O42  1  0.12275582  0.63965008  0.10662469  1
  O  O43  1  0.12812943  0.13231873  0.36873695  1
  O  O44  1  0.11187011  0.35846904  0.11154582  1
  O  O45  1  0.13566100  0.66221700  0.89098192  1
  O  O46  1  0.11486139  0.91186437  0.65340491  1
  O  O47  1  0.11565220  0.34436822  0.89126235  1
  O  O48  1  0.11403025  0.91952308  0.34858596  1
  O  O49  1  0.23409588  0.00521616  0.50224310  1
  O  O50  1  0.22855036  0.49502256  0.99294718  1
  O  O51  1  0.30455440  0.69053953  0.01493139  1
  O  O52  1  0.27793696  0.02681756  0.71281377  1
  O  O53  1  0.28981767  0.02142904  0.29681178  1
  O  O54  1  0.28091528  0.29767042  0.00411165  1
  O  O55  1  0.35215540  0.11422632  0.12494654  1
  O  O56  1  0.35033295  0.12044245  0.88821904  1
  O  O57  1  0.34509324  0.89636231  0.12504593  1
  O  O58  1  0.33740765  0.88858899  0.89394633  1
  O  O59  1  0.49101009  0.99832428  0.24473307  1
  O  O60  1  0.48661880  0.27176175  0.01091919  1
  O  O61  1  0.50885430  0.77588118  0.00864254  1
  O  O62  1  0.50093474  0.00026654  0.75732508  1
  O  O63  1  0.61600485  0.12346974  0.11329708  1
  O  O64  1  0.63173707  0.14139668  0.88010177  1
  O  O65  1  0.66539765  0.88980307  0.13212465  1
  O  O66  1  0.66523358  0.91118908  0.90087393  1
  O  O67  1  0.71724398  0.71466953  0.99745894  1
  O  O68  1  0.72076515  0.03041547  0.71536569  1
  O  O69  1  0.71674095  0.05562752  0.28467232  1
  O  O70  1  0.72537043  0.28744789  0.01926659  1
  O  O71  1  0.78326009  0.50790342  0.00310821  1
  O  O72  1  0.77022634  0.03809367  0.50385444  1
  O  O73  1  0.90865246  0.13328771  0.65344124  1
  O  O74  1  0.89732017  0.66591205  0.12170230  1
  O  O75  1  0.91292205  0.13171120  0.35083047  1
  O  O76  1  0.90648582  0.34562543  0.12316548  1
  O  O77  1  0.90726336  0.35013807  0.88902553  1
  O  O78  1  0.90837473  0.66737989  0.88956563  1
  O  O79  1  0.88831626  0.90510480  0.34671281  1
  O  O80  1  0.90690536  0.90484401  0.65276911  1
  O  O81  1  0.00869540  0.24856375  0.50218621  1
  O  O82  1  0.00751506  0.49874314  0.23814157  1
  O  O83  1  0.03135356  0.73391045  0.28230833  1
