# generated using pymatgen
data_Li4Mn2V3Sn3O16
_symmetry_space_group_name_H-M   'P 1'
_cell_length_a   6.13301738
_cell_length_b   6.12509119
_cell_length_c   10.00356439
_cell_angle_alpha   89.85950008
_cell_angle_beta   90.07914670
_cell_angle_gamma   119.61164170
_symmetry_Int_Tables_number   1
_chemical_formula_structural   Li4Mn2V3Sn3O16
_chemical_formula_sum   'Li4 Mn2 V3 Sn3 O16'
_cell_volume   326.70601136
_cell_formula_units_Z   1
loop_
 _symmetry_equiv_pos_site_id
 _symmetry_equiv_pos_as_xyz
  1  'x, y, z'
loop_
 _atom_site_type_symbol
 _atom_site_label
 _atom_site_symmetry_multiplicity
 _atom_site_fract_x
 _atom_site_fract_y
 _atom_site_fract_z
 _atom_site_occupancy
  Li  Li0  1  0.34971980  0.67309448  0.88814923  1
  Li  Li1  1  0.97262663  0.98973879  0.99505147  1
  Li  Li2  1  0.98374900  0.98882096  0.50079105  1
  Li  Li3  1  0.67305608  0.33848324  0.39346224  1
  Mn  Mn4  1  0.33619849  0.66502158  0.50109449  1
  Mn  Mn5  1  0.66664228  0.33583407  0.99699747  1
  V  V6  1  0.66102169  0.83234341  0.21698491  1
  V  V7  1  0.83958572  0.17785011  0.71736516  1
  V  V8  1  0.83312829  0.66604095  0.71321691  1
  Sn  Sn9  1  0.16703338  0.83155984  0.21477182  1
  Sn  Sn10  1  0.16783475  0.33702951  0.21515596  1
  Sn  Sn11  1  0.34158193  0.16831547  0.71497944  1
  O  O12  1  0.15205940  0.84039030  0.60382226  1
  O  O13  1  0.03065825  0.51941629  0.33549362  1
  O  O14  1  0.34134777  0.67116936  0.10016742  1
  O  O15  1  0.98909607  0.99496760  0.31954396  1
  O  O16  1  0.99502727  0.99610008  0.81467370  1
  O  O17  1  0.13375941  0.30300996  0.60410451  1
  O  O18  1  0.50276770  0.96762496  0.32753551  1
  O  O19  1  0.49241402  0.52270739  0.32987353  1
  O  O20  1  0.30271567  0.14844768  0.09625305  1
  O  O21  1  0.69132104  0.83294621  0.61330006  1
  O  O22  1  0.52637967  0.48901645  0.82976179  1
  O  O23  1  0.54587882  0.03737921  0.82824643  1
  O  O24  1  0.68127903  0.34205369  0.60456939  1
  O  O25  1  0.82344918  0.68950784  0.10726009  1
  O  O26  1  0.96737215  0.49258005  0.81949918  1
  O  O27  1  0.83229652  0.14885152  0.10571635  1
