# generated using pymatgen
data_Mn3O5F
_symmetry_space_group_name_H-M   'P 1'
_cell_length_a   4.54696351
_cell_length_b   7.53652172
_cell_length_c   5.45334599
_cell_angle_alpha   93.57734686
_cell_angle_beta   90.10983761
_cell_angle_gamma   89.95481832
_symmetry_Int_Tables_number   1
_chemical_formula_structural   Mn3O5F
_chemical_formula_sum   'Mn6 O10 F2'
_cell_volume   186.51231931
_cell_formula_units_Z   2
loop_
 _symmetry_equiv_pos_site_id
 _symmetry_equiv_pos_as_xyz
  1  'x, y, z'
loop_
 _atom_site_type_symbol
 _atom_site_label
 _atom_site_symmetry_multiplicity
 _atom_site_fract_x
 _atom_site_fract_y
 _atom_site_fract_z
 _atom_site_occupancy
  Mn  Mn0  1  0.50204244  0.00053869  0.51078714  1
  Mn  Mn1  1  0.52585529  0.66215023  0.15799788  1
  Mn  Mn2  1  0.49531438  0.33702645  0.83320978  1
  Mn  Mn3  1  0.99224248  0.66905923  0.67624096  1
  Mn  Mn4  1  0.98999614  0.32130089  0.33633217  1
  Mn  Mn5  1  0.98823243  0.01003981  0.98695203  1
  O  O6  1  0.80620135  0.43377307  0.62942827  1
  O  O7  1  0.81015423  0.77469333  0.96311248  1
  O  O8  1  0.80582435  0.09774896  0.29497648  1
  O  O9  1  0.69011559  0.10695825  0.79903042  1
  O  O10  1  0.69515707  0.76694799  0.46116371  1
  O  O11  1  0.69924286  0.43180164  0.12846182  1
  O  O12  1  0.30838754  0.56695508  0.87144525  1
  O  O13  1  0.30713301  0.23149489  0.53844429  1
  O  O14  1  0.19713373  0.23055699  0.04218826  1
  O  O15  1  0.19088275  0.89923270  0.70506696  1
  F  F16  1  0.30058425  0.89564847  0.19842410  1
  F  F17  1  0.19550012  0.56407333  0.36673599  1
