# generated using pymatgen
data_Li5Mn8(BO3)8
_symmetry_space_group_name_H-M   'P 1'
_cell_length_a   5.26743669
_cell_length_b   9.14694212
_cell_length_c   11.46483203
_cell_angle_alpha   67.97772123
_cell_angle_beta   77.34283109
_cell_angle_gamma   89.83485317
_symmetry_Int_Tables_number   1
_chemical_formula_structural   Li5Mn8(BO3)8
_chemical_formula_sum   'Li5 Mn8 B8 O24'
_cell_volume   497.71599572
_cell_formula_units_Z   1
loop_
 _symmetry_equiv_pos_site_id
 _symmetry_equiv_pos_as_xyz
  1  'x, y, z'
loop_
 _atom_site_type_symbol
 _atom_site_label
 _atom_site_symmetry_multiplicity
 _atom_site_fract_x
 _atom_site_fract_y
 _atom_site_fract_z
 _atom_site_occupancy
  Li  Li0  1  0.00160223  0.02730355  0.82724958  1
  Li  Li1  1  0.28117662  0.26522032  0.31466687  1
  Li  Li2  1  0.47929133  0.50352695  0.84375335  1
  Li  Li3  1  0.76744381  0.73542337  0.34695862  1
  Li  Li4  1  0.78154988  0.77578435  0.60192450  1
  Mn  Mn5  1  0.24166399  0.57036220  0.37827511  1
  Mn  Mn6  1  0.26416235  0.95985453  0.61177215  1
  Mn  Mn7  1  0.54501598  0.84609057  0.11928754  1
  Mn  Mn8  1  0.47520617  0.13869917  0.87407325  1
  Mn  Mn9  1  0.74437751  0.06162073  0.36218414  1
  Mn  Mn10  1  0.98743545  0.35787933  0.11462163  1
  Mn  Mn11  1  0.76301986  0.41952593  0.62331187  1
  Mn  Mn12  1  0.97894253  0.67042382  0.87093348  1
  B  B13  1  0.04629263  0.67068678  0.14260461  1
  B  B14  1  0.22658263  0.89151495  0.38116672  1
  B  B15  1  0.26825135  0.61505237  0.62069685  1
  B  B16  1  0.51821834  0.18627705  0.11289866  1
  B  B17  1  0.48229225  0.82461457  0.86344825  1
  B  B18  1  0.73750080  0.39897333  0.36306953  1
  B  B19  1  0.74662876  0.09777612  0.63496895  1
  B  B20  1  0.97049891  0.31614045  0.87665175  1
  O  O21  1  0.27338559  0.64248426  0.19126292  1
  O  O22  1  0.35793069  0.29408981  0.13221423  1
  O  O23  1  0.15594446  0.52706746  0.56385425  1
  O  O24  1  0.11263393  0.71903715  0.66122938  1
  O  O25  1  0.45490153  0.08108966  0.05775550  1
  O  O26  1  0.06346314  0.42563914  0.92168660  1
  O  O27  1  0.33127178  0.01697197  0.40199549  1
  O  O28  1  0.11218049  0.19436282  0.87064481  1
  O  O29  1  0.39998362  0.79055610  0.34392201  1
  O  O30  1  0.24507168  0.86529420  0.83234300  1
  O  O31  1  0.47805996  0.39392340  0.37038259  1
  O  O32  1  0.51625908  0.59589544  0.63967754  1
  O  O33  1  0.75617914  0.16722000  0.15249841  1
  O  O34  1  0.56714225  0.18790097  0.68623750  1
  O  O35  1  0.66356256  0.00712830  0.57407947  1
  O  O36  1  0.88649767  0.77739294  0.16487930  1
  O  O37  1  0.59829553  0.69507529  0.85488364  1
  O  O38  1  0.99608759  0.58616798  0.07036106  1
  O  O39  1  0.90093940  0.30613717  0.30777139  1
  O  O40  1  0.61349585  0.92460222  0.90589981  1
  O  O41  1  0.85362202  0.49252162  0.41344293  1
  O  O42  1  0.73639983  0.34024289  0.83596715  1
  O  O43  1  0.96174264  0.86496171  0.39912298  1
  O  O44  1  0.99556719  0.10541608  0.64608964  1
