# generated using pymatgen
data_LiV2OF5
_symmetry_space_group_name_H-M   'P 1'
_cell_length_a   5.24785907
_cell_length_b   5.24785880
_cell_length_c   13.88358754
_cell_angle_alpha   90.00000000
_cell_angle_beta   90.00000000
_cell_angle_gamma   119.99999662
_symmetry_Int_Tables_number   1
_chemical_formula_structural   LiV2OF5
_chemical_formula_sum   'Li3 V6 O3 F15'
_cell_volume   331.12857063
_cell_formula_units_Z   3
loop_
 _symmetry_equiv_pos_site_id
 _symmetry_equiv_pos_as_xyz
  1  'x, y, z'
loop_
 _atom_site_type_symbol
 _atom_site_label
 _atom_site_symmetry_multiplicity
 _atom_site_fract_x
 _atom_site_fract_y
 _atom_site_fract_z
 _atom_site_occupancy
  Li  Li0  1  0.34306248  0.67549321  0.90753803  1
  Li  Li1  1  0.99909773  0.99027052  0.24087103  1
  Li  Li2  1  0.65783979  0.33423627  0.57420503  1
  V  V3  1  0.30826292  0.66629307  0.17082334  1
  V  V4  1  0.97478078  -0.00015050  0.99578927  1
  V  V5  1  0.33348350  0.64159828  0.66245527  1
  V  V6  1  0.69173572  0.35855222  0.32912227  1
  V  V7  1  0.02469715  0.02507008  0.50415634  1
  V  V8  1  0.66703993  0.30863585  0.83749034  1
  O  O9  1  0.99983432  0.62072127  0.25003417  1
  O  O10  1  0.28755395  0.33349868  0.58336717  1
  O  O11  1  0.71261173  0.04577905  0.91670117  1
  F  F12  1  0.25410227  0.94587678  0.08350207  1
  F  F13  1  0.38745722  0.97489250  0.75016907  1
  F  F14  1  0.02738877  0.69960042  0.58195914  1
  F  F15  1  0.63373258  0.99445436  0.24862514  1
  F  F16  1  0.66105421  0.96792106  0.58503271  1
  F  F17  1  0.64781573  0.72417991  0.08621616  1
  F  F18  1  0.00259554  0.39162483  0.75110710  1
  F  F19  1  0.74303118  0.68551727  0.41954916  1
  F  F20  1  0.05569628  0.33073746  0.08444010  1
  F  F21  1  0.60915309  0.59030182  0.75288216  1
  F  F22  1  0.97353384  0.67227979  0.91836571  1
  F  F23  1  0.36541194  0.35979916  0.25169971  1
  F  F24  1  0.33887864  0.30594423  0.91529214  1
  F  F25  1  0.35844150  0.07923173  0.41683607  1
  F  F26  1  0.94170817  0.27763672  0.41777310  1
