# generated using pymatgen
data_Na5Cr2P(CO4)4
_symmetry_space_group_name_H-M   'P 1'
_cell_length_a   9.88391398
_cell_length_b   9.75869364
_cell_length_c   9.88391398
_cell_angle_alpha   60.34063007
_cell_angle_beta   89.33319571
_cell_angle_gamma   119.65936993
_symmetry_Int_Tables_number   1
_chemical_formula_structural   Na5Cr2P(CO4)4
_chemical_formula_sum   'Na10 Cr4 P2 C8 O32'
_cell_volume   677.09355272
_cell_formula_units_Z   2
loop_
 _symmetry_equiv_pos_site_id
 _symmetry_equiv_pos_as_xyz
  1  'x, y, z'
loop_
 _atom_site_type_symbol
 _atom_site_label
 _atom_site_symmetry_multiplicity
 _atom_site_fract_x
 _atom_site_fract_y
 _atom_site_fract_z
 _atom_site_occupancy
  Na  Na0  1  0.91738071  0.23664168  0.33772940  1
  Na  Na1  1  0.66253037  0.34308956  0.08274211  1
  Na  Na2  1  0.66227060  0.73664168  0.08261929  1
  Na  Na3  1  0.92382123  0.25000000  0.92382123  1
  Na  Na4  1  0.91725789  0.84308956  0.33746963  1
  Na  Na5  1  0.07617877  0.75000000  0.07617877  1
  Na  Na6  1  0.08274211  0.15691044  0.66253037  1
  Na  Na7  1  0.33772940  0.26335832  0.91738071  1
  Na  Na8  1  0.33746963  0.65691044  0.91725789  1
  Na  Na9  1  0.08261929  0.76335832  0.66227060  1
  Cr  Cr10  1  0.50000000  0.00000000  0.00000000  1
  Cr  Cr11  1  0.50000000  0.00000000  0.50000000  1
  Cr  Cr12  1  0.50000000  0.50000000  0.50000000  1
  Cr  Cr13  1  0.00000000  0.50000000  0.50000000  1
  P  P14  1  0.12752874  0.25000000  0.12752874  1
  P  P15  1  0.87247126  0.75000000  0.87247126  1
  C  C16  1  0.71142592  0.07299518  0.71291252  1
  C  C17  1  0.71544579  0.42734137  0.36121192  1
  C  C18  1  0.36121192  0.07265863  0.71544579  1
  C  C19  1  0.71291252  0.42700482  0.71142592  1
  C  C20  1  0.63878808  0.92734137  0.28455421  1
  C  C21  1  0.28708748  0.57299518  0.28857408  1
  C  C22  1  0.28455421  0.57265863  0.63878808  1
  C  C23  1  0.28857408  0.92700482  0.28708748  1
  O  O24  1  0.64358614  0.04701552  0.13947713  1
  O  O25  1  0.69125079  0.28540377  0.35826073  1
  O  O26  1  0.85680832  0.21284877  0.59825774  1
  O  O27  1  0.40656175  0.03887288  0.31295316  1
  O  O28  1  0.86052287  0.54701552  0.35641386  1
  O  O29  1  0.31864808  0.38071430  0.05653754  1
  O  O30  1  0.06105425  0.11896079  0.06186269  1
  O  O31  1  0.60149010  0.45582027  0.35986323  1
  O  O32  1  0.68841982  0.04372576  0.85788766  1
  O  O33  1  0.35986323  0.04417973  0.60149010  1
  O  O34  1  0.85788766  0.45627424  0.68841982  1
  O  O35  1  0.06186269  0.38103921  0.06105425  1
  O  O36  1  0.05653754  0.11928570  0.31864808  1
  O  O37  1  0.64173927  0.78540377  0.30874921  1
  O  O38  1  0.40174226  0.71284877  0.14319168  1
  O  O39  1  0.68704684  0.53887288  0.59343825  1
  O  O40  1  0.31295316  0.46112712  0.40656175  1
  O  O41  1  0.59825774  0.28715123  0.85680832  1
  O  O42  1  0.35826073  0.21459623  0.69125079  1
  O  O43  1  0.93813731  0.61896079  0.93894575  1
  O  O44  1  0.94346246  0.88071430  0.68135192  1
  O  O45  1  0.14211234  0.54372576  0.31158018  1
  O  O46  1  0.64013677  0.95582027  0.39850990  1
  O  O47  1  0.31158018  0.95627424  0.14211234  1
  O  O48  1  0.39850990  0.54417973  0.64013677  1
  O  O49  1  0.93894575  0.88103921  0.93813731  1
  O  O50  1  0.68135192  0.61928570  0.94346246  1
  O  O51  1  0.13947713  0.45298448  0.64358614  1
  O  O52  1  0.59343825  0.96112712  0.68704684  1
  O  O53  1  0.30874921  0.71459623  0.64173927  1
  O  O54  1  0.14319168  0.78715123  0.40174226  1
  O  O55  1  0.35641386  0.95298448  0.86052287  1
