# generated using pymatgen
data_MnV3O8
_symmetry_space_group_name_H-M   'P 1'
_cell_length_a   5.69099985
_cell_length_b   7.57949600
_cell_length_c   5.70249632
_cell_angle_alpha   90.27221836
_cell_angle_beta   89.40507258
_cell_angle_gamma   89.68263639
_symmetry_Int_Tables_number   1
_chemical_formula_structural   MnV3O8
_chemical_formula_sum   'Mn1 V3 O8'
_cell_volume   245.95679186
_cell_formula_units_Z   1
loop_
 _symmetry_equiv_pos_site_id
 _symmetry_equiv_pos_as_xyz
  1  'x, y, z'
loop_
 _atom_site_type_symbol
 _atom_site_label
 _atom_site_symmetry_multiplicity
 _atom_site_fract_x
 _atom_site_fract_y
 _atom_site_fract_z
 _atom_site_occupancy
  Mn  Mn0  1  0.93081639  0.87667046  0.51123983  1
  V  V1  1  0.06399634  0.12913376  0.01382302  1
  V  V2  1  0.43411797  0.61951941  0.49459257  1
  V  V3  1  0.56180094  0.37595677  0.99446197  1
  O  O4  1  0.03858901  0.07821471  0.30145502  1
  O  O5  1  0.14582704  0.66409191  0.45397808  1
  O  O6  1  0.36051652  0.19743173  0.94183368  1
  O  O7  1  0.48271072  0.54702830  0.79081719  1
  O  O8  1  0.53011402  0.44757462  0.29605608  1
  O  O9  1  0.59409119  0.80538574  0.44998723  1
  O  O10  1  0.86477733  0.30795542  0.95164040  1
  O  O11  1  0.99264254  0.95103717  0.84851493  1
