# generated using pymatgen
data_Li2FeF4
_symmetry_space_group_name_H-M   'P 1'
_cell_length_a   8.90051306
_cell_length_b   8.90051376
_cell_length_c   8.90051352
_cell_angle_alpha   107.73372596
_cell_angle_beta   107.73372909
_cell_angle_gamma   107.73372626
_symmetry_Int_Tables_number   1
_chemical_formula_structural   Li2FeF4
_chemical_formula_sum   'Li12 Fe6 F24'
_cell_volume   575.04875315
_cell_formula_units_Z   6
loop_
 _symmetry_equiv_pos_site_id
 _symmetry_equiv_pos_as_xyz
  1  'x, y, z'
loop_
 _atom_site_type_symbol
 _atom_site_label
 _atom_site_symmetry_multiplicity
 _atom_site_fract_x
 _atom_site_fract_y
 _atom_site_fract_z
 _atom_site_occupancy
  Li  Li0  1  0.04886912  0.91859302  0.29710583  1
  Li  Li1  1  0.08140698  0.70289417  0.95113088  1
  Li  Li2  1  0.23044813  0.63866126  0.36522892  1
  Li  Li3  1  0.70289417  0.95113088  0.08140698  1
  Li  Li4  1  0.36133874  0.63477108  0.76955187  1
  Li  Li5  1  0.63477108  0.76955187  0.36133874  1
  Li  Li6  1  0.36522892  0.23044813  0.63866126  1
  Li  Li7  1  0.63866126  0.36522892  0.23044813  1
  Li  Li8  1  0.29710583  0.04886912  0.91859302  1
  Li  Li9  1  0.76955187  0.36133874  0.63477108  1
  Li  Li10  1  0.91859302  0.29710583  0.04886912  1
  Li  Li11  1  0.95113088  0.08140698  0.70289417  1
  Fe  Fe12  1  0.00588301  0.70901670  0.55473113  1
  Fe  Fe13  1  0.44526887  0.99411699  0.29098330  1
  Fe  Fe14  1  0.29098330  0.44526887  0.99411699  1
  Fe  Fe15  1  0.70901670  0.55473113  0.00588301  1
  Fe  Fe16  1  0.55473113  0.00588301  0.70901670  1
  Fe  Fe17  1  0.99411699  0.29098330  0.44526887  1
  F  F18  1  0.11022538  0.81986480  0.80962712  1
  F  F19  1  0.06876478  0.73930624  0.37010018  1
  F  F20  1  0.19037288  0.88977462  0.18013520  1
  F  F21  1  0.62989982  0.93123522  0.26069376  1
  F  F22  1  0.46458596  0.82115232  0.45051471  1
  F  F23  1  0.15189712  0.46764496  0.14084979  1
  F  F24  1  0.53235504  0.85915021  0.84810288  1
  F  F25  1  0.26069376  0.62989982  0.93123522  1
  F  F26  1  0.17884768  0.54948529  0.53541404  1
  F  F27  1  0.54948529  0.53541404  0.17884768  1
  F  F28  1  0.18013520  0.19037288  0.88977462  1
  F  F29  1  0.85915021  0.84810288  0.53235504  1
  F  F30  1  0.14084979  0.15189712  0.46764496  1
  F  F31  1  0.81986480  0.80962712  0.11022538  1
  F  F32  1  0.45051471  0.46458596  0.82115232  1
  F  F33  1  0.82115232  0.45051471  0.46458596  1
  F  F34  1  0.73930624  0.37010018  0.06876478  1
  F  F35  1  0.46764496  0.14084979  0.15189712  1
  F  F36  1  0.84810288  0.53235504  0.85915021  1
  F  F37  1  0.53541404  0.17884768  0.54948529  1
  F  F38  1  0.37010018  0.06876478  0.73930624  1
  F  F39  1  0.80962712  0.11022538  0.81986480  1
  F  F40  1  0.93123522  0.26069376  0.62989982  1
  F  F41  1  0.88977462  0.18013520  0.19037288  1
