# generated using pymatgen
data_NaMgTi3O7F
_symmetry_space_group_name_H-M   'P 1'
_cell_length_a   3.75037810
_cell_length_b   10.81311694
_cell_length_c   8.90496206
_cell_angle_alpha   90.00000000
_cell_angle_beta   90.00000000
_cell_angle_gamma   90.00000000
_symmetry_Int_Tables_number   1
_chemical_formula_structural   NaMgTi3O7F
_chemical_formula_sum   'Na2 Mg2 Ti6 O14 F2'
_cell_volume   361.12539278
_cell_formula_units_Z   2
loop_
 _symmetry_equiv_pos_site_id
 _symmetry_equiv_pos_as_xyz
  1  'x, y, z'
loop_
 _atom_site_type_symbol
 _atom_site_label
 _atom_site_symmetry_multiplicity
 _atom_site_fract_x
 _atom_site_fract_y
 _atom_site_fract_z
 _atom_site_occupancy
  Na  Na0  1  0.75000000  0.36586931  0.32185971  1
  Na  Na1  1  0.75000000  0.86586931  0.17814029  1
  Mg  Mg2  1  0.75000000  0.17086515  0.56617097  1
  Mg  Mg3  1  0.75000000  0.67086515  0.93382903  1
  Ti  Ti4  1  0.25000000  0.09771425  0.28284709  1
  Ti  Ti5  1  0.25000000  0.82333315  0.48589402  1
  Ti  Ti6  1  0.25000000  0.32333315  0.01410598  1
  Ti  Ti7  1  0.25000000  0.59771425  0.21715291  1
  Ti  Ti8  1  0.75000000  0.41293024  0.75401063  1
  Ti  Ti9  1  0.75000000  0.91293024  0.74598937  1
  O  O10  1  0.25000000  0.92956559  0.29869542  1
  O  O11  1  0.25000000  0.86037489  0.69320049  1
  O  O12  1  0.25000000  0.66552001  0.40620899  1
  O  O13  1  0.25000000  0.16552001  0.09379101  1
  O  O14  1  0.25000000  0.36037489  0.80679951  1
  O  O15  1  0.25000000  0.42956559  0.20130458  1
  O  O16  1  0.75000000  0.13575683  0.32114490  1
  O  O17  1  0.75000000  0.07366597  0.74786039  1
  O  O18  1  0.75000000  0.36591343  0.99441881  1
  O  O19  1  0.75000000  0.35049459  0.56861824  1
  O  O20  1  0.75000000  0.63575683  0.17885510  1
  O  O21  1  0.75000000  0.57366597  0.75213961  1
  O  O22  1  0.75000000  0.86591343  0.50558119  1
  O  O23  1  0.75000000  0.85049459  0.93138176  1
  F  F24  1  0.25000000  0.64459659  0.99393954  1
  F  F25  1  0.25000000  0.14459659  0.50606046  1
