# generated using pymatgen
data_Li5Mn8(BO3)8
_symmetry_space_group_name_H-M   'P 1'
_cell_length_a   5.32507334
_cell_length_b   9.10670003
_cell_length_c   10.32817038
_cell_angle_alpha   89.65888382
_cell_angle_beta   91.05397202
_cell_angle_gamma   89.97458622
_symmetry_Int_Tables_number   1
_chemical_formula_structural   Li5Mn8(BO3)8
_chemical_formula_sum   'Li5 Mn8 B8 O24'
_cell_volume   500.75900931
_cell_formula_units_Z   1
loop_
 _symmetry_equiv_pos_site_id
 _symmetry_equiv_pos_as_xyz
  1  'x, y, z'
loop_
 _atom_site_type_symbol
 _atom_site_label
 _atom_site_symmetry_multiplicity
 _atom_site_fract_x
 _atom_site_fract_y
 _atom_site_fract_z
 _atom_site_occupancy
  Li  Li0  1  0.13287600  0.98517983  0.66965883  1
  Li  Li1  1  0.16072329  0.00829592  0.17425143  1
  Li  Li2  1  0.63001849  0.51817890  0.15604894  1
  Li  Li3  1  0.66046256  0.48465676  0.68549451  1
  Li  Li4  1  0.84427589  0.01257186  0.40771555  1
  Mn  Mn5  1  0.14369361  0.32128827  0.13256219  1
  Mn  Mn6  1  0.16499874  0.63805586  0.62459025  1
  Mn  Mn7  1  0.33829545  0.15589277  0.88189562  1
  Mn  Mn8  1  0.35527091  0.81205229  0.37802269  1
  Mn  Mn9  1  0.65019387  0.17133210  0.63179242  1
  Mn  Mn10  1  0.65932858  0.85878606  0.11851895  1
  Mn  Mn11  1  0.82702320  0.35677892  0.38578052  1
  Mn  Mn12  1  0.86298961  0.68510685  0.87798506  1
  B  B13  1  0.16843898  0.32313647  0.62645041  1
  B  B14  1  0.16461915  0.66785015  0.12956242  1
  B  B15  1  0.33370146  0.81109112  0.86744272  1
  B  B16  1  0.33283134  0.16395745  0.36945950  1
  B  B17  1  0.67569636  0.82657342  0.62066331  1
  B  B18  1  0.66855485  0.18053997  0.13464348  1
  B  B19  1  0.83733358  0.33042674  0.88453706  1
  B  B20  1  0.82997983  0.69288043  0.36642182  1
  O  O21  1  0.06788358  0.29796021  0.95000871  1
  O  O22  1  0.06240501  0.69851048  0.42912217  1
  O  O23  1  0.21653874  0.68009942  0.82948428  1
  O  O24  1  0.21950663  0.94240936  0.84933261  1
  O  O25  1  0.19672138  0.28779445  0.32180175  1
  O  O26  1  0.21319400  0.02918465  0.36678637  1
  O  O27  1  0.25153112  0.18435214  0.66695945  1
  O  O28  1  0.27321519  0.53521764  0.13568513  1
  O  O29  1  0.28119749  0.79558315  0.18528097  1
  O  O30  1  0.33310875  0.43775827  0.62225669  1
  O  O31  1  0.41172633  0.16379265  0.10157288  1
  O  O32  1  0.43223712  0.80574068  0.56834961  1
  O  O33  1  0.56963300  0.80104171  0.92652473  1
  O  O34  1  0.57820386  0.17820153  0.41571371  1
  O  O35  1  0.70326444  0.21196391  0.83500017  1
  O  O36  1  0.71116869  0.56653715  0.33891970  1
  O  O37  1  0.71463531  0.82893117  0.33291692  1
  O  O38  1  0.76004801  0.47046430  0.86588723  1
  O  O39  1  0.78294388  0.70383822  0.68520783  1
  O  O40  1  0.76436096  0.31984028  0.16332866  1
  O  O41  1  0.79893820  0.95607637  0.60548369  1
  O  O42  1  0.82093192  0.06053695  0.13824485  1
  O  O43  1  0.91429410  0.34425130  0.58961934  1
  O  O44  1  0.92851354  0.69335989  0.07029688  1
