# generated using pymatgen
data_Ti3Fe2Sb(PO4)6
_symmetry_space_group_name_H-M   'P 1'
_cell_length_a   8.65679934
_cell_length_b   8.65679953
_cell_length_c   8.65679889
_cell_angle_alpha   61.21341822
_cell_angle_beta   61.21341488
_cell_angle_gamma   61.21341916
_symmetry_Int_Tables_number   1
_chemical_formula_structural   Ti3Fe2Sb(PO4)6
_chemical_formula_sum   'Ti3 Fe2 Sb1 P6 O24'
_cell_volume   471.24969950
_cell_formula_units_Z   1
loop_
 _symmetry_equiv_pos_site_id
 _symmetry_equiv_pos_as_xyz
  1  'x, y, z'
loop_
 _atom_site_type_symbol
 _atom_site_label
 _atom_site_symmetry_multiplicity
 _atom_site_fract_x
 _atom_site_fract_y
 _atom_site_fract_z
 _atom_site_occupancy
  Ti  Ti0  1  0.14463135  0.14463135  0.14463135  1
  Ti  Ti1  1  0.35379470  0.35379470  0.35379470  1
  Ti  Ti2  1  0.64600974  0.64600974  0.64600974  1
  Fe  Fe3  1  -0.00000508  -0.00000508  -0.00000508  1
  Fe  Fe4  1  0.49888763  0.49888763  0.49888763  1
  Sb  Sb5  1  0.85369862  0.85369862  0.85369862  1
  P  P6  1  0.05285001  0.74927527  0.44324945  1
  P  P7  1  0.44324945  0.05285001  0.74927527  1
  P  P8  1  0.26093810  0.53544743  0.95616249  1
  P  P9  1  0.53544743  0.95616249  0.26093810  1
  P  P10  1  0.95616249  0.26093810  0.53544743  1
  P  P11  1  0.74927527  0.44324945  0.05285001  1
  O  O12  1  0.11034382  0.33895080  0.47598927  1
  O  O13  1  0.33895080  0.47598927  0.11034382  1
  O  O14  1  0.06237323  0.90762473  0.25138750  1
  O  O15  1  0.47598927  0.11034382  0.33895080  1
  O  O16  1  0.03532099  0.81339070  0.58840551  1
  O  O17  1  0.24369033  0.58743570  0.42320368  1
  O  O18  1  0.25138750  0.06237323  0.90762473  1
  O  O19  1  0.42320368  0.24369033  0.58743570  1
  O  O20  1  0.18675138  0.38318521  0.99883291  1
  O  O21  1  0.58743570  0.42320368  0.24369033  1
  O  O22  1  0.11035669  0.72911309  0.95453506  1
  O  O23  1  0.38318521  0.99883291  0.18675138  1
  O  O24  1  0.58840551  0.03532099  0.81339070  1
  O  O25  1  0.90762473  0.25138750  0.06237323  1
  O  O26  1  0.41715549  0.54962256  0.76171460  1
  O  O27  1  0.81339070  0.58840551  0.03532099  1
  O  O28  1  0.54962256  0.76171460  0.41715549  1
  O  O29  1  0.72911309  0.95453506  0.11035669  1
  O  O30  1  0.76171460  0.41715549  0.54962256  1
  O  O31  1  0.99883291  0.18675138  0.38318521  1
  O  O32  1  0.50203824  0.88357890  0.69006090  1
  O  O33  1  0.95453506  0.11035669  0.72911309  1
  O  O34  1  0.69006090  0.50203824  0.88357890  1
  O  O35  1  0.88357890  0.69006090  0.50203824  1
