# generated using pymatgen
data_Li4VTe(WO6)2
_symmetry_space_group_name_H-M   'P 1'
_cell_length_a   5.54408169
_cell_length_b   11.30842288
_cell_length_c   10.02546010
_cell_angle_alpha   27.15870329
_cell_angle_beta   50.68406694
_cell_angle_gamma   55.89392801
_symmetry_Int_Tables_number   1
_chemical_formula_structural   Li4VTe(WO6)2
_chemical_formula_sum   'Li4 V1 Te1 W2 O12'
_cell_volume   221.95872401
_cell_formula_units_Z   1
loop_
 _symmetry_equiv_pos_site_id
 _symmetry_equiv_pos_as_xyz
  1  'x, y, z'
loop_
 _atom_site_type_symbol
 _atom_site_label
 _atom_site_symmetry_multiplicity
 _atom_site_fract_x
 _atom_site_fract_y
 _atom_site_fract_z
 _atom_site_occupancy
  Li  Li0  1  0.31098993  0.00729802  0.26729261  1
  Li  Li1  1  0.25390307  0.51017027  0.30404963  1
  Li  Li2  1  0.76084052  0.99516082  0.81075053  1
  Li  Li3  1  0.80715436  0.48476726  0.77496573  1
  V  V4  1  0.98289359  0.98701879  0.03407113  1
  Te  Te5  1  0.00788010  0.49933900  0.01663155  1
  W  W6  1  0.48492625  0.00315764  0.52061978  1
  W  W7  1  0.49992093  0.50751015  0.49587104  1
  O  O8  1  0.39361073  0.30255688  0.12089334  1
  O  O9  1  0.26071029  0.13690587  0.60342445  1
  O  O10  1  0.15554440  0.30216467  0.73880692  1
  O  O11  1  0.87528682  0.14593036  0.26800551  1
  O  O12  1  0.36732139  0.78794098  0.13484471  1
  O  O13  1  0.76099694  0.36889264  0.38313584  1
  O  O14  1  0.24388506  0.64059409  0.58201573  1
  O  O15  1  0.64553124  0.20908336  0.83932843  1
  O  O16  1  0.11335234  0.84622772  0.70931880  1
  O  O17  1  0.85849772  0.71398764  0.21317825  1
  O  O18  1  0.73456791  0.87209353  0.36187235  1
  O  O19  1  0.55338742  0.67920030  0.89212369  1
