# generated using pymatgen
data_Na5Cr2P(CO4)4
_symmetry_space_group_name_H-M   'P 1'
_cell_length_a   9.87910679
_cell_length_b   9.88716385
_cell_length_c   9.87910679
_cell_angle_alpha   59.47180470
_cell_angle_beta   90.95993098
_cell_angle_gamma   120.52819530
_symmetry_Int_Tables_number   1
_chemical_formula_structural   Na5Cr2P(CO4)4
_chemical_formula_sum   'Na10 Cr4 P2 C8 O32'
_cell_volume   677.06119864
_cell_formula_units_Z   2
loop_
 _symmetry_equiv_pos_site_id
 _symmetry_equiv_pos_as_xyz
  1  'x, y, z'
loop_
 _atom_site_type_symbol
 _atom_site_label
 _atom_site_symmetry_multiplicity
 _atom_site_fract_x
 _atom_site_fract_y
 _atom_site_fract_z
 _atom_site_occupancy
  Na  Na0  1  0.68326730  0.34400933  0.08337121  1
  Na  Na1  1  0.33842733  0.26690571  0.31726941  1
  Na  Na2  1  0.91582488  0.23309429  0.92847738  1
  Na  Na3  1  0.91662879  0.84400933  0.31673270  1
  Na  Na4  1  0.07152262  0.73309429  0.08417512  1
  Na  Na5  1  0.07261946  0.15599067  0.66074203  1
  Na  Na6  1  0.68273059  0.76690571  0.66157267  1
  Na  Na7  1  0.32824636  0.25000000  0.92175364  1
  Na  Na8  1  0.33925797  0.65599067  0.92738054  1
  Na  Na9  1  0.07824636  0.75000000  0.67175364  1
  Cr  Cr10  1  0.49954596  0.99681603  0.00250127  1
  Cr  Cr11  1  0.50272993  0.00318397  0.49931730  1
  Cr  Cr12  1  0.50068270  0.50318397  0.49727007  1
  Cr  Cr13  1  0.99749873  0.49681603  0.50045404  1
  P  P14  1  0.12655879  0.25000000  0.12344121  1
  P  P15  1  0.87655879  0.75000000  0.87344121  1
  C  C16  1  0.71158036  0.07435315  0.71610495  1
  C  C17  1  0.70954190  0.42564685  0.36277379  1
  C  C18  1  0.36004321  0.07297010  0.71302645  1
  C  C19  1  0.71400444  0.42702990  0.71292689  1
  C  C20  1  0.63722621  0.92564685  0.29045810  1
  C  C21  1  0.28389505  0.57435315  0.28841964  1
  C  C22  1  0.28697355  0.57297010  0.63995679  1
  C  C23  1  0.28707311  0.92702990  0.28599556  1
  O  O24  1  0.64158179  0.04668871  0.14487087  1
  O  O25  1  0.68560340  0.28758878  0.35673183  1
  O  O26  1  0.85567939  0.21241122  0.60198638  1
  O  O27  1  0.40354612  0.04741883  0.31024174  1
  O  O28  1  0.85512913  0.54668871  0.35841821  1
  O  O29  1  0.32199161  0.37910923  0.05736943  1
  O  O30  1  0.06352234  0.12089077  0.05711661  1
  O  O31  1  0.59188186  0.44723892  0.36708122  1
  O  O32  1  0.68567986  0.05276108  0.85535706  1
  O  O33  1  0.35828976  0.04624728  0.59693613  1
  O  O34  1  0.85681659  0.45375272  0.68795752  1
  O  O35  1  0.06744102  0.38323235  0.04971007  1
  O  O36  1  0.06705858  0.11676765  0.31579133  1
  O  O37  1  0.64326817  0.78758878  0.31439660  1
  O  O38  1  0.39801362  0.71241122  0.14432061  1
  O  O39  1  0.68975826  0.54741883  0.59645388  1
  O  O40  1  0.30844041  0.45331129  0.40510692  1
  O  O41  1  0.59823946  0.28561671  0.85606362  1
  O  O42  1  0.35831967  0.21438329  0.68737825  1
  O  O43  1  0.94288339  0.62089077  0.93647766  1
  O  O44  1  0.94263057  0.87910923  0.67800839  1
  O  O45  1  0.14464294  0.55276108  0.31432014  1
  O  O46  1  0.63291878  0.94723892  0.40811814  1
  O  O47  1  0.31204248  0.95375272  0.14318341  1
  O  O48  1  0.40306387  0.54624728  0.64171024  1
  O  O49  1  0.95028993  0.88323235  0.93255898  1
  O  O50  1  0.68420867  0.61676765  0.93294142  1
  O  O51  1  0.14233944  0.45258117  0.64387271  1
  O  O52  1  0.59489308  0.95331129  0.69155959  1
  O  O53  1  0.31262175  0.71438329  0.64168033  1
  O  O54  1  0.14393638  0.78561671  0.40176054  1
  O  O55  1  0.35612729  0.95258117  0.85766056  1
