# generated using pymatgen
data_Mn2OF3
_symmetry_space_group_name_H-M   'P 1'
_cell_length_a   6.39351022
_cell_length_b   7.11907686
_cell_length_c   7.39209188
_cell_angle_alpha   90.00000000
_cell_angle_beta   115.62353499
_cell_angle_gamma   90.00000000
_symmetry_Int_Tables_number   1
_chemical_formula_structural   Mn2OF3
_chemical_formula_sum   'Mn8 O4 F12'
_cell_volume   303.36870692
_cell_formula_units_Z   4
loop_
 _symmetry_equiv_pos_site_id
 _symmetry_equiv_pos_as_xyz
  1  'x, y, z'
loop_
 _atom_site_type_symbol
 _atom_site_label
 _atom_site_symmetry_multiplicity
 _atom_site_fract_x
 _atom_site_fract_y
 _atom_site_fract_z
 _atom_site_occupancy
  Mn  Mn0  1  0.01457024  0.00000000  1.00000000  1
  Mn  Mn1  1  0.48542976  0.00000000  0.00000000  1
  Mn  Mn2  1  0.49249263  0.00000000  0.48498425  1
  Mn  Mn3  1  0.75000000  0.50000000  0.00000000  1
  Mn  Mn4  1  0.00750737  0.00000000  0.51501575  1
  Mn  Mn5  1  0.25000000  0.50000000  0.00000000  1
  Mn  Mn6  1  0.75000000  0.50000000  0.50000000  1
  Mn  Mn7  1  0.25000000  0.50000000  0.50000000  1
  O  O8  1  0.34259338  0.00000000  0.18518775  1
  O  O9  1  0.15740662  0.00000000  0.81481225  1
  O  O10  1  0.90438903  0.50000000  0.30877706  1
  O  O11  1  0.59561097  0.50000000  0.69122294  1
  F  F12  1  0.84514701  0.00000000  0.19029403  1
  F  F13  1  0.99371174  0.30539856  1.00000000  1
  F  F14  1  0.50628826  0.30539856  0.00000000  1
  F  F15  1  0.25000000  0.19687234  0.50000000  1
  F  F16  1  0.99371174  0.69460144  1.00000000  1
  F  F17  1  0.50628826  0.69460144  0.00000000  1
  F  F18  1  0.75000000  0.19687234  0.50000000  1
  F  F19  1  0.40280611  0.50000000  0.30561322  1
  F  F20  1  0.65485299  0.00000000  0.80970597  1
  F  F21  1  0.09719389  0.50000000  0.69438678  1
  F  F22  1  0.25000000  0.80312766  0.50000000  1
  F  F23  1  0.75000000  0.80312766  0.50000000  1
