# generated using pymatgen
data_Ti3NbFe2(PO4)6
_symmetry_space_group_name_H-M   'P 1'
_cell_length_a   8.61995827
_cell_length_b   8.61995890
_cell_length_c   8.61995845
_cell_angle_alpha   61.27423993
_cell_angle_beta   61.27423711
_cell_angle_gamma   61.27423704
_symmetry_Int_Tables_number   1
_chemical_formula_structural   Ti3NbFe2(PO4)6
_chemical_formula_sum   'Ti3 Nb1 Fe2 P6 O24'
_cell_volume   465.87290328
_cell_formula_units_Z   1
loop_
 _symmetry_equiv_pos_site_id
 _symmetry_equiv_pos_as_xyz
  1  'x, y, z'
loop_
 _atom_site_type_symbol
 _atom_site_label
 _atom_site_symmetry_multiplicity
 _atom_site_fract_x
 _atom_site_fract_y
 _atom_site_fract_z
 _atom_site_occupancy
  Ti  Ti0  1  0.14407591  0.14407591  0.14407591  1
  Ti  Ti1  1  0.35615232  0.35615232  0.35615232  1
  Ti  Ti2  1  0.64402503  0.64402503  0.64402503  1
  Nb  Nb3  1  0.85718156  0.85718156  0.85718156  1
  Fe  Fe4  1  0.00257529  0.00257529  0.00257529  1
  Fe  Fe5  1  0.49988620  0.49988620  0.49988620  1
  P  P6  1  0.04584755  0.74857457  0.45183585  1
  P  P7  1  0.45183585  0.04584755  0.74857457  1
  P  P8  1  0.25505404  0.53883343  0.95662045  1
  P  P9  1  0.53883343  0.95662045  0.25505404  1
  P  P10  1  0.95662045  0.25505404  0.53883343  1
  P  P11  1  0.74857457  0.45183585  0.04584755  1
  O  O12  1  0.11479382  0.31816457  0.49873706  1
  O  O13  1  0.31816457  0.49873706  0.11479382  1
  O  O14  1  0.05970749  0.90824117  0.25976968  1
  O  O15  1  0.49873706  0.11479382  0.31816457  1
  O  O16  1  0.00824343  0.81484957  0.60840489  1
  O  O17  1  0.23893661  0.59047122  0.43898013  1
  O  O18  1  0.25976968  0.05970749  0.90824117  1
  O  O19  1  0.43898013  0.23893661  0.59047122  1
  O  O20  1  0.18689119  0.38364701  0.99731520  1
  O  O21  1  0.59047122  0.43898013  0.23893661  1
  O  O22  1  0.09614435  0.73451658  0.94269841  1
  O  O23  1  0.38364701  0.99731520  0.18689119  1
  O  O24  1  0.60840489  0.00824343  0.81484957  1
  O  O25  1  0.90824117  0.25976968  0.05970749  1
  O  O26  1  0.41184078  0.55531010  0.76250127  1
  O  O27  1  0.81484957  0.60840489  0.00824343  1
  O  O28  1  0.55531010  0.76250127  0.41184078  1
  O  O29  1  0.73451658  0.94269841  0.09614435  1
  O  O30  1  0.76250127  0.41184078  0.55531010  1
  O  O31  1  0.99731520  0.18689119  0.38364701  1
  O  O32  1  0.49825535  0.88467233  0.68624457  1
  O  O33  1  0.94269841  0.09614435  0.73451658  1
  O  O34  1  0.68624457  0.49825535  0.88467233  1
  O  O35  1  0.88467233  0.68624457  0.49825535  1
