# generated using pymatgen
data_Mn3NbNi2(PO4)6
_symmetry_space_group_name_H-M   'P 1'
_cell_length_a   8.56259077
_cell_length_b   8.56259139
_cell_length_c   8.56259091
_cell_angle_alpha   61.09517200
_cell_angle_beta   61.09517354
_cell_angle_gamma   61.09517183
_symmetry_Int_Tables_number   1
_chemical_formula_structural   Mn3NbNi2(PO4)6
_chemical_formula_sum   'Mn3 Nb1 Ni2 P6 O24'
_cell_volume   454.85951941
_cell_formula_units_Z   1
loop_
 _symmetry_equiv_pos_site_id
 _symmetry_equiv_pos_as_xyz
  1  'x, y, z'
loop_
 _atom_site_type_symbol
 _atom_site_label
 _atom_site_symmetry_multiplicity
 _atom_site_fract_x
 _atom_site_fract_y
 _atom_site_fract_z
 _atom_site_occupancy
  Mn  Mn0  1  0.14506926  0.14506926  0.14506926  1
  Mn  Mn1  1  0.35747325  0.35747325  0.35747325  1
  Mn  Mn2  1  0.64315985  0.64315985  0.64315985  1
  Nb  Nb3  1  0.85725678  0.85725678  0.85725678  1
  Ni  Ni4  1  0.00445622  0.00445622  0.00445622  1
  Ni  Ni5  1  0.50088696  0.50088696  0.50088696  1
  P  P6  1  0.04787749  0.74826662  0.44697026  1
  P  P7  1  0.44697026  0.04787749  0.74826662  1
  P  P8  1  0.74826662  0.44697026  0.04787749  1
  P  P9  1  0.25705436  0.54036671  0.95438420  1
  P  P10  1  0.54036671  0.95438420  0.25705436  1
  P  P11  1  0.95438420  0.25705436  0.54036671  1
  O  O12  1  0.10834763  0.31806673  0.51023711  1
  O  O13  1  0.31806673  0.51023711  0.10834763  1
  O  O14  1  0.06282487  0.91050541  0.25416338  1
  O  O15  1  0.51023711  0.10834763  0.31806673  1
  O  O16  1  0.99075274  0.82238971  0.61105409  1
  O  O17  1  0.24274948  0.59483599  0.44623539  1
  O  O18  1  0.25416338  0.06282487  0.91050541  1
  O  O19  1  0.44623539  0.24274948  0.59483599  1
  O  O20  1  0.18606017  0.38916845  0.99092181  1
  O  O21  1  0.59483599  0.44623539  0.24274948  1
  O  O22  1  0.09345756  0.74266227  0.93486035  1
  O  O23  1  0.38916845  0.99092181  0.18606017  1
  O  O24  1  0.61105409  0.99075274  0.82238971  1
  O  O25  1  0.91050541  0.25416338  0.06282487  1
  O  O26  1  0.40954602  0.56045362  0.75456681  1
  O  O27  1  0.82238971  0.61105409  0.99075274  1
  O  O28  1  0.56045362  0.75456681  0.40954602  1
  O  O29  1  0.74266227  0.93486035  0.09345756  1
  O  O30  1  0.75456681  0.40954602  0.56045362  1
  O  O31  1  0.99092181  0.18606017  0.38916845  1
  O  O32  1  0.48733344  0.89111849  0.68446952  1
  O  O33  1  0.93486035  0.09345756  0.74266227  1
  O  O34  1  0.68446952  0.48733344  0.89111849  1
  O  O35  1  0.89111849  0.68446952  0.48733344  1
