# generated using pymatgen
data_Li2MnF6
_symmetry_space_group_name_H-M   'P 1'
_cell_length_a   6.07859034
_cell_length_b   6.07859034
_cell_length_c   6.21345503
_cell_angle_alpha   90.00000000
_cell_angle_beta   90.00000000
_cell_angle_gamma   90.00000000
_symmetry_Int_Tables_number   1
_chemical_formula_structural   Li2MnF6
_chemical_formula_sum   'Li4 Mn2 F12'
_cell_volume   229.58256870
_cell_formula_units_Z   2
loop_
 _symmetry_equiv_pos_site_id
 _symmetry_equiv_pos_as_xyz
  1  'x, y, z'
loop_
 _atom_site_type_symbol
 _atom_site_label
 _atom_site_symmetry_multiplicity
 _atom_site_fract_x
 _atom_site_fract_y
 _atom_site_fract_z
 _atom_site_occupancy
  Li  Li0  1  0.00000000  0.00000000  0.00000000  1
  Li  Li1  1  0.00000000  0.00000000  0.50000000  1
  Li  Li2  1  0.50000000  0.50000000  0.00000000  1
  Li  Li3  1  0.50000000  0.50000000  0.50000000  1
  Mn  Mn4  1  0.00000000  0.50000000  0.75004103  1
  Mn  Mn5  1  0.50000000  0.00000000  0.24995897  1
  F  F6  1  0.19945374  0.93907812  0.24988598  1
  F  F7  1  0.06092188  0.80054626  0.75011402  1
  F  F8  1  0.00000000  0.50000000  0.46078199  1
  F  F9  1  0.00000000  0.50000000  0.03947301  1
  F  F10  1  0.43907812  0.30054626  0.24988598  1
  F  F11  1  0.30054626  0.43907812  0.75011402  1
  F  F12  1  0.69945374  0.56092188  0.75011402  1
  F  F13  1  0.56092188  0.69945374  0.24988598  1
  F  F14  1  0.50000000  0.00000000  0.96052699  1
  F  F15  1  0.50000000  0.00000000  0.53921801  1
  F  F16  1  0.80054626  0.06092188  0.24988598  1
  F  F17  1  0.93907812  0.19945374  0.75011402  1
