# generated using pymatgen
data_Li5La3Nb2O12
_symmetry_space_group_name_H-M   'P 1'
_cell_length_a   11.12537848
_cell_length_b   11.18010256
_cell_length_c   11.16219282
_cell_angle_alpha   109.34479803
_cell_angle_beta   109.69358028
_cell_angle_gamma   109.44279487
_symmetry_Int_Tables_number   1
_chemical_formula_structural   Li5La3Nb2O12
_chemical_formula_sum   'Li20 La12 Nb8 O48'
_cell_volume   1067.88042656
_cell_formula_units_Z   4
loop_
 _symmetry_equiv_pos_site_id
 _symmetry_equiv_pos_as_xyz
  1  'x, y, z'
loop_
 _atom_site_type_symbol
 _atom_site_label
 _atom_site_symmetry_multiplicity
 _atom_site_fract_x
 _atom_site_fract_y
 _atom_site_fract_z
 _atom_site_occupancy
  Li  Li0  1  0.18162980  0.93226169  0.89001671  1
  Li  Li1  1  0.25154318  0.68407440  0.79691030  1
  Li  Li2  1  0.06300219  0.10849952  0.81194040  1
  Li  Li3  1  0.21155610  0.74842223  0.32046332  1
  Li  Li4  1  0.11500763  0.81917442  0.06931094  1
  Li  Li5  1  0.05661119  0.44377608  0.25135260  1
  Li  Li6  1  0.28943626  0.60893141  0.53787489  1
  Li  Li7  1  0.38152430  0.45072494  0.69928321  1
  Li  Li8  1  0.57525998  0.75465375  0.96623524  1
  Li  Li9  1  0.31709454  0.20642091  0.75121536  1
  Li  Li10  1  0.44667210  0.69747558  0.38891626  1
  Li  Li11  1  0.25099598  0.04801586  0.43136330  1
  Li  Li12  1  0.75567351  0.97055162  0.58199951  1
  Li  Li13  1  0.55074591  0.29466096  0.60958815  1
  Li  Li14  1  0.69207902  0.80620191  0.25137469  1
  Li  Li15  1  0.61371456  0.52744443  0.28575445  1
  Li  Li16  1  0.94836148  0.56133333  0.74520279  1
  Li  Li17  1  0.88677404  0.18031382  0.92955484  1
  Li  Li18  1  0.91626078  0.89031523  0.17446590  1
  Li  Li19  1  0.74437003  0.32586712  0.21219205  1
  La  La20  1  0.11485784  0.37143971  0.74828142  1
  La  La21  1  0.25172877  0.88002419  0.63095209  1
  La  La22  1  0.11551046  0.24565123  0.36686331  1
  La  La23  1  0.37276194  0.75323676  0.12370325  1
  La  La24  1  0.25486189  0.37312446  0.12440499  1
  La  La25  1  0.61814912  0.86738184  0.75255637  1
  La  La26  1  0.74988736  0.61995796  0.87072042  1
  La  La27  1  0.62828029  0.24801774  0.87992229  1
  La  La28  1  0.38950605  0.13809150  0.24648920  1
  La  La29  1  0.86658423  0.74643709  0.61695038  1
  La  La30  1  0.88478346  0.63502822  0.24982140  1
  La  La31  1  0.74954460  0.13353362  0.37798159  1
  Nb  Nb32  1  0.99671955  0.50242118  0.49966005  1
  Nb  Nb33  1  0.00151002  0.00122917  0.50130470  1
  Nb  Nb34  1  0.99657089  0.49445490  0.99509979  1
  Nb  Nb35  1  0.99558545  0.00054098  0.00087460  1
  Nb  Nb36  1  0.50116036  0.49792638  0.50188221  1
  Nb  Nb37  1  0.50473507  0.00349209  0.50279083  1
  Nb  Nb38  1  0.49743966  0.49586947  0.99928665  1
  Nb  Nb39  1  0.50593453  0.00279160  0.99977293  1
  O  O40  1  0.08821457  0.97294169  0.67700367  1
  O  O41  1  0.11216782  0.58840621  0.91142452  1
  O  O42  1  0.02952252  0.32569232  0.91615855  1
  O  O43  1  0.08057488  0.69943764  0.67971497  1
  O  O44  1  0.09283678  0.88974307  0.41552626  1
  O  O45  1  0.10270950  0.62036165  0.42138361  1
  O  O46  1  0.17886412  0.48254603  0.59550152  1
  O  O47  1  0.41232526  0.82004558  0.79935021  1
  O  O48  1  0.38487835  0.58304095  0.90496044  1
  O  O49  1  0.29620787  0.32546258  0.90978221  1
  O  O50  1  0.32069145  0.91560713  0.30097131  1
  O  O51  1  0.02767165  0.20217177  0.11422530  1
  O  O52  1  0.17656608  0.19940749  0.58197994  1
  O  O53  1  0.20235394  0.58552130  0.17702788  1
  O  O54  1  0.39753385  0.82002864  0.51579655  1
  O  O55  1  0.32369602  0.91330103  0.02636239  1
  O  O56  1  0.29680007  0.47474038  0.38411433  1
  O  O57  1  0.10992208  0.01988981  0.19755851  1
  O  O58  1  0.51975679  0.60951718  0.69966832  1
  O  O59  1  0.41119567  0.08061991  0.88075036  1
  O  O60  1  0.51517700  0.39972357  0.82096568  1
  O  O61  1  0.38555983  0.29898166  0.47482522  1
  O  O62  1  0.58594171  0.90666507  0.38913669  1
  O  O63  1  0.18934843  0.11043595  0.01427685  1
  O  O64  1  0.79924591  0.87267462  0.97250960  1
  O  O65  1  0.42229125  0.10063436  0.61722496  1
  O  O66  1  0.61088060  0.70077777  0.52661447  1
  O  O67  1  0.48199890  0.59247076  0.17722725  1
  O  O68  1  0.58152793  0.90780556  0.11605089  1
  O  O69  1  0.47324370  0.38958990  0.30203674  1
  O  O70  1  0.87983150  0.98163180  0.80233322  1
  O  O71  1  0.70216253  0.53163733  0.62004689  1
  O  O72  1  0.67260273  0.08573318  0.96960950  1
  O  O73  1  0.58413085  0.16900246  0.46929873  1
  O  O74  1  0.79806021  0.41526113  0.82915411  1
  O  O75  1  0.98315031  0.80571989  0.88365467  1
  O  O76  1  0.67066712  0.07032449  0.69708498  1
  O  O77  1  0.82593629  0.79910367  0.41079174  1
  O  O78  1  0.69631575  0.68075089  0.07840734  1
  O  O79  1  0.62674479  0.42904286  0.09874133  1
  O  O80  1  0.59214931  0.17145085  0.19979329  1
  O  O81  1  0.82853086  0.53065702  0.40081579  1
  O  O82  1  0.91402255  0.38933249  0.58407754  1
  O  O83  1  0.92220594  0.11307518  0.59747035  1
  O  O84  1  0.91949560  0.31209100  0.32517432  1
  O  O85  1  0.97901535  0.67676361  0.08918269  1
  O  O86  1  0.88960393  0.41172603  0.08853775  1
  O  O87  1  0.90404370  0.02008624  0.32716415  1
