# generated using pymatgen
data_Li5Mn8(BO3)8
_symmetry_space_group_name_H-M   'P 1'
_cell_length_a   5.33516547
_cell_length_b   9.02861753
_cell_length_c   10.39833069
_cell_angle_alpha   90.45816043
_cell_angle_beta   92.27763168
_cell_angle_gamma   90.30036462
_symmetry_Int_Tables_number   1
_chemical_formula_structural   Li5Mn8(BO3)8
_chemical_formula_sum   'Li5 Mn8 B8 O24'
_cell_volume   500.45949192
_cell_formula_units_Z   1
loop_
 _symmetry_equiv_pos_site_id
 _symmetry_equiv_pos_as_xyz
  1  'x, y, z'
loop_
 _atom_site_type_symbol
 _atom_site_label
 _atom_site_symmetry_multiplicity
 _atom_site_fract_x
 _atom_site_fract_y
 _atom_site_fract_z
 _atom_site_occupancy
  Li  Li0  1  0.33344375  0.50374677  0.41339139  1
  Li  Li1  1  0.63807864  0.47428144  0.66680380  1
  Li  Li2  1  0.64159429  0.51756124  0.16683779  1
  Li  Li3  1  0.86987157  0.00048260  0.91967935  1
  Li  Li4  1  0.84699133  0.99221211  0.41706296  1
  Mn  Mn5  1  0.14067262  0.69541731  0.62808782  1
  Mn  Mn6  1  0.15079813  0.31348539  0.13432038  1
  Mn  Mn7  1  0.35208449  0.19281420  0.87321989  1
  Mn  Mn8  1  0.32814693  0.83980091  0.36695437  1
  Mn  Mn9  1  0.66417058  0.14033229  0.62901256  1
  Mn  Mn10  1  0.65628859  0.84807171  0.12442196  1
  Mn  Mn11  1  0.84033024  0.65143877  0.88333006  1
  Mn  Mn12  1  0.84017764  0.33615171  0.39026828  1
  B  B13  1  0.16504152  0.34584282  0.63127077  1
  B  B14  1  0.15560867  0.65732654  0.13092468  1
  B  B15  1  0.34147441  0.84733058  0.86918698  1
  B  B16  1  0.33085054  0.16816930  0.38387407  1
  B  B17  1  0.67510346  0.80905269  0.61804350  1
  B  B18  1  0.68123054  0.18687310  0.11885217  1
  B  B19  1  0.82589827  0.31008678  0.86984703  1
  B  B20  1  0.82020929  0.67776276  0.37594148  1
  O  O21  1  0.06447527  0.30311353  0.92698999  1
  O  O22  1  0.06699951  0.67827719  0.43062219  1
  O  O23  1  0.20922171  0.72235229  0.81550679  1
  O  O24  1  0.21966228  0.97819724  0.87860995  1
  O  O25  1  0.18319566  0.04553503  0.38217233  1
  O  O26  1  0.22895889  0.30456137  0.34408480  1
  O  O27  1  0.28860351  0.47499521  0.60492265  1
  O  O28  1  0.30254008  0.22865514  0.68796441  1
  O  O29  1  0.27827048  0.52439774  0.13776673  1
  O  O30  1  0.28786555  0.78440243  0.16813297  1
  O  O31  1  0.42642348  0.80690192  0.57472116  1
  O  O32  1  0.43823419  0.20302247  0.06512386  1
  O  O33  1  0.59125456  0.83011375  0.91397710  1
  O  O34  1  0.58552804  0.16214923  0.42338839  1
  O  O35  1  0.70307164  0.43858285  0.85200214  1
  O  O36  1  0.70994606  0.17213599  0.83697583  1
  O  O37  1  0.68547892  0.54823874  0.36431366  1
  O  O38  1  0.72111352  0.81169070  0.33280173  1
  O  O39  1  0.78225585  0.67617217  0.66461094  1
  O  O40  1  0.81811840  0.93230984  0.60637857  1
  O  O41  1  0.78677456  0.31505091  0.17631119  1
  O  O42  1  0.80796553  0.05841980  0.10960366  1
  O  O43  1  0.91089609  0.32592549  0.59778253  1
  O  O44  1  0.90218873  0.66463592  0.08918816  1
