# generated using pymatgen
data_Mn2O3F
_symmetry_space_group_name_H-M   'P 1'
_cell_length_a   8.82566938
_cell_length_b   5.48311808
_cell_length_c   5.48311808
_cell_angle_alpha   73.04144270
_cell_angle_beta   87.40318255
_cell_angle_gamma   87.40318255
_symmetry_Int_Tables_number   1
_chemical_formula_structural   Mn2O3F
_chemical_formula_sum   'Mn8 O12 F4'
_cell_volume   253.39835486
_cell_formula_units_Z   4
loop_
 _symmetry_equiv_pos_site_id
 _symmetry_equiv_pos_as_xyz
  1  'x, y, z'
loop_
 _atom_site_type_symbol
 _atom_site_label
 _atom_site_symmetry_multiplicity
 _atom_site_fract_x
 _atom_site_fract_y
 _atom_site_fract_z
 _atom_site_occupancy
  Mn  Mn0  1  0.88925898  0.61208578  0.61208578  1
  Mn  Mn1  1  0.61074102  0.88791422  0.88791422  1
  Mn  Mn2  1  0.75000000  0.25000000  0.25000000  1
  Mn  Mn3  1  0.51038346  0.50602953  0.50602953  1
  Mn  Mn4  1  0.25000000  0.75000000  0.75000000  1
  Mn  Mn5  1  0.38191300  0.14302779  0.14302779  1
  Mn  Mn6  1  0.11808700  0.35697221  0.35697221  1
  Mn  Mn7  1  0.98961654  0.99397047  0.99397047  1
  O  O8  1  0.49438013  0.19663071  0.81823285  1
  O  O9  1  0.47047145  0.72260209  0.72260209  1
  O  O10  1  0.73220589  0.47249796  0.47249796  1
  O  O11  1  0.96901280  0.21403955  0.21403955  1
  O  O12  1  0.76779411  0.02750204  0.02750204  1
  O  O13  1  0.53098720  0.28596045  0.28596045  1
  O  O14  1  0.02952855  0.77739791  0.77739791  1
  O  O15  1  0.00561987  0.30336929  0.68176715  1
  O  O16  1  0.49438013  0.81823285  0.19663071  1
  O  O17  1  0.25000000  0.05727480  0.44272520  1
  O  O18  1  0.00561987  0.68176715  0.30336929  1
  O  O19  1  0.25000000  0.44272520  0.05727480  1
  F  F20  1  0.75000000  0.56955716  0.93044284  1
  F  F21  1  0.75000000  0.93044284  0.56955716  1
  F  F22  1  0.22316530  0.98741523  0.98741523  1
  F  F23  1  0.27683470  0.51258477  0.51258477  1
