# generated using pymatgen
data_Fe4OF7
_symmetry_space_group_name_H-M   'P 1'
_cell_length_a   5.79747023
_cell_length_b   10.16182559
_cell_length_c   5.79732677
_cell_angle_alpha   79.86151353
_cell_angle_beta   67.68917581
_cell_angle_gamma   99.90584802
_symmetry_Int_Tables_number   1
_chemical_formula_structural   Fe4OF7
_chemical_formula_sum   'Fe8 O2 F14'
_cell_volume   300.14657751
_cell_formula_units_Z   2
loop_
 _symmetry_equiv_pos_site_id
 _symmetry_equiv_pos_as_xyz
  1  'x, y, z'
loop_
 _atom_site_type_symbol
 _atom_site_label
 _atom_site_symmetry_multiplicity
 _atom_site_fract_x
 _atom_site_fract_y
 _atom_site_fract_z
 _atom_site_occupancy
  Fe  Fe0  1  0.63072786  0.25555469  0.84650938  1
  Fe  Fe1  1  0.86680536  0.74942203  0.62762590  1
  Fe  Fe2  1  0.24466007  0.50350509  0.74842020  1
  Fe  Fe3  1  0.75439498  0.49212127  0.26541538  1
  Fe  Fe4  1  0.50063192  -0.00019289  0.48201012  1
  Fe  Fe5  1  0.39145897  0.75525410  0.12703764  1
  Fe  Fe6  1  0.11872021  0.25857514  0.37205432  1
  Fe  Fe7  1  0.96858359  0.98849910  0.01749372  1
  O  O8  1  0.80867850  0.33791820  0.49651626  1
  O  O9  1  0.61779658  0.90446323  0.19078591  1
  F  F10  1  0.84250490  0.39233888  0.95037838  1
  F  F11  1  0.91693286  0.15188663  0.79378995  1
  F  F12  1  0.57226232  0.85105469  0.72506314  1
  F  F13  1  0.33806470  0.34735829  0.95653970  1
  F  F14  1  0.91922762  0.09426515  0.28825811  1
  F  F15  1  0.64322562  0.60463148  0.55125282  1
  F  F16  1  0.38151205  0.09557800  0.80799031  1
  F  F17  1  0.08790870  0.90740366  0.70869532  1
  F  F18  1  0.34896211  0.40466043  0.45047117  1
  F  F19  1  0.67655731  0.64421808  0.02771141  1
  F  F20  1  0.16838648  0.65318904  0.52651823  1
  F  F21  1  0.43274523  0.16145365  0.24620704  1
  F  F22  1  0.08074854  0.85185507  0.22145533  1
  F  F23  1  0.15419354  0.60032002  0.05070626  1
