# generated using pymatgen
data_Nb20N17
_symmetry_space_group_name_H-M   'P 1'
_cell_length_a   22.14854509
_cell_length_b   18.25517704
_cell_length_c   16.26647648
_cell_angle_alpha   26.98654446
_cell_angle_beta   17.67734587
_cell_angle_gamma   14.04325935
_symmetry_Int_Tables_number   1
_chemical_formula_structural   Nb20N17
_chemical_formula_sum   'Nb20 N17'
_cell_volume   432.65771116
_cell_formula_units_Z   1
loop_
 _symmetry_equiv_pos_site_id
 _symmetry_equiv_pos_as_xyz
  1  'x, y, z'
loop_
 _atom_site_type_symbol
 _atom_site_label
 _atom_site_symmetry_multiplicity
 _atom_site_fract_x
 _atom_site_fract_y
 _atom_site_fract_z
 _atom_site_occupancy
  Nb  Nb0  1  0.10000000  0.00000000  -0.00000000  1
  Nb  Nb1  1  0.29848895  0.99889474  0.99775561  1
  Nb  Nb2  1  0.98186173  0.52215573  0.00003954  1
  Nb  Nb3  1  0.50592775  0.99808970  0.00003954  1
  Nb  Nb4  1  0.21813827  0.47784427  -0.00003954  1
  Nb  Nb5  1  0.08517892  0.23445101  0.46768809  1
  Nb  Nb6  1  0.69407225  0.00191030  -0.00003954  1
  Nb  Nb7  1  0.38166248  0.52095383  0.00224439  1
  Nb  Nb8  1  0.24968074  0.25014104  0.50029329  1
  Nb  Nb9  1  0.90151105  0.00110526  0.00224439  1
  Nb  Nb10  1  0.60000000  0.50000000  -0.00000000  1
  Nb  Nb11  1  0.47419198  0.24024224  0.47707835  1
  Nb  Nb12  1  0.11482108  0.76554899  0.53231191  1
  Nb  Nb13  1  0.81833752  0.47904617  0.99775561  1
  Nb  Nb14  1  0.67337675  0.24039079  0.47798597  1
  Nb  Nb15  1  0.35228178  0.74995369  0.49718251  1
  Nb  Nb16  1  0.84771822  0.25004631  0.50281749  1
  Nb  Nb17  1  0.52662325  0.75960921  0.52201403  1
  Nb  Nb18  1  0.72580802  0.75975776  0.52292165  1
  Nb  Nb19  1  0.95031926  0.74985896  0.49970671  1
  N  N20  1  0.39753297  0.00103200  0.00230979  1
  N  N21  1  0.10000000  0.50000000  -0.00000000  1
  N  N22  1  0.28424083  0.50714200  0.01434247  1
  N  N23  1  0.14988406  0.24905551  0.50102785  1
  N  N24  1  0.80246703  0.99896800  0.99769021  1
  N  N25  1  0.51569663  0.49342040  0.98531391  1
  N  N26  1  0.35160789  0.24839211  0.50000000  1
  N  N27  1  0.05011594  0.75094449  0.49897215  1
  N  N28  1  0.68430337  0.50657960  0.01468609  1
  N  N29  1  0.55081414  0.25024629  0.49897215  1
  N  N30  1  0.25270423  0.74775082  0.49842504  1
  N  N31  1  0.91575917  0.49285800  0.98565753  1
  N  N32  1  0.75223047  0.24822457  0.49842504  1
  N  N33  1  0.44776953  0.75177543  0.50157496  1
  N  N34  1  0.94729577  0.25224918  0.50157496  1
  N  N35  1  0.64918586  0.74975371  0.50102785  1
  N  N36  1  0.84839211  0.75160789  0.50000000  1
