# generated using pymatgen
data_Li2CuPO4
_symmetry_space_group_name_H-M   'P 1'
_cell_length_a   6.24296221
_cell_length_b   5.38333684
_cell_length_c   5.06660955
_cell_angle_alpha   89.68933693
_cell_angle_beta   90.00471681
_cell_angle_gamma   89.74712928
_symmetry_Int_Tables_number   1
_chemical_formula_structural   Li2CuPO4
_chemical_formula_sum   'Li4 Cu2 P2 O8'
_cell_volume   170.27429149
_cell_formula_units_Z   2
loop_
 _symmetry_equiv_pos_site_id
 _symmetry_equiv_pos_as_xyz
  1  'x, y, z'
loop_
 _atom_site_type_symbol
 _atom_site_label
 _atom_site_symmetry_multiplicity
 _atom_site_fract_x
 _atom_site_fract_y
 _atom_site_fract_z
 _atom_site_occupancy
  Li  Li0  1  0.24577412  0.32706511  0.99516360  1
  Li  Li1  1  0.25020737  0.67249416  0.49390963  1
  Li  Li2  1  0.50054049  0.84520850  0.99385258  1
  Li  Li3  1  0.74965992  0.67531848  0.49346321  1
  Cu  Cu4  1  0.99836096  0.18028722  0.48896433  1
  Cu  Cu5  1  0.76138264  0.33541547  0.99305178  1
  P  P6  1  0.00493417  0.81650609  0.99790950  1
  P  P7  1  0.49423093  0.16875813  0.49991574  1
  O  O8  1  0.01477555  0.09444265  0.90792010  1
  O  O9  1  0.00043036  0.80034662  0.30484206  1
  O  O10  1  0.20684149  0.68012753  0.89039028  1
  O  O11  1  0.29604558  0.31535973  0.38813123  1
  O  O12  1  0.48729599  0.16976887  0.80768522  1
  O  O13  1  0.49865632  0.89970531  0.39467203  1
  O  O14  1  0.69803449  0.31686177  0.40764906  1
  O  O15  1  0.79283060  0.70233337  0.88507164  1
