# generated using pymatgen
data_Fe5O3F7
_symmetry_space_group_name_H-M   'P 1'
_cell_length_a   4.81066029
_cell_length_b   4.81974678
_cell_length_c   15.57649945
_cell_angle_alpha   90.13187316
_cell_angle_beta   89.77314286
_cell_angle_gamma   88.97879859
_symmetry_Int_Tables_number   1
_chemical_formula_structural   Fe5O3F7
_chemical_formula_sum   'Fe10 O6 F14'
_cell_volume   361.09806705
_cell_formula_units_Z   2
loop_
 _symmetry_equiv_pos_site_id
 _symmetry_equiv_pos_as_xyz
  1  'x, y, z'
loop_
 _atom_site_type_symbol
 _atom_site_label
 _atom_site_symmetry_multiplicity
 _atom_site_fract_x
 _atom_site_fract_y
 _atom_site_fract_z
 _atom_site_occupancy
  Fe  Fe0  1  0.95888595  0.97229057  0.00392739  1
  Fe  Fe1  1  0.00289941  0.00539424  0.19999124  1
  Fe  Fe2  1  0.02173102  0.97731080  0.40049586  1
  Fe  Fe3  1  0.02153990  0.97444994  0.59972046  1
  Fe  Fe4  1  0.04481917  0.02755204  0.79544858  1
  Fe  Fe5  1  0.53962564  0.47425022  0.09363218  1
  Fe  Fe6  1  0.48661442  0.51163709  0.50124190  1
  Fe  Fe7  1  0.47535138  0.52569205  0.29814249  1
  Fe  Fe8  1  0.47744903  0.51346773  0.70591511  1
  Fe  Fe9  1  0.49951357  0.49800764  0.89867211  1
  O  O10  1  0.17805932  0.82415448  0.29699315  1
  O  O11  1  0.18724846  0.80923875  0.49905385  1
  O  O12  1  0.18822805  0.82065328  0.70002394  1
  O  O13  1  0.30849589  0.30797680  0.80945090  1
  O  O14  1  0.67742518  0.66689157  -0.00343981  1
  O  O15  1  0.80966627  0.18886309  0.10854587  1
  F  F16  1  0.21360092  0.78450095  0.10720891  1
  F  F17  1  0.19809830  0.80415564  0.89697570  1
  F  F18  1  0.29971959  0.28774677  -0.00006173  1
  F  F19  1  0.30442052  0.30089990  0.19257938  1
  F  F20  1  0.28866406  0.29423208  0.39867231  1
  F  F21  1  0.28654995  0.29050353  0.60051558  1
  F  F22  1  0.70453116  0.69880686  0.19343365  1
  F  F23  1  0.70489191  0.71062679  0.39913874  1
  F  F24  1  0.70688355  0.70827127  0.60212915  1
  F  F25  1  0.71357104  0.71334159  0.80893760  1
  F  F26  1  0.79908005  0.19826626  0.49975484  1
  F  F27  1  0.79363951  0.20917818  0.30125968  1
  F  F28  1  0.80359121  0.19594683  0.89309646  1
  F  F29  1  0.80520559  0.20569207  0.69854548  1
