# generated using pymatgen
data_LiCrPO5
_symmetry_space_group_name_H-M   'P 1'
_cell_length_a   5.24911309
_cell_length_b   10.46778808
_cell_length_c   7.13355781
_cell_angle_alpha   70.52736335
_cell_angle_beta   68.41279509
_cell_angle_gamma   75.47946672
_symmetry_Int_Tables_number   1
_chemical_formula_structural   LiCrPO5
_chemical_formula_sum   'Li4 Cr4 P4 O20'
_cell_volume   339.93732990
_cell_formula_units_Z   4
loop_
 _symmetry_equiv_pos_site_id
 _symmetry_equiv_pos_as_xyz
  1  'x, y, z'
loop_
 _atom_site_type_symbol
 _atom_site_label
 _atom_site_symmetry_multiplicity
 _atom_site_fract_x
 _atom_site_fract_y
 _atom_site_fract_z
 _atom_site_occupancy
  Li  Li0  1  0.50359418  0.00000000  0.50000000  1
  Li  Li1  1  0.00000000  0.25000000  0.75000000  1
  Li  Li2  1  0.49640582  0.50000000  0.00000000  1
  Li  Li3  1  0.50000000  0.75000000  0.25000000  1
  Cr  Cr4  1  0.50000000  0.25000000  0.75000000  1
  Cr  Cr5  1  0.50000000  0.25000000  0.25000000  1
  Cr  Cr6  1  0.50000000  0.75000000  0.75000000  1
  Cr  Cr7  1  0.00000000  0.75000000  0.25000000  1
  P  P8  1  0.12543601  0.06389204  0.18642813  1
  P  P9  1  0.87456399  0.43610796  0.31357187  1
  P  P10  1  0.12424382  0.56389204  0.68642813  1
  P  P11  1  0.87575618  0.93610796  0.81357187  1
  O  O12  1  0.81405878  0.09301362  0.77289119  1
  O  O13  1  0.21328740  0.13981847  0.95046697  1
  O  O14  1  0.28471640  0.10241864  0.29874488  1
  O  O15  1  0.80830706  0.10205788  0.27438144  1
  O  O16  1  0.57811316  0.28337203  0.96222312  1
  O  O17  1  0.42188684  0.21662797  0.53777688  1
  O  O18  1  0.18594122  0.40698638  0.72710881  1
  O  O19  1  0.78671260  0.36018153  0.54953303  1
  O  O20  1  0.81411907  0.60241864  0.79874488  1
  O  O21  1  0.71528360  0.39758136  0.20125512  1
  O  O22  1  0.31525362  0.60205788  0.77438144  1
  O  O23  1  0.19169294  0.39794212  0.22561856  1
  O  O24  1  0.82003641  0.59301362  0.27289019  1
  O  O25  1  0.19642816  0.63981847  0.45046697  1
  O  O26  1  0.18588093  0.89758136  0.70125512  1
  O  O27  1  0.32370931  0.71662797  0.03777688  1
  O  O28  1  0.67629069  0.78337203  0.46222312  1
  O  O29  1  0.68474638  0.89794212  0.72561856  1
  O  O30  1  0.17996359  0.90698638  0.22710881  1
  O  O31  1  0.80357184  0.86018153  0.04953303  1
