# generated using pymatgen
data_Na6Ga5Si7H15O32
_symmetry_space_group_name_H-M   'P 1'
_cell_length_a   8.88151423
_cell_length_b   9.34373568
_cell_length_c   9.29193282
_cell_angle_alpha   89.42109400
_cell_angle_beta   89.12367123
_cell_angle_gamma   91.12555980
_symmetry_Int_Tables_number   1
_chemical_formula_structural   Na6Ga5Si7H15O32
_chemical_formula_sum   'Na6 Ga5 Si7 H15 O32'
_cell_volume   770.82447406
_cell_formula_units_Z   1
loop_
 _symmetry_equiv_pos_site_id
 _symmetry_equiv_pos_as_xyz
  1  'x, y, z'
loop_
 _atom_site_type_symbol
 _atom_site_label
 _atom_site_symmetry_multiplicity
 _atom_site_fract_x
 _atom_site_fract_y
 _atom_site_fract_z
 _atom_site_occupancy
  Na  Na0  1  0.35127523  0.37596701  0.61966151  1
  Na  Na1  1  0.34832984  0.61920737  0.36038523  1
  Na  Na2  1  0.62498673  0.34492220  0.34450173  1
  Na  Na3  1  0.59430436  0.66516551  0.68702957  1
  Na  Na4  1  0.88181787  0.14517441  0.84060047  1
  Na  Na5  1  0.02601140  0.94655644  0.04495621  1
  Ga  Ga6  1  0.03454847  0.50739108  0.73932816  1
  Ga  Ga7  1  0.35359191  0.80128028  0.03373757  1
  Ga  Ga8  1  0.45906604  0.23302930  0.99594747  1
  Ga  Ga9  1  0.75245490  0.00129716  0.50239021  1
  Ga  Ga10  1  0.76563009  0.49580980  0.00312005  1
  Si  Si11  1  0.00099377  0.74563066  0.49812447  1
  Si  Si12  1  0.24840154  0.99610515  0.50666156  1
  Si  Si13  1  0.25119233  0.50091955  0.00839212  1
  Si  Si14  1  0.48167015  0.99511195  0.75402733  1
  Si  Si15  1  0.49289529  0.00722965  0.26249571  1
  Si  Si16  1  0.02056960  0.25006637  0.50184851  1
  Si  Si17  1  0.01096319  0.49355892  0.26405823  1
  H  H18  1  0.17124688  0.18989695  0.88037567  1
  H  H19  1  0.33266327  0.31521602  0.31817595  1
  H  H20  1  0.32113558  0.68364642  0.67545546  1
  H  H21  1  0.60119152  0.26888719  0.72120356  1
  H  H22  1  0.58232727  0.78196578  0.22049523  1
  H  H23  1  0.78092290  0.39671463  0.77074228  1
  H  H24  1  0.72275599  0.61253052  0.27052483  1
  H  H25  1  0.73125346  0.28030882  0.60712283  1
  H  H26  1  0.72152936  0.72976741  0.38502255  1
  H  H27  1  0.78140152  0.09678959  0.21497833  1
  H  H28  1  0.76793767  0.89740678  0.78492944  1
  H  H29  1  0.71901190  0.25649983  0.08118415  1
  H  H30  1  0.74041223  0.73364744  0.92710133  1
  H  H31  1  0.93198510  0.18347370  0.17541361  1
  H  H32  1  0.92243047  0.82164265  0.79377155  1
  O  O33  1  0.08436557  0.35703104  0.62306765  1
  O  O34  1  0.04507783  0.62581876  0.37512896  1
  O  O35  1  0.11156834  0.10246036  0.88826170  1
  O  O36  1  0.20323062  0.83743955  0.14862232  1
  O  O37  1  0.14388389  0.13019829  0.45697504  1
  O  O38  1  0.14114570  0.85461642  0.53375566  1
  O  O39  1  0.14765081  0.45728084  0.15508563  1
  O  O40  1  0.13739717  0.57193468  0.89146191  1
  O  O41  1  0.32007066  0.35579667  0.93532674  1
  O  O42  1  0.38903585  0.60473250  0.05408324  1
  O  O43  1  0.34765995  0.04392188  0.64496778  1
  O  O44  1  0.37394135  0.95525302  0.38616528  1
  O  O45  1  0.38816210  0.37709306  0.38271088  1
  O  O46  1  0.36416774  0.61469688  0.60988256  1
  O  O47  1  0.43025814  0.12689446  0.15660053  1
  O  O48  1  0.43622015  0.86364327  0.85865593  1
  O  O49  1  0.54062792  0.14284899  0.83559988  1
  O  O50  1  0.54154546  0.86574601  0.16436389  1
  O  O51  1  0.65323529  0.34139300  0.65456732  1
  O  O52  1  0.65031844  0.66271264  0.33522370  1
  O  O53  1  0.64922879  0.06709373  0.34203575  1
  O  O54  1  0.63356742  0.94268465  0.65938405  1
  O  O55  1  0.64456786  0.33321939  0.05965636  1
  O  O56  1  0.67844592  0.64544125  0.91976385  1
  O  O57  1  0.85633221  0.52853589  0.17665650  1
  O  O58  1  0.86516415  0.40937105  0.84211990  1
  O  O59  1  0.86366513  0.16459295  0.55775122  1
  O  O60  1  0.85718590  0.84139164  0.44533697  1
  O  O61  1  0.84794912  0.13061207  0.13204415  1
  O  O62  1  0.85382902  0.88104462  0.85101828  1
  O  O63  1  0.97082694  0.34357322  0.35737391  1
  O  O64  1  0.94796869  0.66010968  0.64559058  1
