# generated using pymatgen
data_Li5FeO4
_symmetry_space_group_name_H-M   'P 1'
_cell_length_a   5.62089375
_cell_length_b   6.82796593
_cell_length_c   11.03082240
_cell_angle_alpha   90.51784377
_cell_angle_beta   77.51323636
_cell_angle_gamma   90.36427666
_symmetry_Int_Tables_number   1
_chemical_formula_structural   Li5FeO4
_chemical_formula_sum   'Li20 Fe4 O16'
_cell_volume   413.31979119
_cell_formula_units_Z   4
loop_
 _symmetry_equiv_pos_site_id
 _symmetry_equiv_pos_as_xyz
  1  'x, y, z'
loop_
 _atom_site_type_symbol
 _atom_site_label
 _atom_site_symmetry_multiplicity
 _atom_site_fract_x
 _atom_site_fract_y
 _atom_site_fract_z
 _atom_site_occupancy
  Li  Li0  1  0.10238887  0.24603032  0.30333951  1
  Li  Li1  1  0.02211592  0.25558323  0.65410842  1
  Li  Li2  1  0.09901857  0.98019259  0.80005778  1
  Li  Li3  1  0.10514493  0.52933840  0.80487432  1
  Li  Li4  1  0.25995813  0.97974186  0.08424299  1
  Li  Li5  1  0.31308328  0.53491044  0.06264262  1
  Li  Li6  1  0.19355998  0.02195676  0.44372649  1
  Li  Li7  1  0.38246385  0.75039476  0.20950948  1
  Li  Li8  1  0.50810245  0.24638450  0.16815701  1
  Li  Li9  1  0.50611284  0.51617844  0.33812895  1
  Li  Li10  1  0.60714606  0.96594720  0.30343226  1
  Li  Li11  1  0.48292839  0.75145433  0.82115325  1
  Li  Li12  1  0.55067578  0.26069766  0.76945181  1
  Li  Li13  1  0.78437150  0.97514579  0.57389553  1
  Li  Li14  1  0.67352416  0.03520514  0.93670194  1
  Li  Li15  1  0.91428615  0.47009293  0.19267309  1
  Li  Li16  1  0.81712739  0.52321263  0.55827594  1
  Li  Li17  1  0.69433018  0.46927893  0.93248401  1
  Li  Li18  1  0.98835221  0.74354701  0.34653085  1
  Li  Li19  1  0.88833184  0.74733999  0.70400218  1
  Fe  Fe20  1  0.17021135  0.25313110  0.95008299  1
  Fe  Fe21  1  0.67540213  0.24206213  0.44205360  1
  Fe  Fe22  1  0.81983816  0.76054633  0.06375989  1
  Fe  Fe23  1  0.32377643  0.73837175  0.56585432  1
  O  O24  1  0.08884660  0.73371951  0.14244778  1
  O  O25  1  0.16510766  0.27075025  0.12199922  1
  O  O26  1  0.11034580  0.96181308  0.62441698  1
  O  O27  1  0.10466622  0.53685977  0.63524715  1
  O  O28  1  0.35117407  0.76395641  0.38538135  1
  O  O29  1  0.41483162  0.22601360  0.35453892  1
  O  O30  1  0.35904026  0.02753414  0.88997605  1
  O  O31  1  0.37400312  0.47353289  0.88535248  1
  O  O32  1  0.62011306  0.53198446  0.12416621  1
  O  O33  1  0.59438364  0.96574155  0.12121178  1
  O  O34  1  0.60309260  0.74516501  0.63687100  1
  O  O35  1  0.70092635  0.25170022  0.60660453  1
  O  O36  1  0.84205225  0.47345520  0.37083786  1
  O  O37  1  0.88065897  0.02112664  0.38457505  1
  O  O38  1  0.85363992  0.75278275  0.88589664  1
  O  O39  1  0.90531132  0.24973432  0.86671479  1
