# generated using pymatgen
data_LiFe3(SiO4)2
_symmetry_space_group_name_H-M   'P 1'
_cell_length_a   5.09027361
_cell_length_b   8.89627561
_cell_length_c   13.64920756
_cell_angle_alpha   109.92809268
_cell_angle_beta   79.61183344
_cell_angle_gamma   90.04412410
_symmetry_Int_Tables_number   1
_chemical_formula_structural   LiFe3(SiO4)2
_chemical_formula_sum   'Li3 Fe9 Si6 O24'
_cell_volume   570.32924306
_cell_formula_units_Z   3
loop_
 _symmetry_equiv_pos_site_id
 _symmetry_equiv_pos_as_xyz
  1  'x, y, z'
loop_
 _atom_site_type_symbol
 _atom_site_label
 _atom_site_symmetry_multiplicity
 _atom_site_fract_x
 _atom_site_fract_y
 _atom_site_fract_z
 _atom_site_occupancy
  Li  Li0  1  0.37219591  0.40703487  0.30810182  1
  Li  Li1  1  0.48979859  0.87764101  0.14009807  1
  Li  Li2  1  0.70901594  0.66180416  0.64432164  1
  Fe  Fe3  1  -0.00265761  0.98350789  0.00372367  1
  Fe  Fe4  1  0.25980219  0.78185248  0.51284759  1
  Fe  Fe5  1  0.21386336  0.55304562  0.81670167  1
  Fe  Fe6  1  0.28823733  0.13271724  0.65719982  1
  Fe  Fe7  1  0.92255403  0.40135378  0.16204895  1
  Fe  Fe8  1  0.60827703  0.47002348  0.95971739  1
  Fe  Fe9  1  0.69819365  0.06766857  0.80725057  1
  Fe  Fe10  1  0.87228340  0.29986567  0.46202771  1
  Fe  Fe11  1  0.94188702  0.87634965  0.31277963  1
  Si  Si12  1  0.03197079  0.68021678  0.06611541  1
  Si  Si13  1  0.47336515  0.19504495  0.06200472  1
  Si  Si14  1  0.19577274  0.85456063  0.74776829  1
  Si  Si15  1  0.40748572  0.06940511  0.40346788  1
  Si  Si16  1  0.81427984  0.59771837  0.40334938  1
  Si  Si17  1  0.75386083  0.35010605  0.71611623  1
  O  O18  1  0.00265648  0.75085639  0.39772537  1
  O  O19  1  0.09564734  0.08779399  0.38061754  1
  O  O20  1  0.02257748  0.45640148  0.40711285  1
  O  O21  1  0.14499968  0.77309912  0.17658695  1
  O  O22  1  0.02189935  0.80213384  0.65269156  1
  O  O23  1  0.33688397  0.02098699  0.04174995  1
  O  O24  1  0.29473389  0.33423989  0.16307436  1
  O  O25  1  0.38189409  0.00272993  0.50217099  1
  O  O26  1  0.53276339  0.24470224  0.42698555  1
  O  O27  1  0.28956503  0.61168754  0.96959278  1
  O  O28  1  0.40418594  0.98866535  0.73037425  1
  O  O29  1  0.59529419  0.93712008  0.29771576  1
  O  O30  1  0.42743818  0.33959916  0.73778666  1
  O  O31  1  0.37049070  0.71111845  0.75790836  1
  O  O32  1  0.58627291  0.65741950  0.51042117  1
  O  O33  1  0.68416341  0.52742206  0.29775595  1
  O  O34  1  0.77289980  0.17225107  0.09117033  1
  O  O35  1  0.84728319  0.81467616  0.04564919  1
  O  O36  1  0.84120133  0.53466108  0.07413221  1
  O  O37  1  0.52635145  0.24075153  0.95313174  1
  O  O38  1  0.85562724  0.39491298  0.60799988  1
  O  O39  1  0.82997430  0.48923174  0.82039820  1
  O  O40  1  0.88661613  0.17449492  0.70221991  1
  O  O41  1  0.97138360  0.95031419  0.85949805  1
