# generated using pymatgen
data_LiVP3H8O13
_symmetry_space_group_name_H-M   'P 1'
_cell_length_a   7.75698355
_cell_length_b   10.02503893
_cell_length_c   7.09546335
_cell_angle_alpha   105.01852106
_cell_angle_beta   102.00232846
_cell_angle_gamma   83.71852441
_symmetry_Int_Tables_number   1
_chemical_formula_structural   LiVP3H8O13
_chemical_formula_sum   'Li2 V2 P6 H16 O26'
_cell_volume   520.37335332
_cell_formula_units_Z   2
loop_
 _symmetry_equiv_pos_site_id
 _symmetry_equiv_pos_as_xyz
  1  'x, y, z'
loop_
 _atom_site_type_symbol
 _atom_site_label
 _atom_site_symmetry_multiplicity
 _atom_site_fract_x
 _atom_site_fract_y
 _atom_site_fract_z
 _atom_site_occupancy
  Li  Li0  1  0.00000000  0.00000000  0.00000000  1
  Li  Li1  1  0.50000000  0.50000000  0.00000000  1
  V  V2  1  0.17296979  0.22307279  0.80098927  1
  V  V3  1  0.82703021  0.77692721  0.19901073  1
  P  P4  1  0.19769190  0.25812144  0.32692947  1
  P  P5  1  0.19615542  0.52446110  0.24092131  1
  P  P6  1  0.54082114  0.26986719  0.59537064  1
  P  P7  1  0.45917886  0.73013281  0.40462936  1
  P  P8  1  0.80384458  0.47553890  0.75907869  1
  P  P9  1  0.80230810  0.74187856  0.67307053  1
  H  H10  1  0.01778079  0.03173976  0.35850020  1
  H  H11  1  0.18423397  0.56894655  0.81962682  1
  H  H12  1  0.14224307  0.89802415  0.31281256  1
  H  H13  1  0.25974120  0.79503057  0.92022289  1
  H  H14  1  0.30512932  0.60231309  0.68987959  1
  H  H15  1  0.33770466  0.98794484  0.85647700  1
  H  H16  1  0.37522575  0.99444672  0.64906004  1
  H  H17  1  0.34120326  0.91353311  0.09876088  1
  H  H18  1  0.65879674  0.08646689  0.90123912  1
  H  H19  1  0.62477425  0.00555328  0.35093996  1
  H  H20  1  0.66229534  0.01205516  0.14352300  1
  H  H21  1  0.69487068  0.39768691  0.31012041  1
  H  H22  1  0.74025880  0.20496943  0.07977711  1
  H  H23  1  0.85775693  0.10197585  0.68718744  1
  H  H24  1  0.81576603  0.43105345  0.18037318  1
  H  H25  1  0.98221921  0.96826024  0.64149980  1
  O  O26  1  0.12576475  0.20664351  0.47522842  1
  O  O27  1  0.01921055  0.93709727  0.27218772  1
  O  O28  1  0.04032355  0.61921232  0.19438878  1
  O  O29  1  0.14161958  0.42287694  0.36270072  1
  O  O30  1  0.14723640  0.18770496  0.11068017  1
  O  O31  1  0.25266856  0.89765592  0.97549114  1
  O  O32  1  0.28430758  0.62233246  0.82624276  1
  O  O33  1  0.37291514  0.05241558  0.78512418  1
  O  O34  1  0.44013367  0.32693965  0.76086478  1
  O  O35  1  0.29064488  0.44099108  0.08130760  1
  O  O36  1  0.34094985  0.61029590  0.42309795  1
  O  O37  1  0.41136902  0.25280697  0.38042903  1
  O  O38  1  0.34731760  0.86318863  0.41296531  1
  O  O39  1  0.65268240  0.13681137  0.58703469  1
  O  O40  1  0.58863098  0.74719303  0.61957097  1
  O  O41  1  0.65905015  0.38970410  0.57690205  1
  O  O42  1  0.70935512  0.55900892  0.91869240  1
  O  O43  1  0.55986633  0.67306035  0.23913522  1
  O  O44  1  0.62708486  0.94758442  0.21487582  1
  O  O45  1  0.71569242  0.37766754  0.17375724  1
  O  O46  1  0.74733144  0.10234408  0.02450886  1
  O  O47  1  0.85276360  0.81229504  0.88931983  1
  O  O48  1  0.85838042  0.57712306  0.63729928  1
  O  O49  1  0.95967645  0.38078768  0.80561122  1
  O  O50  1  0.98078945  0.06290273  0.72781228  1
  O  O51  1  0.87423525  0.79335649  0.52477158  1
