# generated using pymatgen
data_Mn6O7F5
_symmetry_space_group_name_H-M   'P 1'
_cell_length_a   7.57700434
_cell_length_b   5.63129387
_cell_length_c   5.63129387
_cell_angle_alpha   69.25134709
_cell_angle_beta   69.48024565
_cell_angle_gamma   69.48024565
_symmetry_Int_Tables_number   1
_chemical_formula_structural   Mn6O7F5
_chemical_formula_sum   'Mn6 O7 F5'
_cell_volume   203.28843583
_cell_formula_units_Z   1
loop_
 _symmetry_equiv_pos_site_id
 _symmetry_equiv_pos_as_xyz
  1  'x, y, z'
loop_
 _atom_site_type_symbol
 _atom_site_label
 _atom_site_symmetry_multiplicity
 _atom_site_fract_x
 _atom_site_fract_y
 _atom_site_fract_z
 _atom_site_occupancy
  Mn  Mn0  1  0.84483569  0.68119024  0.69098929  1
  Mn  Mn1  1  0.67877695  0.32923930  0.33825676  1
  Mn  Mn2  1  0.32122305  0.66174324  0.67076070  1
  Mn  Mn3  1  0.15516431  0.30901071  0.31880976  1
  Mn  Mn4  1  0.50000000  0.99432099  0.00567901  1
  Mn  Mn5  1  0.00000000  0.02499615  0.97500385  1
  O  O6  1  0.66926065  0.02554055  0.64656651  1
  O  O7  1  0.33073935  0.35343349  0.97445945  1
  O  O8  1  0.95658481  0.22602632  0.21760297  1
  O  O9  1  0.04341519  0.78239703  0.77397368  1
  O  O10  1  0.33181936  0.96273503  0.36439177  1
  O  O11  1  0.66818064  0.63560823  0.03726497  1
  O  O12  1  0.00000000  0.32289337  0.67710663  1
  F  F13  1  0.30188409  0.89754161  0.90615423  1
  F  F14  1  0.61666468  0.57365677  0.57830885  1
  F  F15  1  0.69811591  0.09384577  0.10245839  1
  F  F16  1  0.38333532  0.42169115  0.42634323  1
  F  F17  1  0.00000000  0.70412905  0.29587095  1
