# generated using pymatgen
data_Na5Co2As(CO4)4
_symmetry_space_group_name_H-M   'P 1'
_cell_length_a   10.02301401
_cell_length_b   9.98430602
_cell_length_c   10.01654385
_cell_angle_alpha   119.85075893
_cell_angle_beta   59.76590387
_cell_angle_gamma   119.91514494
_symmetry_Int_Tables_number   1
_chemical_formula_structural   Na5Co2As(CO4)4
_chemical_formula_sum   'Na10 Co4 As2 C8 O32'
_cell_volume   708.77435350
_cell_formula_units_Z   2
loop_
 _symmetry_equiv_pos_site_id
 _symmetry_equiv_pos_as_xyz
  1  'x, y, z'
loop_
 _atom_site_type_symbol
 _atom_site_label
 _atom_site_symmetry_multiplicity
 _atom_site_fract_x
 _atom_site_fract_y
 _atom_site_fract_z
 _atom_site_occupancy
  Na  Na0  1  0.91144209  0.16144209  0.91144209  1
  Na  Na1  1  0.91131538  0.16131538  0.33868462  1
  Na  Na2  1  0.91118688  0.58881312  0.33881312  1
  Na  Na3  1  0.65952446  0.40952446  0.09047554  1
  Na  Na4  1  0.33881312  0.16118688  0.91118688  1
  Na  Na5  1  0.65970954  0.84029046  0.09029046  1
  Na  Na6  1  0.33855791  0.58855791  0.33855791  1
  Na  Na7  1  0.33868462  0.58868462  0.91131538  1
  Na  Na8  1  0.09029046  0.40970954  0.65970954  1
  Na  Na9  1  0.09047554  0.84047554  0.65952446  1
  Co  Co10  1  0.49552131  0.99793816  0.00018375  1
  Co  Co11  1  0.50206184  0.00447869  0.50223310  1
  Co  Co12  1  0.50223310  0.49981625  0.50206184  1
  Co  Co13  1  0.00018375  0.99776690  0.49552131  1
  As  As14  1  0.87500000  0.62500000  0.87500000  1
  As  As15  1  0.12500000  0.37500000  0.12500000  1
  C  C16  1  0.71312941  0.13776345  0.71183878  1
  C  C17  1  0.63916954  0.21289149  0.28522196  1
  C  C18  1  0.28522196  0.21149901  0.63916954  1
  C  C19  1  0.28850099  0.21477804  0.28710851  1
  C  C20  1  0.71183878  0.78720474  0.71312941  1
  C  C21  1  0.71279526  0.78816122  0.36223655  1
  C  C22  1  0.36223655  0.78687059  0.71279526  1
  C  C23  1  0.28710851  0.86083046  0.28850099  1
  O  O24  1  0.85687585  0.14498214  0.68667696  1
  O  O25  1  0.64303659  0.10024566  0.31164325  1
  O  O26  1  0.68497968  0.13236399  0.59672202  1
  O  O27  1  0.64267999  0.18342731  0.14100727  1
  O  O28  1  0.60092713  0.14451190  0.85563880  1
  O  O29  1  0.93741869  0.53937300  0.93675810  1
  O  O30  1  0.96062700  0.56258131  0.66519621  1
  O  O31  1  0.64234757  0.35503946  0.39363794  1
  O  O32  1  0.31905295  0.10636206  0.14496054  1
  O  O33  1  0.39363794  0.18094705  0.64234757  1
  O  O34  1  0.93675810  0.83480379  0.93741869  1
  O  O35  1  0.66519621  0.56324190  0.96062700  1
  O  O36  1  0.85563880  0.81205403  0.60092713  1
  O  O37  1  0.68794597  0.64436120  0.35548810  1
  O  O38  1  0.14100727  0.10025995  0.64267999  1
  O  O39  1  0.39974005  0.35899273  0.31657269  1
  O  O40  1  0.85066229  0.90327798  0.36763601  1
  O  O41  1  0.59672202  0.64933771  0.68497968  1
  O  O42  1  0.31164325  0.35443418  0.64303659  1
  O  O43  1  0.14556582  0.18835675  0.39975434  1
  O  O44  1  0.33540005  0.44642599  0.05710247  1
  O  O45  1  0.05357401  0.16459995  0.05392247  1
  O  O46  1  0.68667696  0.89857067  0.85687585  1
  O  O47  1  0.60142933  0.81332304  0.35501786  1
  O  O48  1  0.35501786  0.64312415  0.60142933  1
  O  O49  1  0.05392247  0.44289753  0.05357401  1
  O  O50  1  0.05710247  0.44607753  0.33540005  1
  O  O51  1  0.39975434  0.85696341  0.14556582  1
  O  O52  1  0.36763601  0.81502032  0.85066229  1
  O  O53  1  0.31657269  0.85732001  0.39974005  1
  O  O54  1  0.35548810  0.89907287  0.68794597  1
  O  O55  1  0.14496054  0.85765243  0.31905295  1
