# generated using pymatgen
data_LiFe2O2F3
_symmetry_space_group_name_H-M   'P 1'
_cell_length_a   8.16463149
_cell_length_b   8.33058417
_cell_length_c   3.17614347
_cell_angle_alpha   90.00005307
_cell_angle_beta   90.00002068
_cell_angle_gamma   90.05005377
_symmetry_Int_Tables_number   1
_chemical_formula_structural   LiFe2O2F3
_chemical_formula_sum   'Li2 Fe4 O4 F6'
_cell_volume   216.02896758
_cell_formula_units_Z   2
loop_
 _symmetry_equiv_pos_site_id
 _symmetry_equiv_pos_as_xyz
  1  'x, y, z'
loop_
 _atom_site_type_symbol
 _atom_site_label
 _atom_site_symmetry_multiplicity
 _atom_site_fract_x
 _atom_site_fract_y
 _atom_site_fract_z
 _atom_site_occupancy
  Li  Li0  1  0.64616331  0.17220590  0.49999946  1
  Li  Li1  1  0.85393457  0.67217354  0.50000025  1
  Fe  Fe2  1  0.00810003  0.99155092  0.00000052  1
  Fe  Fe3  1  0.14906377  0.32983391  0.49999920  1
  Fe  Fe4  1  0.35075251  0.82970870  0.50000118  1
  Fe  Fe5  1  0.49197688  0.49159040  0.99999849  1
  O  O6  1  0.11570987  0.20931501  0.00000048  1
  O  O7  1  0.13548507  0.91678830  0.49999987  1
  O  O8  1  0.36450345  0.41679868  0.50000064  1
  O  O9  1  0.38430343  0.70926801  0.99999900  1
  F  F10  1  0.00530343  0.50342933  0.50000021  1
  F  F11  1  0.49470189  0.00339733  0.50000028  1
  F  F12  1  0.63012837  0.29879673  0.99999888  1
  F  F13  1  0.63737344  0.57828017  0.49999885  1
  F  F14  1  0.86270595  0.07817936  0.50000132  1
  F  F15  1  0.86979403  0.79868171  0.00000137  1
