# generated using pymatgen
data_LiCrB3(HO3)3
_symmetry_space_group_name_H-M   'P 1'
_cell_length_a   11.65191265
_cell_length_b   9.21487514
_cell_length_c   14.16395544
_cell_angle_alpha   90.00000000
_cell_angle_beta   90.00000000
_cell_angle_gamma   90.00000000
_symmetry_Int_Tables_number   1
_chemical_formula_structural   LiCrB3(HO3)3
_chemical_formula_sum   'Li8 Cr8 B24 H24 O72'
_cell_volume   1520.79692943
_cell_formula_units_Z   8
loop_
 _symmetry_equiv_pos_site_id
 _symmetry_equiv_pos_as_xyz
  1  'x, y, z'
loop_
 _atom_site_type_symbol
 _atom_site_label
 _atom_site_symmetry_multiplicity
 _atom_site_fract_x
 _atom_site_fract_y
 _atom_site_fract_z
 _atom_site_occupancy
  Li  Li0  1  0.00000000  0.17011255  0.25000000  1
  Li  Li1  1  0.00000000  0.50195247  0.25000000  1
  Li  Li2  1  0.00000000  0.49804753  0.75000000  1
  Li  Li3  1  0.00000000  0.82988745  0.75000000  1
  Li  Li4  1  0.50000000  0.67011255  0.25000000  1
  Li  Li5  1  0.50000000  0.99804753  0.75000000  1
  Li  Li6  1  0.50000000  0.32988745  0.75000000  1
  Li  Li7  1  0.50000000  0.00195247  0.25000000  1
  Cr  Cr8  1  0.23732705  0.34294492  0.32668782  1
  Cr  Cr9  1  0.23732705  0.65705508  0.82668782  1
  Cr  Cr10  1  0.26267295  0.15705508  0.82668782  1
  Cr  Cr11  1  0.26267295  0.84294492  0.32668782  1
  Cr  Cr12  1  0.73732705  0.15705508  0.67331218  1
  Cr  Cr13  1  0.73732705  0.84294492  0.17331218  1
  Cr  Cr14  1  0.76267295  0.34294492  0.17331218  1
  Cr  Cr15  1  0.76267295  0.65705508  0.67331218  1
  B  B16  1  0.14716705  0.03143246  0.08166490  1
  B  B17  1  0.14716705  0.96856754  0.58166490  1
  B  B18  1  0.14571349  0.53079755  0.07521153  1
  B  B19  1  0.14571349  0.46920245  0.57521153  1
  B  B20  1  0.24448415  0.09127332  0.44573127  1
  B  B21  1  0.24448415  0.90872668  0.94573127  1
  B  B22  1  0.25551585  0.40872668  0.94573127  1
  B  B23  1  0.25551585  0.59127332  0.44573127  1
  B  B24  1  0.35428651  0.03079755  0.07521153  1
  B  B25  1  0.35428651  0.96920245  0.57521153  1
  B  B26  1  0.35283295  0.53143246  0.08166490  1
  B  B27  1  0.35283295  0.46856754  0.58166490  1
  B  B28  1  0.64716705  0.46856754  0.91833510  1
  B  B29  1  0.64716705  0.53143246  0.41833510  1
  B  B30  1  0.64571349  0.03079755  0.42478847  1
  B  B31  1  0.64571349  0.96920245  0.92478847  1
  B  B32  1  0.74448415  0.40872668  0.55426873  1
  B  B33  1  0.74448415  0.59127332  0.05426873  1
  B  B34  1  0.75551585  0.09127332  0.05426873  1
  B  B35  1  0.75551585  0.90872668  0.55426873  1
  B  B36  1  0.85428651  0.46920245  0.92478847  1
  B  B37  1  0.85428651  0.53079755  0.42478847  1
  B  B38  1  0.85283295  0.03143246  0.41833510  1
  B  B39  1  0.85283295  0.96856754  0.91833510  1
  H  H40  1  0.98077953  0.06321104  0.08417587  1
  H  H41  1  0.98077953  0.93678896  0.58417587  1
  H  H42  1  0.02404120  0.55994121  0.42302778  1
  H  H43  1  0.02404120  0.44005879  0.92302778  1
  H  H44  1  0.19763898  0.28615613  0.69862133  1
  H  H45  1  0.19763898  0.71384387  0.19862133  1
  H  H46  1  0.30236102  0.21384387  0.19862133  1
  H  H47  1  0.30236102  0.78615613  0.69862133  1
  H  H48  1  0.47595880  0.05994121  0.42302778  1
  H  H49  1  0.47595880  0.94005879  0.92302778  1
  H  H50  1  0.51922047  0.56321104  0.08417587  1
  H  H51  1  0.51922047  0.43678896  0.58417587  1
  H  H52  1  0.48077953  0.43678896  0.91582413  1
  H  H53  1  0.48077953  0.56321104  0.41582413  1
  H  H54  1  0.52404120  0.05994121  0.07697222  1
  H  H55  1  0.52404120  0.94005879  0.57697222  1
  H  H56  1  0.69763898  0.78615613  0.80137867  1
  H  H57  1  0.69763898  0.21384387  0.30137867  1
  H  H58  1  0.80236102  0.28615613  0.80137867  1
  H  H59  1  0.80236102  0.71384387  0.30137867  1
  H  H60  1  0.97595880  0.44005879  0.57697222  1
  H  H61  1  0.97595880  0.55994121  0.07697222  1
  H  H62  1  0.01922047  0.06321104  0.41582413  1
  H  H63  1  0.01922047  0.93678896  0.91582413  1
  O  O64  1  0.04465074  0.56961674  0.11872688  1
  O  O65  1  0.04465074  0.43038326  0.61872688  1
  O  O66  1  0.04868014  0.08203750  0.12454245  1
  O  O67  1  0.04868014  0.91796250  0.62454245  1
  O  O68  1  0.10412887  0.33489003  0.28716319  1
  O  O69  1  0.10412887  0.66510997  0.78716319  1
  O  O70  1  0.14221325  0.94807612  0.00198000  1
  O  O71  1  0.14221325  0.05192388  0.50198000  1
  O  O72  1  0.14730793  0.54166208  0.49125026  1
  O  O73  1  0.14730793  0.45833792  0.99125026  1
  O  O74  1  0.16119042  0.78372109  0.24320112  1
  O  O75  1  0.16119042  0.21627891  0.74320112  1
  O  O76  1  0.23206758  0.02649844  0.35018935  1
  O  O77  1  0.23206758  0.97350156  0.85018935  1
  O  O78  1  0.25351546  0.24933898  0.43375373  1
  O  O79  1  0.25351546  0.75066102  0.93375373  1
  O  O80  1  0.24696132  0.43164620  0.62227402  1
  O  O81  1  0.24696132  0.56835380  0.12227402  1
  O  O82  1  0.25303868  0.06835380  0.12227402  1
  O  O83  1  0.25303868  0.93164620  0.62227402  1
  O  O84  1  0.24648454  0.74933898  0.43375373  1
  O  O85  1  0.24648454  0.25066102  0.93375373  1
  O  O86  1  0.26793242  0.47350156  0.85018935  1
  O  O87  1  0.26793242  0.52649844  0.35018935  1
  O  O88  1  0.33880958  0.28372109  0.24320112  1
  O  O89  1  0.33880958  0.71627891  0.74320112  1
  O  O90  1  0.35269207  0.04166208  0.49125026  1
  O  O91  1  0.35269207  0.95833792  0.99125026  1
  O  O92  1  0.35778675  0.55192388  0.50198000  1
  O  O93  1  0.35778675  0.44807612  0.00198000  1
  O  O94  1  0.39587113  0.83489003  0.28716319  1
  O  O95  1  0.39587113  0.16510997  0.78716319  1
  O  O96  1  0.45131986  0.58203750  0.12454245  1
  O  O97  1  0.45131986  0.41796250  0.62454245  1
  O  O98  1  0.45534926  0.06961674  0.11872688  1
  O  O99  1  0.45534926  0.93038326  0.61872688  1
  O  O100  1  0.54465074  0.06961674  0.38127312  1
  O  O101  1  0.54465074  0.93038326  0.88127312  1
  O  O102  1  0.54868014  0.58203750  0.37545755  1
  O  O103  1  0.54868014  0.41796250  0.87545755  1
  O  O104  1  0.60412887  0.83489003  0.21283681  1
  O  O105  1  0.60412887  0.16510997  0.71283681  1
  O  O106  1  0.64221325  0.44807612  0.49802000  1
  O  O107  1  0.64221325  0.55192388  0.99802000  1
  O  O108  1  0.64730793  0.04166208  0.00874974  1
  O  O109  1  0.64730793  0.95833792  0.50874974  1
  O  O110  1  0.66119042  0.28372109  0.25679888  1
  O  O111  1  0.66119042  0.71627891  0.75679888  1
  O  O112  1  0.73206758  0.47350156  0.64981065  1
  O  O113  1  0.73206758  0.52649844  0.14981065  1
  O  O114  1  0.75351546  0.25066102  0.56624627  1
  O  O115  1  0.75351546  0.74933898  0.06624627  1
  O  O116  1  0.74696132  0.93164620  0.87772598  1
  O  O117  1  0.74696132  0.06835380  0.37772598  1
  O  O118  1  0.75303868  0.43164620  0.87772598  1
  O  O119  1  0.75303868  0.56835380  0.37772598  1
  O  O120  1  0.74648454  0.24933898  0.06624627  1
  O  O121  1  0.74648454  0.75066102  0.56624627  1
  O  O122  1  0.76793242  0.02649844  0.14981065  1
  O  O123  1  0.76793242  0.97350156  0.64981065  1
  O  O124  1  0.83880958  0.21627891  0.75679888  1
  O  O125  1  0.83880958  0.78372109  0.25679888  1
  O  O126  1  0.85269207  0.45833792  0.50874974  1
  O  O127  1  0.85269207  0.54166208  0.00874974  1
  O  O128  1  0.85778675  0.05192388  0.99802000  1
  O  O129  1  0.85778675  0.94807612  0.49802000  1
  O  O130  1  0.89587113  0.33489003  0.21283681  1
  O  O131  1  0.89587113  0.66510997  0.71283681  1
  O  O132  1  0.95131986  0.08203750  0.37545755  1
  O  O133  1  0.95131986  0.91796250  0.87545755  1
  O  O134  1  0.95534926  0.43038326  0.88127312  1
  O  O135  1  0.95534926  0.56961674  0.38127312  1
