# generated using pymatgen
data_Li3MnSi2O7
_symmetry_space_group_name_H-M   'P 1'
_cell_length_a   8.75544658
_cell_length_b   8.59223638
_cell_length_c   13.04681486
_cell_angle_alpha   89.74827281
_cell_angle_beta   89.71535138
_cell_angle_gamma   121.04683509
_symmetry_Int_Tables_number   1
_chemical_formula_structural   Li3MnSi2O7
_chemical_formula_sum   'Li18 Mn6 Si12 O42'
_cell_volume   840.85562808
_cell_formula_units_Z   6
loop_
 _symmetry_equiv_pos_site_id
 _symmetry_equiv_pos_as_xyz
  1  'x, y, z'
loop_
 _atom_site_type_symbol
 _atom_site_label
 _atom_site_symmetry_multiplicity
 _atom_site_fract_x
 _atom_site_fract_y
 _atom_site_fract_z
 _atom_site_occupancy
  Li  Li0  1  0.02671449  0.68879320  0.89940779  1
  Li  Li1  1  0.02704822  0.69266180  0.56425798  1
  Li  Li2  1  0.33055421  0.67474840  0.21786411  1
  Li  Li3  1  0.33850463  0.65832499  0.73348590  1
  Li  Li4  1  0.99827673  0.00055213  0.46392747  1
  Li  Li5  1  0.00281115  0.99934696  0.96389809  1
  Li  Li6  1  0.31304118  0.33063152  0.56756132  1
  Li  Li7  1  0.31082882  0.33047325  0.89483031  1
  Li  Li8  1  0.66818033  0.97249005  0.89990281  1
  Li  Li9  1  0.66949265  0.97370743  0.56475851  1
  Li  Li10  1  0.33087371  0.02651934  0.06429220  1
  Li  Li11  1  0.33173713  0.02743619  0.39829989  1
  Li  Li12  1  0.68614059  0.66746249  0.39593392  1
  Li  Li13  1  0.68987935  0.67165033  0.06845326  1
  Li  Li14  1  0.65967761  0.34001129  0.23376826  1
  Li  Li15  1  0.66958013  0.32549260  0.71806727  1
  Li  Li16  1  0.97448899  0.31080924  0.06410245  1
  Li  Li17  1  0.97190805  0.30782427  0.39995720  1
  Mn  Mn18  1  0.01681686  0.99133173  0.23118574  1
  Mn  Mn19  1  0.98189753  0.00866750  0.73115772  1
  Mn  Mn20  1  0.33439941  0.66692075  0.50866228  1
  Mn  Mn21  1  0.33536486  0.66786822  0.95643627  1
  Mn  Mn22  1  0.66547872  0.33286698  0.45649022  1
  Mn  Mn23  1  0.66517424  0.33265143  0.00892199  1
  Si  Si24  1  0.02168015  0.67481968  0.34616608  1
  Si  Si25  1  0.02020581  0.67314470  0.12070056  1
  Si  Si26  1  0.32531398  0.35838842  0.12110776  1
  Si  Si27  1  0.32396173  0.35902374  0.34341637  1
  Si  Si28  1  0.65280697  0.98214667  0.11879886  1
  Si  Si29  1  0.64801911  0.97770701  0.34643479  1
  Si  Si30  1  0.35018772  0.02151105  0.84728488  1
  Si  Si31  1  0.34962276  0.01898003  0.61916565  1
  Si  Si32  1  0.67565435  0.64001044  0.84407415  1
  Si  Si33  1  0.67490479  0.64274276  0.62179170  1
  Si  Si34  1  0.98041576  0.32586392  0.61964803  1
  Si  Si35  1  0.97707964  0.32553733  0.84507627  1
  O  O36  1  0.13704741  0.92997341  0.84891710  1
  O  O37  1  0.13730461  0.92788667  0.62092234  1
  O  O38  1  0.12098948  0.69112805  0.23310449  1
  O  O39  1  0.18163633  0.76064844  0.03741210  1
  O  O40  1  0.17988287  0.76339897  0.42938162  1
  O  O41  1  0.12707237  0.54207530  0.60337762  1
  O  O42  1  0.12587825  0.54067150  0.85934829  1
  O  O43  1  0.07242048  0.20330481  0.83894736  1
  O  O44  1  0.42060980  0.87798875  0.86420111  1
  O  O45  1  0.07899551  0.20819227  0.62896468  1
  O  O46  1  0.42195736  0.87808179  0.60183677  1
  O  O47  1  0.24493455  0.43675059  0.03370513  1
  O  O48  1  0.24247628  0.43299534  0.43225297  1
  O  O49  1  0.29294828  0.43656893  0.23191040  1
  O  O50  1  0.19905349  0.13541997  0.34213357  1
  O  O51  1  0.56363127  0.88126553  0.23268245  1
  O  O52  1  0.20349361  0.13583316  0.12464846  1
  O  O53  1  0.56035732  0.80713454  0.43015340  1
  O  O54  1  0.56525871  0.81206392  0.03641156  1
  O  O55  1  0.46567118  0.57283775  0.61181803  1
  O  O56  1  0.46758761  0.57512376  0.85550662  1
  O  O57  1  0.53227899  0.42522746  0.35324133  1
  O  O58  1  0.53395250  0.42690082  0.10985531  1
  O  O59  1  0.44058400  0.19175047  0.53635972  1
  O  O60  1  0.43658478  0.19078069  0.92977204  1
  O  O61  1  0.79673654  0.86550985  0.62503629  1
  O  O62  1  0.43644119  0.11777871  0.73256017  1
  O  O63  1  0.79984278  0.86333926  0.84176567  1
  O  O64  1  0.70627063  0.56295460  0.73272575  1
  O  O65  1  0.75719516  0.56512651  0.93226894  1
  O  O66  1  0.75612264  0.56662245  0.53379765  1
  O  O67  1  0.57834498  0.12200395  0.10150461  1
  O  O68  1  0.92361876  0.79313470  0.12886164  1
  O  O69  1  0.57913780  0.12168132  0.36279083  1
  O  O70  1  0.92482430  0.79524606  0.33882426  1
  O  O71  1  0.87308015  0.45899098  0.36229892  1
  O  O72  1  0.87322237  0.45794606  0.10549216  1
  O  O73  1  0.81809428  0.23728281  0.92960397  1
  O  O74  1  0.82104319  0.23832434  0.53703885  1
  O  O75  1  0.87800213  0.30736714  0.73226793  1
  O  O76  1  0.86551706  0.07546196  0.12142474  1
  O  O77  1  0.86117763  0.06811055  0.34808712  1
