# generated using pymatgen
data_Mn12O7F17
_symmetry_space_group_name_H-M   'P 1'
_cell_length_a   4.80046522
_cell_length_b   5.79388317
_cell_length_c   15.85539299
_cell_angle_alpha   90.54072903
_cell_angle_beta   90.21045452
_cell_angle_gamma   86.13894237
_symmetry_Int_Tables_number   1
_chemical_formula_structural   Mn12O7F17
_chemical_formula_sum   'Mn12 O7 F17'
_cell_volume   439.96878972
_cell_formula_units_Z   1
loop_
 _symmetry_equiv_pos_site_id
 _symmetry_equiv_pos_as_xyz
  1  'x, y, z'
loop_
 _atom_site_type_symbol
 _atom_site_label
 _atom_site_symmetry_multiplicity
 _atom_site_fract_x
 _atom_site_fract_y
 _atom_site_fract_z
 _atom_site_occupancy
  Mn  Mn0  1  0.00158488  0.17801075  0.41292555  1
  Mn  Mn1  1  0.03667184  0.82954640  0.24535104  1
  Mn  Mn2  1  0.99555560  0.15395361  0.08483827  1
  Mn  Mn3  1  0.01532555  0.15534735  0.74382335  1
  Mn  Mn4  1  0.99894106  0.85038596  0.58136669  1
  Mn  Mn5  1  0.02180636  0.83700912  0.90519227  1
  Mn  Mn6  1  0.48553925  0.31187137  0.59810803  1
  Mn  Mn7  1  0.52409133  0.33015390  0.92676642  1
  Mn  Mn8  1  0.50084286  0.35598744  0.25726245  1
  Mn  Mn9  1  0.50453377  0.66099115  0.08404012  1
  Mn  Mn10  1  0.50921729  0.64534091  0.41072246  1
  Mn  Mn11  1  0.49537300  0.65262401  0.75083155  1
  O  O12  1  0.20550835  0.11071252  0.63754652  1
  O  O13  1  0.22085154  0.88413354  0.13394383  1
  O  O14  1  0.23444905  0.88998750  0.79671680  1
  O  O15  1  0.28539554  0.60586050  0.31011391  1
  O  O16  1  0.72539543  0.39030407  0.03761520  1
  O  O17  1  0.71621236  0.39163240  0.35819457  1
  O  O18  1  0.71231463  0.38200313  0.69762283  1
  F  F19  1  0.23970471  0.10720152  0.30534388  1
  F  F20  1  0.21789566  0.11727964  0.97322398  1
  F  F21  1  0.24458647  0.87988740  0.46709964  1
  F  F22  1  0.26533651  0.38275563  0.15115609  1
  F  F23  1  0.27101692  0.37661252  0.48683569  1
  F  F24  1  0.25469148  0.61553648  0.64328496  1
  F  F25  1  0.26540809  0.40026214  0.81510522  1
  F  F26  1  0.27023080  0.61774883  0.97945352  1
  F  F27  1  0.72933150  0.63000417  0.19003572  1
  F  F28  1  0.72685739  0.61874549  0.52159593  1
  F  F29  1  0.72111135  0.61761766  0.86172521  1
  F  F30  1  0.76633035  0.12560699  0.19808844  1
  F  F31  1  0.75941088  0.11003535  0.52169525  1
  F  F32  1  0.79046921  0.88636011  0.35496215  1
  F  F33  1  0.76074190  0.89747901  0.01744395  1
  F  F34  1  0.78560105  0.12320233  0.84997295  1
  F  F35  1  0.74166505  0.87780708  0.68999456  1
