# generated using pymatgen
data_Li3TiCr2O6
_symmetry_space_group_name_H-M   'P 1'
_cell_length_a   15.54704203
_cell_length_b   9.94591059
_cell_length_c   9.94591055
_cell_angle_alpha   17.06219145
_cell_angle_beta   16.56395576
_cell_angle_gamma   16.56395537
_symmetry_Int_Tables_number   1
_chemical_formula_structural   Li3TiCr2O6
_chemical_formula_sum   'Li3 Ti1 Cr2 O6'
_cell_volume   111.08363469
_cell_formula_units_Z   1
loop_
 _symmetry_equiv_pos_site_id
 _symmetry_equiv_pos_as_xyz
  1  'x, y, z'
loop_
 _atom_site_type_symbol
 _atom_site_label
 _atom_site_symmetry_multiplicity
 _atom_site_fract_x
 _atom_site_fract_y
 _atom_site_fract_z
 _atom_site_occupancy
  Li  Li0  1  0.16666700  0.50000000  0.50000000  1
  Li  Li1  1  0.49991615  0.49832277  0.49832277  1
  Li  Li2  1  0.83341685  0.50167723  0.50167723  1
  Ti  Ti3  1  0.66666700  0.00000000  0.00000000  1
  Cr  Cr4  1  0.00312805  0.99804939  0.99804939  1
  Cr  Cr5  1  0.33020495  0.00195061  0.00195061  1
  O  O6  1  0.24680415  0.25734823  0.25734823  1
  O  O7  1  0.58062211  0.25905356  0.25905356  1
  O  O8  1  0.08652985  0.74265277  0.74265277  1
  O  O9  1  0.91873751  0.25132445  0.25132445  1
  O  O10  1  0.41459549  0.74867555  0.74867555  1
  O  O11  1  0.75271189  0.74094644  0.74094644  1
