# generated using pymatgen
data_V5Sn(PO4)6
_symmetry_space_group_name_H-M   'P 1'
_cell_length_a   8.66091224
_cell_length_b   8.70787938
_cell_length_c   8.70787922
_cell_angle_alpha   59.99999797
_cell_angle_beta   59.82045332
_cell_angle_gamma   59.82044954
_symmetry_Int_Tables_number   1
_chemical_formula_structural   V5Sn(PO4)6
_chemical_formula_sum   'V5 Sn1 P6 O24'
_cell_volume   463.11566106
_cell_formula_units_Z   1
loop_
 _symmetry_equiv_pos_site_id
 _symmetry_equiv_pos_as_xyz
  1  'x, y, z'
loop_
 _atom_site_type_symbol
 _atom_site_label
 _atom_site_symmetry_multiplicity
 _atom_site_fract_x
 _atom_site_fract_y
 _atom_site_fract_z
 _atom_site_occupancy
  V  V0  1  0.00723553  0.99758849  0.99758849  1
  V  V1  1  0.06660911  0.64446396  0.64446396  1
  V  V2  1  0.49928606  0.50023765  0.50023765  1
  V  V3  1  0.43134121  0.85621926  0.85621926  1
  V  V4  1  0.92693864  0.35768745  0.35768745  1
  Sn  Sn5  1  0.56645403  0.14451566  0.14451566  1
  P  P6  1  0.24560911  0.25233384  0.54790116  1
  P  P7  1  0.24560911  0.95415489  0.25233384  1
  P  P8  1  0.24560911  0.54790116  0.95415489  1
  P  P9  1  0.75023803  0.45962741  0.04329450  1
  P  P10  1  0.75023803  0.04329450  0.74684107  1
  P  P11  1  0.75023803  0.74684107  0.45962741  1
  O  O12  1  0.07127818  0.11310718  0.31176727  1
  O  O13  1  0.07127818  0.50384637  0.11310718  1
  O  O14  1  0.07127818  0.31176727  0.50384637  1
  O  O15  1  0.23019020  0.08972506  0.74166347  1
  O  O16  1  0.43393235  0.18893113  0.39384854  1
  O  O17  1  0.26525375  0.41193067  0.56445036  1
  O  O18  1  0.23019020  0.93842027  0.08972506  1
  O  O19  1  0.26525375  0.75836523  0.41193067  1
  O  O20  1  0.56884697  0.61200357  0.00525984  1
  O  O21  1  0.26525375  0.56445036  0.75836523  1
  O  O22  1  0.77422240  0.26028235  0.05668917  1
  O  O23  1  0.56884697  0.00525984  0.81388962  1
  O  O24  1  0.43393235  0.98328798  0.18893113  1
  O  O25  1  0.23019020  0.74166347  0.93842027  1
  O  O26  1  0.72972958  0.43993969  0.24054154  1
  O  O27  1  0.43393235  0.39384854  0.98328798  1
  O  O28  1  0.72972958  0.24054154  0.58978819  1
  O  O29  1  0.77422240  0.05668917  0.90880708  1
  O  O30  1  0.72972958  0.58978819  0.43993969  1
  O  O31  1  0.56884697  0.81388962  0.61200357  1
  O  O32  1  0.77422240  0.90880708  0.26028235  1
  O  O33  1  0.93141093  0.68311417  0.49726591  1
  O  O34  1  0.93141093  0.49726591  0.88820899  1
  O  O35  1  0.93141093  0.88820899  0.68311417  1
