# generated using pymatgen
data_Li5V6O5F19
_symmetry_space_group_name_H-M   'P 1'
_cell_length_a   5.16148574
_cell_length_b   5.39761117
_cell_length_c   16.50387843
_cell_angle_alpha   80.62637974
_cell_angle_beta   89.95743549
_cell_angle_gamma   89.11730493
_symmetry_Int_Tables_number   1
_chemical_formula_structural   Li5V6O5F19
_chemical_formula_sum   'Li5 V6 O5 F19'
_cell_volume   453.59892734
_cell_formula_units_Z   1
loop_
 _symmetry_equiv_pos_site_id
 _symmetry_equiv_pos_as_xyz
  1  'x, y, z'
loop_
 _atom_site_type_symbol
 _atom_site_label
 _atom_site_symmetry_multiplicity
 _atom_site_fract_x
 _atom_site_fract_y
 _atom_site_fract_z
 _atom_site_occupancy
  Li  Li0  1  0.54692319  0.17044135  0.44620865  1
  Li  Li1  1  0.43930226  0.18015731  0.87412658  1
  Li  Li2  1  0.17858992  0.69928809  0.15678570  1
  Li  Li3  1  0.95710678  0.65985379  0.45385984  1
  Li  Li4  1  0.03208018  0.66242288  0.88228843  1
  V  V5  1  0.02621011  0.30143760  0.33092673  1
  V  V6  1  0.50608025  0.16487365  0.66316176  1
  V  V7  1  0.97178753  0.03651037  0.00288644  1
  V  V8  1  0.47263082  0.51674674  0.01239729  1
  V  V9  1  0.48111657  0.79754492  0.33180089  1
  V  V10  1  0.98452548  0.69127359  0.66366054  1
  O  O11  1  0.20817871  0.03164429  0.35966727  1
  O  O12  1  0.30695348  0.52825631  0.36128141  1
  O  O13  1  0.20873906  0.69650875  0.02699351  1
  O  O14  1  0.79416290  0.30363933  0.97251916  1
  O  O15  1  0.78664646  0.95464656  0.64576890  1
  F  F16  1  0.29720281  0.18782409  0.03340588  1
  F  F17  1  0.69859047  0.13962688  0.31173137  1
  F  F18  1  0.41416794  0.21059826  0.55514545  1
  F  F19  1  0.12126879  0.01069429  0.89398604  1
  F  F20  1  0.58460623  0.13225803  0.77260706  1
  F  F21  1  0.61971185  0.46658494  0.11330927  1
  F  F22  1  0.88359489  0.31783258  0.44086425  1
  F  F23  1  0.10053702  0.38782713  0.22004188  1
  F  F24  1  0.20978734  0.37441405  0.68563754  1
  F  F25  1  0.71064889  0.46232686  0.64044086  1
  F  F26  1  0.81589644  0.64126978  0.31103193  1
  F  F27  1  0.37089929  0.50586291  0.89553040  1
  F  F28  1  0.90854756  0.93649916  0.11353871  1
  F  F29  1  0.09718634  0.70621931  0.55411714  1
  F  F30  1  0.91847235  0.61480410  0.77796510  1
  F  F31  1  0.40386429  0.86473057  0.22048174  1
  F  F32  1  0.62268456  0.81929602  0.44108494  1
  F  F33  1  0.29455640  0.87031973  0.68863477  1
  F  F34  1  0.70323183  0.80775978  0.96862656  1
