# generated using pymatgen
data_Li4Fe3Co3(SnO8)2
_symmetry_space_group_name_H-M   'P 1'
_cell_length_a   5.94470019
_cell_length_b   5.97298291
_cell_length_c   9.79055977
_cell_angle_alpha   90.04633727
_cell_angle_beta   90.55567946
_cell_angle_gamma   120.16612750
_symmetry_Int_Tables_number   1
_chemical_formula_structural   Li4Fe3Co3(SnO8)2
_chemical_formula_sum   'Li4 Fe3 Co3 Sn2 O16'
_cell_volume   300.53850895
_cell_formula_units_Z   1
loop_
 _symmetry_equiv_pos_site_id
 _symmetry_equiv_pos_as_xyz
  1  'x, y, z'
loop_
 _atom_site_type_symbol
 _atom_site_label
 _atom_site_symmetry_multiplicity
 _atom_site_fract_x
 _atom_site_fract_y
 _atom_site_fract_z
 _atom_site_occupancy
  Li  Li0  1  0.32993692  0.66538649  0.89499069  1
  Li  Li1  1  0.00598688  0.00296905  0.99490002  1
  Li  Li2  1  0.00457815  0.00169715  0.49352551  1
  Li  Li3  1  0.66333819  0.33266125  0.39377476  1
  Fe  Fe4  1  0.66158622  0.83058014  0.21356948  1
  Fe  Fe5  1  0.83225758  0.66192920  0.71435916  1
  Fe  Fe6  1  0.83040985  0.16924120  0.71476506  1
  Co  Co7  1  0.17156485  0.83283850  0.21439762  1
  Co  Co8  1  0.17101113  0.33883633  0.21446119  1
  Co  Co9  1  0.33989236  0.17206840  0.71419769  1
  Sn  Sn10  1  0.33221418  0.66612117  0.48984764  1
  Sn  Sn11  1  0.66705338  0.33249725  0.99010259  1
  O  O12  1  0.16445309  0.84089911  0.60042690  1
  O  O13  1  0.03226025  0.51646936  0.33658813  1
  O  O14  1  0.32277581  0.66331061  0.10857320  1
  O  O15  1  0.00722130  0.00189311  0.30663972  1
  O  O16  1  0.00888831  0.00504867  0.80795782  1
  O  O17  1  0.16322778  0.32321428  0.60069203  1
  O  O18  1  0.47625123  0.96490886  0.33773632  1
  O  O19  1  0.47656938  0.51272473  0.33779794  1
  O  O20  1  0.32572560  0.16277093  0.10410121  1
  O  O21  1  0.67911606  0.83919746  0.59813803  1
  O  O22  1  0.51125256  0.47788289  0.83896944  1
  O  O23  1  0.51391043  0.03269726  0.83888514  1
  O  O24  1  0.65979699  0.32903336  0.60673811  1
  O  O25  1  0.84161626  0.67869397  0.10038124  1
  O  O26  1  0.96535367  0.48276429  0.84081723  1
  O  O27  1  0.84175359  0.16196396  0.10051015  1
