# generated using pymatgen
data_Li3Mn2Cr2O8
_symmetry_space_group_name_H-M   'P 1'
_cell_length_a   5.87626167
_cell_length_b   5.96855035
_cell_length_c   5.88194812
_cell_angle_alpha   60.94516408
_cell_angle_beta   90.41566989
_cell_angle_gamma   120.10924560
_symmetry_Int_Tables_number   1
_chemical_formula_structural   Li3Mn2Cr2O8
_chemical_formula_sum   'Li3 Mn2 Cr2 O8'
_cell_volume   148.18567314
_cell_formula_units_Z   1
loop_
 _symmetry_equiv_pos_site_id
 _symmetry_equiv_pos_as_xyz
  1  'x, y, z'
loop_
 _atom_site_type_symbol
 _atom_site_label
 _atom_site_symmetry_multiplicity
 _atom_site_fract_x
 _atom_site_fract_y
 _atom_site_fract_z
 _atom_site_occupancy
  Li  Li0  1  0.00000000  0.50000000  0.00000000  1
  Li  Li1  1  0.50000000  0.00000000  0.50000000  1
  Li  Li2  1  0.50000000  0.50000000  0.00000000  1
  Mn  Mn3  1  0.00000000  0.00000000  0.00000000  1
  Mn  Mn4  1  0.50000000  0.50000000  0.50000000  1
  Cr  Cr5  1  0.00000000  0.00000000  0.50000000  1
  Cr  Cr6  1  0.00000000  0.50000000  0.50000000  1
  O  O7  1  0.74951552  0.96018427  0.26826725  1
  O  O8  1  0.24065333  0.46817915  0.28576714  1
  O  O9  1  0.20990295  0.97344500  0.25984245  1
  O  O10  1  0.26737571  0.51737909  0.72045139  1
  O  O11  1  0.73262429  0.48262091  0.27954861  1
  O  O12  1  0.79009705  0.02655500  0.74015755  1
  O  O13  1  0.75934667  0.53182085  0.71423286  1
  O  O14  1  0.25048448  0.03981573  0.73173275  1
