# generated using pymatgen
data_HfZrO4
_symmetry_space_group_name_H-M   'P 1'
_cell_length_a   7.24429061
_cell_length_b   7.27880865
_cell_length_c   10.34364461
_cell_angle_alpha   44.69635107
_cell_angle_beta   89.99669348
_cell_angle_gamma   60.18970134
_symmetry_Int_Tables_number   1
_chemical_formula_structural   HfZrO4
_chemical_formula_sum   'Hf4 Zr4 O16'
_cell_volume   271.39868902
_cell_formula_units_Z   4
loop_
 _symmetry_equiv_pos_site_id
 _symmetry_equiv_pos_as_xyz
  1  'x, y, z'
loop_
 _atom_site_type_symbol
 _atom_site_label
 _atom_site_symmetry_multiplicity
 _atom_site_fract_x
 _atom_site_fract_y
 _atom_site_fract_z
 _atom_site_occupancy
  Hf  Hf0  1  0.24241101  0.50162756  0.12004795  1
  Hf  Hf1  1  0.24024139  0.00446811  0.11894029  1
  Hf  Hf2  1  0.74208588  0.00419558  0.11899904  1
  Hf  Hf3  1  0.74146126  0.50377032  0.61989864  1
  Zr  Zr4  1  0.24100185  0.00584730  0.61966000  1
  Zr  Zr5  1  0.23930524  0.50771975  0.61886335  1
  Zr  Zr6  1  0.74020584  0.50609907  0.11918066  1
  Zr  Zr7  1  0.73961938  0.00566830  0.61984526  1
  O  O8  1  0.96312372  0.51261253  0.47144482  1
  O  O9  1  0.00745026  0.97680896  0.27337393  1
  O  O10  1  0.00648185  0.50675256  0.22645993  1
  O  O11  1  0.96922455  0.04481166  0.49256669  1
  O  O12  1  0.96557119  0.05209101  0.99144403  1
  O  O13  1  0.00670569  0.97811743  0.77791908  1
  O  O14  1  0.00769874  0.49372108  0.73242142  1
  O  O15  1  0.51392403  0.96171509  0.53304483  1
  O  O16  1  0.51342991  0.49688024  0.97940894  1
  O  O17  1  0.47508390  0.03190438  0.74757104  1
  O  O18  1  0.47999289  0.50386883  0.72730909  1
  O  O19  1  0.51354014  0.96260467  0.03693217  1
  O  O20  1  0.47446488  0.03226335  0.24895118  1
  O  O21  1  0.46838482  0.51647803  0.22158697  1
  O  O22  1  0.51404932  0.50621421  0.47450866  1
  O  O23  1  0.97285227  0.50341700  0.97606003  1
