# generated using pymatgen
data_V4O3F5
_symmetry_space_group_name_H-M   'P 1'
_cell_length_a   5.73175700
_cell_length_b   5.73175700
_cell_length_c   5.73175700
_cell_angle_alpha   70.05780582
_cell_angle_beta   104.44559376
_cell_angle_gamma   65.82861044
_symmetry_Int_Tables_number   1
_chemical_formula_structural   V4O3F5
_chemical_formula_sum   'V4 O3 F5'
_cell_volume   143.91496950
_cell_formula_units_Z   1
loop_
 _symmetry_equiv_pos_site_id
 _symmetry_equiv_pos_as_xyz
  1  'x, y, z'
loop_
 _atom_site_type_symbol
 _atom_site_label
 _atom_site_symmetry_multiplicity
 _atom_site_fract_x
 _atom_site_fract_y
 _atom_site_fract_z
 _atom_site_occupancy
  V  V0  1  0.23064627  0.25927365  0.51008008  1
  V  V1  1  0.76935373  0.72056620  0.51008008  1
  V  V2  1  0.50000000  0.52776685  0.97223315  1
  V  V3  1  0.00000000  0.99124463  0.00875537  1
  O  O4  1  0.50000000  0.81286951  0.68713049  1
  O  O5  1  0.00000000  0.28193915  0.71806085  1
  O  O6  1  0.00000000  0.70224743  0.29775257  1
  F  F7  1  0.06157129  0.74363049  0.80707718  1
  F  F8  1  0.55070867  0.25449411  0.80707718  1
  F  F9  1  0.50000000  0.20784337  0.29215663  1
  F  F10  1  0.44929133  0.74363049  0.19479822  1
  F  F11  1  0.93842871  0.25449411  0.19479822  1
