# generated using pymatgen
data_Li3MnCoO5
_symmetry_space_group_name_H-M   'P 1'
_cell_length_a   3.03484840
_cell_length_b   6.02731868
_cell_length_c   10.21636548
_cell_angle_alpha   97.30367821
_cell_angle_beta   96.99859061
_cell_angle_gamma   95.06858353
_symmetry_Int_Tables_number   1
_chemical_formula_structural   Li3MnCoO5
_chemical_formula_sum   'Li6 Mn2 Co2 O10'
_cell_volume   182.95414934
_cell_formula_units_Z   2
loop_
 _symmetry_equiv_pos_site_id
 _symmetry_equiv_pos_as_xyz
  1  'x, y, z'
loop_
 _atom_site_type_symbol
 _atom_site_label
 _atom_site_symmetry_multiplicity
 _atom_site_fract_x
 _atom_site_fract_y
 _atom_site_fract_z
 _atom_site_occupancy
  Li  Li0  1  0.99705967  0.49807735  0.99678750  1
  Li  Li1  1  0.60294033  0.30192265  0.20321250  1
  Li  Li2  1  0.39591684  0.69299611  0.79621298  1
  Li  Li3  1  0.80000000  0.90000000  0.60000000  1
  Li  Li4  1  0.20408316  0.10700389  0.40378702  1
  Li  Li5  1  0.80000000  0.40000000  0.60000000  1
  Mn  Mn6  1  0.99733472  0.00206958  0.99676042  1
  Mn  Mn7  1  0.60266528  0.79793042  0.20323958  1
  Co  Co8  1  0.20817342  0.58907276  0.40935263  1
  Co  Co9  1  0.39182658  0.21092724  0.79064737  1
  O  O10  1  0.47077744  0.23940540  0.98417632  1
  O  O11  1  0.07254381  0.04120040  0.19262907  1
  O  O12  1  0.87905247  0.43018685  0.79892697  1
  O  O13  1  0.28586897  0.64843280  0.58185501  1
  O  O14  1  0.67310091  0.83542883  0.39545507  1
  O  O15  1  0.52745619  0.75879960  0.00737093  1
  O  O16  1  0.12922256  0.56059460  0.21582368  1
  O  O17  1  0.92689909  0.96457117  0.80454493  1
  O  O18  1  0.31413103  0.15156720  0.61814499  1
  O  O19  1  0.72094753  0.36981315  0.40107303  1
