# generated using pymatgen
data_Li4V5Cr2O12
_symmetry_space_group_name_H-M   'P 1'
_cell_length_a   5.11076667
_cell_length_b   9.14871584
_cell_length_c   9.92793554
_cell_angle_alpha   89.99999849
_cell_angle_beta   101.94334119
_cell_angle_gamma   89.99999777
_symmetry_Int_Tables_number   1
_chemical_formula_structural   Li4V5Cr2O12
_chemical_formula_sum   'Li8 V10 Cr4 O24'
_cell_volume   454.15133884
_cell_formula_units_Z   2
loop_
 _symmetry_equiv_pos_site_id
 _symmetry_equiv_pos_as_xyz
  1  'x, y, z'
loop_
 _atom_site_type_symbol
 _atom_site_label
 _atom_site_symmetry_multiplicity
 _atom_site_fract_x
 _atom_site_fract_y
 _atom_site_fract_z
 _atom_site_occupancy
  Li  Li0  1  0.24445919  0.08608351  0.98882536  1
  Li  Li1  1  0.75401117  0.07807020  0.50623555  1
  Li  Li2  1  0.49061612  0.41847294  0.75221698  1
  Li  Li3  1  0.74453359  0.41433012  0.51209110  1
  Li  Li4  1  0.25554081  0.58608351  0.51117464  1
  Li  Li5  1  0.74598883  0.57807020  0.99376445  1
  Li  Li6  1  0.00938388  0.91847294  0.74778302  1
  Li  Li7  1  0.75546641  0.91433012  0.98790890  1
  V  V8  1  0.98782968  0.07874499  0.25276802  1
  V  V9  1  0.50067853  0.07305153  0.74296747  1
  V  V10  1  0.25322116  0.25110671  0.50491100  1
  V  V11  1  0.74003477  0.25890777  0.99078553  1
  V  V12  1  0.99566262  0.42541153  0.25455499  1
  V  V13  1  0.99932147  0.57305153  0.75703253  1
  V  V14  1  0.24677884  0.75110671  0.99508900  1
  V  V15  1  0.51217032  0.57874499  0.24723198  1
  V  V16  1  0.75996523  0.75890777  0.50921447  1
  V  V17  1  0.50433738  0.92541153  0.24544501  1
  Cr  Cr18  1  0.00318009  0.25020150  0.75264695  1
  Cr  Cr19  1  0.48991834  0.25441368  0.24538125  1
  Cr  Cr20  1  0.01008166  0.75441368  0.25461875  1
  Cr  Cr21  1  0.49681991  0.75020150  0.74735305  1
  O  O22  1  0.12994239  0.10607546  0.62814993  1
  O  O23  1  0.37030823  0.10054594  0.36069414  1
  O  O24  1  0.38682875  0.22948709  0.86453710  1
  O  O25  1  0.86801069  0.09653268  0.86914507  1
  O  O26  1  0.10200066  0.24600289  0.13756443  1
  O  O27  1  0.61773836  0.10206071  0.12611902  1
  O  O28  1  0.62152130  0.23843522  0.62539202  1
  O  O29  1  0.11555411  0.40829565  0.63498037  1
  O  O30  1  0.38357155  0.40656075  0.37273890  1
  O  O31  1  0.87798945  0.24965649  0.37104625  1
  O  O32  1  0.86536483  0.40438892  0.86856371  1
  O  O33  1  0.62141584  0.41107572  0.13163899  1
  O  O34  1  0.37005761  0.60607546  0.87185007  1
  O  O35  1  0.12969177  0.60054594  0.13930586  1
  O  O36  1  0.11317125  0.72948709  0.63546290  1
  O  O37  1  0.63198931  0.59653268  0.63085493  1
  O  O38  1  0.39799934  0.74600289  0.36243557  1
  O  O39  1  0.88226164  0.60206071  0.37388098  1
  O  O40  1  0.87847870  0.73843522  0.87460798  1
  O  O41  1  0.38444589  0.90829565  0.86501963  1
  O  O42  1  0.11642845  0.90656075  0.12726110  1
  O  O43  1  0.62201055  0.74965649  0.12895375  1
  O  O44  1  0.63463517  0.90438892  0.63143629  1
  O  O45  1  0.87858416  0.91107572  0.36836101  1
