# generated using pymatgen
data_Li3MnCoO5
_symmetry_space_group_name_H-M   'P 1'
_cell_length_a   3.02759685
_cell_length_b   12.40311803
_cell_length_c   5.08140268
_cell_angle_alpha   100.73363992
_cell_angle_beta   76.98047626
_cell_angle_gamma   92.12855187
_symmetry_Int_Tables_number   1
_chemical_formula_structural   Li3MnCoO5
_chemical_formula_sum   'Li6 Mn2 Co2 O10'
_cell_volume   182.65473520
_cell_formula_units_Z   2
loop_
 _symmetry_equiv_pos_site_id
 _symmetry_equiv_pos_as_xyz
  1  'x, y, z'
loop_
 _atom_site_type_symbol
 _atom_site_label
 _atom_site_symmetry_multiplicity
 _atom_site_fract_x
 _atom_site_fract_y
 _atom_site_fract_z
 _atom_site_occupancy
  Li  Li0  1  0.69649274  0.10261034  0.59857906  1
  Li  Li1  1  0.09905530  0.29954236  0.79381364  1
  Li  Li2  1  0.50094470  0.50045764  0.00618636  1
  Li  Li3  1  0.90350726  0.69738966  0.20142094  1
  Li  Li4  1  0.30000000  0.90000000  0.40000000  1
  Li  Li5  1  0.80000000  0.40000000  0.40000000  1
  Mn  Mn6  1  0.99590737  0.00300450  0.00239423  1
  Mn  Mn7  1  0.60409263  0.79699550  0.79760577  1
  Co  Co8  1  0.38931235  0.21042097  0.20950819  1
  Co  Co9  1  0.21068765  0.58957903  0.59049181  1
  O  O10  1  0.33412057  0.06097377  0.28479780  1
  O  O11  1  0.74140882  0.24713754  0.47254517  1
  O  O12  1  0.14602629  0.46447842  0.69951110  1
  O  O13  1  0.53758271  0.65102927  0.87866218  1
  O  O14  1  0.92651202  0.85462840  0.09085456  1
  O  O15  1  0.06241729  0.14897073  0.92133782  1
  O  O16  1  0.45397371  0.33552158  0.10048890  1
  O  O17  1  0.85859118  0.55286246  0.32745483  1
  O  O18  1  0.26587943  0.73902623  0.51520220  1
  O  O19  1  0.67348798  0.94537160  0.70914544  1
