# generated using pymatgen
data_LiMn3P3O11
_symmetry_space_group_name_H-M   'P 1'
_cell_length_a   10.12679991
_cell_length_b   9.84601177
_cell_length_c   10.13638049
_cell_angle_alpha   90.00000000
_cell_angle_beta   64.05359396
_cell_angle_gamma   90.00000000
_symmetry_Int_Tables_number   1
_chemical_formula_structural   LiMn3P3O11
_chemical_formula_sum   'Li4 Mn12 P12 O44'
_cell_volume   908.81098919
_cell_formula_units_Z   4
loop_
 _symmetry_equiv_pos_site_id
 _symmetry_equiv_pos_as_xyz
  1  'x, y, z'
loop_
 _atom_site_type_symbol
 _atom_site_label
 _atom_site_symmetry_multiplicity
 _atom_site_fract_x
 _atom_site_fract_y
 _atom_site_fract_z
 _atom_site_occupancy
  Li  Li0  1  0.03480994  0.69525787  0.61520386  1
  Li  Li1  1  0.53480994  0.80474213  0.11520386  1
  Li  Li2  1  0.46519006  0.19525787  0.88479614  1
  Li  Li3  1  0.96519006  0.30474213  0.38479614  1
  Mn  Mn4  1  0.13142152  0.61736747  0.15139654  1
  Mn  Mn5  1  0.01698947  0.86088574  0.89045011  1
  Mn  Mn6  1  0.18685768  0.13508634  0.72912108  1
  Mn  Mn7  1  0.36857848  0.11736747  0.34860346  1
  Mn  Mn8  1  0.31314232  0.63508634  0.77087892  1
  Mn  Mn9  1  0.51698947  0.63911426  0.39045011  1
  Mn  Mn10  1  0.48301053  0.36088574  0.60954989  1
  Mn  Mn11  1  0.68685768  0.36491366  0.22912108  1
  Mn  Mn12  1  0.63142152  0.88263253  0.65139654  1
  Mn  Mn13  1  0.81314232  0.86491366  0.27087892  1
  Mn  Mn14  1  0.98301053  0.13911426  0.10954989  1
  Mn  Mn15  1  0.86857848  0.38263253  0.84860346  1
  P  P16  1  0.14016225  0.93538898  0.26095151  1
  P  P17  1  0.35983775  0.43538898  0.23904849  1
  P  P18  1  0.20054475  0.43043467  0.55963795  1
  P  P19  1  0.32553096  0.84538057  0.55721950  1
  P  P20  1  0.17446904  0.34538057  0.94278050  1
  P  P21  1  0.70054475  0.06956533  0.05963795  1
  P  P22  1  0.29945525  0.93043467  0.94036205  1
  P  P23  1  0.82553096  0.65461943  0.05721950  1
  P  P24  1  0.67446904  0.15461943  0.44278050  1
  P  P25  1  0.79945525  0.56956533  0.44036205  1
  P  P26  1  0.64016225  0.56461102  0.76095151  1
  P  P27  1  0.85983775  0.06461102  0.73904849  1
  O  O28  1  0.13622362  0.28800241  0.09615609  1
  O  O29  1  0.13620306  0.78319580  0.28720907  1
  O  O30  1  0.28265976  0.96905276  0.10034569  1
  O  O31  1  0.16937816  0.02920347  0.36345319  1
  O  O32  1  0.99423668  0.02174068  0.76429558  1
  O  O33  1  0.05165067  0.48972804  0.66319123  1
  O  O34  1  0.33062184  0.52920347  0.13654681  1
  O  O35  1  0.21734024  0.46905276  0.39965431  1
  O  O36  1  0.36379694  0.28319580  0.21279093  1
  O  O37  1  0.05441871  0.28721402  0.89675967  1
  O  O38  1  0.22183146  0.27612431  0.55994946  1
  O  O39  1  0.17671293  0.78380590  0.67532757  1
  O  O40  1  0.36377638  0.78800241  0.40384391  1
  O  O41  1  0.32295481  0.00249650  0.55729138  1
  O  O42  1  0.17151764  0.00137701  0.91792927  1
  O  O43  1  0.32848236  0.50137701  0.58207073  1
  O  O44  1  0.49423668  0.47825932  0.26429558  1
  O  O45  1  0.17704519  0.50249650  0.94270862  1
  O  O46  1  0.55165067  0.01027196  0.16319123  1
  O  O47  1  0.32328707  0.28380590  0.82467243  1
  O  O48  1  0.55441871  0.21278598  0.39675967  1
  O  O49  1  0.72183146  0.22387569  0.05994946  1
  O  O50  1  0.27816854  0.77612431  0.94005054  1
  O  O51  1  0.44558129  0.78721402  0.60324033  1
  O  O52  1  0.67671293  0.71619410  0.17532757  1
  O  O53  1  0.44834933  0.98972804  0.83680877  1
  O  O54  1  0.82295481  0.49750350  0.05729138  1
  O  O55  1  0.50576332  0.52174068  0.73570442  1
  O  O56  1  0.67151764  0.49862299  0.41792927  1
  O  O57  1  0.82848236  0.99862299  0.08207073  1
  O  O58  1  0.67704519  0.99750350  0.44270862  1
  O  O59  1  0.63622362  0.21199759  0.59615609  1
  O  O60  1  0.82328707  0.21619410  0.32467243  1
  O  O61  1  0.77816854  0.72387569  0.44005054  1
  O  O62  1  0.94558129  0.71278598  0.10324033  1
  O  O63  1  0.63620306  0.71680420  0.78720907  1
  O  O64  1  0.78265976  0.53094724  0.60034569  1
  O  O65  1  0.66937816  0.47079653  0.86345319  1
  O  O66  1  0.94834933  0.51027196  0.33680877  1
  O  O67  1  0.00576332  0.97825932  0.23570442  1
  O  O68  1  0.83062184  0.97079653  0.63654681  1
  O  O69  1  0.71734024  0.03094724  0.89965431  1
  O  O70  1  0.86379694  0.21680420  0.71279093  1
  O  O71  1  0.86377638  0.71199759  0.90384391  1
