# generated using pymatgen
data_Fe4S5
_symmetry_space_group_name_H-M   'P 1'
_cell_length_a   7.85811190
_cell_length_b   7.85556390
_cell_length_c   10.37220207
_cell_angle_alpha   89.27543418
_cell_angle_beta   91.27031293
_cell_angle_gamma   89.93737348
_symmetry_Int_Tables_number   1
_chemical_formula_structural   Fe4S5
_chemical_formula_sum   'Fe8 S10'
_cell_volume   640.06584987
_cell_formula_units_Z   2
loop_
 _symmetry_equiv_pos_site_id
 _symmetry_equiv_pos_as_xyz
  1  'x, y, z'
loop_
 _atom_site_type_symbol
 _atom_site_label
 _atom_site_symmetry_multiplicity
 _atom_site_fract_x
 _atom_site_fract_y
 _atom_site_fract_z
 _atom_site_occupancy
  Fe  Fe0  1  0.29269026  0.09617682  0.99600818  1
  Fe  Fe1  1  0.59516532  0.20560101  0.99504325  1
  Fe  Fe2  1  0.90120425  0.29405357  0.00469213  1
  Fe  Fe3  1  0.20498365  0.40200039  0.00567375  1
  Fe  Fe4  1  0.70720310  0.90362076  0.99603586  1
  Fe  Fe5  1  0.40456061  0.79402757  0.99474974  1
  Fe  Fe6  1  0.09901552  0.70579111  0.00444603  1
  Fe  Fe7  1  0.79513738  0.59778970  0.00553498  1
  S  S8  1  0.79112411  0.11057064  0.87711529  1
  S  S9  1  0.10930342  0.20041257  0.12241354  1
  S  S10  1  0.38581947  0.29758219  0.87813361  1
  S  S11  1  0.70512850  0.39018779  0.12148217  1
  S  S12  1  0.99654647  0.50172026  0.88446875  1
  S  S13  1  0.20200001  0.89318905  0.87676200  1
  S  S14  1  0.89773960  0.79524676  0.12226385  1
  S  S15  1  0.60732751  0.70640334  0.87766629  1
  S  S16  1  0.30167743  0.60583877  0.12140466  1
  S  S17  1  0.50337340  0.99778871  0.11610595  1
