# generated using pymatgen
data_Li4Cr2Fe5O12
_symmetry_space_group_name_H-M   'P 1'
_cell_length_a   5.12417099
_cell_length_b   9.07970174
_cell_length_c   9.84929561
_cell_angle_alpha   89.99999867
_cell_angle_beta   101.00238124
_cell_angle_gamma   89.99999849
_symmetry_Int_Tables_number   1
_chemical_formula_structural   Li4Cr2Fe5O12
_chemical_formula_sum   'Li8 Cr4 Fe10 O24'
_cell_volume   449.82484143
_cell_formula_units_Z   2
loop_
 _symmetry_equiv_pos_site_id
 _symmetry_equiv_pos_as_xyz
  1  'x, y, z'
loop_
 _atom_site_type_symbol
 _atom_site_label
 _atom_site_symmetry_multiplicity
 _atom_site_fract_x
 _atom_site_fract_y
 _atom_site_fract_z
 _atom_site_occupancy
  Li  Li0  1  0.24457822  0.08738687  0.99292562  1
  Li  Li1  1  0.75870384  0.07896154  0.50772288  1
  Li  Li2  1  0.48997585  0.41686437  0.75525894  1
  Li  Li3  1  0.74685918  0.41631327  0.50891948  1
  Li  Li4  1  0.25542178  0.58738687  0.50707438  1
  Li  Li5  1  0.74129616  0.57896154  0.99227712  1
  Li  Li6  1  0.01002415  0.91686437  0.74474106  1
  Li  Li7  1  0.75314082  0.91631327  0.99108052  1
  Cr  Cr8  1  0.00228274  0.25159021  0.75377050  1
  Cr  Cr9  1  0.50065697  0.25271014  0.24815898  1
  Cr  Cr10  1  0.99934303  0.75271014  0.25184102  1
  Cr  Cr11  1  0.49771726  0.75159021  0.74622950  1
  Fe  Fe12  1  0.00187503  0.07798476  0.25492810  1
  Fe  Fe13  1  0.50063576  0.07557964  0.74531686  1
  Fe  Fe14  1  0.25541481  0.25129858  0.50725616  1
  Fe  Fe15  1  0.00945234  0.42003940  0.24758578  1
  Fe  Fe16  1  0.73807942  0.26037633  0.99141566  1
  Fe  Fe17  1  0.99936424  0.57557964  0.75468314  1
  Fe  Fe18  1  0.49812497  0.57798476  0.24507190  1
  Fe  Fe19  1  0.24458519  0.75129858  0.99274384  1
  Fe  Fe20  1  0.76192058  0.76037633  0.50858434  1
  Fe  Fe21  1  0.49054766  0.92003940  0.25241422  1
  O  O22  1  0.13418140  0.10324469  0.63216414  1
  O  O23  1  0.37003502  0.10368626  0.36824839  1
  O  O24  1  0.38162078  0.23348903  0.86818351  1
  O  O25  1  0.11525573  0.23810083  0.13470735  1
  O  O26  1  0.86327880  0.09952366  0.87359348  1
  O  O27  1  0.63027425  0.09597611  0.13207676  1
  O  O28  1  0.11864447  0.40778110  0.62997593  1
  O  O29  1  0.62210065  0.24049545  0.62735720  1
  O  O30  1  0.39111289  0.40974634  0.37317384  1
  O  O31  1  0.88061652  0.24252812  0.37206298  1
  O  O32  1  0.62545563  0.40967105  0.12932172  1
  O  O33  1  0.86226994  0.40940426  0.86680531  1
  O  O34  1  0.36581860  0.60324469  0.86783586  1
  O  O35  1  0.12996498  0.60368626  0.13175161  1
  O  O36  1  0.11837922  0.73348903  0.63181649  1
  O  O37  1  0.63672120  0.59952366  0.62640652  1
  O  O38  1  0.38474427  0.73810083  0.36529265  1
  O  O39  1  0.86972575  0.59597611  0.36792324  1
  O  O40  1  0.87789935  0.74049545  0.87264280  1
  O  O41  1  0.10888711  0.90974634  0.12682616  1
  O  O42  1  0.38135553  0.90778110  0.87002407  1
  O  O43  1  0.61938348  0.74252812  0.12793702  1
  O  O44  1  0.63773006  0.90940426  0.63319469  1
  O  O45  1  0.87454437  0.90967105  0.37067828  1
