# generated using pymatgen
data_Mn6O5F7
_symmetry_space_group_name_H-M   'P 1'
_cell_length_a   4.77330818
_cell_length_b   7.92004891
_cell_length_c   5.68499983
_cell_angle_alpha   93.67036015
_cell_angle_beta   88.92513787
_cell_angle_gamma   90.40798843
_symmetry_Int_Tables_number   1
_chemical_formula_structural   Mn6O5F7
_chemical_formula_sum   'Mn6 O5 F7'
_cell_volume   214.43813170
_cell_formula_units_Z   1
loop_
 _symmetry_equiv_pos_site_id
 _symmetry_equiv_pos_as_xyz
  1  'x, y, z'
loop_
 _atom_site_type_symbol
 _atom_site_label
 _atom_site_symmetry_multiplicity
 _atom_site_fract_x
 _atom_site_fract_y
 _atom_site_fract_z
 _atom_site_occupancy
  Mn  Mn0  1  0.45359994  0.00857087  0.51018733  1
  Mn  Mn1  1  0.54372458  0.65602574  0.16320488  1
  Mn  Mn2  1  0.51928185  0.34285800  0.81905368  1
  Mn  Mn3  1  0.99268112  0.67099134  0.67276022  1
  Mn  Mn4  1  0.99657626  0.33635023  0.34504600  1
  Mn  Mn5  1  0.99440168  0.98227556  0.99301659  1
  O  O6  1  0.81020957  0.45236613  0.61476915  1
  O  O7  1  0.80697132  0.75991733  0.96491315  1
  O  O8  1  0.69528658  0.42915813  0.11854313  1
  O  O9  1  0.30333293  0.24295037  0.54548112  1
  O  O10  1  0.17411690  0.89407232  0.70932679  1
  F  F11  1  0.80238421  0.08310503  0.28995230  1
  F  F12  1  0.69592926  0.10609823  0.80097228  1
  F  F13  1  0.68439016  0.78458234  0.47334773  1
  F  F14  1  0.29803996  0.56035907  0.87147325  1
  F  F15  1  0.32042732  0.88385952  0.19156016  1
  F  F16  1  0.21468513  0.58540395  0.37048737  1
  F  F17  1  0.19396224  0.22105482  0.04590386  1
