# generated using pymatgen
data_Dy(Bi3O5)4
_symmetry_space_group_name_H-M   'P 1'
_cell_length_a   8.95875370
_cell_length_b   8.95875370
_cell_length_c   8.95875370
_cell_angle_alpha   109.47434450
_cell_angle_beta   109.49592094
_cell_angle_gamma   109.44340076
_symmetry_Int_Tables_number   1
_chemical_formula_structural   Dy(Bi3O5)4
_chemical_formula_sum   'Dy1 Bi12 O20'
_cell_volume   553.50405568
_cell_formula_units_Z   1
loop_
 _symmetry_equiv_pos_site_id
 _symmetry_equiv_pos_as_xyz
  1  'x, y, z'
loop_
 _atom_site_type_symbol
 _atom_site_label
 _atom_site_symmetry_multiplicity
 _atom_site_fract_x
 _atom_site_fract_y
 _atom_site_fract_z
 _atom_site_occupancy
  Dy  Dy0  1  0.00000000  0.00000000  0.00000000  1
  Bi  Bi1  1  0.83058423  0.32305596  0.14314620  1
  Bi  Bi2  1  0.49274810  0.16893911  0.31190289  1
  Bi  Bi3  1  0.85703622  0.18084421  0.68809711  1
  Bi  Bi4  1  0.31293466  0.49350919  0.16895265  1
  Bi  Bi5  1  0.68706534  0.85601799  0.18057553  1
  Bi  Bi6  1  0.82008924  0.67694404  0.50752727  1
  Bi  Bi7  1  0.16941577  0.31256197  0.49247273  1
  Bi  Bi8  1  0.67544246  0.50649081  0.81942447  1
  Bi  Bi9  1  0.32455754  0.14398201  0.83104735  1
  Bi  Bi10  1  0.50725190  0.81915579  0.67619201  1
  Bi  Bi11  1  0.14296378  0.83106089  0.32380799  1
  Bi  Bi12  1  0.17991076  0.68743803  0.85685380  1
  O  O13  1  0.33910524  0.00013941  0.99975785  1
  O  O14  1  0.73383917  0.11140655  0.35819044  1
  O  O15  1  0.88818956  0.62259551  0.24745278  1
  O  O16  1  0.62485727  0.37740449  0.26559305  1
  O  O17  1  0.24601864  0.24491868  0.24688341  1
  O  O18  1  0.75398136  0.00086577  0.99890004  1
  O  O19  1  0.75321611  0.37564873  0.64180956  1
  O  O20  1  0.00038256  0.33934739  0.00024215  1
  O  O21  1  0.37795271  0.26592499  0.62445724  1
  O  O22  1  0.62204729  0.24650453  0.88797229  1
  O  O23  1  0.35853224  0.73407501  0.11202771  1
  O  O24  1  0.64146776  0.75349547  0.37554276  1
  O  O25  1  0.66089476  0.66065261  0.66103417  1
  O  O26  1  0.26616083  0.62435127  0.37756738  1
  O  O27  1  0.99803527  0.99913423  0.75311659  1
  O  O28  1  0.00196473  0.75508132  0.00109996  1
  O  O29  1  0.11181044  0.35926422  0.73440695  1
  O  O30  1  0.37514273  0.64073578  0.75254722  1
  O  O31  1  0.24678389  0.88859345  0.62243262  1
  O  O32  1  0.99961744  0.99986059  0.33896583  1
