# generated using pymatgen
data_LiMn4(PO4)3
_symmetry_space_group_name_H-M   'P 1'
_cell_length_a   13.57957409
_cell_length_b   8.56627754
_cell_length_c   10.15987749
_cell_angle_alpha   90.00000000
_cell_angle_beta   90.00000000
_cell_angle_gamma   90.00000000
_symmetry_Int_Tables_number   1
_chemical_formula_structural   LiMn4(PO4)3
_chemical_formula_sum   'Li4 Mn16 P12 O48'
_cell_volume   1181.86197824
_cell_formula_units_Z   4
loop_
 _symmetry_equiv_pos_site_id
 _symmetry_equiv_pos_as_xyz
  1  'x, y, z'
loop_
 _atom_site_type_symbol
 _atom_site_label
 _atom_site_symmetry_multiplicity
 _atom_site_fract_x
 _atom_site_fract_y
 _atom_site_fract_z
 _atom_site_occupancy
  Li  Li0  1  0.25000000  0.75000000  0.70434481  1
  Li  Li1  1  0.25000000  0.75000000  0.20434481  1
  Li  Li2  1  0.75000000  0.25000000  0.29565519  1
  Li  Li3  1  0.75000000  0.25000000  0.79565519  1
  Mn  Mn4  1  0.04488154  0.09501834  0.18995727  1
  Mn  Mn5  1  0.04488154  0.40498166  0.68995727  1
  Mn  Mn6  1  0.14784214  0.41826325  0.99623501  1
  Mn  Mn7  1  0.14784214  0.08173675  0.49623501  1
  Mn  Mn8  1  0.35215786  0.41826325  0.49623501  1
  Mn  Mn9  1  0.35215786  0.08173675  0.99623501  1
  Mn  Mn10  1  0.45511846  0.09501834  0.68995727  1
  Mn  Mn11  1  0.45511846  0.40498166  0.18995727  1
  Mn  Mn12  1  0.54488154  0.59501834  0.81004273  1
  Mn  Mn13  1  0.54488154  0.90498166  0.31004273  1
  Mn  Mn14  1  0.64784214  0.58173675  0.50376499  1
  Mn  Mn15  1  0.64784214  0.91826325  0.00376499  1
  Mn  Mn16  1  0.85215786  0.58173675  0.00376499  1
  Mn  Mn17  1  0.85215786  0.91826325  0.50376499  1
  Mn  Mn18  1  0.95511846  0.59501834  0.31004273  1
  Mn  Mn19  1  0.95511846  0.90498166  0.81004273  1
  P  P20  1  0.07495879  0.75249082  0.07172374  1
  P  P21  1  0.07495879  0.74750918  0.57172374  1
  P  P22  1  0.25000000  0.25000000  0.25031650  1
  P  P23  1  0.25000000  0.25000000  0.75031650  1
  P  P24  1  0.42504121  0.74750918  0.07172374  1
  P  P25  1  0.42504121  0.75249082  0.57172374  1
  P  P26  1  0.57495879  0.24750918  0.42827626  1
  P  P27  1  0.57495879  0.25249082  0.92827626  1
  P  P28  1  0.75000000  0.75000000  0.24968350  1
  P  P29  1  0.75000000  0.75000000  0.74968350  1
  P  P30  1  0.92504121  0.24750918  0.92827626  1
  P  P31  1  0.92504121  0.25249082  0.42827626  1
  O  O32  1  0.01927620  0.15164007  0.39178007  1
  O  O33  1  0.01927620  0.34835993  0.89178007  1
  O  O34  1  0.05851395  0.66491584  0.43996089  1
  O  O35  1  0.05851395  0.83508416  0.93996089  1
  O  O36  1  0.09706962  0.86987215  0.18418418  1
  O  O37  1  0.09706962  0.63012785  0.68418418  1
  O  O38  1  0.16368118  0.63842495  0.06946083  1
  O  O39  1  0.16368118  0.86157505  0.56946083  1
  O  O40  1  0.15800857  0.26408043  0.15614411  1
  O  O41  1  0.15800857  0.23591957  0.65614411  1
  O  O42  1  0.23809859  0.10223325  0.33416355  1
  O  O43  1  0.23809859  0.39776675  0.83416355  1
  O  O44  1  0.26190141  0.10223325  0.83416355  1
  O  O45  1  0.26190141  0.39776675  0.33416355  1
  O  O46  1  0.34199143  0.26408043  0.65614411  1
  O  O47  1  0.34199143  0.23591957  0.15614411  1
  O  O48  1  0.33631882  0.86157505  0.06946083  1
  O  O49  1  0.33631882  0.63842495  0.56946083  1
  O  O50  1  0.40293038  0.86987215  0.68418418  1
  O  O51  1  0.40293038  0.63012785  0.18418418  1
  O  O52  1  0.44148605  0.83508416  0.43996089  1
  O  O53  1  0.44148605  0.66491584  0.93996089  1
  O  O54  1  0.48072380  0.34835993  0.39178007  1
  O  O55  1  0.48072380  0.15164007  0.89178007  1
  O  O56  1  0.51927620  0.65164007  0.60821993  1
  O  O57  1  0.51927620  0.84835993  0.10821993  1
  O  O58  1  0.55851395  0.16491584  0.56003911  1
  O  O59  1  0.55851395  0.33508416  0.06003911  1
  O  O60  1  0.59706962  0.13012785  0.31581582  1
  O  O61  1  0.59706962  0.36987215  0.81581582  1
  O  O62  1  0.66368118  0.13842495  0.93053917  1
  O  O63  1  0.66368118  0.36157505  0.43053917  1
  O  O64  1  0.65800857  0.73591957  0.34385589  1
  O  O65  1  0.65800857  0.76408043  0.84385589  1
  O  O66  1  0.73809859  0.60223325  0.66583645  1
  O  O67  1  0.73809859  0.89776675  0.16583645  1
  O  O68  1  0.76190141  0.60223325  0.16583645  1
  O  O69  1  0.76190141  0.89776675  0.66583645  1
  O  O70  1  0.84199143  0.73591957  0.84385589  1
  O  O71  1  0.84199143  0.76408043  0.34385589  1
  O  O72  1  0.83631882  0.13842495  0.43053917  1
  O  O73  1  0.83631882  0.36157505  0.93053917  1
  O  O74  1  0.90293038  0.13012785  0.81581582  1
  O  O75  1  0.90293038  0.36987215  0.31581582  1
  O  O76  1  0.94148605  0.16491584  0.06003911  1
  O  O77  1  0.94148605  0.33508416  0.56003911  1
  O  O78  1  0.98072380  0.65164007  0.10821993  1
  O  O79  1  0.98072380  0.84835993  0.60821993  1
