# generated using pymatgen
data_Li2Mn3(BO3)3
_symmetry_space_group_name_H-M   'P 1'
_cell_length_a   9.69958850
_cell_length_b   7.87541810
_cell_length_c   5.23711625
_cell_angle_alpha   88.13349346
_cell_angle_beta   103.88329716
_cell_angle_gamma   105.39977063
_symmetry_Int_Tables_number   1
_chemical_formula_structural   Li2Mn3(BO3)3
_chemical_formula_sum   'Li4 Mn6 B6 O18'
_cell_volume   374.21632248
_cell_formula_units_Z   2
loop_
 _symmetry_equiv_pos_site_id
 _symmetry_equiv_pos_as_xyz
  1  'x, y, z'
loop_
 _atom_site_type_symbol
 _atom_site_label
 _atom_site_symmetry_multiplicity
 _atom_site_fract_x
 _atom_site_fract_y
 _atom_site_fract_z
 _atom_site_occupancy
  Li  Li0  1  0.34985007  0.31187149  0.10179206  1
  Li  Li1  1  0.98347094  0.35475055  0.56492099  1
  Li  Li2  1  0.64200038  0.66846271  0.91034627  1
  Li  Li3  1  0.69128365  0.99826684  0.75619510  1
  Mn  Mn4  1  0.16823583  0.07794276  0.68279783  1
  Mn  Mn5  1  0.50478261  0.24199895  0.64425620  1
  Mn  Mn6  1  0.16509301  0.58856483  0.98407720  1
  Mn  Mn7  1  0.82842940  0.42467701  0.02211313  1
  Mn  Mn8  1  0.49121754  0.75273252  0.34301479  1
  Mn  Mn9  1  0.84218616  0.91396092  0.32387804  1
  B  B10  1  0.05817251  0.20573435  0.12301280  1
  B  B11  1  0.61282404  0.14208445  0.20699787  1
  B  B12  1  0.27542702  0.46050437  0.54393470  1
  B  B13  1  0.72070154  0.52467344  0.45936680  1
  B  B14  1  0.40022258  0.86524130  0.79933194  1
  B  B15  1  0.93335663  0.80138935  0.86670192  1
  O  O16  1  0.00169759  0.33394616  0.96688052  1
  O  O17  1  0.01268428  0.15974907  0.35681677  1
  O  O18  1  0.15907736  0.13797418  0.05477362  1
  O  O19  1  0.66359025  0.18414727  0.97307877  1
  O  O20  1  0.66055045  0.01185446  0.36369458  1
  O  O21  1  0.33139694  0.33279961  0.69953542  1
  O  O22  1  0.51572673  0.22378231  0.26398864  1
  O  O23  1  0.17391380  0.52896629  0.61219075  1
  O  O24  1  0.32077934  0.50700116  0.30972914  1
  O  O25  1  0.66991192  0.48268314  0.69368544  1
  O  O26  1  0.81760832  0.44301398  0.40256043  1
  O  O27  1  0.50766469  0.80009601  0.73956851  1
  O  O28  1  0.67283489  0.65471320  0.30296108  1
  O  O29  1  0.35631037  0.00434348  0.66183116  1
  O  O30  1  0.34128298  0.80263897  0.01321430  1
  O  O31  1  0.82569759  0.86660967  0.92698892  1
  O  O32  1  0.99188152  0.86365571  0.65452737  1
  O  O33  1  0.97680508  0.66250253  0.00456791  1
