# generated using pymatgen
data_Li2FeO2F
_symmetry_space_group_name_H-M   'P 1'
_cell_length_a   5.15260951
_cell_length_b   5.16357018
_cell_length_c   9.86945639
_cell_angle_alpha   85.06021891
_cell_angle_beta   99.93807264
_cell_angle_gamma   119.92981321
_symmetry_Int_Tables_number   1
_chemical_formula_structural   Li2FeO2F
_chemical_formula_sum   'Li8 Fe4 O8 F4'
_cell_volume   224.15161101
_cell_formula_units_Z   4
loop_
 _symmetry_equiv_pos_site_id
 _symmetry_equiv_pos_as_xyz
  1  'x, y, z'
loop_
 _atom_site_type_symbol
 _atom_site_label
 _atom_site_symmetry_multiplicity
 _atom_site_fract_x
 _atom_site_fract_y
 _atom_site_fract_z
 _atom_site_occupancy
  Li  Li0  1  0.16619672  0.81885037  0.49651158  1
  Li  Li1  1  0.01049223  0.49383780  0.99947172  1
  Li  Li2  1  0.09132871  0.18265743  0.25000000  1
  Li  Li3  1  0.65265365  0.81885037  0.00348842  1
  Li  Li4  1  0.48334557  0.49383780  0.50052828  1
  Li  Li5  1  0.33715902  0.19374220  0.00702580  1
  Li  Li6  1  0.74284369  0.48568837  0.25000000  1
  Li  Li7  1  0.85658318  0.19374220  0.49297420  1
  Fe  Fe8  1  0.25197564  0.50395128  0.75000000  1
  Fe  Fe9  1  0.38873388  0.77746775  0.25000000  1
  Fe  Fe10  1  0.58479662  0.16959225  0.75000000  1
  Fe  Fe11  1  0.91874582  0.83749164  0.75000000  1
  O  O12  1  0.28899943  0.83679773  0.86494780  1
  O  O13  1  0.13331287  0.51228286  0.36968988  1
  O  O14  1  0.21381501  0.17027347  0.63361038  1
  O  O15  1  0.54779830  0.83679773  0.63505220  1
  O  O16  1  0.37896999  0.51228286  0.13031012  1
  O  O17  1  0.62463758  0.50307513  0.86654972  1
  O  O18  1  0.87843756  0.50307513  0.63345028  1
  O  O19  1  0.95645846  0.17027347  0.86638962  1
  F  F20  1  0.05110857  0.84009326  0.12829672  1
  F  F21  1  0.45971356  0.15262383  0.36871962  1
  F  F22  1  0.78898469  0.84009326  0.37170328  1
  F  F23  1  0.69291027  0.15262383  0.13128038  1
