# generated using pymatgen
data_Mn12O5F19
_symmetry_space_group_name_H-M   'P 1'
_cell_length_a   4.89131521
_cell_length_b   5.85017530
_cell_length_c   15.94796071
_cell_angle_alpha   90.22670143
_cell_angle_beta   90.21336447
_cell_angle_gamma   87.72854727
_symmetry_Int_Tables_number   1
_chemical_formula_structural   Mn12O5F19
_chemical_formula_sum   'Mn12 O5 F19'
_cell_volume   455.98666981
_cell_formula_units_Z   1
loop_
 _symmetry_equiv_pos_site_id
 _symmetry_equiv_pos_as_xyz
  1  'x, y, z'
loop_
 _atom_site_type_symbol
 _atom_site_label
 _atom_site_symmetry_multiplicity
 _atom_site_fract_x
 _atom_site_fract_y
 _atom_site_fract_z
 _atom_site_occupancy
  Mn  Mn0  1  0.01455228  0.14510824  0.41835194  1
  Mn  Mn1  1  0.97947574  0.81073230  0.24228974  1
  Mn  Mn2  1  0.98770839  0.17461320  0.07965245  1
  Mn  Mn3  1  0.01466687  0.14986215  0.75237504  1
  Mn  Mn4  1  0.02744262  0.83508730  0.58192042  1
  Mn  Mn5  1  0.01330951  0.83220146  0.90972864  1
  Mn  Mn6  1  0.49515559  0.35321329  0.58588190  1
  Mn  Mn7  1  0.51142512  0.34416211  0.92279347  1
  Mn  Mn8  1  0.50683263  0.34499442  0.24978835  1
  Mn  Mn9  1  0.52876602  0.64634234  0.08612294  1
  Mn  Mn10  1  0.48992101  0.67879157  0.42123529  1
  Mn  Mn11  1  0.46937745  0.67192389  0.74582329  1
  O  O12  1  0.21717731  0.88624314  0.47896359  1
  O  O13  1  0.22090411  0.88023748  0.80129191  1
  O  O14  1  0.28419546  0.62706696  0.63989961  1
  O  O15  1  0.72029918  0.39854023  0.02837695  1
  O  O16  1  0.70797268  0.59688253  0.19165466  1
  F  F17  1  0.23574543  0.10932488  0.30197166  1
  F  F18  1  0.23265224  0.12867425  0.64229844  1
  F  F19  1  0.22797155  0.11534593  0.97016772  1
  F  F20  1  0.24373495  0.88043490  0.13271634  1
  F  F21  1  0.24840160  0.38276504  0.14331513  1
  F  F22  1  0.25937988  0.60915715  0.31018685  1
  F  F23  1  0.27137299  0.38627085  0.47125080  1
  F  F24  1  0.26802605  0.38353894  0.81488639  1
  F  F25  1  0.28191387  0.62425238  0.98067668  1
  F  F26  1  0.73555264  0.39027791  0.36530017  1
  F  F27  1  0.74035238  0.60353819  0.52702764  1
  F  F28  1  0.70549861  0.62685246  0.85293210  1
  F  F29  1  0.72856821  0.39119911  0.70276778  1
  F  F30  1  0.76723217  0.09810730  0.19192172  1
  F  F31  1  0.76973663  0.10454371  0.53347540  1
  F  F32  1  0.76331629  0.89508279  0.35878602  1
  F  F33  1  0.77736092  0.89382318  0.02089904  1
  F  F34  1  0.76966121  0.11879523  0.85859961  1
  F  F35  1  0.78434040  0.88201024  0.68466930  1
