# generated using pymatgen
data_KNa2Li3Zr2(Si2O5)6
_symmetry_space_group_name_H-M   'P 1'
_cell_length_a   10.46747230
_cell_length_b   10.46820329
_cell_length_c   14.26997026
_cell_angle_alpha   89.99354317
_cell_angle_beta   89.99653569
_cell_angle_gamma   120.00590881
_symmetry_Int_Tables_number   1
_chemical_formula_structural   KNa2Li3Zr2(Si2O5)6
_chemical_formula_sum   'K2 Na4 Li6 Zr4 Si24 O60'
_cell_volume   1354.07213219
_cell_formula_units_Z   2
loop_
 _symmetry_equiv_pos_site_id
 _symmetry_equiv_pos_as_xyz
  1  'x, y, z'
loop_
 _atom_site_type_symbol
 _atom_site_label
 _atom_site_symmetry_multiplicity
 _atom_site_fract_x
 _atom_site_fract_y
 _atom_site_fract_z
 _atom_site_occupancy
  K  K0  1  0.00014095  0.00028252  0.25004919  1
  K  K1  1  0.99974133  0.00014971  0.74994652  1
  Na  Na2  1  0.33309094  0.66664506  0.00105806  1
  Na  Na3  1  0.33344446  0.66654090  0.49894121  1
  Na  Na4  1  0.66658487  0.33294324  0.99746320  1
  Na  Na5  1  0.66708543  0.33381139  0.50252312  1
  Li  Li6  1  0.99967585  0.49983566  0.24999788  1
  Li  Li7  1  0.00023227  0.49993414  0.75003107  1
  Li  Li8  1  0.50015849  0.49982116  0.25001285  1
  Li  Li9  1  0.49955491  0.50013606  0.74985290  1
  Li  Li10  1  0.50021446  0.00042123  0.25002326  1
  Li  Li11  1  0.49979741  0.99955047  0.75007906  1
  Zr  Zr12  1  0.33336417  0.66669983  0.24998356  1
  Zr  Zr13  1  0.33327947  0.66667490  0.75002934  1
  Zr  Zr14  1  0.66668068  0.33336318  0.24999584  1
  Zr  Zr15  1  0.66652632  0.33333636  0.74999127  1
  Si  Si16  1  0.10825057  0.76223445  0.38900473  1
  Si  Si17  1  0.10822914  0.76200770  0.61061468  1
  Si  Si18  1  0.23775113  0.89187198  0.11102334  1
  Si  Si19  1  0.23786695  0.89182660  0.88939738  1
  Si  Si20  1  0.10817276  0.34595036  0.11105416  1
  Si  Si21  1  0.10804686  0.34607314  0.88948934  1
  Si  Si22  1  0.23784657  0.34593798  0.38897028  1
  Si  Si23  1  0.23805944  0.34615208  0.61058247  1
  Si  Si24  1  0.65409043  0.89184997  0.38894383  1
  Si  Si25  1  0.65391347  0.89190949  0.61050714  1
  Si  Si26  1  0.34614516  0.23792511  0.11093351  1
  Si  Si27  1  0.34589848  0.23784489  0.88936292  1
  Si  Si28  1  0.65397453  0.76216648  0.11098838  1
  Si  Si29  1  0.65369569  0.76189766  0.88943394  1
  Si  Si30  1  0.34614035  0.10816418  0.61070876  1
  Si  Si31  1  0.34623529  0.10827137  0.38912887  1
  Si  Si32  1  0.76218010  0.65395713  0.38905806  1
  Si  Si33  1  0.76222621  0.65416860  0.61067688  1
  Si  Si34  1  0.89173412  0.65388451  0.88927021  1
  Si  Si35  1  0.89169386  0.65381333  0.11085591  1
  Si  Si36  1  0.76208052  0.10817830  0.11094178  1
  Si  Si37  1  0.76200744  0.10802096  0.88936117  1
  Si  Si38  1  0.89181420  0.23792370  0.38905867  1
  Si  Si39  1  0.89192828  0.23793065  0.61064187  1
  O  O40  1  0.05999431  0.78845994  0.13061446  1
  O  O41  1  0.05997813  0.78900788  0.86966450  1
  O  O42  1  0.21158448  0.94001395  0.36940012  1
  O  O43  1  0.21100002  0.93990503  0.63025801  1
  O  O44  1  0.13079244  0.73105395  0.49984804  1
  O  O45  1  0.26892786  0.86939130  0.00017826  1
  O  O46  1  0.14909605  0.66189864  0.32556999  1
  O  O47  1  0.14913330  0.66165472  0.67417217  1
  O  O48  1  0.14904847  0.48712719  0.17454041  1
  O  O49  1  0.14908715  0.48731603  0.82582695  1
  O  O50  1  0.06013303  0.27154498  0.36930463  1
  O  O51  1  0.06018566  0.27099885  0.63025538  1
  O  O52  1  0.33809877  0.85107300  0.17450097  1
  O  O53  1  0.33818200  0.85080612  0.82588234  1
  O  O54  1  0.13061972  0.39971126  0.00023283  1
  O  O55  1  0.26917001  0.39962089  0.49980025  1
  O  O56  1  0.51292138  0.85100235  0.32543152  1
  O  O57  1  0.51264968  0.85086001  0.67416039  1
  O  O58  1  0.21152558  0.27157917  0.13067826  1
  O  O59  1  0.21069331  0.27085397  0.86990636  1
  O  O60  1  0.33823117  0.48751154  0.67408012  1
  O  O61  1  0.33819783  0.48714373  0.32553125  1
  O  O62  1  0.51283725  0.66182348  0.17450659  1
  O  O63  1  0.51248444  0.66167648  0.82580118  1
  O  O64  1  0.60023745  0.86926525  0.49976045  1
  O  O65  1  0.27090397  0.21075502  0.36940450  1
  O  O66  1  0.27191621  0.21162628  0.63050029  1
  O  O67  1  0.60005072  0.73082562  0.00018402  1
  O  O68  1  0.72848458  0.93989568  0.13064645  1
  O  O69  1  0.72904618  0.93978322  0.86981417  1
  O  O70  1  0.27084101  0.06006764  0.13066201  1
  O  O71  1  0.27160191  0.06014796  0.86955093  1
  O  O72  1  0.39967343  0.26881207  0.00007649  1
  O  O73  1  0.72859385  0.78860625  0.36930359  1
  O  O74  1  0.72937298  0.78946622  0.63014676  1
  O  O75  1  0.39980622  0.13090838  0.49997630  1
  O  O76  1  0.48743535  0.33836361  0.17432549  1
  O  O77  1  0.48722418  0.33842615  0.82587931  1
  O  O78  1  0.66162563  0.51255014  0.32577083  1
  O  O79  1  0.66157222  0.51275911  0.67404954  1
  O  O80  1  0.78912047  0.72901584  0.13052057  1
  O  O81  1  0.78827446  0.72810951  0.86958664  1
  O  O82  1  0.48757249  0.14914359  0.32577818  1
  O  O83  1  0.48747771  0.14894390  0.67409868  1
  O  O84  1  0.73130324  0.60057708  0.49994265  1
  O  O85  1  0.86916065  0.60027160  0.00000770  1
  O  O86  1  0.66159522  0.14908626  0.17426817  1
  O  O87  1  0.66152262  0.14893373  0.82596529  1
  O  O88  1  0.93998917  0.72903906  0.36932924  1
  O  O89  1  0.93993814  0.72830063  0.63049630  1
  O  O90  1  0.85085414  0.51247973  0.17420769  1
  O  O91  1  0.85082328  0.51248710  0.82590152  1
  O  O92  1  0.85092732  0.33839824  0.32572132  1
  O  O93  1  0.85090460  0.33834074  0.67403158  1
  O  O94  1  0.73100223  0.13059403  0.00009429  1
  O  O95  1  0.86938801  0.26897513  0.49990748  1
  O  O96  1  0.78917252  0.06012460  0.36934360  1
  O  O97  1  0.78855519  0.06024408  0.63033312  1
  O  O98  1  0.93989392  0.21088314  0.13067996  1
  O  O99  1  0.93970719  0.21155152  0.86960530  1
