# generated using pymatgen
data_Mn3(OF2)2
_symmetry_space_group_name_H-M   'P 1'
_cell_length_a   7.28754739
_cell_length_b   5.80106024
_cell_length_c   5.73463885
_cell_angle_alpha   73.98941115
_cell_angle_beta   73.87790745
_cell_angle_gamma   74.32385071
_symmetry_Int_Tables_number   1
_chemical_formula_structural   Mn3(OF2)2
_chemical_formula_sum   'Mn6 O4 F8'
_cell_volume   218.89026951
_cell_formula_units_Z   2
loop_
 _symmetry_equiv_pos_site_id
 _symmetry_equiv_pos_as_xyz
  1  'x, y, z'
loop_
 _atom_site_type_symbol
 _atom_site_label
 _atom_site_symmetry_multiplicity
 _atom_site_fract_x
 _atom_site_fract_y
 _atom_site_fract_z
 _atom_site_occupancy
  Mn  Mn0  1  0.83760092  0.66887048  0.70222553  1
  Mn  Mn1  1  0.67118763  0.35889965  0.31318415  1
  Mn  Mn2  1  0.31621605  0.64799195  0.65316781  1
  Mn  Mn3  1  0.16602411  0.33318346  0.32580646  1
  Mn  Mn4  1  0.50615144  0.98023076  0.99547029  1
  Mn  Mn5  1  0.00075231  0.99920880  0.01050395  1
  O  O6  1  0.96501701  0.24104395  0.22316159  1
  O  O7  1  0.03339600  0.76357193  0.78987193  1
  O  O8  1  0.36948116  0.43665072  0.41561210  1
  O  O9  1  0.67078454  0.64798399  0.02840425  1
  F  F10  1  0.66443244  0.05730763  0.61764248  1
  F  F11  1  0.34074117  0.33634616  0.96862398  1
  F  F12  1  0.30123233  0.87809990  0.89250065  1
  F  F13  1  0.62743583  0.58374871  0.58467106  1
  F  F14  1  0.70348792  0.10208604  0.09132717  1
  F  F15  1  0.33128890  0.97043147  0.36130677  1
  F  F16  1  0.00570708  0.29692335  0.68963240  1
  F  F17  1  0.98906317  0.69742003  0.33688744  1
