# generated using pymatgen
data_Mn4O7F
_symmetry_space_group_name_H-M   'P 1'
_cell_length_a   4.46117932
_cell_length_b   7.39932220
_cell_length_c   7.39932220
_cell_angle_alpha   95.33595091
_cell_angle_beta   90.10982392
_cell_angle_gamma   90.10982392
_symmetry_Int_Tables_number   1
_chemical_formula_structural   Mn4O7F
_chemical_formula_sum   'Mn8 O14 F2'
_cell_volume   243.19000054
_cell_formula_units_Z   2
loop_
 _symmetry_equiv_pos_site_id
 _symmetry_equiv_pos_as_xyz
  1  'x, y, z'
loop_
 _atom_site_type_symbol
 _atom_site_label
 _atom_site_symmetry_multiplicity
 _atom_site_fract_x
 _atom_site_fract_y
 _atom_site_fract_z
 _atom_site_occupancy
  Mn  Mn0  1  0.52305823  0.68704216  0.05045166  1
  Mn  Mn1  1  0.50000000  0.30044347  0.94955653  1
  Mn  Mn2  1  0.47694177  0.19954834  0.56295784  1
  Mn  Mn3  1  0.50000000  0.80407911  0.44592089  1
  Mn  Mn4  1  0.98574564  0.94942415  0.78955688  1
  Mn  Mn5  1  0.00000000  0.55259986  0.69740014  1
  Mn  Mn6  1  0.01425436  0.46044312  0.30057585  1
  Mn  Mn7  1  0.00000000  0.05095203  0.19904797  1
  O  O8  1  0.76858707  0.09200185  0.98054766  1
  O  O9  1  0.77528194  0.73088043  0.84602136  1
  O  O10  1  0.76834895  0.59718738  0.48239463  1
  O  O11  1  0.72817933  0.34354469  0.73507053  1
  O  O12  1  0.72446781  0.98745772  0.59238865  1
  O  O13  1  0.74069172  0.47958247  0.09454313  1
  O  O14  1  0.73472279  0.84215307  0.23269109  1
  O  O15  1  0.25930828  0.15545687  0.77041753  1
  O  O16  1  0.27553219  0.65761135  0.26254228  1
  O  O17  1  0.27182067  0.51492947  0.90645531  1
  O  O18  1  0.26527721  0.01730891  0.40784693  1
  O  O19  1  0.22471806  0.40397864  0.51911957  1
  O  O20  1  0.23141293  0.26945234  0.15799815  1
  O  O21  1  0.23165105  0.76760537  0.65281262  1
  F  F22  1  0.74017175  0.24400135  0.35768515  1
  F  F23  1  0.25982825  0.89231485  0.00599865  1
