# generated using pymatgen
data_LiMnPO4
_symmetry_space_group_name_H-M   'P 1'
_cell_length_a   9.88533474
_cell_length_b   9.88533416
_cell_length_c   22.48206637
_cell_angle_alpha   90.00000000
_cell_angle_beta   90.00000000
_cell_angle_gamma   120.00000349
_symmetry_Int_Tables_number   1
_chemical_formula_structural   LiMnPO4
_chemical_formula_sum   'Li24 Mn24 P24 O96'
_cell_volume   1902.60913196
_cell_formula_units_Z   24
loop_
 _symmetry_equiv_pos_site_id
 _symmetry_equiv_pos_as_xyz
  1  'x, y, z'
loop_
 _atom_site_type_symbol
 _atom_site_label
 _atom_site_symmetry_multiplicity
 _atom_site_fract_x
 _atom_site_fract_y
 _atom_site_fract_z
 _atom_site_occupancy
  Li  Li0  1  0.14871198  0.83157008  0.67878412  1
  Li  Li1  1  0.18387946  0.87999955  0.01056220  1
  Li  Li2  1  0.17982542  0.79046987  0.37569681  1
  Li  Li3  1  0.12000045  0.30387990  0.67722820  1
  Li  Li4  1  0.33076752  0.67597434  0.81895980  1
  Li  Li5  1  0.32402566  0.65479319  0.48562580  1
  Li  Li6  1  0.34520681  0.66923248  0.15229280  1
  Li  Li7  1  0.16842992  0.31714190  0.34545112  1
  Li  Li8  1  0.20953013  0.38935555  0.04236281  1
  Li  Li9  1  0.61064445  0.82017458  0.70902981  1
  Li  Li10  1  0.30387990  0.18387946  0.84389520  1
  Li  Li11  1  0.31714190  0.14871198  0.51211712  1
  Li  Li12  1  0.68285810  0.85128802  0.01211712  1
  Li  Li13  1  0.69612010  0.81612054  0.34389520  1
  Li  Li14  1  0.38935555  0.17982542  0.20902981  1
  Li  Li15  1  0.79046987  0.61064445  0.54236281  1
  Li  Li16  1  0.83157008  0.68285810  0.84545112  1
  Li  Li17  1  0.65479319  0.33076752  0.65229280  1
  Li  Li18  1  0.67597434  0.34520681  0.98562680  1
  Li  Li19  1  0.66923248  0.32402566  0.31895980  1
  Li  Li20  1  0.87999955  0.69612010  0.17722820  1
  Li  Li21  1  0.82017458  0.20953013  0.87569681  1
  Li  Li22  1  0.81612054  0.12000045  0.51056220  1
  Li  Li23  1  0.85128802  0.16842992  0.17878412  1
  Mn  Mn24  1  0.00506992  0.96245581  0.41993976  1
  Mn  Mn25  1  0.05163487  0.55280413  0.91308966  1
  Mn  Mn26  1  0.04028635  0.50687326  0.25149977  1
  Mn  Mn27  1  0.02006543  0.48209093  0.59015417  1
  Mn  Mn28  1  0.46202550  0.97993457  0.92348817  1
  Mn  Mn29  1  0.46658691  0.95971365  0.58483277  1
  Mn  Mn30  1  0.03754419  0.04261311  0.08660576  1
  Mn  Mn31  1  0.50116926  0.94836513  0.24642366  1
  Mn  Mn32  1  0.04261311  0.00506992  0.25327276  1
  Mn  Mn33  1  0.44719587  0.49883074  0.57975666  1
  Mn  Mn34  1  0.49312674  0.53341309  0.91816677  1
  Mn  Mn35  1  0.51790907  0.53797450  0.25682117  1
  Mn  Mn36  1  0.48209093  0.46202550  0.75682117  1
  Mn  Mn37  1  0.50687326  0.46658691  0.41816677  1
  Mn  Mn38  1  0.55280413  0.50116926  0.07975666  1
  Mn  Mn39  1  0.95738689  0.99493008  0.75327276  1
  Mn  Mn40  1  0.49883074  0.05163487  0.74642366  1
  Mn  Mn41  1  0.96245581  0.95738689  0.58660576  1
  Mn  Mn42  1  0.53341309  0.04028635  0.08483277  1
  Mn  Mn43  1  0.53797450  0.02006543  0.42348817  1
  Mn  Mn44  1  0.97993457  0.51790907  0.09015417  1
  Mn  Mn45  1  0.95971365  0.49312674  0.75149977  1
  Mn  Mn46  1  0.94836513  0.44719587  0.41308966  1
  Mn  Mn47  1  0.99493008  0.03754419  0.91993976  1
  P  P48  1  0.16969170  0.85715169  0.81475662  1
  P  P49  1  0.12797650  0.77611303  0.50695666  1
  P  P50  1  0.21335018  0.87996076  0.14675086  1
  P  P51  1  0.12003924  0.33339041  0.81341686  1
  P  P52  1  0.32609076  0.68942425  0.01211931  1
  P  P53  1  0.14284831  0.31254001  0.48142362  1
  P  P54  1  0.31057575  0.63666651  0.67878531  1
  P  P55  1  0.36333349  0.67390924  0.34545231  1
  P  P56  1  0.22388697  0.35186347  0.17362366  1
  P  P57  1  0.64813653  0.87202350  0.84028966  1
  P  P58  1  0.33339041  0.21335018  0.98008386  1
  P  P59  1  0.31254001  0.16969170  0.64809062  1
  P  P60  1  0.68745999  0.83030830  0.14809062  1
  P  P61  1  0.66660959  0.78664982  0.48008386  1
  P  P62  1  0.35186347  0.12797650  0.34028966  1
  P  P63  1  0.77611303  0.64813653  0.67362366  1
  P  P64  1  0.63666651  0.32609076  0.84545231  1
  P  P65  1  0.68942425  0.36333349  0.17878631  1
  P  P66  1  0.85715169  0.68745999  0.98142362  1
  P  P67  1  0.67390924  0.31057575  0.51211931  1
  P  P68  1  0.87996076  0.66660959  0.31341686  1
  P  P69  1  0.78664982  0.12003924  0.64675086  1
  P  P70  1  0.87202350  0.22388697  0.00695666  1
  P  P71  1  0.83030830  0.14284831  0.31475662  1
  O  O72  1  0.01737979  0.70076022  0.80130789  1
  O  O73  1  0.12260240  0.97472563  0.84080841  1
  O  O74  1  0.01244439  0.67863584  0.55750003  1
  O  O75  1  0.12538665  0.93223772  0.49818407  1
  O  O76  1  0.17736850  0.99179122  0.18323823  1
  O  O77  1  0.05996842  0.72706829  0.13463864  1
  O  O78  1  0.07482496  0.67872561  0.44875267  1
  O  O79  1  0.25603927  0.92182952  0.75473263  1
  O  O80  1  0.28547236  0.96336919  0.08674325  1
  O  O81  1  0.14672921  0.62699496  0.67791982  1
  O  O82  1  0.20701191  0.71153928  0.97415583  1
  O  O83  1  0.27956174  0.83138274  0.85725109  1
  O  O84  1  0.20687559  0.64678178  0.31873276  1
  O  O85  1  0.29404833  0.81151244  0.52424691  1
  O  O86  1  0.03663081  0.32210317  0.75340925  1
  O  O87  1  0.33532059  0.85104405  0.17937687  1
  O  O88  1  0.14895595  0.48427753  0.84604387  1
  O  O89  1  0.00820878  0.18557728  0.84990423  1
  O  O90  1  0.07817048  0.33421075  0.42139963  1
  O  O91  1  0.02527437  0.14787777  0.50747541  1
  O  O92  1  0.25563978  0.63577643  0.07438416  1
  O  O93  1  0.06776228  0.19314892  0.16485007  1
  O  O94  1  0.16861726  0.44817900  0.52391809  1
  O  O95  1  0.18848756  0.48253589  0.19091291  1
  O  O96  1  0.38013665  0.74436022  0.40771716  1
  O  O97  1  0.28846072  0.49547263  0.64082183  1
  O  O98  1  0.36422357  0.61986335  0.74105016  1
  O  O99  1  0.35321822  0.56009381  0.98539976  1
  O  O100  1  0.43990619  0.79312441  0.65206676  1
  O  O101  1  0.48026575  0.85327079  0.01125282  1
  O  O102  1  0.37300504  0.51973425  0.34458682  1
  O  O103  1  0.14787777  0.12260240  0.67414241  1
  O  O104  1  0.18557728  0.17736850  0.01657123  1
  O  O105  1  0.27293171  0.33290013  0.80130464  1
  O  O106  1  0.32127439  0.39609935  0.11541867  1
  O  O107  1  0.50452737  0.79298809  0.30748883  1
  O  O108  1  0.19314892  0.12538665  0.33151707  1
  O  O109  1  0.29923978  0.31661957  0.46797389  1
  O  O110  1  0.32136416  0.33380755  0.22416603  1
  O  O111  1  0.51746411  0.70595167  0.85757991  1
  O  O112  1  0.60390065  0.92517504  0.78208567  1
  O  O113  1  0.55182100  0.72043826  0.19058409  1
  O  O114  1  0.32210317  0.28547236  0.92007625  1
  O  O115  1  0.66619245  0.98755561  0.89083303  1
  O  O116  1  0.51572247  0.66467941  0.51271087  1
  O  O117  1  0.33421075  0.25603927  0.58806663  1
  O  O118  1  0.66709987  0.94003158  0.46797164  1
  O  O119  1  0.68338043  0.98262021  0.13464089  1
  O  O120  1  0.31661957  0.01737979  0.63464089  1
  O  O121  1  0.33290013  0.05996842  0.96797164  1
  O  O122  1  0.66578925  0.74396073  0.08806663  1
  O  O123  1  0.48427753  0.33532059  0.01271087  1
  O  O124  1  0.33380755  0.01244439  0.39083303  1
  O  O125  1  0.67789683  0.71452764  0.42007625  1
  O  O126  1  0.44817900  0.27956174  0.69058409  1
  O  O127  1  0.39609935  0.07482496  0.28208567  1
  O  O128  1  0.48253589  0.29404833  0.35757991  1
  O  O129  1  0.67863584  0.66619245  0.72416603  1
  O  O130  1  0.70076022  0.68338043  0.96797389  1
  O  O131  1  0.80685108  0.87461335  0.83151707  1
  O  O132  1  0.49547263  0.20701191  0.80748883  1
  O  O133  1  0.67872561  0.60390065  0.61541867  1
  O  O134  1  0.72706829  0.66709987  0.30130464  1
  O  O135  1  0.81442272  0.82263150  0.51657123  1
  O  O136  1  0.85212223  0.87739760  0.17414241  1
  O  O137  1  0.62699496  0.48026575  0.84458682  1
  O  O138  1  0.51973425  0.14672921  0.51125282  1
  O  O139  1  0.56009381  0.20687559  0.15206676  1
  O  O140  1  0.64678178  0.43990619  0.48539976  1
  O  O141  1  0.63577643  0.38013665  0.24105016  1
  O  O142  1  0.71153928  0.50452737  0.14082183  1
  O  O143  1  0.61986335  0.25563978  0.90771716  1
  O  O144  1  0.81151244  0.51746411  0.69091291  1
  O  O145  1  0.83138274  0.55182100  0.02391809  1
  O  O146  1  0.93223772  0.80685108  0.66485007  1
  O  O147  1  0.74436022  0.36422357  0.57438416  1
  O  O148  1  0.97472563  0.85212223  0.00747541  1
  O  O149  1  0.92182952  0.66578925  0.92139963  1
  O  O150  1  0.99179122  0.81442272  0.34990423  1
  O  O151  1  0.85104405  0.51572247  0.34604387  1
  O  O152  1  0.66467941  0.14895595  0.67937687  1
  O  O153  1  0.96336919  0.67789683  0.25340925  1
  O  O154  1  0.70595167  0.18848756  0.02424691  1
  O  O155  1  0.79312441  0.35321822  0.81873276  1
  O  O156  1  0.72043826  0.16861726  0.35725109  1
  O  O157  1  0.79298809  0.28846072  0.47415583  1
  O  O158  1  0.85327079  0.37300504  0.17791982  1
  O  O159  1  0.71452764  0.03663081  0.58674325  1
  O  O160  1  0.74396073  0.07817048  0.25473263  1
  O  O161  1  0.92517504  0.32127439  0.94875267  1
  O  O162  1  0.94003158  0.27293171  0.63463864  1
  O  O163  1  0.82263150  0.00820878  0.68323823  1
  O  O164  1  0.87461335  0.06776228  0.99818407  1
  O  O165  1  0.98755561  0.32136416  0.05750003  1
  O  O166  1  0.87739760  0.02527437  0.34080841  1
  O  O167  1  0.98262021  0.29923978  0.30130789  1
