# generated using pymatgen
data_Li4CrF6
_symmetry_space_group_name_H-M   'P 1'
_cell_length_a   8.78846390
_cell_length_b   8.78846421
_cell_length_c   10.46290569
_cell_angle_alpha   93.25616635
_cell_angle_beta   93.25616509
_cell_angle_gamma   62.50369573
_symmetry_Int_Tables_number   1
_chemical_formula_structural   Li4CrF6
_chemical_formula_sum   'Li24 Cr6 F36'
_cell_volume   715.25528416
_cell_formula_units_Z   6
loop_
 _symmetry_equiv_pos_site_id
 _symmetry_equiv_pos_as_xyz
  1  'x, y, z'
loop_
 _atom_site_type_symbol
 _atom_site_label
 _atom_site_symmetry_multiplicity
 _atom_site_fract_x
 _atom_site_fract_y
 _atom_site_fract_z
 _atom_site_occupancy
  Li  Li0  1  0.97061289  0.70321781  0.28398731  1
  Li  Li1  1  0.94682846  0.65583345  0.04161160  1
  Li  Li2  1  0.99822378  0.33860906  0.27812049  1
  Li  Li3  1  0.68982579  0.98824388  0.77757295  1
  Li  Li4  1  0.66201998  0.93888630  0.53456919  1
  Li  Li5  1  0.84616433  0.46738611  0.51650156  1
  Li  Li6  1  0.80185557  0.19814543  0.25000100  1
  Li  Li7  1  0.46733335  0.86257938  0.01769528  1
  Li  Li8  1  0.67453002  0.36951255  0.02021335  1
  Li  Li9  1  0.82109758  0.17890242  0.75000000  1
  Li  Li10  1  0.63048745  0.32546998  0.47978665  1
  Li  Li11  1  0.66139094  0.00177622  0.22187951  1
  Li  Li12  1  0.29457824  0.96926526  0.77121448  1
  Li  Li13  1  0.48912277  0.51087723  0.75000000  1
  Li  Li14  1  0.35749957  0.68456028  0.52201326  1
  Li  Li15  1  0.20364971  0.79635029  0.25000000  1
  Li  Li16  1  0.31543972  0.64250043  0.97798674  1
  Li  Li17  1  0.53261389  0.15383567  0.98349844  1
  Li  Li18  1  0.13742062  0.53266665  0.48230472  1
  Li  Li19  1  0.34416655  0.05317154  0.45838840  1
  Li  Li20  1  0.29678019  0.02938611  0.21601269  1
  Li  Li21  1  0.03073474  0.70542176  0.72878552  1
  Li  Li22  1  0.06111370  0.33798002  0.96543081  1
  Li  Li23  1  0.01175512  0.31017921  0.72242705  1
  Cr  Cr24  1  0.64877779  0.66096176  0.28519074  1
  Cr  Cr25  1  0.68375370  0.66479197  0.78908030  1
  Cr  Cr26  1  0.33903824  0.35122221  0.21480926  1
  Cr  Cr27  1  0.33520803  0.31624630  0.71091970  1
  Cr  Cr28  1  0.00037219  0.00203199  0.00098437  1
  Cr  Cr29  1  0.99796801  0.99962781  0.49901563  1
  F  F30  1  0.90608222  0.93663223  0.32907438  1
  F  F31  1  0.92090853  0.92555959  0.83332431  1
  F  F32  1  0.93023185  0.55686535  0.38268433  1
  F  F33  1  0.91917401  0.56316438  0.88201578  1
  F  F34  1  0.76924253  0.75230267  0.16305966  1
  F  F35  1  0.77030903  0.77725886  0.66562799  1
  F  F36  1  0.88522838  0.26448161  0.40988602  1
  F  F37  1  0.56866763  0.90288263  0.37537333  1
  F  F38  1  0.75573760  0.42925835  0.18669300  1
  F  F39  1  0.90840399  0.24319352  0.92331887  1
  F  F40  1  0.56630399  0.93566399  0.88895306  1
  F  F41  1  0.76852429  0.39822535  0.67387105  1
  F  F42  1  0.58799557  0.57049963  0.44024555  1
  F  F43  1  0.73551839  0.11477162  0.09011398  1
  F  F44  1  0.39618291  0.78771921  0.16893669  1
  F  F45  1  0.57657511  0.57658241  0.91720771  1
  F  F46  1  0.75680648  0.09159601  0.57668113  1
  F  F47  1  0.45321924  0.73806762  0.68986197  1
  F  F48  1  0.57074165  0.24426240  0.31330700  1
  F  F49  1  0.24078465  0.90817638  0.42008590  1
  F  F50  1  0.42950037  0.41200443  0.05975445  1
  F  F51  1  0.60177465  0.23147571  0.82612895  1
  F  F52  1  0.26781202  0.88229266  0.92504033  1
  F  F53  1  0.42341759  0.42342489  0.58279229  1
  F  F54  1  0.21228079  0.60381709  0.33106331  1
  F  F55  1  0.44313465  0.06976815  0.11731567  1
  F  F56  1  0.09182362  0.75921535  0.07991410  1
  F  F57  1  0.26193238  0.54678076  0.81013803  1
  F  F58  1  0.43683562  0.08082599  0.61798422  1
  F  F59  1  0.11770734  0.73218798  0.57495967  1
  F  F60  1  0.24769733  0.23075747  0.33694034  1
  F  F61  1  0.22274114  0.22969097  0.83437201  1
  F  F62  1  0.09711737  0.43133237  0.12462667  1
  F  F63  1  0.06433601  0.43369601  0.61104694  1
  F  F64  1  0.06336777  0.09391778  0.17092462  1
  F  F65  1  0.07444041  0.07909147  0.66667569  1
