# generated using pymatgen
data_LiFe2OF3
_symmetry_space_group_name_H-M   'P 1'
_cell_length_a   6.12625058
_cell_length_b   8.25902613
_cell_length_c   8.25902613
_cell_angle_alpha   115.28639735
_cell_angle_beta   111.77002773
_cell_angle_gamma   68.22997227
_symmetry_Int_Tables_number   1
_chemical_formula_structural   LiFe2OF3
_chemical_formula_sum   'Li4 Fe8 O4 F12'
_cell_volume   339.47557087
_cell_formula_units_Z   4
loop_
 _symmetry_equiv_pos_site_id
 _symmetry_equiv_pos_as_xyz
  1  'x, y, z'
loop_
 _atom_site_type_symbol
 _atom_site_label
 _atom_site_symmetry_multiplicity
 _atom_site_fract_x
 _atom_site_fract_y
 _atom_site_fract_z
 _atom_site_occupancy
  Li  Li0  1  0.38478510  0.96963582  0.23920702  1
  Li  Li1  1  0.11521490  0.23920702  0.96963582  1
  Li  Li2  1  0.87883914  0.75653196  0.01420924  1
  Li  Li3  1  0.62116086  0.01420924  0.75653196  1
  Fe  Fe4  1  0.75000000  0.22669432  0.22669432  1
  Fe  Fe5  1  0.99801278  0.01790246  0.51392702  1
  Fe  Fe6  1  0.50198722  0.51392702  0.01790246  1
  Fe  Fe7  1  0.87250361  0.61977874  0.38190509  1
  Fe  Fe8  1  0.62749639  0.38190509  0.61977874  1
  Fe  Fe9  1  0.38962273  0.61977874  0.38190509  1
  Fe  Fe10  1  0.11037727  0.38190509  0.61977874  1
  Fe  Fe11  1  0.25000000  0.76725017  0.76725017  1
  O  O12  1  0.75000000  0.45969860  0.45969860  1
  O  O13  1  0.98175247  0.25377189  0.71727683  1
  O  O14  1  0.51824753  0.71727683  0.25377189  1
  O  O15  1  0.25000000  0.53236223  0.53236223  1
  F  F16  1  0.25000000  0.99181954  0.99181954  1
  F  F17  1  0.12533958  0.11980181  0.36910426  1
  F  F18  1  0.37466042  0.36910426  0.11980181  1
  F  F19  1  0.87603613  0.36910426  0.11980181  1
  F  F20  1  0.62396387  0.11980181  0.36910426  1
  F  F21  1  0.49216838  0.28340916  0.76774592  1
  F  F22  1  0.00783162  0.76774592  0.28340916  1
  F  F23  1  0.13183692  0.62517408  0.87886188  1
  F  F24  1  0.87814912  0.87886188  0.62517408  1
  F  F25  1  0.62185088  0.62517408  0.87886188  1
  F  F26  1  0.36816308  0.87886188  0.62517408  1
  F  F27  1  0.75000000  -0.00069691  -0.00069691  1
