# generated using pymatgen
data_LiV4OF11
_symmetry_space_group_name_H-M   'P 1'
_cell_length_a   5.23672122
_cell_length_b   5.56655080
_cell_length_c   17.22778801
_cell_angle_alpha   88.97395097
_cell_angle_beta   97.83908458
_cell_angle_gamma   118.37002919
_symmetry_Int_Tables_number   1
_chemical_formula_structural   LiV4OF11
_chemical_formula_sum   'Li2 V8 O2 F22'
_cell_volume   437.11930518
_cell_formula_units_Z   2
loop_
 _symmetry_equiv_pos_site_id
 _symmetry_equiv_pos_as_xyz
  1  'x, y, z'
loop_
 _atom_site_type_symbol
 _atom_site_label
 _atom_site_symmetry_multiplicity
 _atom_site_fract_x
 _atom_site_fract_y
 _atom_site_fract_z
 _atom_site_occupancy
  Li  Li0  1  0.67317572  0.40660532  0.95800974  1
  Li  Li1  1  0.32734190  0.09411619  0.54215276  1
  V  V2  1  0.98628863  0.01816942  0.00482391  1
  V  V3  1  0.75510317  0.36416819  0.12352568  1
  V  V4  1  0.74973483  0.87121053  0.62645469  1
  V  V5  1  0.50005083  0.25003552  0.75009022  1
  V  V6  1  0.49986839  0.74991322  0.24992307  1
  V  V7  1  0.24468113  0.13554358  0.37632650  1
  V  V8  1  0.01359845  0.48183604  0.49516252  1
  V  V9  1  0.25048949  0.62884742  0.87365943  1
  O  O10  1  0.81699630  0.21946408  0.03376571  1
  O  O11  1  0.18272676  0.28056795  0.46629630  1
  F  F12  1  0.73968693  0.06663644  0.19038516  1
  F  F13  1  0.74462985  0.17434544  0.56501170  1
  F  F14  1  0.74188606  0.65544099  0.05173228  1
  F  F15  1  0.69016189  0.04705339  0.71565718  1
  F  F16  1  0.68652850  0.35839465  0.41104944  1
  F  F17  1  0.67971279  0.54313505  0.21055526  1
  F  F18  1  0.80605742  0.40436291  0.84735946  1
  F  F19  1  0.83647223  0.71166476  0.54095191  1
  F  F20  1  0.81652361  0.90252612  0.34025204  1
  F  F21  1  0.31368660  0.14171457  0.08895718  1
  F  F22  1  0.73593930  0.57265400  0.69199805  1
  F  F23  1  0.26000501  0.43310655  0.30970645  1
  F  F24  1  0.68156846  0.83417898  0.90701661  1
  F  F25  1  0.19399792  0.09563724  0.65254934  1
  F  F26  1  0.18363119  0.59758387  0.15987791  1
  F  F27  1  0.30985437  0.45279263  0.78422780  1
  F  F28  1  0.31837191  0.66581837  0.59289427  1
  F  F29  1  0.32006423  0.95690435  0.28951263  1
  F  F30  1  0.25554677  0.32579020  0.93493323  1
  F  F31  1  0.25806033  0.84424428  0.44826174  1
  F  F32  1  0.26419239  0.92761656  0.80793717  1
  F  F33  1  0.16348167  0.78812619  0.95900067  1
