# generated using pymatgen
data_Li3MnCoO5
_symmetry_space_group_name_H-M   'P 1'
_cell_length_a   3.02898047
_cell_length_b   9.86573802
_cell_length_c   6.40255915
_cell_angle_alpha   100.35178718
_cell_angle_beta   76.59072426
_cell_angle_gamma   94.74197778
_symmetry_Int_Tables_number   1
_chemical_formula_structural   Li3MnCoO5
_chemical_formula_sum   'Li6 Mn2 Co2 O10'
_cell_volume   182.91510425
_cell_formula_units_Z   2
loop_
 _symmetry_equiv_pos_site_id
 _symmetry_equiv_pos_as_xyz
  1  'x, y, z'
loop_
 _atom_site_type_symbol
 _atom_site_label
 _atom_site_symmetry_multiplicity
 _atom_site_fract_x
 _atom_site_fract_y
 _atom_site_fract_z
 _atom_site_occupancy
  Li  Li0  1  0.89589749  0.30376163  0.20426121  1
  Li  Li1  1  0.10774449  0.69908253  0.79184349  1
  Li  Li2  1  0.50410251  0.49623837  0.99573879  1
  Li  Li3  1  0.70000000  0.90000000  0.60000000  1
  Li  Li4  1  0.29225551  0.10091747  0.40815651  1
  Li  Li5  1  0.20000000  0.40000000  0.60000000  1
  Mn  Mn6  1  0.99848847  0.00325800  0.99843751  1
  Mn  Mn7  1  0.40151153  0.79674200  0.20156249  1
  Co  Co8  1  0.59787541  0.21073684  0.79213997  1
  Co  Co9  1  0.80212459  0.58926316  0.40786003  1
  O  O10  1  0.43932865  0.15093059  0.07607809  1
  O  O11  1  0.65678937  0.55707750  0.67420267  1
  O  O12  1  0.03374847  0.33771230  0.89043286  1
  O  O13  1  0.23409889  0.74299871  0.48464179  1
  O  O14  1  0.83060036  0.94715602  0.28610194  1
  O  O15  1  0.36625153  0.46228770  0.30956714  1
  O  O16  1  0.56939964  0.85284398  0.91389806  1
  O  O17  1  0.96067135  0.64906941  0.12392191  1
  O  O18  1  0.16590111  0.05700129  0.71535821  1
  O  O19  1  0.74321063  0.24292250  0.52579733  1
