# generated using pymatgen
data_VFe2(PO4)3
_symmetry_space_group_name_H-M   'P 1'
_cell_length_a   8.43947481
_cell_length_b   8.65485374
_cell_length_c   8.65485330
_cell_angle_alpha   59.99999758
_cell_angle_beta   59.15213817
_cell_angle_gamma   59.15214497
_symmetry_Int_Tables_number   1
_chemical_formula_structural   VFe2(PO4)3
_chemical_formula_sum   'V2 Fe4 P6 O24'
_cell_volume   441.19814234
_cell_formula_units_Z   2
loop_
 _symmetry_equiv_pos_site_id
 _symmetry_equiv_pos_as_xyz
  1  'x, y, z'
loop_
 _atom_site_type_symbol
 _atom_site_label
 _atom_site_symmetry_multiplicity
 _atom_site_fract_x
 _atom_site_fract_y
 _atom_site_fract_z
 _atom_site_occupancy
  V  V0  1  0.00000000  0.00000000  0.00000000  1
  V  V1  1  0.50000000  0.50000000  0.50000000  1
  Fe  Fe2  1  0.06093196  0.64635635  0.64635635  1
  Fe  Fe3  1  0.56093196  0.14635635  0.14635635  1
  Fe  Fe4  1  0.43906804  0.85364365  0.85364365  1
  Fe  Fe5  1  0.93906804  0.35364365  0.35364365  1
  P  P6  1  0.25000000  0.25000000  0.54725689  1
  P  P7  1  0.25000000  0.95274311  0.25000000  1
  P  P8  1  0.25000000  0.54725689  0.95274311  1
  P  P9  1  0.75000000  0.45274311  0.04725689  1
  P  P10  1  0.75000000  0.04725689  0.75000000  1
  P  P11  1  0.75000000  0.75000000  0.45274311  1
  O  O12  1  0.06522670  0.10636692  0.32432451  1
  O  O13  1  0.06522670  0.50408287  0.10636692  1
  O  O14  1  0.06522670  0.32432451  0.50408287  1
  O  O15  1  0.21675633  0.09561859  0.75005449  1
  O  O16  1  0.43477330  0.17567549  0.39363308  1
  O  O17  1  0.28324367  0.40438141  0.56242941  1
  O  O18  1  0.21675633  0.93757059  0.09561859  1
  O  O19  1  0.28324367  0.74994551  0.40438141  1
  O  O20  1  0.56522670  0.60636692  0.00408287  1
  O  O21  1  0.28324367  0.56242941  0.74994551  1
  O  O22  1  0.78324367  0.24994551  0.06242941  1
  O  O23  1  0.56522670  0.00408287  0.82432451  1
  O  O24  1  0.43477330  0.99591713  0.17567549  1
  O  O25  1  0.21675633  0.75005449  0.93757059  1
  O  O26  1  0.71675633  0.43757059  0.25005449  1
  O  O27  1  0.43477330  0.39363308  0.99591713  1
  O  O28  1  0.71675633  0.25005449  0.59561859  1
  O  O29  1  0.78324367  0.06242941  0.90438141  1
  O  O30  1  0.71675633  0.59561859  0.43757059  1
  O  O31  1  0.56522670  0.82432451  0.60636692  1
  O  O32  1  0.78324367  0.90438141  0.24994551  1
  O  O33  1  0.93477330  0.67567549  0.49591713  1
  O  O34  1  0.93477330  0.49591713  0.89363308  1
  O  O35  1  0.93477330  0.89363308  0.67567549  1
