# generated using pymatgen
data_LiMn2P2H9O13
_symmetry_space_group_name_H-M   'P 1'
_cell_length_a   9.06396204
_cell_length_b   10.16317756
_cell_length_c   5.62939670
_cell_angle_alpha   90.00000000
_cell_angle_beta   90.00000000
_cell_angle_gamma   90.00000000
_symmetry_Int_Tables_number   1
_chemical_formula_structural   LiMn2P2H9O13
_chemical_formula_sum   'Li2 Mn4 P4 H18 O26'
_cell_volume   518.57245590
_cell_formula_units_Z   2
loop_
 _symmetry_equiv_pos_site_id
 _symmetry_equiv_pos_as_xyz
  1  'x, y, z'
loop_
 _atom_site_type_symbol
 _atom_site_label
 _atom_site_symmetry_multiplicity
 _atom_site_fract_x
 _atom_site_fract_y
 _atom_site_fract_z
 _atom_site_occupancy
  Li  Li0  1  0.00000000  0.00000000  0.12801180  1
  Li  Li1  1  0.50000000  0.50000000  0.12801180  1
  Mn  Mn2  1  0.15185332  0.60420046  0.05152162  1
  Mn  Mn3  1  0.34814668  0.10420046  0.05152162  1
  Mn  Mn4  1  0.65185332  0.89579954  0.05152162  1
  Mn  Mn5  1  0.84814668  0.39579954  0.05152162  1
  P  P6  1  0.14932926  0.31964462  0.78507709  1
  P  P7  1  0.35067074  0.81964462  0.78507709  1
  P  P8  1  0.64932926  0.18035538  0.78507709  1
  P  P9  1  0.85067074  0.68035538  0.78507709  1
  H  H10  1  0.00000000  0.50000000  0.38355559  1
  H  H11  1  0.98030244  0.75123182  0.35983394  1
  H  H12  1  0.14997058  0.78868259  0.39317991  1
  H  H13  1  0.19342919  0.13118477  0.43844862  1
  H  H14  1  0.24238802  0.97775508  0.43994694  1
  H  H15  1  0.25761198  0.47775508  0.43994694  1
  H  H16  1  0.30657081  0.63118477  0.43844862  1
  H  H17  1  0.35002942  0.28868259  0.39317991  1
  H  H18  1  0.51969756  0.25123182  0.35983394  1
  H  H19  1  0.50000000  0.00000000  0.38355559  1
  H  H20  1  0.48030244  0.74876818  0.35983394  1
  H  H21  1  0.64997058  0.71131741  0.39317991  1
  H  H22  1  0.69342919  0.36881523  0.43844862  1
  H  H23  1  0.74238802  0.52224492  0.43994694  1
  H  H24  1  0.75761198  0.02224492  0.43994694  1
  H  H25  1  0.80657081  0.86881523  0.43844862  1
  H  H26  1  0.85002942  0.21131741  0.39317991  1
  H  H27  1  0.01969756  0.24876818  0.35983394  1
  O  O28  1  0.00000000  0.50000000  0.20933281  1
  O  O29  1  0.02058643  0.65534398  0.79460585  1
  O  O30  1  0.06983006  0.78094023  0.27183690  1
  O  O31  1  0.18286927  0.28154288  0.52231914  1
  O  O32  1  0.17980413  0.20003782  0.95261044  1
  O  O33  1  0.23912475  0.44128249  0.85498689  1
  O  O34  1  0.20538024  0.04883958  0.33602556  1
  O  O35  1  0.29461976  0.54883958  0.33602556  1
  O  O36  1  0.26087525  0.94128249  0.85498689  1
  O  O37  1  0.32019587  0.70003782  0.95261044  1
  O  O38  1  0.31713073  0.78154288  0.52231914  1
  O  O39  1  0.43016994  0.28094023  0.27183690  1
  O  O40  1  0.47941357  0.15534398  0.79460585  1
  O  O41  1  0.50000000  0.00000000  0.20933281  1
  O  O42  1  0.52058643  0.84465602  0.79460585  1
  O  O43  1  0.56983006  0.71905977  0.27183690  1
  O  O44  1  0.68286927  0.21845712  0.52231914  1
  O  O45  1  0.67980413  0.29996218  0.95261044  1
  O  O46  1  0.73912475  0.05871751  0.85498689  1
  O  O47  1  0.70538024  0.45116042  0.33602556  1
  O  O48  1  0.79461976  0.95116042  0.33602556  1
  O  O49  1  0.76087525  0.55871751  0.85498689  1
  O  O50  1  0.82019587  0.79996218  0.95261044  1
  O  O51  1  0.81713073  0.71845712  0.52231914  1
  O  O52  1  0.93016994  0.21905977  0.27183690  1
  O  O53  1  0.97941357  0.34465602  0.79460585  1
