# generated using pymatgen
data_W2C
_symmetry_space_group_name_H-M   'P 1'
_cell_length_a   3.06997229
_cell_length_b   3.07011787
_cell_length_c   4.67842787
_cell_angle_alpha   90.00000004
_cell_angle_beta   90.00741442
_cell_angle_gamma   120.00157130
_symmetry_Int_Tables_number   1
_chemical_formula_structural   W2C
_chemical_formula_sum   'W2 C1'
_cell_volume   38.18679356
_cell_formula_units_Z   1
loop_
 _symmetry_equiv_pos_site_id
 _symmetry_equiv_pos_as_xyz
  1  'x, y, z'
loop_
 _atom_site_type_symbol
 _atom_site_label
 _atom_site_symmetry_multiplicity
 _atom_site_fract_x
 _atom_site_fract_y
 _atom_site_fract_z
 _atom_site_occupancy
  W  W0  1  0.33346003  0.66673001  0.25366911  1
  W  W1  1  0.66653997  0.33326999  0.74633089  1
  C  C2  1  0.00000000  0.00000000  0.00000000  1
