# generated using pymatgen
data_Li6Mn5CoO12
_symmetry_space_group_name_H-M   'P 1'
_cell_length_a   5.12305848
_cell_length_b   5.13417310
_cell_length_c   10.33394271
_cell_angle_alpha   90.03434946
_cell_angle_beta   96.10357181
_cell_angle_gamma   64.56421314
_symmetry_Int_Tables_number   1
_chemical_formula_structural   Li6Mn5CoO12
_chemical_formula_sum   'Li6 Mn5 Co1 O12'
_cell_volume   243.76389521
_cell_formula_units_Z   1
loop_
 _symmetry_equiv_pos_site_id
 _symmetry_equiv_pos_as_xyz
  1  'x, y, z'
loop_
 _atom_site_type_symbol
 _atom_site_label
 _atom_site_symmetry_multiplicity
 _atom_site_fract_x
 _atom_site_fract_y
 _atom_site_fract_z
 _atom_site_occupancy
  Li  Li0  1  0.31015371  0.99199198  0.78444638  1
  Li  Li1  1  0.97059399  0.67019767  0.77973419  1
  Li  Li2  1  0.34691025  0.68375347  0.21488419  1
  Li  Li3  1  0.68978827  0.00802193  0.21556209  1
  Li  Li4  1  0.65308636  0.31629248  0.78510828  1
  Li  Li5  1  0.02940781  0.32976252  0.22026063  1
  Mn  Mn6  1  0.33095082  0.33301082  0.99955105  1
  Mn  Mn7  1  0.16887212  0.66900911  0.49958931  1
  Mn  Mn8  1  0.50000624  0.99998806  0.50002028  1
  Mn  Mn9  1  0.66905462  0.66702883  0.00043949  1
  Mn  Mn10  1  0.83112838  0.33100170  0.50039773  1
  Co  Co11  1  0.99999403  0.00000572  0.99999560  1
  O  O12  1  0.22505318  0.96009586  0.60343775  1
  O  O13  1  0.01665397  0.30800863  0.88349667  1
  O  O14  1  0.15017081  0.33513312  0.40649702  1
  O  O15  1  0.32275560  0.03436297  0.11408807  1
  O  O16  1  0.67724876  0.96564241  0.88589508  1
  O  O17  1  0.55515176  0.28911135  0.60367094  1
  O  O18  1  0.35479169  0.62809396  0.88480822  1
  O  O19  1  0.64519843  0.37193192  0.11519426  1
  O  O20  1  0.44486670  0.71088552  0.39633300  1
  O  O21  1  0.77494759  0.03985489  0.39657179  1
  O  O22  1  0.84986352  0.66481190  0.59351167  1
  O  O23  1  0.98333840  0.69202018  0.11650830  1
