# generated using pymatgen
data_LiV2OF5
_symmetry_space_group_name_H-M   'P 1'
_cell_length_a   4.66180837
_cell_length_b   17.08588103
_cell_length_c   5.20234745
_cell_angle_alpha   90.23482112
_cell_angle_beta   90.07006003
_cell_angle_gamma   90.21150844
_symmetry_Int_Tables_number   1
_chemical_formula_structural   LiV2OF5
_chemical_formula_sum   'Li4 V8 O4 F20'
_cell_volume   414.36609279
_cell_formula_units_Z   4
loop_
 _symmetry_equiv_pos_site_id
 _symmetry_equiv_pos_as_xyz
  1  'x, y, z'
loop_
 _atom_site_type_symbol
 _atom_site_label
 _atom_site_symmetry_multiplicity
 _atom_site_fract_x
 _atom_site_fract_y
 _atom_site_fract_z
 _atom_site_occupancy
  Li  Li0  1  0.98167426  0.37951601  0.24848365  1
  Li  Li1  1  0.00580364  0.61761861  0.75489369  1
  Li  Li2  1  0.50051966  0.87991214  0.25046893  1
  Li  Li3  1  0.49116234  0.11793490  0.76786039  1
  V  V4  1  0.97948039  0.28334494  0.72405038  1
  V  V5  1  0.02504107  0.05698667  0.24653457  1
  V  V6  1  0.00386369  0.95171117  0.74923893  1
  V  V7  1  0.03037101  0.71576423  0.23328694  1
  V  V8  1  0.49869846  0.21586549  0.24917009  1
  V  V9  1  0.48100982  0.55649954  0.24254646  1
  V  V10  1  0.48984870  0.78357741  0.76978310  1
  V  V11  1  0.49597249  0.45095079  0.74439986  1
  O  O12  1  0.26737839  0.79050731  0.06567252  1
  O  O13  1  0.22803433  0.62674894  0.10133593  1
  O  O14  1  0.27364152  0.12933770  0.11903834  1
  O  O15  1  0.75593750  0.28528031  0.43141902  1
  F  F16  1  0.22741513  0.96242839  0.08064144  1
  F  F17  1  0.23437317  0.03658950  0.59383561  1
  F  F18  1  0.26408116  0.20727658  0.58954403  1
  F  F19  1  0.23248510  0.37540795  0.58248717  1
  F  F20  1  0.26709268  0.87465810  0.59268872  1
  F  F21  1  0.23018448  0.29299330  0.06330348  1
  F  F22  1  0.23878850  0.70685099  0.58134771  1
  F  F23  1  0.27550894  0.46157652  0.07844510  1
  F  F24  1  0.27189548  0.53696320  0.58881933  1
  F  F25  1  0.71599738  0.46357143  0.41340686  1
  F  F26  1  0.71892193  0.53695276  0.90810140  1
  F  F27  1  0.76680468  0.70624398  0.91324201  1
  F  F28  1  0.74181074  0.87542160  0.90626877  1
  F  F29  1  0.74093274  0.12534739  0.41714662  1
  F  F30  1  0.75753738  0.37419185  0.90043185  1
  F  F31  1  0.76124044  0.62793387  0.40904615  1
  F  F32  1  0.73941642  0.78840150  0.43293907  1
  F  F33  1  0.73279918  0.20578043  0.92081646  1
  F  F34  1  0.78652895  0.03792443  0.91114513  1
  F  F35  1  0.78774725  0.96193009  0.41816130  1
