# generated using pymatgen
data_LiV2OF5
_symmetry_space_group_name_H-M   'P 1'
_cell_length_a   5.22683245
_cell_length_b   5.51738744
_cell_length_c   17.43688730
_cell_angle_alpha   92.75873330
_cell_angle_beta   98.62264644
_cell_angle_gamma   61.73372373
_symmetry_Int_Tables_number   1
_chemical_formula_structural   LiV2OF5
_chemical_formula_sum   'Li4 V8 O4 F20'
_cell_volume   437.73394291
_cell_formula_units_Z   4
loop_
 _symmetry_equiv_pos_site_id
 _symmetry_equiv_pos_as_xyz
  1  'x, y, z'
loop_
 _atom_site_type_symbol
 _atom_site_label
 _atom_site_symmetry_multiplicity
 _atom_site_fract_x
 _atom_site_fract_y
 _atom_site_fract_z
 _atom_site_occupancy
  Li  Li0  1  0.43749550  0.21307823  0.06678123  1
  Li  Li1  1  0.43374525  0.70048229  0.57190017  1
  Li  Li2  1  0.81233605  0.17460286  0.80317919  1
  Li  Li3  1  0.83389172  0.66169995  0.30827841  1
  V  V4  1  0.01592240  0.01170187  0.99738323  1
  V  V5  1  0.24591808  0.36294282  0.88248333  1
  V  V6  1  0.73890768  0.14103650  0.62761017  1
  V  V7  1  0.50227078  0.73411648  0.74739363  1
  V  V8  1  0.28029589  0.86319043  0.37762974  1
  V  V9  1  0.52332690  0.23118115  0.24684687  1
  V  V10  1  0.97632716  0.51201189  0.49252529  1
  V  V11  1  0.75768816  0.64375827  0.12815048  1
  O  O12  1  0.18749344  0.21367783  0.96755706  1
  O  O13  1  0.70390910  0.43770122  0.68743609  1
  O  O14  1  0.68361751  0.66125728  0.40745241  1
  O  O15  1  0.72719933  0.93764717  0.18746054  1
  F  F16  1  0.23577974  0.06337119  0.80937819  1
  F  F17  1  0.23394180  0.19827005  0.43481693  1
  F  F18  1  0.24756092  0.67669307  0.94013460  1
  F  F19  1  0.31090239  0.34705620  0.58557632  1
  F  F20  1  0.32250471  0.52784915  0.78940016  1
  F  F21  1  0.32824892  0.03230830  0.28397886  1
  F  F22  1  0.17932041  0.90799635  0.65124865  1
  F  F23  1  0.18970973  0.72930031  0.47415298  1
  F  F24  1  0.69499166  0.14557263  0.90089436  1
  F  F25  1  0.19746823  0.40594084  0.15019875  1
  F  F26  1  0.25441499  0.55408077  0.31161518  1
  F  F27  1  0.32658691  0.84251897  0.09099051  1
  F  F28  1  0.83999900  0.04948710  0.34024275  1
  F  F29  1  0.79011679  0.30869028  0.53464122  1
  F  F30  1  0.81419754  0.56620688  0.84032765  1
  F  F31  1  0.68596171  0.96730806  0.72377679  1
  F  F32  1  0.70315368  0.46911013  0.22483035  1
  F  F33  1  0.73971823  0.81169701  0.56563543  1
  F  F34  1  0.74700125  0.32079470  0.06341651  1
  F  F35  1  0.79925744  0.82528576  0.03473099  1
