# generated using pymatgen
data_La2CuRu
_symmetry_space_group_name_H-M   'P 1'
_cell_length_a   5.07031733
_cell_length_b   5.07032173
_cell_length_c   5.07032386
_cell_angle_alpha   59.99981547
_cell_angle_beta   59.99992679
_cell_angle_gamma   59.99969418
_symmetry_Int_Tables_number   1
_chemical_formula_structural   La2CuRu
_chemical_formula_sum   'La2 Cu1 Ru1'
_cell_volume   92.16998384
_cell_formula_units_Z   1
loop_
 _symmetry_equiv_pos_site_id
 _symmetry_equiv_pos_as_xyz
  1  'x, y, z'
loop_
 _atom_site_type_symbol
 _atom_site_label
 _atom_site_symmetry_multiplicity
 _atom_site_fract_x
 _atom_site_fract_y
 _atom_site_fract_z
 _atom_site_occupancy
  La  La0  1  -0.00000016  0.00000004  -0.00000009  1
  La  La1  1  0.50000029  0.49999976  0.50000026  1
  Cu  Cu2  1  0.25000093  0.25000122  0.25000084  1
  Ru  Ru3  1  0.74999995  0.74999998  0.74999999  1
