# generated using pymatgen
data_Sb16Cl4O21
_symmetry_space_group_name_H-M   'P 1'
_cell_length_a   10.01318440
_cell_length_b   8.33428428
_cell_length_c   10.47096965
_cell_angle_alpha   88.72665754
_cell_angle_beta   108.32898515
_cell_angle_gamma   77.49401968
_symmetry_Int_Tables_number   1
_chemical_formula_structural   Sb16Cl4O21
_chemical_formula_sum   'Sb16 Cl4 O21'
_cell_volume   805.96226866
_cell_formula_units_Z   1
loop_
 _symmetry_equiv_pos_site_id
 _symmetry_equiv_pos_as_xyz
  1  'x, y, z'
loop_
 _atom_site_type_symbol
 _atom_site_label
 _atom_site_symmetry_multiplicity
 _atom_site_fract_x
 _atom_site_fract_y
 _atom_site_fract_z
 _atom_site_occupancy
  Sb  Sb0  1  0.02680368  0.24312514  0.71311884  1
  Sb  Sb1  1  0.03101626  0.74374299  0.72085342  1
  Sb  Sb2  1  0.15833931  0.49793346  0.96624456  1
  Sb  Sb3  1  0.17521479  0.97368050  0.98503938  1
  Sb  Sb4  1  0.46739288  0.09177206  0.83833971  1
  Sb  Sb5  1  0.46139471  0.65884067  0.82819552  1
  Sb  Sb6  1  0.35450697  0.15269542  0.36846116  1
  Sb  Sb7  1  0.35660619  0.60687057  0.35740511  1
  Sb  Sb8  1  0.64415235  0.34756225  0.62810459  1
  Sb  Sb9  1  0.64837545  0.88804225  0.64343553  1
  Sb  Sb10  1  0.53973375  0.83955900  0.17214773  1
  Sb  Sb11  1  0.53061811  0.40825320  0.15506092  1
  Sb  Sb12  1  0.83538420  0.04136160  0.02435302  1
  Sb  Sb13  1  0.83171870  0.54093114  0.02378207  1
  Sb  Sb14  1  0.97349366  0.25043943  0.29189105  1
  Sb  Sb15  1  0.97990920  0.74842526  0.29078761  1
  Cl  Cl16  1  0.25374675  0.44964237  0.52059748  1
  Cl  Cl17  1  0.26178561  0.92968043  0.52190500  1
  Cl  Cl18  1  0.73928039  0.56384407  0.47714484  1
  Cl  Cl19  1  0.74731385  0.04912290  0.48014534  1
  O  O20  1  0.05948444  0.47309478  0.76790055  1
  O  O21  1  0.07710580  0.97389113  0.78567682  1
  O  O22  1  0.15079445  0.20784576  0.91621483  1
  O  O23  1  0.37350952  0.41474609  0.98081344  1
  O  O24  1  0.38888060  0.91275103  0.98278099  1
  O  O25  1  0.15437713  0.21125095  0.24246755  1
  O  O26  1  0.15831755  0.69557477  0.23253320  1
  O  O27  1  0.55514911  0.85206130  0.81087982  1
  O  O28  1  0.39631338  0.37838051  0.27508214  1
  O  O29  1  0.40083592  0.97892147  0.24768212  1
  O  O30  1  0.60233700  0.11962961  0.72210660  1
  O  O31  1  0.59337773  0.52395918  0.74519043  1
  O  O32  1  0.44402713  0.64730468  0.18791502  1
  O  O33  1  0.84265155  0.28364122  0.75699009  1
  O  O34  1  0.84509353  0.80113134  0.77139798  1
  O  O35  1  0.62179894  0.09840423  0.01201268  1
  O  O36  1  0.61281179  0.58766605  0.01793795  1
  O  O37  1  0.84336628  0.28872361  0.09275610  1
  O  O38  1  0.84389954  0.78905304  0.09365476  1
  O  O39  1  0.93898405  0.01121289  0.22636719  1
  O  O40  1  0.93190275  0.51228264  0.22582484  1
