# generated using pymatgen
data_Li4Ni2(PO4)3
_symmetry_space_group_name_H-M   'P 1'
_cell_length_a   8.89770765
_cell_length_b   12.23551927
_cell_length_c   8.75161346
_cell_angle_alpha   90.03173215
_cell_angle_beta   90.00325950
_cell_angle_gamma   90.00309792
_symmetry_Int_Tables_number   1
_chemical_formula_structural   Li4Ni2(PO4)3
_chemical_formula_sum   'Li16 Ni8 P12 O48'
_cell_volume   952.77114741
_cell_formula_units_Z   4
loop_
 _symmetry_equiv_pos_site_id
 _symmetry_equiv_pos_as_xyz
  1  'x, y, z'
loop_
 _atom_site_type_symbol
 _atom_site_label
 _atom_site_symmetry_multiplicity
 _atom_site_fract_x
 _atom_site_fract_y
 _atom_site_fract_z
 _atom_site_occupancy
  Li  Li0  1  0.05245357  0.28648157  0.42811247  1
  Li  Li1  1  0.05243466  0.71349982  0.07186463  1
  Li  Li2  1  0.20259475  0.18074437  0.76236551  1
  Li  Li3  1  0.20257352  0.81925631  0.73763143  1
  Li  Li4  1  0.29722507  0.31944783  0.26221913  1
  Li  Li5  1  0.29727035  0.68054874  0.23774492  1
  Li  Li6  1  0.44737478  0.21367538  0.92808939  1
  Li  Li7  1  0.44744396  0.78635029  0.57189077  1
  Li  Li8  1  0.55250391  0.21368220  0.42820621  1
  Li  Li9  1  0.55251990  0.78632460  0.07181579  1
  Li  Li10  1  0.70268958  0.31941511  0.76225323  1
  Li  Li11  1  0.70269265  0.68058172  0.73772851  1
  Li  Li12  1  0.79756902  0.18080944  0.26247288  1
  Li  Li13  1  0.79754027  0.81920722  0.23754087  1
  Li  Li14  1  0.94770802  0.28652199  0.92814156  1
  Li  Li15  1  0.94761341  0.71349101  0.57188594  1
  Ni  Ni16  1  0.25155601  0.89094568  0.04371209  1
  Ni  Ni17  1  0.25156798  0.10908657  0.45629688  1
  Ni  Ni18  1  0.24841800  0.39087834  0.95621659  1
  Ni  Ni19  1  0.24841922  0.60904982  0.54377482  1
  Ni  Ni20  1  0.75160995  0.39097760  0.45629712  1
  Ni  Ni21  1  0.75159578  0.60908293  0.04372528  1
  Ni  Ni22  1  0.74846371  0.10908169  0.95624490  1
  Ni  Ni23  1  0.74843498  0.89090566  0.54376831  1
  P  P24  1  0.04751243  0.49998712  0.25000483  1
  P  P25  1  0.45285452  -0.00000048  0.75000106  1
  P  P26  1  0.54708712  -0.00001141  0.25000151  1
  P  P27  1  0.95248351  0.49998172  0.75001173  1
  P  P28  1  0.10587774  0.14922440  0.10555894  1
  P  P29  1  0.10590483  0.85080498  0.39444596  1
  P  P30  1  0.39412288  0.35083785  0.60549776  1
  P  P31  1  0.39413352  0.64919824  0.89447204  1
  P  P32  1  0.60588077  0.35085059  0.10552799  1
  P  P33  1  0.60588481  0.64911353  0.39448794  1
  P  P34  1  0.89407402  0.14915153  0.60554142  1
  P  P35  1  0.89409762  0.85078854  0.89443646  1
  O  O36  1  0.04469777  0.42471941  0.85566073  1
  O  O37  1  0.04470830  0.57528557  0.64434213  1
  O  O38  1  0.06712793  0.16788781  0.59337836  1
  O  O39  1  0.06712585  0.83213023  0.90662528  1
  O  O40  1  0.15292547  0.42048469  0.16240101  1
  O  O41  1  0.15294250  0.57950874  0.33759116  1
  O  O42  1  0.15575549  0.18945162  0.26662907  1
  O  O43  1  0.15576946  0.81055011  0.23333991  1
  O  O44  1  0.15303697  0.03273575  0.07529278  1
  O  O45  1  0.15303893  0.96724783  0.42471245  1
  O  O46  1  0.17530512  0.22398360  0.97754882  1
  O  O47  1  0.17532658  0.77600608  0.52244649  1
  O  O48  1  0.32466509  0.27601615  0.47750125  1
  O  O49  1  0.32464757  0.72397912  0.02248572  1
  O  O50  1  0.34695457  0.46721364  0.57532150  1
  O  O51  1  0.34695136  0.53270790  0.92471134  1
  O  O52  1  0.34420654  0.68942743  0.73336049  1
  O  O53  1  0.34422154  0.31054858  0.76660889  1
  O  O54  1  0.34692593  0.07956133  0.66240773  1
  O  O55  1  0.34689674  0.92044745  0.83758544  1
  O  O56  1  0.43289165  0.33212514  0.09337886  1
  O  O57  1  0.43289110  0.66785191  0.40661723  1
  O  O58  1  0.45530663  0.07537810  0.35566691  1
  O  O59  1  0.45530206  0.92462441  0.14432730  1
  O  O60  1  0.54463248  0.92470363  0.64437880  1
  O  O61  1  0.54464170  0.07531161  0.85563821  1
  O  O62  1  0.56707929  0.33214621  0.59337232  1
  O  O63  1  0.56708769  0.66787036  0.90662235  1
  O  O64  1  0.65317048  0.07958580  0.16249123  1
  O  O65  1  0.65315066  0.92042941  0.33751027  1
  O  O66  1  0.65579259  0.31056806  0.26667042  1
  O  O67  1  0.65577848  0.68943899  0.23333116  1
  O  O68  1  0.65301202  0.46718048  0.07530583  1
  O  O69  1  0.65298807  0.53285252  0.42467127  1
  O  O70  1  0.67532294  0.27601094  0.97751363  1
  O  O71  1  0.67532658  0.72399006  0.52247248  1
  O  O72  1  0.82468497  0.22399820  0.47756658  1
  O  O73  1  0.82468310  0.77600586  0.02244983  1
  O  O74  1  0.84697652  0.03279243  0.57531669  1
  O  O75  1  0.84695085  0.96726139  0.92470442  1
  O  O76  1  0.84424847  0.18945643  0.76665700  1
  O  O77  1  0.84424094  0.81054740  0.73336570  1
  O  O78  1  0.84702859  0.42052426  0.66243864  1
  O  O79  1  0.84703201  0.57948900  0.83759459  1
  O  O80  1  0.93289238  0.16788799  0.09337634  1
  O  O81  1  0.93288233  0.83210833  0.40662401  1
  O  O82  1  0.95529336  0.42471554  0.35569338  1
  O  O83  1  0.95529553  0.57528000  0.14430714  1
