# generated using pymatgen
data_LiMnPO4
_symmetry_space_group_name_H-M   'P 1'
_cell_length_a   11.19459484
_cell_length_b   6.32774971
_cell_length_c   5.22909804
_cell_angle_alpha   90.00000000
_cell_angle_beta   90.00000000
_cell_angle_gamma   90.00000000
_symmetry_Int_Tables_number   1
_chemical_formula_structural   LiMnPO4
_chemical_formula_sum   'Li4 Mn4 P4 O16'
_cell_volume   370.41149617
_cell_formula_units_Z   4
loop_
 _symmetry_equiv_pos_site_id
 _symmetry_equiv_pos_as_xyz
  1  'x, y, z'
loop_
 _atom_site_type_symbol
 _atom_site_label
 _atom_site_symmetry_multiplicity
 _atom_site_fract_x
 _atom_site_fract_y
 _atom_site_fract_z
 _atom_site_occupancy
  Li  Li0  1  0.16765593  0.52028939  0.25083891  1
  Li  Li1  1  0.33234407  0.02028939  0.75083891  1
  Li  Li2  1  0.66765593  0.97971061  0.25083891  1
  Li  Li3  1  0.83234407  0.47971061  0.75083891  1
  Mn  Mn4  1  0.08066963  0.79423346  0.74601007  1
  Mn  Mn5  1  0.41933037  0.29423346  0.24601007  1
  Mn  Mn6  1  0.58066963  0.70576654  0.74601007  1
  Mn  Mn7  1  0.91933037  0.20576654  0.24601007  1
  P  P8  1  0.17909589  0.02241423  0.24957834  1
  P  P9  1  0.32090411  0.52241423  0.74957834  1
  P  P10  1  0.67909589  0.47758577  0.24957834  1
  P  P11  1  0.82090411  0.97758577  0.74957834  1
  O  O12  1  0.10091695  0.22116930  0.18525669  1
  O  O13  1  0.11676657  0.82122407  0.13773145  1
  O  O14  1  0.19388376  0.54659291  0.63202130  1
  O  O15  1  0.18744646  0.00057310  0.54441424  1
  O  O16  1  0.31255354  0.50057310  0.04441424  1
  O  O17  1  0.30611624  0.04659291  0.13202130  1
  O  O18  1  0.38323343  0.32122407  0.63773145  1
  O  O19  1  0.39908305  0.72116930  0.68525669  1
  O  O20  1  0.60091695  0.27883070  0.18525669  1
  O  O21  1  0.61676657  0.67877593  0.13773145  1
  O  O22  1  0.69388376  0.95340709  0.63202130  1
  O  O23  1  0.68744646  0.49942690  0.54441424  1
  O  O24  1  0.81255354  0.99942690  0.04441424  1
  O  O25  1  0.80611624  0.45340709  0.13202130  1
  O  O26  1  0.88323343  0.17877593  0.63773145  1
  O  O27  1  0.89908305  0.77883070  0.68525669  1
