# generated using pymatgen
data_Li3MnCoO5
_symmetry_space_group_name_H-M   'P 1'
_cell_length_a   3.03263084
_cell_length_b   8.04574186
_cell_length_c   7.80013191
_cell_angle_alpha   75.71618716
_cell_angle_beta   96.19268638
_cell_angle_gamma   89.12903463
_symmetry_Int_Tables_number   1
_chemical_formula_structural   Li3MnCoO5
_chemical_formula_sum   'Li6 Mn2 Co2 O10'
_cell_volume   183.18865869
_cell_formula_units_Z   2
loop_
 _symmetry_equiv_pos_site_id
 _symmetry_equiv_pos_as_xyz
  1  'x, y, z'
loop_
 _atom_site_type_symbol
 _atom_site_label
 _atom_site_symmetry_multiplicity
 _atom_site_fract_x
 _atom_site_fract_y
 _atom_site_fract_z
 _atom_site_occupancy
  Li  Li0  1  0.79630871  0.10840994  0.59306602  1
  Li  Li1  1  0.00246707  0.49494979  0.00189245  1
  Li  Li2  1  0.20000000  0.90000000  0.40000000  1
  Li  Li3  1  0.39753293  0.30505021  0.79810755  1
  Li  Li4  1  0.60369129  0.69159006  0.20693398  1
  Li  Li5  1  0.20000000  0.40000000  0.40000000  1
  Mn  Mn6  1  0.00380998  0.00272579  0.00248314  1
  Mn  Mn7  1  0.39619002  0.79727421  0.79751686  1
  Co  Co8  1  0.61014516  0.20849718  0.21079723  1
  Co  Co9  1  0.78985484  0.59150282  0.58920277  1
  O  O10  1  0.37472268  0.04028699  0.80340309  1
  O  O11  1  0.59230436  0.42723923  0.19648928  1
  O  O12  1  0.78178052  0.82800772  0.60642654  1
  O  O13  1  0.98357280  0.23951333  0.01316886  1
  O  O14  1  0.18489308  0.64607757  0.41471862  1
  O  O15  1  0.21510692  0.15392243  0.38528138  1
  O  O16  1  0.41642720  0.56048667  0.78683114  1
  O  O17  1  0.61821948  0.97199228  0.19357346  1
  O  O18  1  0.80769564  0.37276077  0.60351072  1
  O  O19  1  0.02527732  0.75971301  0.99659691  1
