# generated using pymatgen
data_Li5Fe4(P2O7)4
_symmetry_space_group_name_H-M   'P 1'
_cell_length_a   9.75738503
_cell_length_b   9.77429379
_cell_length_c   11.13685068
_cell_angle_alpha   90.36782977
_cell_angle_beta   101.64342222
_cell_angle_gamma   90.15714751
_symmetry_Int_Tables_number   1
_chemical_formula_structural   Li5Fe4(P2O7)4
_chemical_formula_sum   'Li10 Fe8 P16 O56'
_cell_volume   1040.25233354
_cell_formula_units_Z   2
loop_
 _symmetry_equiv_pos_site_id
 _symmetry_equiv_pos_as_xyz
  1  'x, y, z'
loop_
 _atom_site_type_symbol
 _atom_site_label
 _atom_site_symmetry_multiplicity
 _atom_site_fract_x
 _atom_site_fract_y
 _atom_site_fract_z
 _atom_site_occupancy
  Li  Li0  1  0.09309258  0.10462253  0.02838631  1
  Li  Li1  1  0.41957732  0.60112240  0.97799125  1
  Li  Li2  1  0.32509456  0.91670681  0.45712917  1
  Li  Li3  1  0.38711510  0.21769108  0.54808388  1
  Li  Li4  1  0.61740157  0.79084334  0.45821909  1
  Li  Li5  1  0.84903259  0.58935751  0.95690836  1
  Li  Li6  1  0.64742713  0.09706465  0.04207130  1
  Li  Li7  1  0.90685196  0.89113704  0.97071990  1
  Li  Li8  1  0.85224854  0.57091328  0.47544761  1
  Li  Li9  1  0.88235324  0.28056178  0.54774058  1
  Fe  Fe10  1  0.20554764  0.91460600  0.67766702  1
  Fe  Fe11  1  0.25487005  0.21368558  0.82695632  1
  Fe  Fe12  1  0.25147260  0.70596022  0.17751727  1
  Fe  Fe13  1  0.29322976  0.42626915  0.33019261  1
  Fe  Fe14  1  0.70191107  0.57782644  0.67655686  1
  Fe  Fe15  1  0.74475247  0.29583559  0.82620037  1
  Fe  Fe16  1  0.74052969  0.77964292  0.17375138  1
  Fe  Fe17  1  0.79397206  0.07024638  0.32814994  1
  P  P18  1  0.02206037  0.44732549  0.75293552  1
  P  P19  1  0.11859111  0.70729160  0.88678164  1
  P  P20  1  0.06057277  0.92457862  0.23742017  1
  P  P21  1  0.12313613  0.14805650  0.42257625  1
  P  P22  1  0.37668125  0.64521610  0.57109521  1
  P  P23  1  0.43271506  0.42482787  0.76212549  1
  P  P24  1  0.52370736  0.04880133  0.75152571  1
  P  P25  1  0.38442016  0.21299010  0.11620235  1
  P  P26  1  0.61352855  0.79238538  0.88738073  1
  P  P27  1  0.47184237  0.94919626  0.24406188  1
  P  P28  1  0.56544533  0.57779064  0.24316850  1
  P  P29  1  0.62249351  0.35025997  0.41906430  1
  P  P30  1  0.88035970  0.85847404  0.57181157  1
  P  P31  1  0.93938696  0.07603034  0.76196046  1
  P  P32  1  0.88665492  0.28763850  0.11640786  1
  P  P33  1  0.97489625  0.55338607  0.24143938  1
  O  O34  1  0.00807170  0.42349025  0.61797550  1
  O  O35  1  0.03479628  0.85407661  0.56694466  1
  O  O36  1  0.09065752  0.08623840  0.73372716  1
  O  O37  1  0.10728868  0.58876826  0.78383152  1
  O  O38  1  0.10874721  0.34191688  0.83812778  1
  O  O39  1  0.17766489  0.82834530  0.82634766  1
  O  O40  1  0.22360243  0.65721517  0.00289796  1
  O  O41  1  0.02843813  0.25816766  0.09289616  1
  O  O42  1  0.12096666  0.06891095  0.29544991  1
  O  O43  1  0.06254806  0.93062905  0.10276000  1
  O  O44  1  0.13177699  0.53898890  0.22178392  1
  O  O45  1  0.19018523  0.28636180  0.40762979  1
  O  O46  1  0.16820843  0.81625681  0.29764656  1
  O  O47  1  0.21976668  0.06491342  0.52254366  1
  O  O48  1  0.29029025  0.56271358  0.46734761  1
  O  O49  1  0.34051830  0.30526931  0.69753374  1
  O  O50  1  0.31513059  0.78781646  0.59218233  1
  O  O51  1  0.37001428  0.03863099  0.77881223  1
  O  O52  1  0.37567831  0.56505666  0.69813311  1
  O  O53  1  0.41797638  0.42881663  0.89337626  1
  O  O54  1  0.47106904  0.76305430  0.91042134  1
  O  O55  1  0.27551330  0.16292396  0.99922581  1
  O  O56  1  0.32474705  0.33026036  0.18118791  1
  O  O57  1  0.38937407  0.09003930  0.21683343  1
  O  O58  1  0.41012139  0.58701932  0.26409183  1
  O  O59  1  0.38956632  0.84349469  0.15449882  1
  O  O60  1  0.47089842  0.33936801  0.43680484  1
  O  O61  1  0.52302772  0.08710319  0.62174244  1
  O  O62  1  0.47494118  0.91653147  0.37690186  1
  O  O63  1  0.52939153  0.66359456  0.56009154  1
  O  O64  1  0.61382739  0.14474459  0.85042349  1
  O  O65  1  0.58604479  0.40843598  0.74021993  1
  O  O66  1  0.59512798  0.90219712  0.77456946  1
  O  O67  1  0.69044373  0.67337492  0.83948938  1
  O  O68  1  0.71555125  0.86367896  0.99740134  1
  O  O69  1  0.52535832  0.22837222  0.08705975  1
  O  O70  1  0.57716982  0.59015092  0.11130115  1
  O  O71  1  0.61689636  0.42895457  0.29175626  1
  O  O72  1  0.62308440  0.96847574  0.21782076  1
  O  O73  1  0.69135941  0.21274849  0.40307717  1
  O  O74  1  0.66306714  0.68264313  0.32166928  1
  O  O75  1  0.71842095  0.43339602  0.52046477  1
  O  O76  1  0.78726760  0.93491155  0.46610210  1
  O  O77  1  0.84475045  0.19681563  0.70661745  1
  O  O78  1  0.81578317  0.71813671  0.58533692  1
  O  O79  1  0.87641471  0.46312798  0.79399153  1
  O  O80  1  0.93669661  0.06393618  0.89583672  1
  O  O81  1  0.87109310  0.93890085  0.69773291  1
  O  O82  1  0.97562190  0.72878621  0.91352374  1
  O  O83  1  0.78766098  0.34546124  0.99784686  1
  O  O84  1  0.81247146  0.16798994  0.16948940  1
  O  O85  1  0.89378120  0.64005496  0.13623756  1
  O  O86  1  0.90162729  0.40290849  0.22216214  1
  O  O87  1  0.91266237  0.91295435  0.26776085  1
  O  O88  1  0.96995501  0.15730467  0.43674609  1
  O  O89  1  0.96777987  0.59550379  0.36821444  1
