# generated using pymatgen
data_LiFeSiO4
_symmetry_space_group_name_H-M   'P 1'
_cell_length_a   5.37627007
_cell_length_b   5.92954827
_cell_length_c   11.29654749
_cell_angle_alpha   90.00018950
_cell_angle_beta   90.00000000
_cell_angle_gamma   90.00000000
_symmetry_Int_Tables_number   1
_chemical_formula_structural   LiFeSiO4
_chemical_formula_sum   'Li4 Fe4 Si4 O16'
_cell_volume   360.12097563
_cell_formula_units_Z   4
loop_
 _symmetry_equiv_pos_site_id
 _symmetry_equiv_pos_as_xyz
  1  'x, y, z'
loop_
 _atom_site_type_symbol
 _atom_site_label
 _atom_site_symmetry_multiplicity
 _atom_site_fract_x
 _atom_site_fract_y
 _atom_site_fract_z
 _atom_site_occupancy
  Li  Li0  1  0.17437982  0.52861453  0.16930032  1
  Li  Li1  1  0.32562018  0.52861453  0.66930032  1
  Li  Li2  1  0.67437653  0.02861697  0.33070010  1
  Li  Li3  1  0.82562347  0.02861697  0.83070010  1
  Fe  Fe4  1  0.82650323  0.75339089  0.57694032  1
  Fe  Fe5  1  0.67349677  0.75339089  0.07694032  1
  Fe  Fe6  1  0.17349706  0.25339202  0.42305670  1
  Fe  Fe7  1  0.32650294  0.25339202  0.92305670  1
  Si  Si8  1  0.32401546  0.74545231  0.41714104  1
  Si  Si9  1  0.17598454  0.74545231  0.91714104  1
  Si  Si10  1  0.67598210  0.24545376  0.58285878  1
  Si  Si11  1  0.82401790  0.24545376  0.08285878  1
  O  O12  1  0.23392263  0.98263512  0.84559390  1
  O  O13  1  0.26607737  0.98263512  0.34559390  1
  O  O14  1  0.87295582  0.75794106  0.93930535  1
  O  O15  1  0.17334426  0.72632869  0.54432384  1
  O  O16  1  0.62704418  0.75794106  0.43930535  1
  O  O17  1  0.32665574  0.72632869  0.04432384  1
  O  O18  1  0.25190332  0.52390948  0.83629494  1
  O  O19  1  0.24809668  0.52390948  0.33629494  1
  O  O20  1  0.76608301  0.48263436  0.15440697  1
  O  O21  1  0.73391699  0.48263436  0.65440697  1
  O  O22  1  0.82665123  0.22633284  0.45567577  1
  O  O23  1  0.37295674  0.25793839  0.56069509  1
  O  O24  1  0.67334877  0.22633284  0.95567577  1
  O  O25  1  0.12704326  0.25793839  0.06069509  1
  O  O26  1  0.75190572  0.02390858  0.66370488  1
  O  O27  1  0.74809428  0.02390858  0.16370488  1
