# generated using pymatgen
data_LiNi4(PO4)3
_symmetry_space_group_name_H-M   'P 1'
_cell_length_a   8.53756419
_cell_length_b   8.53756419
_cell_length_c   6.51220650
_cell_angle_alpha   73.83337441
_cell_angle_beta   106.16662559
_cell_angle_gamma   85.17035508
_symmetry_Int_Tables_number   1
_chemical_formula_structural   LiNi4(PO4)3
_chemical_formula_sum   'Li2 Ni8 P6 O24'
_cell_volume   431.09483702
_cell_formula_units_Z   2
loop_
 _symmetry_equiv_pos_site_id
 _symmetry_equiv_pos_as_xyz
  1  'x, y, z'
loop_
 _atom_site_type_symbol
 _atom_site_label
 _atom_site_symmetry_multiplicity
 _atom_site_fract_x
 _atom_site_fract_y
 _atom_site_fract_z
 _atom_site_occupancy
  Li  Li0  1  0.99942742  0.99942742  0.75000000  1
  Li  Li1  1  0.00057258  0.00057258  0.25000000  1
  Ni  Ni2  1  0.05342695  0.62892777  0.62296410  1
  Ni  Ni3  1  0.37107223  0.94657305  0.12296410  1
  Ni  Ni4  1  0.49502523  0.49502523  0.75000000  1
  Ni  Ni5  1  0.73746444  0.73746444  0.75000000  1
  Ni  Ni6  1  0.26253556  0.26253556  0.25000000  1
  Ni  Ni7  1  0.50497477  0.50497477  0.25000000  1
  Ni  Ni8  1  0.62892777  0.05342695  0.87703590  1
  Ni  Ni9  1  0.94657305  0.37107223  0.37703590  1
  P  P10  1  0.33778674  0.88314002  0.62074691  1
  P  P11  1  0.11685998  0.66221326  0.12074691  1
  P  P12  1  0.29057253  0.29057253  0.75000000  1
  P  P13  1  0.70942747  0.70942747  0.25000000  1
  P  P14  1  0.88314002  0.33778674  0.87925309  1
  P  P15  1  0.66221326  0.11685998  0.37925309  1
  O  O16  1  0.16119508  0.84292486  0.60056556  1
  O  O17  1  0.39911403  0.95959437  0.81105027  1
  O  O18  1  0.15707514  0.83880492  0.10056556  1
  O  O19  1  0.04040563  0.60088597  0.31105027  1
  O  O20  1  0.67515209  0.99291845  0.61221535  1
  O  O21  1  0.27193514  0.47751997  0.74270293  1
  O  O22  1  0.47567046  0.72990502  0.67140099  1
  O  O23  1  0.25764024  0.18771291  0.96363541  1
  O  O24  1  0.18771291  0.25764024  0.53636459  1
  O  O25  1  0.00708155  0.32484791  0.11221535  1
  O  O26  1  0.52248003  0.72806486  0.24270193  1
  O  O27  1  0.27009498  0.52432954  0.17140099  1
  O  O28  1  0.72990502  0.47567046  0.82859901  1
  O  O29  1  0.47751997  0.27193514  0.75729707  1
  O  O30  1  0.99291845  0.67515209  0.88778465  1
  O  O31  1  0.81228709  0.74235976  0.46363541  1
  O  O32  1  0.74235976  0.81228709  0.03636459  1
  O  O33  1  0.52432954  0.27009498  0.32859901  1
  O  O34  1  0.72806486  0.52248003  0.25729707  1
  O  O35  1  0.32484791  0.00708155  0.38778465  1
  O  O36  1  0.95959437  0.39911403  0.68894973  1
  O  O37  1  0.84292486  0.16119508  0.89943444  1
  O  O38  1  0.60088597  0.04040563  0.18895073  1
  O  O39  1  0.83880492  0.15707514  0.39943444  1
