# generated using pymatgen
data_Li3V3P8O29
_symmetry_space_group_name_H-M   'P 1'
_cell_length_a   9.78319747
_cell_length_b   9.78176205
_cell_length_c   13.97302090
_cell_angle_alpha   90.00556282
_cell_angle_beta   90.01918675
_cell_angle_gamma   59.88756083
_symmetry_Int_Tables_number   1
_chemical_formula_structural   Li3V3P8O29
_chemical_formula_sum   'Li6 V6 P16 O58'
_cell_volume   1156.71309425
_cell_formula_units_Z   2
loop_
 _symmetry_equiv_pos_site_id
 _symmetry_equiv_pos_as_xyz
  1  'x, y, z'
loop_
 _atom_site_type_symbol
 _atom_site_label
 _atom_site_symmetry_multiplicity
 _atom_site_fract_x
 _atom_site_fract_y
 _atom_site_fract_z
 _atom_site_occupancy
  Li  Li0  1  0.77284204  0.90586541  0.55489680  1
  Li  Li1  1  0.77276642  0.31728544  0.06150654  1
  Li  Li2  1  0.68411196  0.22667222  0.43840111  1
  Li  Li3  1  0.31297358  0.77789446  0.55356628  1
  Li  Li4  1  0.22219720  0.68698843  0.94654348  1
  Li  Li5  1  0.09445251  0.22717885  0.94495888  1
  V  V6  1  0.56482185  0.43511931  0.25000510  1
  V  V7  1  0.43591573  0.56407562  0.74998574  1
  V  V8  1  0.56388821  0.00307303  0.75757692  1
  V  V9  1  0.43181382  0.00234254  0.24728513  1
  V  V10  1  0.99765820  0.56825527  0.25256366  1
  V  V11  1  0.99681066  0.43595980  0.74251844  1
  P  P12  1  0.91591575  0.76771970  0.84323687  1
  P  P13  1  0.76861765  0.91372126  0.34019216  1
  P  P14  1  0.91547212  0.31284262  0.34517463  1
  P  P15  1  0.66749660  0.66608117  0.12884302  1
  P  P16  1  0.66338328  0.67169279  0.62819080  1
  P  P17  1  0.77323210  0.31633448  0.84198323  1
  P  P18  1  0.68373681  0.22657969  0.65818027  1
  P  P19  1  0.31273457  0.91494166  0.84335242  1
  P  P20  1  0.68754115  0.08428605  0.15453542  1
  P  P21  1  0.31660904  0.77404249  0.34050697  1
  P  P22  1  0.22595060  0.68347283  0.15962118  1
  P  P23  1  0.33413454  0.33231175  0.37117264  1
  P  P24  1  0.32851174  0.33640991  0.87189678  1
  P  P25  1  0.08500025  0.68716193  0.65672853  1
  P  P26  1  0.23201426  0.08406196  0.65683637  1
  P  P27  1  0.08624981  0.23156327  0.15961965  1
  O  O28  1  0.99425298  0.76647112  0.56983853  1
  O  O29  1  0.91313329  0.74502882  0.33658064  1
  O  O30  1  0.76793764  0.00048997  0.06653305  1
  O  O31  1  0.74435253  0.91046341  0.83474383  1
  O  O32  1  0.90856752  0.61503603  0.82126997  1
  O  O33  1  0.81587263  0.66328350  0.17517628  1
  O  O34  1  0.90805227  0.47377941  0.32442751  1
  O  O35  1  0.00001144  0.24366703  0.06806345  1
  O  O36  1  0.91890248  0.33900170  0.83648105  1
  O  O37  1  0.66815087  0.81747623  0.67021895  1
  O  O38  1  0.61682250  0.90559918  0.32282145  1
  O  O39  1  0.81261358  0.51963878  0.67340236  1
  O  O40  1  0.67090532  0.65693109  0.02253775  1
  O  O41  1  0.66321231  0.66880334  0.52223576  1
  O  O42  1  0.66986955  0.51143467  0.17018154  1
  O  O43  1  0.47635213  0.90441857  0.82486380  1
  O  O44  1  0.52016356  0.81404109  0.17269108  1
  O  O45  1  0.74306259  0.34021320  0.33870213  1
  O  O46  1  0.79236773  0.20746595  0.75013410  1
  O  O47  1  0.75061531  0.24084875  0.56671146  1
  O  O48  1  0.75877798  0.24966054  0.93349421  1
  O  O49  1  0.61907990  0.47865458  0.81963067  1
  O  O50  1  0.51232266  0.67042312  0.67062345  1
  O  O51  1  0.65940473  0.25705172  0.16163217  1
  O  O52  1  0.47780743  0.61874901  0.32021335  1
  O  O53  1  0.34338310  0.91587758  0.33256743  1
  O  O54  1  0.79001774  0.00599068  0.25217352  1
  O  O55  1  0.75687195  -0.00004658  0.43166801  1
  O  O56  1  0.24047262  0.99558764  0.56993464  1
  O  O57  1  0.66059795  0.08119926  0.66361564  1
  O  O58  1  0.52156188  0.38097412  0.68040028  1
  O  O59  1  0.33866013  0.74416542  0.83967216  1
  O  O60  1  0.48857210  0.33022831  0.32994958  1
  O  O61  1  0.38114671  0.52208305  0.17981321  1
  O  O62  1  0.24036280  0.75180135  0.06826073  1
  O  O63  1  0.24837103  0.75950571  0.43187844  1
  O  O64  1  0.20570831  0.79416530  0.25011484  1
  O  O65  1  0.25566436  0.66150035  0.66040299  1
  O  O66  1  0.48046083  0.18722266  0.82661657  1
  O  O67  1  0.52680285  0.09124407  0.17525588  1
  O  O68  1  0.32981088  0.48748952  0.82944936  1
  O  O69  1  0.33176508  0.33618224  0.97784938  1
  O  O70  1  0.34341281  0.32817709  0.47747210  1
  O  O71  1  0.18594089  0.47949564  0.32736775  1
  O  O72  1  0.38466869  0.09138660  0.67878796  1
  O  O73  1  0.33730797  0.18393009  0.32446995  1
  O  O74  1  0.08414248  0.65666347  0.16740382  1
  O  O75  1  0.00200027  0.79173155  0.75048665  1
  O  O76  1  0.00459011  0.75888660  0.93012260  1
  O  O77  1  0.09555188  0.52348453  0.67514879  1
  O  O78  1  0.18269052  0.33167217  0.82989133  1
  O  O79  1  0.09433113  0.38342221  0.17702211  1
  O  O80  1  0.25488988  0.08692100  0.16323950  1
  O  O81  1  0.23362631  0.00568739  0.93021362  1
  O  O82  1  0.20808114  0.99792245  0.74959912  1
  O  O83  1  0.08924499  0.25562536  0.66537829  1
  O  O84  1  0.00031382  0.23240767  0.43311494  1
  O  O85  1  0.99376339  0.21038778  0.24756721  1
