# generated using pymatgen
data_K6Al32O51
_symmetry_space_group_name_H-M   'P 1'
_cell_length_a   12.01334896
_cell_length_b   9.83503762
_cell_length_c   9.83505889
_cell_angle_alpha   120.00367692
_cell_angle_beta   82.15439498
_cell_angle_gamma   82.15461513
_symmetry_Int_Tables_number   1
_chemical_formula_structural   K6Al32O51
_chemical_formula_sum   'K6 Al32 O51'
_cell_volume   968.07837086
_cell_formula_units_Z   1
loop_
 _symmetry_equiv_pos_site_id
 _symmetry_equiv_pos_as_xyz
  1  'x, y, z'
loop_
 _atom_site_type_symbol
 _atom_site_label
 _atom_site_symmetry_multiplicity
 _atom_site_fract_x
 _atom_site_fract_y
 _atom_site_fract_z
 _atom_site_occupancy
  K  K0  1  0.48696341  0.18811396  0.18811456  1
  K  K1  1  0.52576016  0.18164294  0.49140259  1
  K  K2  1  0.48753439  0.50417093  0.82040491  1
  K  K3  1  0.52575712  0.49139908  0.18163225  1
  K  K4  1  0.52583944  0.80122412  0.80122119  1
  K  K5  1  0.48753337  0.82040003  0.50416240  1
  Al  Al6  1  0.99782950  0.00101917  0.00101867  1
  Al  Al7  1  0.20677766  0.09932155  0.09931960  1
  Al  Al8  1  0.20881254  0.09643301  0.59673317  1
  Al  Al9  1  0.20445356  0.26459732  0.43003618  1
  Al  Al10  1  0.99784664  0.33400101  0.66706357  1
  Al  Al11  1  0.94803985  0.01783798  0.68394877  1
  Al  Al12  1  0.65343869  0.11553785  0.78221345  1
  Al  Al13  1  0.34767444  0.21750427  0.88458058  1
  Al  Al14  1  0.04991537  0.31674704  0.98235721  1
  Al  Al15  1  0.78720802  0.07454668  0.24112056  1
  Al  Al16  1  0.78721490  0.24111547  0.07452348  1
  Al  Al17  1  0.78720393  0.23792254  0.56704539  1
  Al  Al18  1  0.20646749  0.43140329  0.76503114  1
  Al  Al19  1  0.20445277  0.43003743  0.26459721  1
  Al  Al20  1  0.20881369  0.59673359  0.09643069  1
  Al  Al21  1  0.93657194  0.35393916  0.35393863  1
  Al  Al22  1  0.05021015  0.65102199  0.65102079  1
  Al  Al23  1  0.34192103  0.55234449  0.55234244  1
  Al  Al24  1  0.99784612  0.66706020  0.33399422  1
  Al  Al25  1  0.79295444  0.40259957  0.90495992  1
  Al  Al26  1  0.78739827  0.57080125  0.73353987  1
  Al  Al27  1  0.20646611  0.76503362  0.43140087  1
  Al  Al28  1  0.78719791  0.56703991  0.23792747  1
  Al  Al29  1  0.20648305  0.76465086  0.93222040  1
  Al  Al30  1  0.20648296  0.93222333  0.76464963  1
  Al  Al31  1  0.94804166  0.68395248  0.01783712  1
  Al  Al32  1  0.34767630  0.88457968  0.21749853  1
  Al  Al33  1  0.04991691  0.98235741  0.31674404  1
  Al  Al34  1  0.65344037  0.78221660  0.11553612  1
  Al  Al35  1  0.78739872  0.73355249  0.57079899  1
  Al  Al36  1  0.79295787  0.90495634  0.40258592  1
  Al  Al37  1  0.79299661  0.89964245  0.89964282  1
  O  O38  1  0.28968711  0.06720244  0.73390947  1
  O  O39  1  0.28867302  0.07367291  0.23735627  1
  O  O40  1  0.10006300  0.12345121  0.96580628  1
  O  O41  1  0.10006865  0.14273916  0.47620058  1
  O  O42  1  0.10443367  0.29577566  0.29577662  1
  O  O43  1  0.71988580  0.08921666  0.08921107  1
  O  O44  1  0.89570242  0.02743909  0.36810979  1
  O  O45  1  0.28024773  0.24005209  0.57226735  1
  O  O46  1  0.49977552  0.16685235  0.83370604  1
  O  O47  1  0.28867256  0.23736012  0.07367250  1
  O  O48  1  0.90229546  0.03345192  0.87578490  1
  O  O49  1  0.71183324  0.09421846  0.59504732  1
  O  O50  1  0.10100437  0.30001541  0.78921070  1
  O  O51  1  0.28006044  0.40288733  0.40288686  1
  O  O52  1  0.90229420  0.18642617  0.18642925  1
  O  O53  1  0.71555318  0.24462328  0.42790858  1
  O  O54  1  0.09770320  0.45701354  0.63469525  1
  O  O55  1  0.28968681  0.40614634  0.90295008  1
  O  O56  1  0.90242428  0.20903475  0.69869484  1
  O  O57  1  0.10007002  0.47619947  0.14273442  1
  O  O58  1  0.71186834  0.26392120  0.92831603  1
  O  O59  1  0.48631579  0.50424083  0.50424443  1
  O  O60  1  0.71995256  0.42686550  0.76397126  1
  O  O61  1  0.28024710  0.57226839  0.24005103  1
  O  O62  1  0.10822014  0.63059797  0.96684777  1
  O  O63  1  0.89569972  0.36810835  0.02743443  1
  O  O64  1  0.28106663  0.57322064  0.74347485  1
  O  O65  1  0.90221924  0.36546303  0.54454070  1
  O  O66  1  0.09770094  0.63469145  0.45700859  1
  O  O67  1  0.71554605  0.42789241  0.24460573  1
  O  O68  1  0.90233261  0.52305493  0.85640791  1
  O  O69  1  0.28968816  0.73391021  0.06719725  1
  O  O70  1  0.10100616  0.78921290  0.30001549  1
  O  O71  1  0.90221578  0.54453154  0.36544463  1
  O  O72  1  0.71183255  0.59505270  0.09422387  1
  O  O73  1  0.28106685  0.74347766  0.57321823  1
  O  O74  1  0.09863589  0.81241700  0.81241456  1
  O  O75  1  0.71561111  0.61140582  0.61139911  1
  O  O76  1  0.28023881  0.90735959  0.90735671  1
  O  O77  1  0.89559617  0.70876261  0.70875665  1
  O  O78  1  0.49977671  0.83369712  0.16684492  1
  O  O79  1  0.10821824  0.96684909  0.63059637  1
  O  O80  1  0.71995293  0.76397259  0.42685931  1
  O  O81  1  0.10006394  0.96580472  0.12344825  1
  O  O82  1  0.90242715  0.69870248  0.20903328  1
  O  O83  1  0.71184602  0.76469212  0.93029113  1
  O  O84  1  0.28968588  0.90295375  0.40614257  1
  O  O85  1  0.90233141  0.85640537  0.52305393  1
  O  O86  1  0.90229521  0.87578122  0.03343737  1
  O  O87  1  0.71184772  0.93029772  0.76469480  1
  O  O88  1  0.71186714  0.92832860  0.26391833  1
