# generated using pymatgen
data_FeSCl7
_symmetry_space_group_name_H-M   'P 1'
_cell_length_a   7.12579927
_cell_length_b   12.17156769
_cell_length_c   12.59944532
_cell_angle_alpha   90.00000000
_cell_angle_beta   90.00000000
_cell_angle_gamma   107.62979627
_symmetry_Int_Tables_number   1
_chemical_formula_structural   FeSCl7
_chemical_formula_sum   'Fe4 S4 Cl28'
_cell_volume   1041.45282392
_cell_formula_units_Z   4
loop_
 _symmetry_equiv_pos_site_id
 _symmetry_equiv_pos_as_xyz
  1  'x, y, z'
loop_
 _atom_site_type_symbol
 _atom_site_label
 _atom_site_symmetry_multiplicity
 _atom_site_fract_x
 _atom_site_fract_y
 _atom_site_fract_z
 _atom_site_occupancy
  Fe  Fe0  1  0.63549919  0.15990359  0.47559690  1
  Fe  Fe1  1  0.36449981  0.34009641  0.97559690  1
  Fe  Fe2  1  0.36397358  0.84001610  0.52398734  1
  Fe  Fe3  1  0.63602842  0.65998490  0.02398834  1
  S  S4  1  0.95802525  0.04483298  0.75379145  1
  S  S5  1  0.04197375  0.45516602  0.25379045  1
  S  S6  1  0.04172389  0.95496152  0.24626567  1
  S  S7  1  0.95827711  0.54503848  0.74626567  1
  Cl  Cl8  1  0.90822150  0.19131432  0.57062313  1
  Cl  Cl9  1  0.09177650  0.30868668  0.07062313  1
  Cl  Cl10  1  0.09109406  0.80857065  0.42937225  1
  Cl  Cl11  1  0.90890594  0.69142835  0.92937225  1
  Cl  Cl12  1  0.79372628  0.90336018  0.67261436  1
  Cl  Cl13  1  0.20627172  0.59663882  0.17261436  1
  Cl  Cl14  1  0.20621363  0.09635877  0.32759437  1
  Cl  Cl15  1  0.79378437  0.40364123  0.82759437  1
  Cl  Cl16  1  0.08417821  0.96963343  0.86266183  1
  Cl  Cl17  1  0.91582179  0.53036657  0.36266183  1
  Cl  Cl18  1  0.91606547  0.03067621  0.13763633  1
  Cl  Cl19  1  0.08393453  0.46932479  0.63763533  1
  Cl  Cl20  1  0.75372358  0.08876875  0.84037400  1
  Cl  Cl21  1  0.24627642  0.41123125  0.34037300  1
  Cl  Cl22  1  0.24623889  0.91116647  0.15973416  1
  Cl  Cl23  1  0.75376011  0.58883453  0.65973416  1
  Cl  Cl24  1  0.39543133  0.02831274  0.59893329  1
  Cl  Cl25  1  0.60456767  0.47168726  0.09893329  1
  Cl  Cl26  1  0.60463124  0.97163580  0.40080528  1
  Cl  Cl27  1  0.39537076  0.52836420  0.90080528  1
  Cl  Cl28  1  0.74711229  0.23460016  0.31139424  1
  Cl  Cl29  1  0.25288771  0.26539984  0.81139424  1
  Cl  Cl30  1  0.25167734  0.76507162  0.68822673  1
  Cl  Cl31  1  0.74832266  0.73492838  0.18822573  1
  Cl  Cl32  1  0.48591722  0.29390215  0.51131720  1
  Cl  Cl33  1  0.51408278  0.20609685  0.01131620  1
  Cl  Cl34  1  0.51421760  0.70622150  0.48907546  1
  Cl  Cl35  1  0.48578340  0.79377950  0.98907446  1
