# generated using pymatgen
data_Li3MnCoO5
_symmetry_space_group_name_H-M   'P 1'
_cell_length_a   3.03429261
_cell_length_b   12.07076346
_cell_length_c   5.04902455
_cell_angle_alpha   83.07669531
_cell_angle_beta   92.26671192
_cell_angle_gamma   87.48315640
_symmetry_Int_Tables_number   1
_chemical_formula_structural   Li3MnCoO5
_chemical_formula_sum   'Li6 Mn2 Co2 O10'
_cell_volume   183.21363627
_cell_formula_units_Z   2
loop_
 _symmetry_equiv_pos_site_id
 _symmetry_equiv_pos_as_xyz
  1  'x, y, z'
loop_
 _atom_site_type_symbol
 _atom_site_label
 _atom_site_symmetry_multiplicity
 _atom_site_fract_x
 _atom_site_fract_y
 _atom_site_fract_z
 _atom_site_occupancy
  Li  Li0  1  0.89790320  0.20040859  0.30133477  1
  Li  Li1  1  0.29679240  0.40071702  0.10169269  1
  Li  Li2  1  0.70000000  0.60000000  0.90000000  1
  Li  Li3  1  0.10320760  0.79928298  0.69830731  1
  Li  Li4  1  0.50209680  0.99959141  0.49866523  1
  Li  Li5  1  0.20000000  0.60000000  0.40000000  1
  Mn  Mn6  1  0.00377607  0.99714781  0.00344364  1
  Mn  Mn7  1  0.39622393  0.20285219  0.79655636  1
  Co  Co8  1  0.79033705  0.41037880  0.59289374  1
  Co  Co9  1  0.60966295  0.78962120  0.20710626  1
  O  O10  1  0.42420725  0.10172318  0.13303168  1
  O  O11  1  0.82762549  0.30474828  0.91677676  1
  O  O12  1  0.23230826  0.49287582  0.74013409  1
  O  O13  1  0.63990797  0.71048393  0.51843961  1
  O  O14  1  0.02640794  0.89687528  0.33269156  1
  O  O15  1  0.37359206  0.30312472  0.46730844  1
  O  O16  1  0.76009203  0.48951607  0.28156039  1
  O  O17  1  0.16769174  0.70712418  0.05986591  1
  O  O18  1  0.57237451  0.89525172  0.88322324  1
  O  O19  1  0.97579275  0.09827682  0.66696832  1
