# generated using pymatgen
data_Li2CeTl
_symmetry_space_group_name_H-M   'P 1'
_cell_length_a   4.98543003
_cell_length_b   4.98486467
_cell_length_c   4.98520304
_cell_angle_alpha   60.01887307
_cell_angle_beta   60.01953558
_cell_angle_gamma   60.01780986
_symmetry_Int_Tables_number   1
_chemical_formula_structural   Li2CeTl
_chemical_formula_sum   'Li2 Ce1 Tl1'
_cell_volume   87.64119863
_cell_formula_units_Z   1
loop_
 _symmetry_equiv_pos_site_id
 _symmetry_equiv_pos_as_xyz
  1  'x, y, z'
loop_
 _atom_site_type_symbol
 _atom_site_label
 _atom_site_symmetry_multiplicity
 _atom_site_fract_x
 _atom_site_fract_y
 _atom_site_fract_z
 _atom_site_occupancy
  Li  Li0  1  0.00001191  0.00001136  0.00001144  1
  Li  Li1  1  0.49998663  0.49998780  0.49998962  1
  Ce  Ce2  1  0.25000253  0.24999951  0.24999808  1
  Tl  Tl3  1  0.74999893  0.75000133  0.75000085  1
