# generated using pymatgen
data_ThNb4O12
_symmetry_space_group_name_H-M   'P 1'
_cell_length_a   5.60292088
_cell_length_b   11.97587952
_cell_length_c   11.97587952
_cell_angle_alpha   90.19512781
_cell_angle_beta   76.47172489
_cell_angle_gamma   103.52827511
_symmetry_Int_Tables_number   1
_chemical_formula_structural   ThNb4O12
_chemical_formula_sum   'Th3 Nb12 O36'
_cell_volume   758.48756953
_cell_formula_units_Z   3
loop_
 _symmetry_equiv_pos_site_id
 _symmetry_equiv_pos_as_xyz
  1  'x, y, z'
loop_
 _atom_site_type_symbol
 _atom_site_label
 _atom_site_symmetry_multiplicity
 _atom_site_fract_x
 _atom_site_fract_y
 _atom_site_fract_z
 _atom_site_occupancy
  Th  Th0  1  0.00000000  0.00000000  0.00000000  1
  Th  Th1  1  0.50000000  0.17219775  0.17219775  1
  Th  Th2  1  0.50000000  0.82780225  0.82780225  1
  Nb  Nb3  1  0.86624493  0.03961601  0.30712615  1
  Nb  Nb4  1  0.13375507  0.30712615  0.03961601  1
  Nb  Nb5  1  0.62362574  0.46636362  0.21911115  1
  Nb  Nb6  1  0.37637426  0.21911115  0.46636362  1
  Nb  Nb7  1  0.88026995  0.38026995  0.61973005  1
  Nb  Nb8  1  0.36424178  0.86424178  0.13575822  1
  Nb  Nb9  1  0.11973005  0.61973005  0.38026995  1
  Nb  Nb10  1  0.63575822  0.13575822  0.86424178  1
  Nb  Nb11  1  0.62362574  0.78088885  0.53363638  1
  Nb  Nb12  1  0.37637426  0.53363638  0.78088885  1
  Nb  Nb13  1  0.86624493  0.69287385  0.96038399  1
  Nb  Nb14  1  0.13375507  0.96038399  0.69287385  1
  O  O15  1  0.50000000  0.00000000  0.00000000  1
  O  O16  1  0.00000000  0.15412731  0.15412731  1
  O  O17  1  0.84488067  0.35223362  0.12670410  1
  O  O18  1  0.15511933  0.12670410  0.35223362  1
  O  O19  1  0.38064885  0.35223362  0.12670410  1
  O  O20  1  0.61935115  0.12670410  0.35223362  1
  O  O21  1  0.50000000  0.31793014  0.31793014  1
  O  O22  1  0.74766155  0.57734694  0.08202385  1
  O  O23  1  0.25233845  0.08202385  0.57734694  1
  O  O24  1  0.14020210  0.81231749  0.02721526  1
  O  O25  1  0.35509887  0.02721526  0.81231749  1
  O  O26  1  0.63027774  0.29340471  0.53726598  1
  O  O27  1  0.87413902  0.53726598  0.29340471  1
  O  O28  1  0.64490113  0.81231749  0.02721526  1
  O  O29  1  0.85979790  0.02721526  0.81231749  1
  O  O30  1  0.36972226  0.53726598  0.29340471  1
  O  O31  1  0.12586098  0.29340471  0.53726598  1
  O  O32  1  0.00000000  0.50000000  0.50000000  1
  O  O33  1  0.24830004  0.74830004  0.25169996  1
  O  O34  1  0.75169996  0.25169996  0.74830004  1
  O  O35  1  0.87413902  0.70659529  0.46273402  1
  O  O36  1  0.14020210  0.97278474  0.18768251  1
  O  O37  1  0.12586098  0.46273402  0.70659529  1
  O  O38  1  0.36972226  0.70659529  0.46273402  1
  O  O39  1  0.63027774  0.46273402  0.70659529  1
  O  O40  1  0.64490113  0.97278474  0.18768251  1
  O  O41  1  0.35509887  0.18768251  0.97278474  1
  O  O42  1  0.85979790  0.18768251  0.97278474  1
  O  O43  1  0.25233845  0.42265306  0.91797615  1
  O  O44  1  0.74766155  0.91797615  0.42265306  1
  O  O45  1  0.50000000  0.68206986  0.68206986  1
  O  O46  1  0.38064885  0.87329590  0.64776638  1
  O  O47  1  0.15511933  0.64776638  0.87329590  1
  O  O48  1  0.61935115  0.64776638  0.87329590  1
  O  O49  1  0.84488067  0.87329590  0.64776638  1
  O  O50  1  0.00000000  0.84587269  0.84587269  1
