# generated using pymatgen
data_Li2Fe(SiO3)2
_symmetry_space_group_name_H-M   'P 1'
_cell_length_a   12.40130208
_cell_length_b   11.15692590
_cell_length_c   6.32756807
_cell_angle_alpha   73.52653518
_cell_angle_beta   75.21947933
_cell_angle_gamma   85.85137795
_symmetry_Int_Tables_number   1
_chemical_formula_structural   Li2Fe(SiO3)2
_chemical_formula_sum   'Li12 Fe6 Si12 O36'
_cell_volume   811.76679935
_cell_formula_units_Z   6
loop_
 _symmetry_equiv_pos_site_id
 _symmetry_equiv_pos_as_xyz
  1  'x, y, z'
loop_
 _atom_site_type_symbol
 _atom_site_label
 _atom_site_symmetry_multiplicity
 _atom_site_fract_x
 _atom_site_fract_y
 _atom_site_fract_z
 _atom_site_occupancy
  Li  Li0  1  0.02301577  0.00000000  0.48849212  1
  Li  Li1  1  0.69894100  0.00000000  0.15052950  1
  Li  Li2  1  0.45834316  0.13070137  0.95434846  1
  Li  Li3  1  0.13442874  0.21954396  0.57049175  1
  Li  Li4  1  0.63442874  0.28045604  0.54003672  1
  Li  Li5  1  0.95834316  0.36929863  0.83505083  1
  Li  Li6  1  0.52301577  0.50000000  0.23849212  1
  Li  Li7  1  0.19894100  0.50000000  0.90052950  1
  Li  Li8  1  0.95834316  0.63070137  0.20660601  1
  Li  Li9  1  0.63442874  0.71954396  0.82553554  1
  Li  Li10  1  0.13442874  0.78045604  0.29507951  1
  Li  Li11  1  0.45834316  0.86929863  0.58730838  1
  Fe  Fe12  1  0.26256028  0.00000000  0.36871986  1
  Fe  Fe13  1  0.85285226  0.16664017  0.72541785  1
  Fe  Fe14  1  0.35285226  0.33335983  0.64205802  1
  Fe  Fe15  1  0.76256028  0.50000000  0.11871986  1
  Fe  Fe16  1  0.35285226  0.66664017  0.00508972  1
  Fe  Fe17  1  0.85285226  0.83335983  0.42172989  1
  Si  Si18  1  0.67249963  0.00000000  0.66375018  1
  Si  Si19  1  0.02790842  0.00000000  0.98604579  1
  Si  Si20  1  0.48280163  0.11579637  0.45500026  1
  Si  Si21  1  0.13448713  0.21676238  0.07971825  1
  Si  Si22  1  0.63448713  0.28323762  0.04648063  1
  Si  Si23  1  0.98280163  0.38420363  0.32079663  1
  Si  Si24  1  0.17249963  0.50000000  0.41375018  1
  Si  Si25  1  0.52790842  0.50000000  0.73604579  1
  Si  Si26  1  0.98280163  0.61579637  0.69640174  1
  Si  Si27  1  0.63448713  0.71676238  0.31903224  1
  Si  Si28  1  0.13448713  0.78323762  0.78579462  1
  Si  Si29  1  0.48280163  0.88420363  0.06219811  1
  O  O30  1  0.58922547  0.01351956  0.48341743  1
  O  O31  1  0.96007632  0.02454983  0.79187663  1
  O  O32  1  0.37570237  0.02875297  0.51935068  1
  O  O33  1  0.14403195  0.13317250  0.32978094  1
  O  O34  1  0.11078678  0.12703524  0.92210462  1
  O  O35  1  0.73774984  0.13081769  0.58304809  1
  O  O36  1  0.51604046  0.19633098  0.17851127  1
  O  O37  1  0.73664912  0.18875522  0.00053223  1
  O  O38  1  0.47793323  0.20304194  0.62356741  1
  O  O39  1  0.97793323  0.29695806  0.57660835  1
  O  O40  1  0.23664912  0.31124478  0.93928745  1
  O  O41  1  0.01604046  0.30366902  0.12484125  1
  O  O42  1  0.23774984  0.36918231  0.46386578  1
  O  O43  1  0.61078678  0.37296476  0.79914086  1
  O  O44  1  0.64403195  0.36682750  0.21295345  1
  O  O45  1  0.87570237  0.47124703  0.29810365  1
  O  O46  1  0.46007632  0.47545017  0.56642646  1
  O  O47  1  0.08922547  0.48648044  0.24693699  1
  O  O48  1  0.08922547  0.51351956  0.66383754  1
  O  O49  1  0.46007632  0.52454983  0.97349722  1
  O  O50  1  0.87570237  0.52875297  0.82619398  1
  O  O51  1  0.64403195  0.63317250  0.14301461  1
  O  O52  1  0.61078678  0.62703524  0.59007236  1
  O  O53  1  0.23774984  0.63081769  0.29838438  1
  O  O54  1  0.01604046  0.69633098  0.85911829  1
  O  O55  1  0.23664912  0.68875522  0.82406343  1
  O  O56  1  0.97793323  0.70304194  0.44545843  1
  O  O57  1  0.47793323  0.79695806  0.89849937  1
  O  O58  1  0.73664912  0.81124478  0.26281865  1
  O  O59  1  0.51604046  0.80366902  0.30544927  1
  O  O60  1  0.73774984  0.86918231  0.67920207  1
  O  O61  1  0.11078678  0.87296476  0.96710761  1
  O  O62  1  0.14403195  0.86682750  0.52618711  1
  O  O63  1  0.37570237  0.97124703  0.10494695  1
  O  O64  1  0.96007632  0.97545017  0.24804706  1
  O  O65  1  0.58922547  0.98648044  0.92735610  1
