# generated using pymatgen
data_KCSN
_symmetry_space_group_name_H-M   'P 1'
_cell_length_a   6.51558100
_cell_length_b   11.13901612
_cell_length_c   6.47980507
_cell_angle_alpha   90.00000000
_cell_angle_beta   90.00000000
_cell_angle_gamma   90.00000000
_symmetry_Int_Tables_number   1
_chemical_formula_structural   KCSN
_chemical_formula_sum   'K4 C4 S4 N4'
_cell_volume   470.28586093
_cell_formula_units_Z   4
loop_
 _symmetry_equiv_pos_site_id
 _symmetry_equiv_pos_as_xyz
  1  'x, y, z'
loop_
 _atom_site_type_symbol
 _atom_site_label
 _atom_site_symmetry_multiplicity
 _atom_site_fract_x
 _atom_site_fract_y
 _atom_site_fract_z
 _atom_site_occupancy
  K  K0  1  0.27220210  0.38690220  0.25000000  1
  K  K1  1  0.72779590  0.88690220  0.25000000  1
  K  K2  1  0.27220210  0.11309680  0.75000100  1
  K  K3  1  0.72779590  0.61309680  0.75000100  1
  C  C4  1  0.75155605  0.48535466  0.25000000  1
  C  C5  1  0.24844495  0.98535466  0.25000000  1
  C  C6  1  0.75155605  0.01464434  0.75000100  1
  C  C7  1  0.24844495  0.51464534  0.75000100  1
  S  S8  1  0.40046001  0.10413172  0.25000000  1
  S  S9  1  0.59953899  0.60413072  0.25000000  1
  S  S10  1  0.40046001  0.39586828  0.75000100  1
  S  S11  1  0.59953899  0.89586928  0.75000100  1
  N  N12  1  0.85438368  0.39732592  0.25000000  1
  N  N13  1  0.14561532  0.89732692  0.25000000  1
  N  N14  1  0.85438368  0.10267408  0.75000100  1
  N  N15  1  0.14561532  0.60267508  0.75000100  1
