# generated using pymatgen
data_Ca3TiNiO6
_symmetry_space_group_name_H-M   'P 1'
_cell_length_a   6.46695087
_cell_length_b   6.46695099
_cell_length_c   6.46695107
_cell_angle_alpha   92.58199414
_cell_angle_beta   92.58198979
_cell_angle_gamma   92.58199006
_symmetry_Int_Tables_number   1
_chemical_formula_structural   Ca3TiNiO6
_chemical_formula_sum   'Ca6 Ti2 Ni2 O12'
_cell_volume   269.60793492
_cell_formula_units_Z   2
loop_
 _symmetry_equiv_pos_site_id
 _symmetry_equiv_pos_as_xyz
  1  'x, y, z'
loop_
 _atom_site_type_symbol
 _atom_site_label
 _atom_site_symmetry_multiplicity
 _atom_site_fract_x
 _atom_site_fract_y
 _atom_site_fract_z
 _atom_site_occupancy
  Ca  Ca0  1  0.60673864  0.89326236  0.25000000  1
  Ca  Ca1  1  0.10673864  0.75000000  0.39326236  1
  Ca  Ca2  1  0.75000000  0.39326136  0.10673864  1
  Ca  Ca3  1  0.39326236  0.10673764  0.75000000  1
  Ca  Ca4  1  0.89326136  0.25000000  0.60673764  1
  Ca  Ca5  1  0.25000000  0.60673864  0.89326136  1
  Ti  Ti6  1  0.49999900  0.49999900  0.49999900  1
  Ti  Ti7  1  -0.00000000  -0.00000000  -0.00000000  1
  Ni  Ni8  1  0.75000000  0.75000000  0.75000000  1
  Ni  Ni9  1  0.25000000  0.25000000  0.25000000  1
  O  O10  1  0.20713535  0.41997069  0.54197231  1
  O  O11  1  0.79286565  0.58002831  0.45802769  1
  O  O12  1  0.58002931  0.45802869  0.79286565  1
  O  O13  1  0.45802869  0.79286565  0.58002931  1
  O  O14  1  0.04197231  0.91997169  0.70713435  1
  O  O15  1  0.91997069  0.70713435  0.04197131  1
  O  O16  1  0.29286565  0.95802869  0.08002831  1
  O  O17  1  0.08002931  0.29286565  0.95802869  1
  O  O18  1  0.95802869  0.08002831  0.29286565  1
  O  O19  1  0.54197131  0.20713535  0.41997069  1
  O  O20  1  0.41997069  0.54197131  0.20713435  1
  O  O21  1  0.70713435  0.04197131  0.91997169  1
