# generated using pymatgen
data_Li4MnCo2O7
_symmetry_space_group_name_H-M   'P 1'
_cell_length_a   3.02070089
_cell_length_b   9.79053016
_cell_length_c   9.69370412
_cell_angle_alpha   63.59448547
_cell_angle_beta   84.32164564
_cell_angle_gamma   95.15878483
_symmetry_Int_Tables_number   1
_chemical_formula_structural   Li4MnCo2O7
_chemical_formula_sum   'Li8 Mn2 Co4 O14'
_cell_volume   252.61332398
_cell_formula_units_Z   2
loop_
 _symmetry_equiv_pos_site_id
 _symmetry_equiv_pos_as_xyz
  1  'x, y, z'
loop_
 _atom_site_type_symbol
 _atom_site_label
 _atom_site_symmetry_multiplicity
 _atom_site_fract_x
 _atom_site_fract_y
 _atom_site_fract_z
 _atom_site_occupancy
  Li  Li0  1  0.92300581  0.21353036  0.15196438  1
  Li  Li1  1  0.22236314  0.35951995  0.56740465  1
  Li  Li2  1  0.50054876  0.50010901  0.00149228  1
  Li  Li3  1  0.78562640  0.64281823  0.42863528  1
  Li  Li4  1  0.07087420  0.78556581  0.85568684  1
  Li  Li5  1  0.34896447  0.92617293  0.28973605  1
  Li  Li6  1  0.64841568  0.07227183  0.70517816  1
  Li  Li7  1  0.28572975  0.14293720  0.42855800  1
  Mn  Mn8  1  0.00144061  0.99614937  0.00178931  1
  Mn  Mn9  1  0.56990976  0.28956153  0.85532730  1
  Co  Co10  1  0.85588720  0.41763553  0.28972243  1
  Co  Co11  1  0.14527822  0.57671632  0.71122788  1
  Co  Co12  1  0.42593382  0.70895367  0.14591916  1
  Co  Co13  1  0.71543446  0.86796678  0.56753792  1
  O  O14  1  0.43774935  0.11112403  0.06309321  1
  O  O15  1  0.75666810  0.27043271  0.48053635  1
  O  O16  1  0.01945454  0.40443330  0.91307755  1
  O  O17  1  0.31321199  0.53787342  0.34285107  1
  O  O18  1  0.58716376  0.68771548  0.76572149  1
  O  O19  1  0.86255476  0.81847399  0.20589789  1
  O  O20  1  0.15477474  0.95598759  0.63795986  1
  O  O21  1  0.41700721  0.32957999  0.21918455  1
  O  O22  1  0.70846209  0.46748323  0.65132002  1
  O  O23  1  0.98473259  0.59787986  0.09128177  1
  O  O24  1  0.25866404  0.74758748  0.51448393  1
  O  O25  1  0.55171117  0.88158418  0.94379555  1
  O  O26  1  0.81493677  0.01516145  0.37662552  1
  O  O27  1  0.13349661  0.17477478  0.79399158  1
