# generated using pymatgen
data_Ti4ZnS8
_symmetry_space_group_name_H-M   'P 1'
_cell_length_a   7.38322166
_cell_length_b   7.37483531
_cell_length_c   7.38849016
_cell_angle_alpha   55.03293164
_cell_angle_beta   55.00169632
_cell_angle_gamma   55.06908165
_symmetry_Int_Tables_number   1
_chemical_formula_structural   Ti4ZnS8
_chemical_formula_sum   'Ti4 Zn1 S8'
_cell_volume   251.61088510
_cell_formula_units_Z   1
loop_
 _symmetry_equiv_pos_site_id
 _symmetry_equiv_pos_as_xyz
  1  'x, y, z'
loop_
 _atom_site_type_symbol
 _atom_site_label
 _atom_site_symmetry_multiplicity
 _atom_site_fract_x
 _atom_site_fract_y
 _atom_site_fract_z
 _atom_site_occupancy
  Ti  Ti0  1  0.50004127  0.00000162  0.49995452  1
  Ti  Ti1  1  0.00000895  0.49996714  0.50001796  1
  Ti  Ti2  1  0.49996963  0.50004415  0.99999003  1
  Ti  Ti3  1  0.99999919  0.99999677  0.00001036  1
  Zn  Zn4  1  0.49997949  0.49997519  0.50005082  1
  S  S5  1  0.75371020  0.25873121  0.75336591  1
  S  S6  1  0.24665446  0.24645545  0.74102812  1
  S  S7  1  0.24632106  0.74126375  0.24661035  1
  S  S8  1  0.74112035  0.24624047  0.24683215  1
  S  S9  1  0.25838019  0.25804546  0.25858472  1
  S  S10  1  0.74163462  0.74195913  0.74138956  1
  S  S11  1  0.25887697  0.75375099  0.75319973  1
  S  S12  1  0.75330261  0.75357265  0.25896577  1
