# generated using pymatgen
data_Ca2MnN2
_symmetry_space_group_name_H-M   'P 1'
_cell_length_a   4.99844669
_cell_length_b   6.00764900
_cell_length_c   6.57508341
_cell_angle_alpha   63.59502238
_cell_angle_beta   67.65980432
_cell_angle_gamma   65.41726262
_symmetry_Int_Tables_number   1
_chemical_formula_structural   Ca2MnN2
_chemical_formula_sum   'Ca4 Mn2 N4'
_cell_volume   156.13334391
_cell_formula_units_Z   2
loop_
 _symmetry_equiv_pos_site_id
 _symmetry_equiv_pos_as_xyz
  1  'x, y, z'
loop_
 _atom_site_type_symbol
 _atom_site_label
 _atom_site_symmetry_multiplicity
 _atom_site_fract_x
 _atom_site_fract_y
 _atom_site_fract_z
 _atom_site_occupancy
  Ca  Ca0  1  0.68104029  0.25001712  0.38790331  1
  Ca  Ca1  1  0.31895971  0.74998288  0.61209669  1
  Ca  Ca2  1  0.03363636  0.70530602  0.22742025  1
  Ca  Ca3  1  0.96636364  0.29469398  0.77257975  1
  Mn  Mn4  1  0.37117131  0.12787163  0.12978675  1
  Mn  Mn5  1  0.62882869  0.87212837  0.87021325  1
  N  N6  1  0.19083923  0.24569817  0.37262437  1
  N  N7  1  0.80916077  0.75430183  0.62737563  1
  N  N8  1  0.48584683  0.22480395  0.80350239  1
  N  N9  1  0.51415317  0.77519605  0.19649761  1
