# generated using pymatgen
data_Li4MnCo2O7
_symmetry_space_group_name_H-M   'P 1'
_cell_length_a   2.86932637
_cell_length_b   5.13263537
_cell_length_c   18.28698522
_cell_angle_alpha   99.48183029
_cell_angle_beta   94.49964125
_cell_angle_gamma   73.76856791
_symmetry_Int_Tables_number   1
_chemical_formula_structural   Li4MnCo2O7
_chemical_formula_sum   'Li8 Mn2 Co4 O14'
_cell_volume   254.89924933
_cell_formula_units_Z   2
loop_
 _symmetry_equiv_pos_site_id
 _symmetry_equiv_pos_as_xyz
  1  'x, y, z'
loop_
 _atom_site_type_symbol
 _atom_site_label
 _atom_site_symmetry_multiplicity
 _atom_site_fract_x
 _atom_site_fract_y
 _atom_site_fract_z
 _atom_site_occupancy
  Li  Li0  1  0.28241143  0.51124159  0.07606544  1
  Li  Li1  1  0.85781421  0.50907594  0.22470435  1
  Li  Li2  1  0.43530322  0.48706676  0.35767419  1
  Li  Li3  1  0.00350861  0.48972014  0.49673737  1
  Li  Li4  1  0.57298291  0.49450875  0.64047356  1
  Li  Li5  1  0.14007762  0.50045807  0.78061330  1
  Li  Li6  1  0.71649206  0.49165664  0.92463976  1
  Li  Li7  1  0.13992466  0.00750614  0.28735547  1
  Mn  Mn8  1  0.99620256  0.00825421  0.00065933  1
  Mn  Mn9  1  0.56626081  0.01775396  0.15027457  1
  Co  Co10  1  0.71841587  0.98233651  0.41916724  1
  Co  Co11  1  0.28271014  0.00254911  0.56797039  1
  Co  Co12  1  0.85988163  0.99116533  0.71092859  1
  Co  Co13  1  0.43134364  0.99074685  0.85343513  1
  O  O14  1  0.36629261  0.23671324  0.96929847  1
  O  O15  1  0.93964307  0.23115379  0.11043892  1
  O  O16  1  0.50355564  0.23240253  0.23951481  1
  O  O17  1  0.08406963  0.22771345  0.39585271  1
  O  O18  1  0.65068729  0.23712557  0.53850115  1
  O  O19  1  0.22776312  0.22564456  0.68117080  1
  O  O20  1  0.80415319  0.21654764  0.82485303  1
  O  O21  1  0.19428918  0.78412154  0.17270090  1
  O  O22  1  0.78890912  0.74937344  0.32719168  1
  O  O23  1  0.34621901  0.77399987  0.46643689  1
  O  O24  1  0.91760153  0.77278178  0.60798484  1
  O  O25  1  0.49293622  0.76249248  0.74836393  1
  O  O26  1  0.05658630  0.77705790  0.89023151  1
  O  O27  1  0.62396472  0.78883222  0.03676167  1
