# generated using pymatgen
data_ZnMoF5
_symmetry_space_group_name_H-M   'P 1'
_cell_length_a   5.36765900
_cell_length_b   8.00804624
_cell_length_c   10.38313310
_cell_angle_alpha   90.00000000
_cell_angle_beta   90.00000000
_cell_angle_gamma   109.00186225
_symmetry_Int_Tables_number   1
_chemical_formula_structural   ZnMoF5
_chemical_formula_sum   'Zn4 Mo4 F20'
_cell_volume   421.99287284
_cell_formula_units_Z   4
loop_
 _symmetry_equiv_pos_site_id
 _symmetry_equiv_pos_as_xyz
  1  'x, y, z'
loop_
 _atom_site_type_symbol
 _atom_site_label
 _atom_site_symmetry_multiplicity
 _atom_site_fract_x
 _atom_site_fract_y
 _atom_site_fract_z
 _atom_site_occupancy
  Zn  Zn0  1  0.51234991  0.77323315  0.98888850  1
  Zn  Zn1  1  0.48765009  0.72676685  0.48888850  1
  Zn  Zn2  1  0.48765009  0.22676685  0.01111150  1
  Zn  Zn3  1  0.51234991  0.27323315  0.51111150  1
  Mo  Mo4  1  0.92197802  0.61639708  0.75619393  1
  Mo  Mo5  1  0.07802198  0.88360292  0.25619393  1
  Mo  Mo6  1  0.07802198  0.38360292  0.24380607  1
  Mo  Mo7  1  0.92197802  0.11639708  0.74380607  1
  F  F8  1  0.61022948  0.59086542  0.88579679  1
  F  F9  1  0.38977052  0.90913458  0.38579679  1
  F  F10  1  0.38977052  0.40913458  0.11420321  1
  F  F11  1  0.61022948  0.09086542  0.61420321  1
  F  F12  1  0.66119775  0.50770556  0.60385635  1
  F  F13  1  0.33880225  0.99229444  0.10385635  1
  F  F14  1  0.33880225  0.49229444  0.39614365  1
  F  F15  1  0.66119775  0.00770556  0.89614365  1
  F  F16  1  0.83708038  0.78456587  0.41608251  1
  F  F17  1  0.16291962  0.71543413  0.91608251  1
  F  F18  1  0.16291962  0.21543413  0.58391749  1
  F  F19  1  0.83708038  0.28456587  0.08391749  1
  F  F20  1  0.74607500  0.83556700  0.13473091  1
  F  F21  1  0.25392500  0.66443300  0.63473091  1
  F  F22  1  0.25392500  0.16443300  0.86526909  1
  F  F23  1  0.74607500  0.33556700  0.36526909  1
  F  F24  1  0.89272631  0.85767733  0.69019410  1
  F  F25  1  0.10727369  0.64232267  0.19019410  1
  F  F26  1  0.10727369  0.14232267  0.30980590  1
  F  F27  1  0.89272631  0.35767733  0.80980590  1
