# generated using pymatgen
data_Ca(BiO2)2
_symmetry_space_group_name_H-M   'P 1'
_cell_length_a   7.01303934
_cell_length_b   6.99642819
_cell_length_c   21.02229494
_cell_angle_alpha   60.05181975
_cell_angle_beta   60.23215216
_cell_angle_gamma   60.07461371
_symmetry_Int_Tables_number   1
_chemical_formula_structural   Ca(BiO2)2
_chemical_formula_sum   'Ca6 Bi12 O24'
_cell_volume   731.34062986
_cell_formula_units_Z   6
loop_
 _symmetry_equiv_pos_site_id
 _symmetry_equiv_pos_as_xyz
  1  'x, y, z'
loop_
 _atom_site_type_symbol
 _atom_site_label
 _atom_site_symmetry_multiplicity
 _atom_site_fract_x
 _atom_site_fract_y
 _atom_site_fract_z
 _atom_site_occupancy
  Ca  Ca0  1  0.13143593  0.12311301  0.04078970  1
  Ca  Ca1  1  0.49966480  0.49989069  0.33351888  1
  Ca  Ca2  1  0.00041734  0.49861100  0.16745641  1
  Ca  Ca3  1  0.50116639  0.50131715  0.66538741  1
  Ca  Ca4  1  0.00008570  0.50012539  0.49988502  1
  Ca  Ca5  1  0.00104174  0.50049098  0.83265517  1
  Bi  Bi6  1  0.49987871  0.99739384  0.16808413  1
  Bi  Bi7  1  0.12839098  0.12011498  0.37714003  1
  Bi  Bi8  1  0.49207884  0.49673379  0.00482203  1
  Bi  Bi9  1  0.49990301  0.49848823  0.16807472  1
  Bi  Bi10  1  0.50069631  0.99981926  0.49971140  1
  Bi  Bi11  1  0.12951777  0.12150951  0.70916329  1
  Bi  Bi12  1  0.50069676  0.50033616  0.49971817  1
  Bi  Bi13  1  0.49621886  0.00756203  0.83224001  1
  Bi  Bi14  1  0.87089750  0.87946507  0.29006041  1
  Bi  Bi15  1  0.49617247  0.49952824  0.83224606  1
  Bi  Bi16  1  0.87104442  0.87872810  0.62381250  1
  Bi  Bi17  1  0.86824724  0.87791171  0.95864261  1
  O  O18  1  0.25990956  0.26191221  0.08634699  1
  O  O19  1  0.25477778  0.25650584  0.24407264  1
  O  O20  1  0.25987890  0.71913995  0.08635371  1
  O  O21  1  0.72775090  0.25721259  0.08593956  1
  O  O22  1  0.25986014  0.25814628  0.41963365  1
  O  O23  1  0.27014142  0.74223379  0.24847891  1
  O  O24  1  0.25544708  0.25800012  0.57618846  1
  O  O25  1  0.74081050  0.27544319  0.24734680  1
  O  O26  1  0.25981562  0.72311554  0.41964479  1
  O  O27  1  0.74197234  0.74031852  0.09245219  1
  O  O28  1  0.72690693  0.25875063  0.41852302  1
  O  O29  1  0.74079413  0.74172101  0.24735907  1
  O  O30  1  0.26105107  0.25734701  0.75240089  1
  O  O31  1  0.27255646  0.74145383  0.58151920  1
  O  O32  1  0.74046654  0.27705314  0.58033120  1
  O  O33  1  0.26101226  0.72437165  0.75240576  1
  O  O34  1  0.26257542  0.25980687  0.90595792  1
  O  O35  1  0.74450153  0.74199192  0.42382740  1
  O  O36  1  0.72597729  0.25899395  0.75199165  1
  O  O37  1  0.74043349  0.74144213  0.58034333  1
  O  O38  1  0.26220323  0.74719025  0.91447186  1
  O  O39  1  0.74779002  0.27142300  0.91259180  1
  O  O40  1  0.74805716  0.74225159  0.75580860  1
  O  O41  1  0.74775446  0.74303387  0.91260364  1
