# generated using pymatgen
data_Mn3Co2Sn(PO4)6
_symmetry_space_group_name_H-M   'P 1'
_cell_length_a   8.55575652
_cell_length_b   8.64131814
_cell_length_c   8.64131840
_cell_angle_alpha   59.99999843
_cell_angle_beta   59.66862813
_cell_angle_gamma   59.66863139
_symmetry_Int_Tables_number   1
_chemical_formula_structural   Mn3Co2Sn(PO4)6
_chemical_formula_sum   'Mn3 Co2 Sn1 P6 O24'
_cell_volume   449.47953884
_cell_formula_units_Z   1
loop_
 _symmetry_equiv_pos_site_id
 _symmetry_equiv_pos_as_xyz
  1  'x, y, z'
loop_
 _atom_site_type_symbol
 _atom_site_label
 _atom_site_symmetry_multiplicity
 _atom_site_fract_x
 _atom_site_fract_y
 _atom_site_fract_z
 _atom_site_occupancy
  Mn  Mn0  1  0.06865534  0.64378122  0.64378122  1
  Mn  Mn1  1  0.43308652  0.85563816  0.85563816  1
  Mn  Mn2  1  0.92931384  0.35689539  0.35689539  1
  Co  Co3  1  0.01208071  0.99597276  0.99597276  1
  Co  Co4  1  0.50000151  0.49999983  0.49999983  1
  Sn  Sn5  1  0.56950453  0.14349849  0.14349849  1
  P  P6  1  0.24420465  0.25204652  0.55003283  1
  P  P7  1  0.24420465  0.95371700  0.25204652  1
  P  P8  1  0.24420465  0.55003283  0.95371700  1
  P  P9  1  0.75186750  0.45911647  0.04362329  1
  P  P10  1  0.75186750  0.04362329  0.74539275  1
  P  P11  1  0.75186750  0.74539275  0.45911647  1
  O  O12  1  0.06458206  0.11451933  0.31012056  1
  O  O13  1  0.06458206  0.51077804  0.11451933  1
  O  O14  1  0.06458206  0.31012056  0.51077804  1
  O  O15  1  0.22716797  0.08995696  0.74536700  1
  O  O16  1  0.43315870  0.18820899  0.39448152  1
  O  O17  1  0.26788069  0.41326880  0.56320523  1
  O  O18  1  0.22716797  0.93750806  0.08995696  1
  O  O19  1  0.26788069  0.75564528  0.41326880  1
  O  O20  1  0.56603321  0.61229627  0.00928685  1
  O  O21  1  0.26788069  0.56320523  0.75564528  1
  O  O22  1  0.77674947  0.25862904  0.05739577  1
  O  O23  1  0.56603321  0.00928685  0.81238367  1
  O  O24  1  0.43315870  0.98415079  0.18820899  1
  O  O25  1  0.22716797  0.74536700  0.93750806  1
  O  O26  1  0.72844698  0.44324668  0.24192966  1
  O  O27  1  0.43315870  0.39448152  0.98415079  1
  O  O28  1  0.72844698  0.24192966  0.58637668  1
  O  O29  1  0.77674947  0.05739577  0.90722573  1
  O  O30  1  0.72844698  0.58637668  0.44324668  1
  O  O31  1  0.56603321  0.81238367  0.61229627  1
  O  O32  1  0.77674947  0.90722573  0.25862904  1
  O  O33  1  0.93569462  0.68111489  0.49583288  1
  O  O34  1  0.93569462  0.49583288  0.88735661  1
  O  O35  1  0.93569462  0.88735661  0.68111489  1
