# generated using pymatgen
data_H6CIN
_symmetry_space_group_name_H-M   'P 1'
_cell_length_a   5.17999096
_cell_length_b   5.18384322
_cell_length_c   9.17215321
_cell_angle_alpha   90.12086414
_cell_angle_beta   90.00000000
_cell_angle_gamma   90.00000000
_symmetry_Int_Tables_number   1
_chemical_formula_structural   H6CIN
_chemical_formula_sum   'H12 C2 I2 N2'
_cell_volume   246.29250417
_cell_formula_units_Z   2
loop_
 _symmetry_equiv_pos_site_id
 _symmetry_equiv_pos_as_xyz
  1  'x, y, z'
loop_
 _atom_site_type_symbol
 _atom_site_label
 _atom_site_symmetry_multiplicity
 _atom_site_fract_x
 _atom_site_fract_y
 _atom_site_fract_z
 _atom_site_occupancy
  H  H0  1  0.25000000  0.06379996  0.16215198  1
  H  H1  1  0.41130965  0.34520539  0.16304315  1
  H  H2  1  0.08869035  0.34520539  0.16304315  1
  H  H3  1  0.42323540  0.15014059  0.40301161  1
  H  H4  1  0.25000000  0.45014448  0.40316906  1
  H  H5  1  0.07676460  0.15014059  0.40301161  1
  H  H6  1  0.75000000  0.93620004  0.83784802  1
  H  H7  1  0.58869035  0.65479461  0.83695685  1
  H  H8  1  0.91130965  0.65479461  0.83695685  1
  H  H9  1  0.57676460  0.84985941  0.59698839  1
  H  H10  1  0.75000000  0.54985552  0.59683094  1
  H  H11  1  0.92323540  0.84985941  0.59698839  1
  C  C12  1  0.25000000  0.25027751  0.36532290  1
  C  C13  1  0.75000000  0.74972249  0.63467710  1
  I  I14  1  0.25000000  0.25396850  0.81055988  1
  I  I15  1  0.75000000  0.74603150  0.18944012  1
  N  N16  1  0.25000000  0.24975605  0.20303768  1
  N  N17  1  0.75000000  0.75024395  0.79696232  1
