# generated using pymatgen
data_Ca3Si3(WO6)2
_symmetry_space_group_name_H-M   'P 1'
_cell_length_a   10.81766001
_cell_length_b   10.81766033
_cell_length_c   10.81765995
_cell_angle_alpha   109.47122192
_cell_angle_beta   109.47122254
_cell_angle_gamma   109.47121816
_symmetry_Int_Tables_number   1
_chemical_formula_structural   Ca3Si3(WO6)2
_chemical_formula_sum   'Ca12 Si12 W8 O48'
_cell_volume   974.49159820
_cell_formula_units_Z   4
loop_
 _symmetry_equiv_pos_site_id
 _symmetry_equiv_pos_as_xyz
  1  'x, y, z'
loop_
 _atom_site_type_symbol
 _atom_site_label
 _atom_site_symmetry_multiplicity
 _atom_site_fract_x
 _atom_site_fract_y
 _atom_site_fract_z
 _atom_site_occupancy
  Ca  Ca0  1  0.37500000  0.75000000  0.12500000  1
  Ca  Ca1  1  0.12500000  0.25000000  0.37500000  1
  Ca  Ca2  1  0.37500000  0.12500000  0.25000000  1
  Ca  Ca3  1  0.12500000  0.37500000  0.75000000  1
  Ca  Ca4  1  0.87500000  0.75000000  0.62500000  1
  Ca  Ca5  1  0.75000000  0.12500000  0.37500000  1
  Ca  Ca6  1  0.75000000  0.62500000  0.87500000  1
  Ca  Ca7  1  0.62500000  0.25000000  0.87500000  1
  Ca  Ca8  1  0.25000000  0.87500000  0.62500000  1
  Ca  Ca9  1  0.87500000  0.62500000  0.25000000  1
  Ca  Ca10  1  0.62500000  0.87500000  0.75000000  1
  Ca  Ca11  1  0.25000000  0.37500000  0.12500000  1
  Si  Si12  1  0.25000000  0.12500000  0.87500000  1
  Si  Si13  1  0.75000000  0.87500000  0.12500000  1
  Si  Si14  1  0.37500000  0.25000000  0.62500000  1
  Si  Si15  1  0.62500000  0.37500000  0.25000000  1
  Si  Si16  1  0.12500000  0.75000000  0.87500000  1
  Si  Si17  1  0.87500000  0.12500000  0.75000000  1
  Si  Si18  1  0.75000000  0.37500000  0.62500000  1
  Si  Si19  1  0.37500000  0.62500000  0.75000000  1
  Si  Si20  1  0.12500000  0.87500000  0.25000000  1
  Si  Si21  1  0.87500000  0.25000000  0.12500000  1
  Si  Si22  1  0.62500000  0.75000000  0.37500000  1
  Si  Si23  1  0.25000000  0.62500000  0.37500000  1
  W  W24  1  0.00000000  0.00000000  0.00000000  1
  W  W25  1  0.00000000  0.50000000  0.00000000  1
  W  W26  1  0.00000000  0.00000000  0.50000000  1
  W  W27  1  0.00000000  0.50000000  0.50000000  1
  W  W28  1  0.50000000  0.00000000  0.50000000  1
  W  W29  1  0.50000000  0.50000000  0.00000000  1
  W  W30  1  0.50000000  0.50000000  0.50000000  1
  W  W31  1  0.50000000  0.00000000  0.00000000  1
  O  O32  1  0.28758267  0.48911970  0.37957261  1
  O  O33  1  0.01088030  0.29846297  0.89045291  1
  O  O34  1  0.12042739  0.60954709  0.90801007  1
  O  O35  1  0.21241733  0.59198993  0.20153703  1
  O  O36  1  0.21241733  0.12042739  0.01088030  1
  O  O37  1  0.59198993  0.20153703  0.21241733  1
  O  O38  1  0.60954709  0.20153703  0.48911970  1
  O  O39  1  0.20153703  0.21241733  0.59198993  1
  O  O40  1  0.89045291  0.37957261  0.59198993  1
  O  O41  1  0.29846297  0.90801007  0.28758267  1
  O  O42  1  0.90801007  0.28758267  0.29846297  1
  O  O43  1  0.01088030  0.21241733  0.12042739  1
  O  O44  1  0.20153703  0.48911970  0.60954709  1
  O  O45  1  0.59198993  0.89045291  0.37957261  1
  O  O46  1  0.12042739  0.01088030  0.21241733  1
  O  O47  1  0.48911970  0.60954709  0.20153703  1
  O  O48  1  0.37957261  0.59198993  0.89045291  1
  O  O49  1  0.89045291  0.01088030  0.29846297  1
  O  O50  1  0.60954709  0.90801007  0.12042739  1
  O  O51  1  0.10954709  0.62042739  0.40801007  1
  O  O52  1  0.90801007  0.12042739  0.60954709  1
  O  O53  1  0.37957261  0.28758267  0.48911970  1
  O  O54  1  0.29846297  0.89045291  0.01088030  1
  O  O55  1  0.28758267  0.29846297  0.90801007  1
  O  O56  1  0.71241733  0.51088030  0.62042739  1
  O  O57  1  0.98911970  0.70153703  0.10954709  1
  O  O58  1  0.87957261  0.39045291  0.09198993  1
  O  O59  1  0.78758267  0.40801007  0.79846297  1
  O  O60  1  0.78758267  0.87957261  0.98911970  1
  O  O61  1  0.40801007  0.79846297  0.78758267  1
  O  O62  1  0.39045291  0.79846297  0.51088030  1
  O  O63  1  0.79846297  0.78758267  0.40801007  1
  O  O64  1  0.71241733  0.70153703  0.09198993  1
  O  O65  1  0.70153703  0.10954709  0.98911970  1
  O  O66  1  0.62042739  0.71241733  0.51088030  1
  O  O67  1  0.51088030  0.62042739  0.71241733  1
  O  O68  1  0.09198993  0.87957261  0.39045291  1
  O  O69  1  0.39045291  0.09198993  0.87957261  1
  O  O70  1  0.10954709  0.98911970  0.70153703  1
  O  O71  1  0.62042739  0.40801007  0.10954709  1
  O  O72  1  0.51088030  0.39045291  0.79846297  1
  O  O73  1  0.87957261  0.98911970  0.78758267  1
  O  O74  1  0.40801007  0.10954709  0.62042739  1
  O  O75  1  0.79846297  0.51088030  0.39045291  1
  O  O76  1  0.98911970  0.78758267  0.87957261  1
  O  O77  1  0.09198993  0.71241733  0.70153703  1
  O  O78  1  0.70153703  0.09198993  0.71241733  1
  O  O79  1  0.48911970  0.37957261  0.28758267  1
