# generated using pymatgen
data_H6CIN
_symmetry_space_group_name_H-M   'P 1'
_cell_length_a   7.23905534
_cell_length_b   7.15377779
_cell_length_c   8.89135320
_cell_angle_alpha   90.00000000
_cell_angle_beta   90.00000000
_cell_angle_gamma   90.00000000
_symmetry_Int_Tables_number   1
_chemical_formula_structural   H6CIN
_chemical_formula_sum   'H24 C4 I4 N4'
_cell_volume   460.45289216
_cell_formula_units_Z   4
loop_
 _symmetry_equiv_pos_site_id
 _symmetry_equiv_pos_as_xyz
  1  'x, y, z'
loop_
 _atom_site_type_symbol
 _atom_site_label
 _atom_site_symmetry_multiplicity
 _atom_site_fract_x
 _atom_site_fract_y
 _atom_site_fract_z
 _atom_site_occupancy
  H  H0  1  0.83279118  0.75000000  0.16766444  1
  H  H1  1  0.16720882  0.25000000  0.83233556  1
  H  H2  1  0.33279118  0.75000000  0.83233556  1
  H  H3  1  0.66720882  0.25000000  0.16766444  1
  H  H4  1  0.03403267  0.63177434  0.16591251  1
  H  H5  1  0.96596733  0.36822566  0.83408749  1
  H  H6  1  0.96596733  0.13177434  0.83408749  1
  H  H7  1  0.03403267  0.86822566  0.16591251  1
  H  H8  1  0.53403267  0.86822566  0.83408749  1
  H  H9  1  0.46596733  0.13177434  0.16591251  1
  H  H10  1  0.46596733  0.36822566  0.16591251  1
  H  H11  1  0.53403267  0.63177434  0.83408749  1
  H  H12  1  0.11433237  0.75000000  0.41328120  1
  H  H13  1  0.88566763  0.25000000  0.58671880  1
  H  H14  1  0.61433237  0.75000000  0.58671880  1
  H  H15  1  0.38566763  0.25000000  0.41328120  1
  H  H16  1  0.90023887  0.87543171  0.41562677  1
  H  H17  1  0.09976113  0.12456829  0.58437323  1
  H  H18  1  0.09976113  0.37543171  0.58437323  1
  H  H19  1  0.90023887  0.62456829  0.41562677  1
  H  H20  1  0.40023887  0.62456829  0.58437323  1
  H  H21  1  0.59976113  0.37543171  0.41562677  1
  H  H22  1  0.59976113  0.12456829  0.41562677  1
  H  H23  1  0.40023887  0.87543171  0.58437323  1
  C  C24  1  0.97074376  0.75000000  0.37531999  1
  C  C25  1  0.02925624  0.25000000  0.62468001  1
  C  C26  1  0.47074376  0.75000000  0.62468001  1
  C  C27  1  0.52925624  0.25000000  0.37531999  1
  I  I28  1  0.97276511  0.75000000  0.80983126  1
  I  I29  1  0.02723489  0.25000000  0.19016874  1
  I  I30  1  0.47276511  0.75000000  0.19016874  1
  I  I31  1  0.52723489  0.25000000  0.80983126  1
  N  N32  1  0.96820647  0.75000000  0.20778482  1
  N  N33  1  0.03179353  0.25000000  0.79221518  1
  N  N34  1  0.46820647  0.75000000  0.79221518  1
  N  N35  1  0.53179353  0.25000000  0.20778482  1
