# generated using pymatgen
data_ZnCrAsO5
_symmetry_space_group_name_H-M   'P 1'
_cell_length_a   7.94127155
_cell_length_b   6.19222986
_cell_length_c   8.32714659
_cell_angle_alpha   89.99992144
_cell_angle_beta   90.00083834
_cell_angle_gamma   89.99721111
_symmetry_Int_Tables_number   1
_chemical_formula_structural   ZnCrAsO5
_chemical_formula_sum   'Zn4 Cr4 As4 O20'
_cell_volume   409.48059522
_cell_formula_units_Z   4
loop_
 _symmetry_equiv_pos_site_id
 _symmetry_equiv_pos_as_xyz
  1  'x, y, z'
loop_
 _atom_site_type_symbol
 _atom_site_label
 _atom_site_symmetry_multiplicity
 _atom_site_fract_x
 _atom_site_fract_y
 _atom_site_fract_z
 _atom_site_occupancy
  Zn  Zn0  1  0.94991203  0.72270444  0.06192793  1
  Zn  Zn1  1  0.55000191  0.27729549  0.56191893  1
  Zn  Zn2  1  0.44992683  0.77731315  0.93809414  1
  Zn  Zn3  1  0.05005183  0.22268627  0.43807766  1
  Cr  Cr4  1  0.99811625  0.49557962  0.74906421  1
  Cr  Cr5  1  0.50195491  0.50434474  0.24906537  1
  Cr  Cr6  1  0.49799854  0.00434248  0.25092199  1
  Cr  Cr7  1  0.00207868  0.99569151  0.75085489  1
  As  As8  1  0.65512125  0.26053356  0.92839987  1
  As  As9  1  0.84491208  0.73941360  0.42844928  1
  As  As10  1  0.15500602  0.23939093  0.07160145  1
  As  As11  1  0.34499353  0.76054713  0.57152864  1
  O  O12  1  0.85194476  0.24594167  0.83665714  1
  O  O13  1  0.64803225  0.75405882  0.33670383  1
  O  O14  1  0.35187976  0.25406033  0.16341773  1
  O  O15  1  0.14811534  0.74592727  0.66335648  1
  O  O16  1  0.50598454  0.28765052  0.78151498  1
  O  O17  1  0.99396500  0.71240237  0.28150650  1
  O  O18  1  0.00596843  0.21238886  0.21844005  1
  O  O19  1  0.49402562  0.78766038  0.71850808  1
  O  O20  1  0.62349247  0.02356222  0.03399802  1
  O  O21  1  0.87646741  0.97645795  0.53399115  1
  O  O22  1  0.12352025  0.47649150  0.96604880  1
  O  O23  1  0.37645653  0.52355107  0.46601135  1
  O  O24  1  0.64707858  0.48798000  0.04761604  1
  O  O25  1  0.85291841  0.51204117  0.54765574  1
  O  O26  1  0.14712082  0.01207164  0.95236407  1
  O  O27  1  0.35285924  0.98793735  0.45236957  1
  O  O28  1  0.88505713  0.74811161  0.84711549  1
  O  O29  1  0.61499313  0.25187227  0.34714705  1
  O  O30  1  0.38492929  0.75188697  0.15284359  1
  O  O31  1  0.11511518  0.24810510  0.65282998  1
