# generated using pymatgen
data_Li4MnCo2O7
_symmetry_space_group_name_H-M   'P 1'
_cell_length_a   4.99567205
_cell_length_b   5.05542347
_cell_length_c   10.70176911
_cell_angle_alpha   84.02205104
_cell_angle_beta   99.31225486
_cell_angle_gamma   106.40326357
_symmetry_Int_Tables_number   1
_chemical_formula_structural   Li4MnCo2O7
_chemical_formula_sum   'Li8 Mn2 Co4 O14'
_cell_volume   255.36981624
_cell_formula_units_Z   2
loop_
 _symmetry_equiv_pos_site_id
 _symmetry_equiv_pos_as_xyz
  1  'x, y, z'
loop_
 _atom_site_type_symbol
 _atom_site_label
 _atom_site_symmetry_multiplicity
 _atom_site_fract_x
 _atom_site_fract_y
 _atom_site_fract_z
 _atom_site_occupancy
  Li  Li0  1  0.07206684  0.50128203  0.14447059  1
  Li  Li1  1  0.64487397  0.50349631  0.28669500  1
  Li  Li2  1  0.22024797  0.49856242  0.43224142  1
  Li  Li3  1  0.78571400  0.50000000  0.57142900  1
  Li  Li4  1  0.35118103  0.50143758  0.71061558  1
  Li  Li5  1  0.92655403  0.49650369  0.85616200  1
  Li  Li6  1  0.49936216  0.49871797  0.99838641  1
  Li  Li7  1  0.28571400  0.00000000  0.57142900  1
  Mn  Mn8  1  0.99632078  0.99841665  0.99722406  1
  Mn  Mn9  1  0.57510822  0.00158335  0.14563294  1
  Co  Co10  1  0.14547290  0.00138890  0.28951194  1
  Co  Co11  1  0.71789435  0.00885434  0.43675196  1
  Co  Co12  1  0.85353465  0.99114566  0.70610504  1
  Co  Co13  1  0.42595510  0.99861110  0.85334506  1
  O  O14  1  0.75722301  0.23544848  0.00834892  1
  O  O15  1  0.32260972  0.23050298  0.15324979  1
  O  O16  1  0.90564839  0.23141519  0.29547001  1
  O  O17  1  0.49303622  0.22780035  0.42903211  1
  O  O18  1  0.01451092  0.23236320  0.57639612  1
  O  O19  1  0.62342074  0.21730997  0.72436175  1
  O  O20  1  0.18989524  0.23064973  0.86038591  1
  O  O21  1  0.38153376  0.76935027  0.28247109  1
  O  O22  1  0.94800826  0.78269003  0.41849525  1
  O  O23  1  0.55691708  0.76763680  0.56646088  1
  O  O24  1  0.07839278  0.77219965  0.71382489  1
  O  O25  1  0.66577961  0.76858481  0.84738799  1
  O  O26  1  0.24881928  0.76949702  0.98960721  1
  O  O27  1  0.81420499  0.76455152  0.13450808  1
