# generated using pymatgen
data_NaTi3P3O13
_symmetry_space_group_name_H-M   'P 1'
_cell_length_a   6.40971975
_cell_length_b   7.70377578
_cell_length_c   10.44403092
_cell_angle_alpha   99.35826218
_cell_angle_beta   90.00000000
_cell_angle_gamma   90.00000000
_symmetry_Int_Tables_number   1
_chemical_formula_structural   NaTi3P3O13
_chemical_formula_sum   'Na2 Ti6 P6 O26'
_cell_volume   508.85252901
_cell_formula_units_Z   2
loop_
 _symmetry_equiv_pos_site_id
 _symmetry_equiv_pos_as_xyz
  1  'x, y, z'
loop_
 _atom_site_type_symbol
 _atom_site_label
 _atom_site_symmetry_multiplicity
 _atom_site_fract_x
 _atom_site_fract_y
 _atom_site_fract_z
 _atom_site_occupancy
  Na  Na0  1  0.75000000  0.65477851  0.18457397  1
  Na  Na1  1  0.25000000  0.34522149  0.81542603  1
  Ti  Ti2  1  0.25000000  0.35697041  0.19548623  1
  Ti  Ti3  1  0.75000000  0.64302959  0.80451377  1
  Ti  Ti4  1  0.25000000  0.79149559  0.43928280  1
  Ti  Ti5  1  0.50000000  0.00000000  0.00000000  1
  Ti  Ti6  1  0.75000000  0.20850441  0.56071720  1
  Ti  Ti7  1  0.00000000  0.00000000  0.00000000  1
  P  P8  1  0.25000000  0.22170812  0.48638914  1
  P  P9  1  0.75000000  0.77829188  0.51361086  1
  P  P10  1  0.25000000  0.73935817  0.76322733  1
  P  P11  1  0.75000000  0.26064183  0.23677267  1
  P  P12  1  0.75000000  0.31139692  0.88298265  1
  P  P13  1  0.25000000  0.68860308  0.11701735  1
  O  O14  1  0.75000000  0.34951163  0.73941909  1
  O  O15  1  0.55655393  0.74664950  0.42518233  1
  O  O16  1  0.25000000  0.78793481  0.62596408  1
  O  O17  1  0.55145543  0.20842365  0.90745155  1
  O  O18  1  0.75000000  0.65976039  0.61728031  1
  O  O19  1  0.75000000  0.86444689  0.90153319  1
  O  O20  1  0.25000000  0.34023961  0.38271969  1
  O  O21  1  0.05145543  0.79157635  0.09254845  1
  O  O22  1  0.25000000  0.02370615  0.41638540  1
  O  O23  1  0.75000000  0.97629385  0.58361460  1
  O  O24  1  0.05857560  0.62861370  0.78754622  1
  O  O25  1  0.25000000  0.13555311  0.09846681  1
  O  O26  1  0.55857560  0.37138630  0.21245378  1
  O  O27  1  0.75000000  0.50339278  0.95638443  1
  O  O28  1  0.75000000  0.21206519  0.37403592  1
  O  O29  1  0.44854457  0.79157635  0.09254845  1
  O  O30  1  0.94344607  0.74664950  0.42518233  1
  O  O31  1  0.44344607  0.25335050  0.57481767  1
  O  O32  1  0.44142440  0.62861370  0.78754622  1
  O  O33  1  0.25000000  0.65048837  0.26058091  1
  O  O34  1  0.75000000  0.08636214  0.13372485  1
  O  O35  1  0.25000000  0.91363786  0.86627515  1
  O  O36  1  0.94142440  0.37138630  0.21245378  1
  O  O37  1  0.94854457  0.20842365  0.90745155  1
  O  O38  1  0.05655393  0.25335050  0.57481767  1
  O  O39  1  0.25000000  0.49660722  0.04361557  1
