# generated using pymatgen
data_TeWO6
_symmetry_space_group_name_H-M   'P 1'
_cell_length_a   5.41884525
_cell_length_b   5.41906550
_cell_length_c   7.66382345
_cell_angle_alpha   89.99775070
_cell_angle_beta   134.99964366
_cell_angle_gamma   60.00335721
_symmetry_Int_Tables_number   1
_chemical_formula_structural   TeWO6
_chemical_formula_sum   'Te1 W1 O6'
_cell_volume   112.53095634
_cell_formula_units_Z   1
loop_
 _symmetry_equiv_pos_site_id
 _symmetry_equiv_pos_as_xyz
  1  'x, y, z'
loop_
 _atom_site_type_symbol
 _atom_site_label
 _atom_site_symmetry_multiplicity
 _atom_site_fract_x
 _atom_site_fract_y
 _atom_site_fract_z
 _atom_site_occupancy
  Te  Te0  1  0.99845018  0.95925834  0.49976617  1
  W  W1  1  0.99842553  0.95929621  0.99974643  1
  O  O2  1  0.00626513  0.95753878  0.25461991  1
  O  O3  1  0.99376442  0.95990186  0.74630451  1
  O  O4  1  0.49720631  0.46138084  0.74944638  1
  O  O5  1  0.50244255  0.95724238  0.24881038  1
  O  O6  1  0.49317234  0.96238510  0.74944964  1
  O  O7  1  0.49624555  0.45725548  0.24816460  1
