# generated using pymatgen
data_Ge2WO6
_symmetry_space_group_name_H-M   'P 1'
_cell_length_a   5.71240422
_cell_length_b   9.27212397
_cell_length_c   9.87536123
_cell_angle_alpha   90.00000000
_cell_angle_beta   103.48476620
_cell_angle_gamma   90.00000000
_symmetry_Int_Tables_number   1
_chemical_formula_structural   Ge2WO6
_chemical_formula_sum   'Ge8 W4 O24'
_cell_volume   508.63983863
_cell_formula_units_Z   4
loop_
 _symmetry_equiv_pos_site_id
 _symmetry_equiv_pos_as_xyz
  1  'x, y, z'
loop_
 _atom_site_type_symbol
 _atom_site_label
 _atom_site_symmetry_multiplicity
 _atom_site_fract_x
 _atom_site_fract_y
 _atom_site_fract_z
 _atom_site_occupancy
  Ge  Ge0  1  0.82093705  0.33332125  0.05810460  1
  Ge  Ge1  1  0.67906295  0.83332125  0.94189540  1
  Ge  Ge2  1  0.17906295  0.66667875  0.94189540  1
  Ge  Ge3  1  0.32093705  0.16667875  0.05810460  1
  Ge  Ge4  1  0.19042243  0.33489544  0.45036481  1
  Ge  Ge5  1  0.30957757  0.83489544  0.54963519  1
  Ge  Ge6  1  0.80957757  0.66510456  0.54963519  1
  Ge  Ge7  1  0.69042243  0.16510456  0.45036481  1
  W  W8  1  -0.00068748  0.64987816  0.24824804  1
  W  W9  1  0.50068748  0.14987816  0.75175196  1
  W  W10  1  0.00068748  0.35012184  0.75175196  1
  W  W11  1  0.49931252  0.85012184  0.24824804  1
  O  O12  1  0.41565461  0.25274998  0.38331117  1
  O  O13  1  0.08434539  0.75274998  0.61668883  1
  O  O14  1  0.58434539  0.74725002  0.61668883  1
  O  O15  1  0.91565461  0.24725002  0.38331117  1
  O  O16  1  0.12749233  0.28731842  0.11589332  1
  O  O17  1  0.37250767  0.78731842  0.88410668  1
  O  O18  1  0.87250767  0.71268158  0.88410768  1
  O  O19  1  0.62749233  0.21268158  0.11589232  1
  O  O20  1  0.66309262  0.98555238  0.39632870  1
  O  O21  1  0.83690738  0.48555238  0.60367130  1
  O  O22  1  0.33690738  0.01444762  0.60367130  1
  O  O23  1  0.16309262  0.51444762  0.39632870  1
  O  O24  1  0.29224112  0.99246510  0.11430098  1
  O  O25  1  0.20775888  0.49246510  0.88569902  1
  O  O26  1  0.70775888  0.00753490  0.88569902  1
  O  O27  1  0.79224112  0.50753490  0.11430098  1
  O  O28  1  0.75034266  0.31161355  0.86786353  1
  O  O29  1  0.74965734  0.81161355  0.13213647  1
  O  O30  1  0.24965734  0.68838645  0.13213647  1
  O  O31  1  0.25034266  0.18838645  0.86786353  1
  O  O32  1  0.26680636  0.31764296  0.63788136  1
  O  O33  1  0.23319364  0.81764296  0.36211864  1
  O  O34  1  0.73319364  0.68235704  0.36211864  1
  O  O35  1  0.76680636  0.18235704  0.63788136  1
