# generated using pymatgen
data_Mg3Al
_symmetry_space_group_name_H-M   'P 1'
_cell_length_a   6.23350186
_cell_length_b   3.15716765
_cell_length_c   4.97518245
_cell_angle_alpha   90.00000000
_cell_angle_beta   90.00000000
_cell_angle_gamma   120.42989939
_symmetry_Int_Tables_number   1
_chemical_formula_structural   Mg3Al
_chemical_formula_sum   'Mg3 Al1'
_cell_volume   84.42512089
_cell_formula_units_Z   1
loop_
 _symmetry_equiv_pos_site_id
 _symmetry_equiv_pos_as_xyz
  1  'x, y, z'
loop_
 _atom_site_type_symbol
 _atom_site_label
 _atom_site_symmetry_multiplicity
 _atom_site_fract_x
 _atom_site_fract_y
 _atom_site_fract_z
 _atom_site_occupancy
  Mg  Mg0  1  0.66698275  0.66698275  0.25000000  1
  Mg  Mg1  1  0.32892637  0.32892637  0.75000000  1
  Mg  Mg2  1  0.83732753  0.33732753  0.75000000  1
  Al  Al3  1  0.16676335  0.66676335  0.25000000  1
