# generated using pymatgen
data_Mg6CdSn
_symmetry_space_group_name_H-M   'P 1'
_cell_length_a   6.36791017
_cell_length_b   6.59857730
_cell_length_c   5.07915547
_cell_angle_alpha   90.00000000
_cell_angle_beta   90.00000000
_cell_angle_gamma   121.20567739
_symmetry_Int_Tables_number   1
_chemical_formula_structural   Mg6CdSn
_chemical_formula_sum   'Mg6 Cd1 Sn1'
_cell_volume   182.54240929
_cell_formula_units_Z   1
loop_
 _symmetry_equiv_pos_site_id
 _symmetry_equiv_pos_as_xyz
  1  'x, y, z'
loop_
 _atom_site_type_symbol
 _atom_site_label
 _atom_site_symmetry_multiplicity
 _atom_site_fract_x
 _atom_site_fract_y
 _atom_site_fract_z
 _atom_site_occupancy
  Mg  Mg0  1  0.66745240  0.33351896  0.25000000  1
  Mg  Mg1  1  0.66745240  0.83393243  0.25000000  1
  Mg  Mg2  1  0.33514310  0.16302087  0.75000000  1
  Mg  Mg3  1  0.33514310  0.67212322  0.75000000  1
  Mg  Mg4  1  0.82830006  0.16415053  0.75000000  1
  Mg  Mg5  1  0.83398185  0.66699142  0.75000000  1
  Cd  Cd6  1  0.16654793  0.83327347  0.25000000  1
  Sn  Sn7  1  0.16597917  0.33298909  0.25000000  1
