# generated using pymatgen
data_Zn2CoWO6
_symmetry_space_group_name_H-M   'P 1'
_cell_length_a   5.23053954
_cell_length_b   5.61958616
_cell_length_c   7.56919503
_cell_angle_alpha   95.03143179
_cell_angle_beta   132.68683332
_cell_angle_gamma   118.13810316
_symmetry_Int_Tables_number   1
_chemical_formula_structural   Zn2CoWO6
_chemical_formula_sum   'Zn2 Co1 W1 O6'
_cell_volume   112.16152895
_cell_formula_units_Z   1
loop_
 _symmetry_equiv_pos_site_id
 _symmetry_equiv_pos_as_xyz
  1  'x, y, z'
loop_
 _atom_site_type_symbol
 _atom_site_label
 _atom_site_symmetry_multiplicity
 _atom_site_fract_x
 _atom_site_fract_y
 _atom_site_fract_z
 _atom_site_occupancy
  Zn  Zn0  1  0.98811807  0.55330023  0.20778081  1
  Zn  Zn1  1  0.01593664  0.53104171  0.73829996  1
  Co  Co2  1  0.00768752  -0.00159989  0.50407498  1
  W  W3  1  0.00393759  0.98670301  0.00291518  1
  O  O4  1  0.73787754  0.81277359  0.11663586  1
  O  O5  1  0.25932601  0.08964150  0.89348123  1
  O  O6  1  0.33116880  0.43914816  0.24600808  1
  O  O7  1  0.37373357  0.81570828  0.63233092  1
  O  O8  1  0.59557400  0.09549100  0.38026976  1
  O  O9  1  0.69689725  0.50265541  0.80054420  1
