# generated using pymatgen
data_Te2MoW2(SeS)2
_symmetry_space_group_name_H-M   'P 1'
_cell_length_a   3.34510314
_cell_length_b   3.34511283
_cell_length_c   30.97612089
_cell_angle_alpha   90.00034039
_cell_angle_beta   90.00001328
_cell_angle_gamma   119.99986578
_symmetry_Int_Tables_number   1
_chemical_formula_structural   Te2MoW2(SeS)2
_chemical_formula_sum   'Te2 Mo1 W2 Se2 S2'
_cell_volume   300.17777488
_cell_formula_units_Z   1
loop_
 _symmetry_equiv_pos_site_id
 _symmetry_equiv_pos_as_xyz
  1  'x, y, z'
loop_
 _atom_site_type_symbol
 _atom_site_label
 _atom_site_symmetry_multiplicity
 _atom_site_fract_x
 _atom_site_fract_y
 _atom_site_fract_z
 _atom_site_occupancy
  Te  Te0  1  0.66664385  0.33328722  0.05450498  1
  Te  Te1  1  0.66665182  0.33330285  0.17679169  1
  Mo  Mo2  1  0.33331256  0.66662430  0.11563402  1
  W  W3  1  0.33330636  0.66661198  0.57830408  1
  W  W4  1  0.66669244  0.33338579  0.34699457  1
  Se  Se5  1  0.66663466  0.33326894  0.52430157  1
  Se  Se6  1  0.66664531  0.33329018  0.63232809  1
  S  S7  1  0.33335827  0.66671710  0.39610577  1
  S  S8  1  0.33335575  0.66671165  0.29787623  1
