# generated using pymatgen
data_Mg6AlCd
_symmetry_space_group_name_H-M   'P 1'
_cell_length_a   6.30333913
_cell_length_b   6.30333863
_cell_length_c   5.07313105
_cell_angle_alpha   90.00000000
_cell_angle_beta   90.00000000
_cell_angle_gamma   120.37425688
_symmetry_Int_Tables_number   1
_chemical_formula_structural   Mg6AlCd
_chemical_formula_sum   'Mg6 Al1 Cd1'
_cell_volume   173.89928775
_cell_formula_units_Z   1
loop_
 _symmetry_equiv_pos_site_id
 _symmetry_equiv_pos_as_xyz
  1  'x, y, z'
loop_
 _atom_site_type_symbol
 _atom_site_label
 _atom_site_symmetry_multiplicity
 _atom_site_fract_x
 _atom_site_fract_y
 _atom_site_fract_z
 _atom_site_occupancy
  Mg  Mg0  1  0.16652991  0.83411039  0.25000000  1
  Mg  Mg1  1  0.66588961  0.33347009  0.25000000  1
  Mg  Mg2  1  0.66697124  0.83302876  0.25000000  1
  Mg  Mg3  1  0.33225745  0.66246702  0.75000000  1
  Mg  Mg4  1  0.83753298  0.16774255  0.75000000  1
  Mg  Mg5  1  0.83305917  0.66694083  0.75000000  1
  Al  Al6  1  0.16396136  0.33603864  0.25000000  1
  Cd  Cd7  1  0.33379827  0.16620173  0.75000000  1
