# generated using pymatgen
data_Te2MoW2(SeS)2
_symmetry_space_group_name_H-M   'P 1'
_cell_length_a   3.34516538
_cell_length_b   3.34517455
_cell_length_c   31.00815135
_cell_angle_alpha   89.99990886
_cell_angle_beta   90.00000131
_cell_angle_gamma   119.99989667
_symmetry_Int_Tables_number   1
_chemical_formula_structural   Te2MoW2(SeS)2
_chemical_formula_sum   'Te2 Mo1 W2 Se2 S2'
_cell_volume   300.49921118
_cell_formula_units_Z   1
loop_
 _symmetry_equiv_pos_site_id
 _symmetry_equiv_pos_as_xyz
  1  'x, y, z'
loop_
 _atom_site_type_symbol
 _atom_site_label
 _atom_site_symmetry_multiplicity
 _atom_site_fract_x
 _atom_site_fract_y
 _atom_site_fract_z
 _atom_site_occupancy
  Te  Te0  1  0.33335867  0.66671804  0.40801751  1
  Te  Te1  1  0.33334855  0.66669780  0.28586383  1
  Mo  Mo2  1  0.66668766  0.33337621  0.34698583  1
  W  W3  1  0.33331146  0.66662188  0.11564746  1
  W  W4  1  0.33330769  0.66661462  0.57836763  1
  Se  Se5  1  0.66664661  0.33329259  0.52438712  1
  Se  Se6  1  0.66664781  0.33329531  0.63229365  1
  S  S7  1  0.66664356  0.33328622  0.06655630  1
  S  S8  1  0.66664899  0.33329733  0.16472168  1
