# generated using pymatgen
data_U2Mo2C3
_symmetry_space_group_name_H-M   'P 1'
_cell_length_a   3.16029678
_cell_length_b   5.57773880
_cell_length_c   6.16131284
_cell_angle_alpha   111.09954320
_cell_angle_beta   104.86028837
_cell_angle_gamma   90.00000000
_symmetry_Int_Tables_number   1
_chemical_formula_structural   U2Mo2C3
_chemical_formula_sum   'U2 Mo2 C3'
_cell_volume   97.42235070
_cell_formula_units_Z   1
loop_
 _symmetry_equiv_pos_site_id
 _symmetry_equiv_pos_as_xyz
  1  'x, y, z'
loop_
 _atom_site_type_symbol
 _atom_site_label
 _atom_site_symmetry_multiplicity
 _atom_site_fract_x
 _atom_site_fract_y
 _atom_site_fract_z
 _atom_site_occupancy
  U  U0  1  0.39741867  0.19142299  0.79483735  1
  U  U1  1  0.60258133  0.80857701  0.20516265  1
  Mo  Mo2  1  0.15418195  0.33632454  0.30836391  1
  Mo  Mo3  1  0.84581805  0.66367546  0.69163609  1
  C  C4  1  0.25001966  0.75817137  0.50003933  1
  C  C5  1  0.74998034  0.24182863  0.49996067  1
  C  C6  1  -0.00000000  -0.00000000  -0.00000000  1
