# generated using pymatgen
data_LiMg6Al
_symmetry_space_group_name_H-M   'P 1'
_cell_length_a   6.26245407
_cell_length_b   6.26245359
_cell_length_c   5.04969969
_cell_angle_alpha   90.00000000
_cell_angle_beta   90.00000000
_cell_angle_gamma   119.88571790
_symmetry_Int_Tables_number   1
_chemical_formula_structural   LiMg6Al
_chemical_formula_sum   'Li1 Mg6 Al1'
_cell_volume   171.70550996
_cell_formula_units_Z   1
loop_
 _symmetry_equiv_pos_site_id
 _symmetry_equiv_pos_as_xyz
  1  'x, y, z'
loop_
 _atom_site_type_symbol
 _atom_site_label
 _atom_site_symmetry_multiplicity
 _atom_site_fract_x
 _atom_site_fract_y
 _atom_site_fract_z
 _atom_site_occupancy
  Li  Li0  1  0.33098870  0.16901130  0.75000000  1
  Mg  Mg1  1  0.16711228  0.83693384  0.25000000  1
  Mg  Mg2  1  0.66306616  0.33288772  0.25000000  1
  Mg  Mg3  1  0.66720562  0.83279438  0.25000000  1
  Mg  Mg4  1  0.33052907  0.66046098  0.75000000  1
  Mg  Mg5  1  0.83953902  0.16947093  0.75000000  1
  Mg  Mg6  1  0.83372667  0.66627333  0.75000000  1
  Al  Al7  1  0.16783247  0.33216753  0.25000000  1
