# generated using pymatgen
data_Li4MnCo2O7
_symmetry_space_group_name_H-M   'P 1'
_cell_length_a   3.01246045
_cell_length_b   11.11638038
_cell_length_c   7.74270370
_cell_angle_alpha   100.19681922
_cell_angle_beta   95.97945647
_cell_angle_gamma   83.32610168
_symmetry_Int_Tables_number   1
_chemical_formula_structural   Li4MnCo2O7
_chemical_formula_sum   'Li8 Mn2 Co4 O14'
_cell_volume   252.53192595
_cell_formula_units_Z   2
loop_
 _symmetry_equiv_pos_site_id
 _symmetry_equiv_pos_as_xyz
  1  'x, y, z'
loop_
 _atom_site_type_symbol
 _atom_site_label
 _atom_site_symmetry_multiplicity
 _atom_site_fract_x
 _atom_site_fract_y
 _atom_site_fract_z
 _atom_site_occupancy
  Li  Li0  1  0.78571400  0.07142900  0.64285700  1
  Li  Li1  1  0.92461413  0.36280196  0.21030534  1
  Li  Li2  1  0.07570260  0.64165640  0.78465496  1
  Li  Li3  1  0.21522951  0.92556710  0.35719027  1
  Li  Li4  1  0.35619949  0.21728990  0.92852373  1
  Li  Li5  1  0.49572640  0.50120060  0.50105904  1
  Li  Li6  1  0.64681387  0.78005504  0.07540966  1
  Li  Li7  1  0.28571400  0.57142900  0.14285700  1
  Mn  Mn8  1  -0.00049328  0.99780212  0.99644105  1
  Mn  Mn9  1  0.57192228  0.14505488  0.28927295  1
  Co  Co10  1  0.14291689  0.28918849  0.57592214  1
  Co  Co11  1  0.42851111  0.85366851  0.70979286  1
  Co  Co12  1  0.71851540  0.43457578  0.86942662  1
  Co  Co13  1  0.85291360  0.70828122  0.41628738  1
  O  O14  1  0.37308667  0.02475441  0.81653917  1
  O  O15  1  0.51217957  0.31681369  0.40067980  1
  O  O16  1  0.67555193  0.59091693  0.94875692  1
  O  O17  1  0.80366573  0.87668608  0.53708086  1
  O  O18  1  0.94185390  0.17128173  0.10815416  1
  O  O19  1  0.09892140  0.45388024  0.68617267  1
  O  O20  1  0.23548464  0.74692048  0.26406217  1
  O  O21  1  0.19834133  0.11810259  0.46917583  1
  O  O22  1  0.33594336  0.39593752  0.02165183  1
  O  O23  1  0.47250660  0.68897676  0.59954233  1
  O  O24  1  0.62957510  0.97157527  0.17755984  1
  O  O25  1  0.76776327  0.26617092  0.74863314  1
  O  O26  1  0.89587707  0.55194007  0.33695708  1
  O  O27  1  0.05924943  0.82604331  0.88503420  1
