# generated using pymatgen
data_CeFeSi2
_symmetry_space_group_name_H-M   'P 1'
_cell_length_a   4.00215481
_cell_length_b   4.03054229
_cell_length_c   8.61625478
_cell_angle_alpha   103.52630582
_cell_angle_beta   90.00000000
_cell_angle_gamma   90.00000000
_symmetry_Int_Tables_number   1
_chemical_formula_structural   CeFeSi2
_chemical_formula_sum   'Ce2 Fe2 Si4'
_cell_volume   135.13240170
_cell_formula_units_Z   2
loop_
 _symmetry_equiv_pos_site_id
 _symmetry_equiv_pos_as_xyz
  1  'x, y, z'
loop_
 _atom_site_type_symbol
 _atom_site_label
 _atom_site_symmetry_multiplicity
 _atom_site_fract_x
 _atom_site_fract_y
 _atom_site_fract_z
 _atom_site_occupancy
  Ce  Ce0  1  0.25000000  0.38941917  0.77883833  1
  Ce  Ce1  1  0.75000000  0.61058083  0.22116167  1
  Fe  Fe2  1  0.25000000  0.17526979  0.35053957  1
  Fe  Fe3  1  0.75000000  0.82473021  0.64946043  1
  Si  Si4  1  0.25000000  0.04008093  0.08016186  1
  Si  Si5  1  0.75000000  0.95991907  0.91983814  1
  Si  Si6  1  0.25000000  0.74977985  0.49955969  1
  Si  Si7  1  0.75000000  0.25022015  0.50044031  1
