# generated using pymatgen
data_Te2Mo2W(SeS)2
_symmetry_space_group_name_H-M   'P 1'
_cell_length_a   3.34581123
_cell_length_b   3.34576747
_cell_length_c   30.97280455
_cell_angle_alpha   90.00140146
_cell_angle_beta   90.00000000
_cell_angle_gamma   120.00043251
_symmetry_Int_Tables_number   1
_chemical_formula_structural   Te2Mo2W(SeS)2
_chemical_formula_sum   'Te2 Mo2 W1 Se2 S2'
_cell_volume   300.26620859
_cell_formula_units_Z   1
loop_
 _symmetry_equiv_pos_site_id
 _symmetry_equiv_pos_as_xyz
  1  'x, y, z'
loop_
 _atom_site_type_symbol
 _atom_site_label
 _atom_site_symmetry_multiplicity
 _atom_site_fract_x
 _atom_site_fract_y
 _atom_site_fract_z
 _atom_site_occupancy
  Te  Te0  1  0.33336187  0.66672475  0.40813653  1
  Te  Te1  1  0.33335161  0.66670422  0.28586139  1
  Mo  Mo2  1  0.33330901  0.66661802  0.11560312  1
  Mo  Mo3  1  0.66669516  0.33339032  0.34699013  1
  W  W4  1  0.33330775  0.66661550  0.57833191  1
  Se  Se5  1  0.66664296  0.33328492  0.06187256  1
  Se  Se6  1  0.66664112  0.33328124  0.16939694  1
  S  S7  1  0.66664738  0.33329377  0.52918192  1
  S  S8  1  0.66664414  0.33328727  0.62746651  1
