# generated using pymatgen
data_Li4MnCo2O7
_symmetry_space_group_name_H-M   'P 1'
_cell_length_a   2.89359249
_cell_length_b   5.11633476
_cell_length_c   18.37360178
_cell_angle_alpha   98.36091114
_cell_angle_beta   94.51633802
_cell_angle_gamma   73.57381492
_symmetry_Int_Tables_number   1
_chemical_formula_structural   Li4MnCo2O7
_chemical_formula_sum   'Li8 Mn2 Co4 O14'
_cell_volume   257.93533139
_cell_formula_units_Z   2
loop_
 _symmetry_equiv_pos_site_id
 _symmetry_equiv_pos_as_xyz
  1  'x, y, z'
loop_
 _atom_site_type_symbol
 _atom_site_label
 _atom_site_symmetry_multiplicity
 _atom_site_fract_x
 _atom_site_fract_y
 _atom_site_fract_z
 _atom_site_occupancy
  Li  Li0  1  0.28571400  0.50000000  0.07142900  1
  Li  Li1  1  0.85764278  0.50987718  0.22516273  1
  Li  Li2  1  0.42127030  0.52453719  0.36707880  1
  Li  Li3  1  0.99091729  0.52553684  0.50737143  1
  Li  Li4  1  0.58051171  0.47446316  0.63548557  1
  Li  Li5  1  0.15015770  0.47546281  0.77577820  1
  Li  Li6  1  0.71378622  0.49012282  0.91769427  1
  Li  Li7  1  0.28571400  -0.00000000  0.57142900  1
  Mn  Mn8  1  0.00082405  0.99488197  0.99653008  1
  Mn  Mn9  1  0.57060495  0.00511803  0.14632692  1
  Co  Co10  1  0.14242203  0.00926673  0.29411079  1
  Co  Co11  1  0.70440944  0.03505112  0.44386900  1
  Co  Co12  1  0.86701956  0.96494888  0.69898800  1
  Co  Co13  1  0.42900597  0.99073327  0.84874621  1
  O  O14  1  0.37017824  0.22737850  0.96773499  1
  O  O15  1  0.94418592  0.21889208  0.10726292  1
  O  O16  1  0.50860965  0.23068575  0.24790606  1
  O  O17  1  0.07949311  0.23283321  0.39181942  1
  O  O18  1  0.63977877  0.25019966  0.52975820  1
  O  O19  1  0.23352704  0.21453128  0.68158535  1
  O  O20  1  0.80039092  0.22354888  0.82432973  1
  O  O21  1  0.20124976  0.77262150  0.17512201  1
  O  O22  1  0.77103808  0.77645112  0.31852727  1
  O  O23  1  0.33790196  0.78546872  0.46127165  1
  O  O24  1  0.93164923  0.74980034  0.61309880  1
  O  O25  1  0.49193589  0.76716679  0.75103758  1
  O  O26  1  0.06281835  0.76931425  0.89495194  1
  O  O27  1  0.62724308  0.78110792  0.03559408  1
