# generated using pymatgen
data_Te2Mo2W(SeS)2
_symmetry_space_group_name_H-M   'P 1'
_cell_length_a   3.34609060
_cell_length_b   3.34607347
_cell_length_c   30.94477033
_cell_angle_alpha   90.00051085
_cell_angle_beta   90.00001126
_cell_angle_gamma   120.00014260
_symmetry_Int_Tables_number   1
_chemical_formula_structural   Te2Mo2W(SeS)2
_chemical_formula_sum   'Te2 Mo2 W1 Se2 S2'
_cell_volume   300.04779478
_cell_formula_units_Z   1
loop_
 _symmetry_equiv_pos_site_id
 _symmetry_equiv_pos_as_xyz
  1  'x, y, z'
loop_
 _atom_site_type_symbol
 _atom_site_label
 _atom_site_symmetry_multiplicity
 _atom_site_fract_x
 _atom_site_fract_y
 _atom_site_fract_z
 _atom_site_occupancy
  Te  Te0  1  0.66664133  0.33328211  0.51711312  1
  Te  Te1  1  0.66664943  0.33329811  0.63952347  1
  Mo  Mo2  1  0.33330743  0.66661403  0.11565172  1
  Mo  Mo3  1  0.33331098  0.66662130  0.57832347  1
  W  W4  1  0.66669208  0.33338513  0.34696509  1
  Se  Se5  1  0.66664510  0.33328965  0.06183281  1
  Se  Se6  1  0.66664186  0.33328323  0.16947441  1
  S  S7  1  0.33335802  0.66671631  0.39615471  1
  S  S8  1  0.33335476  0.66671012  0.29780220  1
