# generated using pymatgen
data_Te2Mo2W(SeS)2
_symmetry_space_group_name_H-M   'P 1'
_cell_length_a   3.34646437
_cell_length_b   3.34645749
_cell_length_c   30.96961144
_cell_angle_alpha   89.99974133
_cell_angle_beta   90.00000000
_cell_angle_gamma   120.00006787
_symmetry_Int_Tables_number   1
_chemical_formula_structural   Te2Mo2W(SeS)2
_chemical_formula_sum   'Te2 Mo2 W1 Se2 S2'
_cell_volume   300.35689743
_cell_formula_units_Z   1
loop_
 _symmetry_equiv_pos_site_id
 _symmetry_equiv_pos_as_xyz
  1  'x, y, z'
loop_
 _atom_site_type_symbol
 _atom_site_label
 _atom_site_symmetry_multiplicity
 _atom_site_fract_x
 _atom_site_fract_y
 _atom_site_fract_z
 _atom_site_occupancy
  Te  Te0  1  0.66664248  0.33328396  0.05447290  1
  Te  Te1  1  0.66664729  0.33329357  0.17679373  1
  Mo  Mo2  1  0.33331258  0.66662516  0.11560201  1
  Mo  Mo3  1  0.66668880  0.33337761  0.34703158  1
  W  W4  1  0.33331088  0.66662176  0.57830916  1
  Se  Se5  1  0.33335190  0.66670480  0.40078329  1
  Se  Se6  1  0.33335166  0.66670432  0.29322637  1
  S  S7  1  0.66664886  0.33329671  0.52914884  1
  S  S8  1  0.66664655  0.33329211  0.62747313  1
