# generated using pymatgen
data_TeMoWSeS2
_symmetry_space_group_name_H-M   'P 1'
_cell_length_a   3.30387658
_cell_length_b   3.30384683
_cell_length_c   37.65470899
_cell_angle_alpha   90.00053798
_cell_angle_beta   90.00000000
_cell_angle_gamma   120.00029784
_symmetry_Int_Tables_number   1
_chemical_formula_structural   TeMoWSeS2
_chemical_formula_sum   'Te2 Mo2 W2 Se2 S4'
_cell_volume   355.95274324
_cell_formula_units_Z   2
loop_
 _symmetry_equiv_pos_site_id
 _symmetry_equiv_pos_as_xyz
  1  'x, y, z'
loop_
 _atom_site_type_symbol
 _atom_site_label
 _atom_site_symmetry_multiplicity
 _atom_site_fract_x
 _atom_site_fract_y
 _atom_site_fract_z
 _atom_site_occupancy
  Te  Te0  1  0.66663833  0.33327566  0.41892885  1
  Te  Te1  1  0.66664646  0.33329193  0.52042051  1
  Mo  Mo2  1  0.33330969  0.66661939  0.46968687  1
  Mo  Mo3  1  0.66668685  0.33337371  0.28175644  1
  W  W4  1  0.33330983  0.66661967  0.09393141  1
  W  W5  1  0.66669356  0.33338711  0.65756136  1
  Se  Se6  1  0.33336586  0.66673273  0.32635550  1
  Se  Se7  1  0.33334951  0.66670003  0.23716407  1
  S  S8  1  0.33335408  0.66670915  0.69830365  1
  S  S9  1  0.66664464  0.33328829  0.05316298  1
  S  S10  1  0.66664570  0.33329039  0.13469146  1
  S  S11  1  0.33335547  0.66671195  0.61678490  1
