# generated using pymatgen
data_Te2MoW3(SeS2)2
_symmetry_space_group_name_H-M   'P 1'
_cell_length_a   3.30419946
_cell_length_b   3.30420633
_cell_length_c   37.61464859
_cell_angle_alpha   89.99996018
_cell_angle_beta   90.00000000
_cell_angle_gamma   119.99993126
_symmetry_Int_Tables_number   1
_chemical_formula_structural   Te2MoW3(SeS2)2
_chemical_formula_sum   'Te2 Mo1 W3 Se2 S4'
_cell_volume   355.64880650
_cell_formula_units_Z   1
loop_
 _symmetry_equiv_pos_site_id
 _symmetry_equiv_pos_as_xyz
  1  'x, y, z'
loop_
 _atom_site_type_symbol
 _atom_site_label
 _atom_site_symmetry_multiplicity
 _atom_site_fract_x
 _atom_site_fract_y
 _atom_site_fract_z
 _atom_site_occupancy
  Te  Te0  1  0.66664575  0.33329050  0.04311589  1
  Te  Te1  1  0.66664631  0.33329162  0.14469703  1
  Mo  Mo2  1  0.33330835  0.66661671  0.09390118  1
  W  W3  1  0.33331011  0.66662023  0.46964752  1
  W  W4  1  0.66669358  0.33338716  0.28181124  1
  W  W5  1  0.66669255  0.33338511  0.65755132  1
  Se  Se6  1  0.33335188  0.66670475  0.70239941  1
  Se  Se7  1  0.33335059  0.66670217  0.61267278  1
  S  S8  1  0.33335355  0.66670811  0.32258385  1
  S  S9  1  0.66664570  0.33329041  0.42888524  1
  S  S10  1  0.66664581  0.33329062  0.51043468  1
  S  S11  1  0.33335581  0.66671262  0.24104786  1
