# generated using pymatgen
data_Te2MoW3(SeS2)2
_symmetry_space_group_name_H-M   'P 1'
_cell_length_a   3.30570974
_cell_length_b   3.30569890
_cell_length_c   37.63466728
_cell_angle_alpha   89.99998666
_cell_angle_beta   90.00000000
_cell_angle_gamma   120.00010843
_symmetry_Int_Tables_number   1
_chemical_formula_structural   Te2MoW3(SeS2)2
_chemical_formula_sum   'Te2 Mo1 W3 Se2 S4'
_cell_volume   356.16090749
_cell_formula_units_Z   1
loop_
 _symmetry_equiv_pos_site_id
 _symmetry_equiv_pos_as_xyz
  1  'x, y, z'
loop_
 _atom_site_type_symbol
 _atom_site_label
 _atom_site_symmetry_multiplicity
 _atom_site_fract_x
 _atom_site_fract_y
 _atom_site_fract_z
 _atom_site_occupancy
  Te  Te0  1  0.66664201  0.33328303  0.04310019  1
  Te  Te1  1  0.66664656  0.33329211  0.14470822  1
  Mo  Mo2  1  0.33330852  0.66661704  0.09388359  1
  W  W3  1  0.33330811  0.66661623  0.46964492  1
  W  W4  1  0.66669496  0.33338992  0.28180456  1
  W  W5  1  0.66669524  0.33339048  0.65755547  1
  Se  Se6  1  0.66664885  0.33329670  0.42478963  1
  Se  Se7  1  0.66662992  0.33325884  0.51453278  1
  S  S8  1  0.33335341  0.66670782  0.32256893  1
  S  S9  1  0.33335734  0.66671568  0.69829881  1
  S  S10  1  0.33335849  0.66671797  0.24107145  1
  S  S11  1  0.33335659  0.66671418  0.61678946  1
