# generated using pymatgen
data_Te2MoW3(SeS2)2
_symmetry_space_group_name_H-M   'P 1'
_cell_length_a   3.30401105
_cell_length_b   3.30399712
_cell_length_c   37.66154058
_cell_angle_alpha   90.00020492
_cell_angle_beta   90.00000000
_cell_angle_gamma   120.00013938
_symmetry_Int_Tables_number   1
_chemical_formula_structural   Te2MoW3(SeS2)2
_chemical_formula_sum   'Te2 Mo1 W3 Se2 S4'
_cell_volume   356.04857669
_cell_formula_units_Z   1
loop_
 _symmetry_equiv_pos_site_id
 _symmetry_equiv_pos_as_xyz
  1  'x, y, z'
loop_
 _atom_site_type_symbol
 _atom_site_label
 _atom_site_symmetry_multiplicity
 _atom_site_fract_x
 _atom_site_fract_y
 _atom_site_fract_z
 _atom_site_occupancy
  Te  Te0  1  0.33335170  0.66670439  0.33253795  1
  Te  Te1  1  0.33336072  0.66672245  0.23104147  1
  Mo  Mo2  1  0.66669109  0.33338217  0.28180442  1
  W  W3  1  0.33331102  0.66662203  0.09390575  1
  W  W4  1  0.33330869  0.66661739  0.46968914  1
  W  W5  1  0.66669116  0.33338231  0.65753186  1
  Se  Se6  1  0.33335214  0.66670528  0.70236741  1
  Se  Se7  1  0.33335166  0.66670433  0.61270466  1
  S  S8  1  0.66664300  0.33328501  0.05316400  1
  S  S9  1  0.66664690  0.33329280  0.42894133  1
  S  S10  1  0.66664603  0.33329106  0.13465260  1
  S  S11  1  0.66664589  0.33329078  0.51040739  1
