# generated using pymatgen
data_TeMoWSeS2
_symmetry_space_group_name_H-M   'P 1'
_cell_length_a   3.30430996
_cell_length_b   3.30430524
_cell_length_c   37.61401877
_cell_angle_alpha   89.99994185
_cell_angle_beta   90.00000000
_cell_angle_gamma   120.00004723
_symmetry_Int_Tables_number   1
_chemical_formula_structural   TeMoWSeS2
_chemical_formula_sum   'Te2 Mo2 W2 Se2 S4'
_cell_volume   355.66497644
_cell_formula_units_Z   2
loop_
 _symmetry_equiv_pos_site_id
 _symmetry_equiv_pos_as_xyz
  1  'x, y, z'
loop_
 _atom_site_type_symbol
 _atom_site_label
 _atom_site_symmetry_multiplicity
 _atom_site_fract_x
 _atom_site_fract_y
 _atom_site_fract_z
 _atom_site_occupancy
  Te  Te0  1  0.66664238  0.33328376  0.04309182  1
  Te  Te1  1  0.66664378  0.33328656  0.14467613  1
  Mo  Mo2  1  0.33330776  0.66661551  0.09387272  1
  Mo  Mo3  1  0.66668912  0.33337823  0.28185189  1
  W  W4  1  0.33331020  0.66662040  0.46965763  1
  W  W5  1  0.66669451  0.33338903  0.65753342  1
  Se  Se6  1  0.33335173  0.66670445  0.32645750  1
  Se  Se7  1  0.33335142  0.66670385  0.23721363  1
  S  S8  1  0.33335730  0.66671560  0.69833474  1
  S  S9  1  0.66664811  0.33329522  0.42886780  1
  S  S10  1  0.66664772  0.33329445  0.51046233  1
  S  S11  1  0.33335597  0.66671294  0.61672839  1
