# generated using pymatgen
data_Te6MoW3Se2
_symmetry_space_group_name_H-M   'P 1'
_cell_length_a   3.50281675
_cell_length_b   3.50285125
_cell_length_c   39.65371637
_cell_angle_alpha   90.00002164
_cell_angle_beta   90.00000000
_cell_angle_gamma   119.99967410
_symmetry_Int_Tables_number   1
_chemical_formula_structural   Te6MoW3Se2
_chemical_formula_sum   'Te6 Mo1 W3 Se2'
_cell_volume   421.36170895
_cell_formula_units_Z   1
loop_
 _symmetry_equiv_pos_site_id
 _symmetry_equiv_pos_as_xyz
  1  'x, y, z'
loop_
 _atom_site_type_symbol
 _atom_site_label
 _atom_site_symmetry_multiplicity
 _atom_site_fract_x
 _atom_site_fract_y
 _atom_site_fract_z
 _atom_site_occupancy
  Te  Te0  1  0.33335997  0.66672094  0.70391860  1
  Te  Te1  1  0.66663984  0.33327868  0.04754022  1
  Te  Te2  1  0.66664846  0.33329592  0.42327093  1
  Te  Te3  1  0.66664068  0.33328036  0.14032133  1
  Te  Te4  1  0.66664841  0.33329583  0.51604069  1
  Te  Te5  1  0.33335524  0.66671148  0.61115019  1
  Mo  Mo6  1  0.66668886  0.33337771  0.28179671  1
  W  W7  1  0.33330946  0.66661893  0.09392226  1
  W  W8  1  0.33331366  0.66662732  0.46964243  1
  W  W9  1  0.66669004  0.33338007  0.65755411  1
  Se  Se10  1  0.33335536  0.66671171  0.32260595  1
  Se  Se11  1  0.33335002  0.66670104  0.24098457  1
