# generated using pymatgen
data_Li7Mn2(CoO4)3
_symmetry_space_group_name_H-M   'P 1'
_cell_length_a   3.01797459
_cell_length_b   8.01075104
_cell_length_c   9.80376055
_cell_angle_alpha   66.42103390
_cell_angle_beta   93.40271121
_cell_angle_gamma   90.60251534
_symmetry_Int_Tables_number   1
_chemical_formula_structural   Li7Mn2(CoO4)3
_chemical_formula_sum   'Li7 Mn2 Co3 O12'
_cell_volume   216.82373934
_cell_formula_units_Z   1
loop_
 _symmetry_equiv_pos_site_id
 _symmetry_equiv_pos_as_xyz
  1  'x, y, z'
loop_
 _atom_site_type_symbol
 _atom_site_label
 _atom_site_symmetry_multiplicity
 _atom_site_fract_x
 _atom_site_fract_y
 _atom_site_fract_z
 _atom_site_occupancy
  Li  Li0  1  0.99704239  0.82960894  0.33526378  1
  Li  Li1  1  0.49993671  0.34358674  0.82740389  1
  Li  Li2  1  0.50006329  0.98974626  0.50592911  1
  Li  Li3  1  0.00295761  0.50372406  0.99806922  1
  Li  Li4  1  -0.00000000  0.16666700  0.66666700  1
  Li  Li5  1  0.50000000  0.66666700  0.16666700  1
  Li  Li6  1  -0.00000000  0.66666700  0.66666700  1
  Mn  Mn7  1  -0.00132756  0.99933452  0.99700254  1
  Mn  Mn8  1  0.00132756  0.33399848  0.33633046  1
  Co  Co9  1  0.49452016  0.50597378  0.50917621  1
  Co  Co10  1  0.50000000  0.16666700  0.16666700  1
  Co  Co11  1  0.50547984  0.82735922  0.82415679  1
  O  O12  1  0.46935432  0.93053935  0.16114904  1
  O  O13  1  0.97500659  0.42327061  0.65360495  1
  O  O14  1  0.01518883  0.09456535  0.33029814  1
  O  O15  1  0.49563086  0.60645315  0.83549713  1
  O  O16  1  0.47898717  0.27285749  0.49584674  1
  O  O17  1  0.97656396  0.76251710  0.99080222  1
  O  O18  1  0.50436914  0.72687985  0.49783587  1
  O  O19  1  -0.01518883  0.23876765  0.00303486  1
  O  O20  1  0.02499341  0.91006239  0.67972805  1
  O  O21  1  0.53064568  0.40279365  0.17218396  1
  O  O22  1  0.52101283  0.06047651  0.83748726  1
  O  O23  1  0.02343604  0.57081690  0.34253178  1
