# generated using pymatgen
data_Te2Mo2SeS
_symmetry_space_group_name_H-M   'P 1'
_cell_length_a   3.39788065
_cell_length_b   3.39789090
_cell_length_c   38.62552712
_cell_angle_alpha   89.99991101
_cell_angle_beta   90.00000000
_cell_angle_gamma   119.99990012
_symmetry_Int_Tables_number   1
_chemical_formula_structural   Te2Mo2SeS
_chemical_formula_sum   'Te4 Mo4 Se2 S2'
_cell_volume   386.20957672
_cell_formula_units_Z   2
loop_
 _symmetry_equiv_pos_site_id
 _symmetry_equiv_pos_as_xyz
  1  'x, y, z'
loop_
 _atom_site_type_symbol
 _atom_site_label
 _atom_site_symmetry_multiplicity
 _atom_site_fract_x
 _atom_site_fract_y
 _atom_site_fract_z
 _atom_site_occupancy
  Te  Te0  1  0.33335195  0.66670490  0.70596537  1
  Te  Te1  1  0.66664718  0.33329336  0.04544729  1
  Te  Te2  1  0.66664862  0.33329624  0.14242374  1
  Te  Te3  1  0.33335055  0.66670211  0.60910369  1
  Mo  Mo4  1  0.33330943  0.66661887  0.09391502  1
  Mo  Mo5  1  0.33331222  0.66662443  0.46966352  1
  Mo  Mo6  1  0.66669171  0.33338343  0.28180733  1
  Mo  Mo7  1  0.66669036  0.33338073  0.65755030  1
  Se  Se8  1  0.66664099  0.33328099  0.42702265  1
  Se  Se9  1  0.66665008  0.33329916  0.51226518  1
  S  S10  1  0.33335346  0.66670793  0.32065269  1
  S  S11  1  0.33335343  0.66670786  0.24293123  1
