# generated using pymatgen
data_TeMoWSeS2
_symmetry_space_group_name_H-M   'P 1'
_cell_length_a   3.30417244
_cell_length_b   3.30416788
_cell_length_c   37.59459593
_cell_angle_alpha   90.00016078
_cell_angle_beta   90.00000000
_cell_angle_gamma   120.00004562
_symmetry_Int_Tables_number   1
_chemical_formula_structural   TeMoWSeS2
_chemical_formula_sum   'Te2 Mo2 W2 Se2 S4'
_cell_volume   355.45175544
_cell_formula_units_Z   2
loop_
 _symmetry_equiv_pos_site_id
 _symmetry_equiv_pos_as_xyz
  1  'x, y, z'
loop_
 _atom_site_type_symbol
 _atom_site_label
 _atom_site_symmetry_multiplicity
 _atom_site_fract_x
 _atom_site_fract_y
 _atom_site_fract_z
 _atom_site_occupancy
  Te  Te0  1  0.33335164  0.66670428  0.70836953  1
  Te  Te1  1  0.33335462  0.66671023  0.60673808  1
  Mo  Mo2  1  0.33330980  0.66661959  0.09390163  1
  Mo  Mo3  1  0.66669248  0.33338495  0.65756743  1
  W  W4  1  0.33330932  0.66661863  0.46964801  1
  W  W5  1  0.66669184  0.33338367  0.28179796  1
  Se  Se6  1  0.66664053  0.33328006  0.04927500  1
  Se  Se7  1  0.66664706  0.33329312  0.13856601  1
  S  S8  1  0.33335431  0.66670961  0.32259893  1
  S  S9  1  0.66664721  0.33329341  0.42885306  1
  S  S10  1  0.66664541  0.33328983  0.51043851  1
  S  S11  1  0.33335581  0.66671261  0.24099384  1
