# generated using pymatgen
data_TeMoWSeS2
_symmetry_space_group_name_H-M   'P 1'
_cell_length_a   3.30390053
_cell_length_b   3.30389381
_cell_length_c   37.62313273
_cell_angle_alpha   89.99971909
_cell_angle_beta   90.00000000
_cell_angle_gamma   120.00006737
_symmetry_Int_Tables_number   1
_chemical_formula_structural   TeMoWSeS2
_chemical_formula_sum   'Te2 Mo2 W2 Se2 S4'
_cell_volume   355.66271196
_cell_formula_units_Z   2
loop_
 _symmetry_equiv_pos_site_id
 _symmetry_equiv_pos_as_xyz
  1  'x, y, z'
loop_
 _atom_site_type_symbol
 _atom_site_label
 _atom_site_symmetry_multiplicity
 _atom_site_fract_x
 _atom_site_fract_y
 _atom_site_fract_z
 _atom_site_occupancy
  Te  Te0  1  0.66664788  0.33329476  0.41886626  1
  Te  Te1  1  0.66664633  0.33329166  0.52043678  1
  Mo  Mo2  1  0.33330873  0.66661746  0.09392690  1
  Mo  Mo3  1  0.33331023  0.66662046  0.46966403  1
  W  W4  1  0.66669207  0.33338415  0.28177851  1
  W  W5  1  0.66668810  0.33337621  0.65757127  1
  Se  Se6  1  0.66664651  0.33329201  0.04929644  1
  Se  Se7  1  0.66664589  0.33329079  0.13855347  1
  S  S8  1  0.33335182  0.66670464  0.32255692  1
  S  S9  1  0.33335182  0.66670465  0.69833970  1
  S  S10  1  0.33335812  0.66671724  0.24099798  1
  S  S11  1  0.33335249  0.66670598  0.61675975  1
