# generated using pymatgen
data_Mg30TiFeO32
_symmetry_space_group_name_H-M   'P 1'
_cell_length_a   8.54785122
_cell_length_b   8.54785122
_cell_length_c   8.52490554
_cell_angle_alpha   90.00000000
_cell_angle_beta   90.00000000
_cell_angle_gamma   90.00000000
_symmetry_Int_Tables_number   1
_chemical_formula_structural   Mg30TiFeO32
_chemical_formula_sum   'Mg30 Ti1 Fe1 O32'
_cell_volume   622.87870629
_cell_formula_units_Z   1
loop_
 _symmetry_equiv_pos_site_id
 _symmetry_equiv_pos_as_xyz
  1  'x, y, z'
loop_
 _atom_site_type_symbol
 _atom_site_label
 _atom_site_symmetry_multiplicity
 _atom_site_fract_x
 _atom_site_fract_y
 _atom_site_fract_z
 _atom_site_occupancy
  Mg  Mg0  1  0.00000000  0.50000000  0.00000000  1
  Mg  Mg1  1  0.00000000  0.50000000  0.50000000  1
  Mg  Mg2  1  0.50000000  0.00000000  0.00000000  1
  Mg  Mg3  1  0.50000000  0.00000000  0.50000000  1
  Mg  Mg4  1  0.50000000  0.50000000  0.00000000  1
  Mg  Mg5  1  0.50000000  0.50000000  0.50000000  1
  Mg  Mg6  1  0.00000000  0.25141151  0.24595078  1
  Mg  Mg7  1  0.00000000  0.25141151  0.75404922  1
  Mg  Mg8  1  0.00000000  0.74858849  0.24595078  1
  Mg  Mg9  1  0.00000000  0.74858849  0.75404922  1
  Mg  Mg10  1  0.50000000  0.25001129  0.24945680  1
  Mg  Mg11  1  0.50000000  0.25001129  0.75054320  1
  Mg  Mg12  1  0.50000000  0.74998871  0.24945680  1
  Mg  Mg13  1  0.50000000  0.74998871  0.75054320  1
  Mg  Mg14  1  0.25141151  0.00000000  0.24595078  1
  Mg  Mg15  1  0.25141151  0.00000000  0.75404922  1
  Mg  Mg16  1  0.25001129  0.50000000  0.24945680  1
  Mg  Mg17  1  0.25001129  0.50000000  0.75054320  1
  Mg  Mg18  1  0.74858849  0.00000000  0.24595078  1
  Mg  Mg19  1  0.74858849  0.00000000  0.75404922  1
  Mg  Mg20  1  0.74998871  0.50000000  0.24945680  1
  Mg  Mg21  1  0.74998871  0.50000000  0.75054320  1
  Mg  Mg22  1  0.24945349  0.24945349  0.00000000  1
  Mg  Mg23  1  0.25098979  0.25098979  0.50000000  1
  Mg  Mg24  1  0.24945349  0.75054651  0.00000000  1
  Mg  Mg25  1  0.25098979  0.74901021  0.50000000  1
  Mg  Mg26  1  0.75054651  0.24945349  0.00000000  1
  Mg  Mg27  1  0.74901021  0.25098979  0.50000000  1
  Mg  Mg28  1  0.75054651  0.75054651  0.00000000  1
  Mg  Mg29  1  0.74901021  0.74901021  0.50000000  1
  Ti  Ti30  1  0.00000000  0.00000000  0.50000000  1
  Fe  Fe31  1  0.00000000  0.00000000  0.00000000  1
  O  O32  1  0.25934020  0.00000000  0.00000000  1
  O  O33  1  0.25251022  0.00000000  0.50000000  1
  O  O34  1  0.25106737  0.50000000  0.00000000  1
  O  O35  1  0.25041236  0.50000000  0.50000000  1
  O  O36  1  0.74065980  0.00000000  0.00000000  1
  O  O37  1  0.74748978  0.00000000  0.50000000  1
  O  O38  1  0.74893263  0.50000000  0.00000000  1
  O  O39  1  0.74958764  0.50000000  0.50000000  1
  O  O40  1  0.24932236  0.24932236  0.25022985  1
  O  O41  1  0.24932236  0.24932236  0.74977015  1
  O  O42  1  0.24932236  0.75067764  0.25022985  1
  O  O43  1  0.24932236  0.75067764  0.74977015  1
  O  O44  1  0.75067764  0.24932236  0.25022985  1
  O  O45  1  0.75067764  0.24932236  0.74977015  1
  O  O46  1  0.75067764  0.75067764  0.25022985  1
  O  O47  1  0.75067764  0.75067764  0.74977015  1
  O  O48  1  0.00000000  0.00000000  0.26758656  1
  O  O49  1  0.00000000  0.00000000  0.73241344  1
  O  O50  1  0.00000000  0.50000000  0.25135611  1
  O  O51  1  0.00000000  0.50000000  0.74864389  1
  O  O52  1  0.50000000  0.00000000  0.25135611  1
  O  O53  1  0.50000000  0.00000000  0.74864389  1
  O  O54  1  0.50000000  0.50000000  0.25043913  1
  O  O55  1  0.50000000  0.50000000  0.74956087  1
  O  O56  1  0.00000000  0.25934020  0.00000000  1
  O  O57  1  0.00000000  0.25251022  0.50000000  1
  O  O58  1  0.00000000  0.74065980  0.00000000  1
  O  O59  1  0.00000000  0.74748978  0.50000000  1
  O  O60  1  0.50000000  0.25106737  0.00000000  1
  O  O61  1  0.50000000  0.25041236  0.50000000  1
  O  O62  1  0.50000000  0.74893263  0.00000000  1
  O  O63  1  0.50000000  0.74958764  0.50000000  1
