# generated using pymatgen
data_Li7Mn2(CoO4)3
_symmetry_space_group_name_H-M   'P 1'
_cell_length_a   3.01595716
_cell_length_b   7.64596107
_cell_length_c   9.77185039
_cell_angle_alpha   91.98914225
_cell_angle_beta   84.05025440
_cell_angle_gamma   81.84152172
_symmetry_Int_Tables_number   1
_chemical_formula_structural   Li7Mn2(CoO4)3
_chemical_formula_sum   'Li7 Mn2 Co3 O12'
_cell_volume   221.57599839
_cell_formula_units_Z   1
loop_
 _symmetry_equiv_pos_site_id
 _symmetry_equiv_pos_as_xyz
  1  'x, y, z'
loop_
 _atom_site_type_symbol
 _atom_site_label
 _atom_site_symmetry_multiplicity
 _atom_site_fract_x
 _atom_site_fract_y
 _atom_site_fract_z
 _atom_site_occupancy
  Li  Li0  1  0.74516861  0.25052082  0.25829605  1
  Li  Li1  1  0.92641014  0.41783264  0.74516318  1
  Li  Li2  1  0.08121794  0.58319256  0.25237124  1
  Li  Li3  1  0.25211506  0.75014044  0.74762876  1
  Li  Li4  1  0.40692386  0.91550136  0.25483682  1
  Li  Li5  1  0.58816439  0.08281218  0.74170395  1
  Li  Li6  1  0.16666700  0.16666700  0.50000000  1
  Mn  Mn7  1  0.00654894  0.99829367  0.99745577  1
  Mn  Mn8  1  0.32678406  0.33503933  0.00254423  1
  Co  Co9  1  0.51065888  0.49013429  0.49791659  1
  Co  Co10  1  0.66666700  0.66666700  0.00000000  1
  Co  Co11  1  0.82267412  0.84319871  0.50208341  1
  O  O12  1  0.34882382  0.12651829  0.11788542  1
  O  O13  1  0.53038594  0.32056722  0.61483304  1
  O  O14  1  0.68467176  0.45594362  0.11829011  1
  O  O15  1  0.85587648  0.63483134  0.60735398  1
  O  O16  1  0.03425028  0.79050258  0.11458800  1
  O  O17  1  0.19565592  0.94694307  0.61456761  1
  O  O18  1  0.13767708  0.38638993  0.38543239  1
  O  O19  1  0.29908372  0.54283142  0.88541200  1
  O  O20  1  0.47745652  0.69850166  0.39264602  1
  O  O21  1  0.64866124  0.87738938  0.88170989  1
  O  O22  1  0.80294806  0.01276678  0.38516696  1
  O  O23  1  0.98450918  0.20681471  0.88211458  1
