# generated using pymatgen
data_TeMoWSeS2
_symmetry_space_group_name_H-M   'P 1'
_cell_length_a   3.30428229
_cell_length_b   3.30429246
_cell_length_c   37.59602686
_cell_angle_alpha   89.99919615
_cell_angle_beta   89.99996851
_cell_angle_gamma   119.99983474
_symmetry_Int_Tables_number   1
_chemical_formula_structural   TeMoWSeS2
_chemical_formula_sum   'Te2 Mo2 W2 Se2 S4'
_cell_volume   355.49126004
_cell_formula_units_Z   2
loop_
 _symmetry_equiv_pos_site_id
 _symmetry_equiv_pos_as_xyz
  1  'x, y, z'
loop_
 _atom_site_type_symbol
 _atom_site_label
 _atom_site_symmetry_multiplicity
 _atom_site_fract_x
 _atom_site_fract_y
 _atom_site_fract_z
 _atom_site_occupancy
  Te  Te0  1  0.66664293  0.33328526  0.04309372  1
  Te  Te1  1  0.66663957  0.33327857  0.14472098  1
  Mo  Mo2  1  0.33330613  0.66661172  0.09389036  1
  Mo  Mo3  1  0.33330749  0.66661381  0.46963232  1
  W  W4  1  0.66669281  0.33338712  0.28179276  1
  W  W5  1  0.66669215  0.33338523  0.65755535  1
  Se  Se6  1  0.66665109  0.33330200  0.42501715  1
  Se  Se7  1  0.66664127  0.33328212  0.51432424  1
  S  S8  1  0.33335439  0.66670946  0.32260283  1
  S  S9  1  0.33335349  0.66670744  0.69834020  1
  S  S10  1  0.33335992  0.66671927  0.24102346  1
  S  S11  1  0.33335877  0.66671799  0.61675462  1
