# generated using pymatgen
data_Te6MoW3Se2
_symmetry_space_group_name_H-M   'P 1'
_cell_length_a   3.50075503
_cell_length_b   3.50074889
_cell_length_c   39.66022698
_cell_angle_alpha   90.00017597
_cell_angle_beta   90.00000000
_cell_angle_gamma   120.00005816
_symmetry_Int_Tables_number   1
_chemical_formula_structural   Te6MoW3Se2
_chemical_formula_sum   'Te6 Mo1 W3 Se2'
_cell_volume   420.92842393
_cell_formula_units_Z   1
loop_
 _symmetry_equiv_pos_site_id
 _symmetry_equiv_pos_as_xyz
  1  'x, y, z'
loop_
 _atom_site_type_symbol
 _atom_site_label
 _atom_site_symmetry_multiplicity
 _atom_site_fract_x
 _atom_site_fract_y
 _atom_site_fract_z
 _atom_site_occupancy
  Te  Te0  1  0.33336718  0.66673536  0.32822731  1
  Te  Te1  1  0.33335296  0.66670692  0.70397254  1
  Te  Te2  1  0.66664874  0.33329648  0.42322842  1
  Te  Te3  1  0.66664788  0.33329476  0.51609555  1
  Te  Te4  1  0.33335688  0.66671477  0.23534703  1
  Te  Te5  1  0.33335212  0.66670524  0.61108948  1
  Mo  Mo6  1  0.33330861  0.66661722  0.09392396  1
  W  W7  1  0.33331269  0.66662537  0.46965471  1
  W  W8  1  0.66669095  0.33338190  0.28176861  1
  W  W9  1  0.66668757  0.33337514  0.65754860  1
  Se  Se10  1  0.66664217  0.33328333  0.05311282  1
  Se  Se11  1  0.66663225  0.33326350  0.13477897  1
