# generated using pymatgen
data_Te2Mo2SeS
_symmetry_space_group_name_H-M   'P 1'
_cell_length_a   3.40029873
_cell_length_b   3.40022210
_cell_length_c   38.64391719
_cell_angle_alpha   90.00074690
_cell_angle_beta   90.00000000
_cell_angle_gamma   120.00074540
_symmetry_Int_Tables_number   1
_chemical_formula_structural   Te2Mo2SeS
_chemical_formula_sum   'Te4 Mo4 Se2 S2'
_cell_volume   386.93041711
_cell_formula_units_Z   2
loop_
 _symmetry_equiv_pos_site_id
 _symmetry_equiv_pos_as_xyz
  1  'x, y, z'
loop_
 _atom_site_type_symbol
 _atom_site_label
 _atom_site_symmetry_multiplicity
 _atom_site_fract_x
 _atom_site_fract_y
 _atom_site_fract_z
 _atom_site_occupancy
  Te  Te0  1  0.33335624  0.66671348  0.33032994  1
  Te  Te1  1  0.33335505  0.66671110  0.70599692  1
  Te  Te2  1  0.33335617  0.66671334  0.23330165  1
  Te  Te3  1  0.33335383  0.66670867  0.60903025  1
  Mo  Mo4  1  0.33330243  0.66660486  0.09389358  1
  Mo  Mo5  1  0.33330834  0.66661668  0.46967367  1
  Mo  Mo6  1  0.66669763  0.33339526  0.28182688  1
  Mo  Mo7  1  0.66669674  0.33339348  0.65754623  1
  Se  Se8  1  0.66663441  0.33326782  0.05120176  1
  Se  Se9  1  0.66664621  0.33329142  0.13660900  1
  S  S10  1  0.66664856  0.33329612  0.43084201  1
  S  S11  1  0.66664440  0.33328780  0.50849611  1
