# generated using pymatgen
data_Li7Mn2(CoO4)3
_symmetry_space_group_name_H-M   'P 1'
_cell_length_a   3.00666368
_cell_length_b   10.11683222
_cell_length_c   7.61880428
_cell_angle_alpha   72.73536593
_cell_angle_beta   98.15075208
_cell_angle_gamma   91.99064298
_symmetry_Int_Tables_number   1
_chemical_formula_structural   Li7Mn2(CoO4)3
_chemical_formula_sum   'Li7 Mn2 Co3 O12'
_cell_volume   219.06437183
_cell_formula_units_Z   1
loop_
 _symmetry_equiv_pos_site_id
 _symmetry_equiv_pos_as_xyz
  1  'x, y, z'
loop_
 _atom_site_type_symbol
 _atom_site_label
 _atom_site_symmetry_multiplicity
 _atom_site_fract_x
 _atom_site_fract_y
 _atom_site_fract_z
 _atom_site_occupancy
  Li  Li0  1  0.83090501  0.25690918  0.66388509  1
  Li  Li1  1  0.17578616  0.74558720  0.33261402  1
  Li  Li2  1  0.49088084  0.25441280  0.00071898  1
  Li  Li3  1  0.16226938  0.25464639  0.33017636  1
  Li  Li4  1  0.50439762  0.74535361  0.00315664  1
  Li  Li5  1  0.83576099  0.74309082  0.66944891  1
  Li  Li6  1  0.33333300  0.50000000  0.66666700  1
  Mn  Mn7  1  0.99254060  0.00398477  0.99722369  1
  Mn  Mn8  1  0.67412640  0.99601523  0.33610931  1
  Co  Co9  1  0.98926277  0.50222907  0.99025964  1
  Co  Co10  1  0.33333300  0.00000000  0.66666700  1
  Co  Co11  1  0.67740423  0.49777093  0.34307336  1
  O  O12  1  0.38312928  0.12227200  0.83507243  1
  O  O13  1  0.73625505  0.61395400  0.47425905  1
  O  O14  1  0.05469815  0.11689624  0.16997928  1
  O  O15  1  0.74170987  0.11200287  0.50568465  1
  O  O16  1  0.05778917  0.60786844  0.16117629  1
  O  O17  1  0.39912820  0.61527491  0.84808585  1
  O  O18  1  0.26753780  0.38472509  0.48524815  1
  O  O19  1  0.61196885  0.88310376  0.16335372  1
  O  O20  1  0.93041195  0.38604600  0.85907395  1
  O  O21  1  0.60887783  0.39213156  0.17215671  1
  O  O22  1  0.92495713  0.88799713  0.82764835  1
  O  O23  1  0.28353672  0.87772800  0.49826157  1
