# generated using pymatgen
data_Ca(SbO2)2
_symmetry_space_group_name_H-M   'P 1'
_cell_length_a   7.43745642
_cell_length_b   6.83775501
_cell_length_c   6.84881799
_cell_angle_alpha   79.61428076
_cell_angle_beta   122.95855041
_cell_angle_gamma   122.77327868
_symmetry_Int_Tables_number   1
_chemical_formula_structural   Ca(SbO2)2
_chemical_formula_sum   'Ca2 Sb4 O8'
_cell_volume   242.48444795
_cell_formula_units_Z   2
loop_
 _symmetry_equiv_pos_site_id
 _symmetry_equiv_pos_as_xyz
  1  'x, y, z'
loop_
 _atom_site_type_symbol
 _atom_site_label
 _atom_site_symmetry_multiplicity
 _atom_site_fract_x
 _atom_site_fract_y
 _atom_site_fract_z
 _atom_site_occupancy
  Ca  Ca0  1  0.25004415  0.12861514  0.87055373  1
  Ca  Ca1  1  0.74858617  0.87272310  0.12538589  1
  Sb  Sb2  1  0.55288840  0.99691833  0.56436258  1
  Sb  Sb3  1  0.50830455  0.50905582  0.44421550  1
  Sb  Sb4  1  0.94632829  0.43384320  0.00216899  1
  Sb  Sb5  1  0.99267872  0.55750129  0.49069639  1
  O  O6  1  0.98429765  0.66875255  0.19397694  1
  O  O7  1  0.38016148  0.70740925  0.68698874  1
  O  O8  1  0.51252913  0.80426668  0.32997318  1
  O  O9  1  0.99613715  0.83026754  0.55028828  1
  O  O10  1  0.61662417  0.16663178  0.94493182  1
  O  O11  1  0.50354562  0.44940728  0.17046050  1
  O  O12  1  0.12211424  0.31416668  0.29317543  1
  O  O13  1  0.88576230  0.06044435  0.83282203  1
