# generated using pymatgen
data_MgCu(SiO3)2
_symmetry_space_group_name_H-M   'P 1'
_cell_length_a   5.28266422
_cell_length_b   9.03880591
_cell_length_c   18.42246367
_cell_angle_alpha   90.00000000
_cell_angle_beta   90.00000000
_cell_angle_gamma   90.00000000
_symmetry_Int_Tables_number   1
_chemical_formula_structural   MgCu(SiO3)2
_chemical_formula_sum   'Mg8 Cu8 Si16 O48'
_cell_volume   879.65378618
_cell_formula_units_Z   8
loop_
 _symmetry_equiv_pos_site_id
 _symmetry_equiv_pos_as_xyz
  1  'x, y, z'
loop_
 _atom_site_type_symbol
 _atom_site_label
 _atom_site_symmetry_multiplicity
 _atom_site_fract_x
 _atom_site_fract_y
 _atom_site_fract_z
 _atom_site_occupancy
  Mg  Mg0  1  0.61377081  0.15208380  0.62421433  1
  Mg  Mg1  1  0.38622919  0.84791620  0.37578567  1
  Mg  Mg2  1  0.61377081  0.65208380  0.87578567  1
  Mg  Mg3  1  0.11377081  0.84791620  0.87578567  1
  Mg  Mg4  1  0.88622919  0.15208380  0.12421433  1
  Mg  Mg5  1  0.38622919  0.34791620  0.12421433  1
  Mg  Mg6  1  0.11377081  0.34791620  0.62421433  1
  Mg  Mg7  1  0.88622919  0.65208380  0.37578567  1
  Cu  Cu8  1  0.38036110  0.99252243  0.12448454  1
  Cu  Cu9  1  0.61963890  0.00747757  0.87551546  1
  Cu  Cu10  1  0.88036110  0.00747757  0.37551546  1
  Cu  Cu11  1  0.11963890  0.99252243  0.62448454  1
  Cu  Cu12  1  0.38036110  0.49252243  0.37551546  1
  Cu  Cu13  1  0.61963890  0.50747757  0.62448454  1
  Cu  Cu14  1  0.88036110  0.50747757  0.12448454  1
  Cu  Cu15  1  0.11963890  0.49252243  0.87551546  1
  Si  Si16  1  0.57449525  0.66185821  0.22574182  1
  Si  Si17  1  0.72700358  0.83620718  0.52609214  1
  Si  Si18  1  0.77299642  0.83620718  0.02609214  1
  Si  Si19  1  0.92550475  0.16185821  0.77425818  1
  Si  Si20  1  0.07449525  0.33814179  0.27425818  1
  Si  Si21  1  0.42550475  0.83814179  0.72574182  1
  Si  Si22  1  0.22700358  0.66379282  0.52609214  1
  Si  Si23  1  0.72700358  0.33620718  0.97390786  1
  Si  Si24  1  0.77299642  0.33620718  0.47390786  1
  Si  Si25  1  0.92550475  0.66185821  0.72574182  1
  Si  Si26  1  0.42550475  0.33814179  0.77425818  1
  Si  Si27  1  0.57449525  0.16185821  0.27425818  1
  Si  Si28  1  0.27299642  0.16379282  0.47390786  1
  Si  Si29  1  0.07449525  0.83814179  0.22574182  1
  Si  Si30  1  0.27299642  0.66379282  0.02609214  1
  Si  Si31  1  0.22700358  0.16379282  0.97390786  1
  O  O32  1  0.91910555  0.50047238  0.68630032  1
  O  O33  1  0.30956601  0.01351975  0.93144012  1
  O  O34  1  0.08089445  0.49952762  0.31369968  1
  O  O35  1  0.71697021  0.33946559  0.06321839  1
  O  O36  1  0.21697021  0.16053441  0.06321839  1
  O  O37  1  0.93329409  0.20721030  0.94934393  1
  O  O38  1  0.93297050  0.66626622  0.81373046  1
  O  O39  1  0.06702950  0.83373378  0.31373046  1
  O  O40  1  0.71697021  0.83946559  0.43678161  1
  O  O41  1  0.93297050  0.16626622  0.68626954  1
  O  O42  1  0.41910555  0.49952762  0.81369968  1
  O  O43  1  0.78302979  0.33946559  0.56321839  1
  O  O44  1  0.69043399  0.98648025  0.06855988  1
  O  O45  1  0.43297050  0.83373378  0.81373046  1
  O  O46  1  0.58089445  0.00047238  0.31369968  1
  O  O47  1  0.30956601  0.51351975  0.56855988  1
  O  O48  1  0.41910555  0.99952762  0.68630032  1
  O  O49  1  0.15885349  0.76498780  0.69436171  1
  O  O50  1  0.34114651  0.76498780  0.19436171  1
  O  O51  1  0.56670591  0.70721030  0.05065607  1
  O  O52  1  0.78302979  0.83946559  0.93678161  1
  O  O53  1  0.56702950  0.66626622  0.31373046  1
  O  O54  1  0.80956601  0.48648025  0.93144012  1
  O  O55  1  0.15885349  0.26498780  0.80563829  1
  O  O56  1  0.28302979  0.16053441  0.56321839  1
  O  O57  1  0.56702950  0.16626622  0.18626954  1
  O  O58  1  0.69043399  0.48648025  0.43144012  1
  O  O59  1  0.21697021  0.66053441  0.43678161  1
  O  O60  1  0.19043399  0.51351975  0.06855988  1
  O  O61  1  0.65885349  0.73501220  0.69436171  1
  O  O62  1  0.08089445  0.99952762  0.18630032  1
  O  O63  1  0.84114651  0.73501220  0.19436171  1
  O  O64  1  0.84114651  0.23501220  0.30563829  1
  O  O65  1  0.80956601  0.98648025  0.56855988  1
  O  O66  1  0.28302979  0.66053441  0.93678161  1
  O  O67  1  0.19043399  0.01351975  0.43144012  1
  O  O68  1  0.34114651  0.26498780  0.30563829  1
  O  O69  1  0.06670591  0.79278970  0.05065607  1
  O  O70  1  0.43329409  0.79278970  0.55065607  1
  O  O71  1  0.65885349  0.23501220  0.80563829  1
  O  O72  1  0.43329409  0.29278970  0.94934393  1
  O  O73  1  0.56670591  0.20721030  0.44934393  1
  O  O74  1  0.06670591  0.29278970  0.44934393  1
  O  O75  1  0.43297050  0.33373378  0.68626954  1
  O  O76  1  0.58089445  0.50047238  0.18630032  1
  O  O77  1  0.93329409  0.70721030  0.55065607  1
  O  O78  1  0.06702950  0.33373378  0.18626954  1
  O  O79  1  0.91910555  0.00047238  0.81369968  1
