# generated using pymatgen
data_BaZnSbF7
_symmetry_space_group_name_H-M   'P 1'
_cell_length_a   5.77918691
_cell_length_b   10.00765130
_cell_length_c   10.69806935
_cell_angle_alpha   90.00000000
_cell_angle_beta   90.00000000
_cell_angle_gamma   93.29737412
_symmetry_Int_Tables_number   1
_chemical_formula_structural   BaZnSbF7
_chemical_formula_sum   'Ba4 Zn4 Sb4 F28'
_cell_volume   617.71012987
_cell_formula_units_Z   4
loop_
 _symmetry_equiv_pos_site_id
 _symmetry_equiv_pos_as_xyz
  1  'x, y, z'
loop_
 _atom_site_type_symbol
 _atom_site_label
 _atom_site_symmetry_multiplicity
 _atom_site_fract_x
 _atom_site_fract_y
 _atom_site_fract_z
 _atom_site_occupancy
  Ba  Ba0  1  0.26357835  0.49011390  0.33070354  1
  Ba  Ba1  1  0.73642165  0.00988610  0.83070354  1
  Ba  Ba2  1  0.73642165  0.50988610  0.66929646  1
  Ba  Ba3  1  0.26357835  0.99011390  0.16929646  1
  Zn  Zn4  1  0.68528511  0.80828974  0.38077695  1
  Zn  Zn5  1  0.31471489  0.69171026  0.88077695  1
  Zn  Zn6  1  0.68528511  0.30828974  0.11922305  1
  Zn  Zn7  1  0.31471489  0.19171026  0.61922305  1
  Sb  Sb8  1  0.20862809  0.82984687  0.59409972  1
  Sb  Sb9  1  0.79137191  0.17015313  0.40590028  1
  Sb  Sb10  1  0.20862809  0.32984687  0.90590028  1
  Sb  Sb11  1  0.79137191  0.67015313  0.09409972  1
  F  F12  1  0.13268149  0.13044776  0.46168658  1
  F  F13  1  0.38874205  0.40340730  0.10299982  1
  F  F14  1  0.49149593  0.76471034  0.72027099  1
  F  F15  1  0.50850407  0.23528966  0.27972901  1
  F  F16  1  0.90724025  0.36617647  0.46170011  1
  F  F17  1  0.19010310  0.51824951  0.79202449  1
  F  F18  1  0.03490053  0.76846637  0.76172335  1
  F  F19  1  0.09275975  0.13382353  0.96170011  1
  F  F20  1  0.38874205  0.90340730  0.39700018  1
  F  F21  1  0.50850407  0.73528966  0.22027099  1
  F  F22  1  0.13268149  0.63044776  0.03831342  1
  F  F23  1  0.86731851  0.86955224  0.53831342  1
  F  F24  1  0.96509947  0.73153363  0.26172335  1
  F  F25  1  0.41939590  0.86137803  0.96456826  1
  F  F26  1  0.09275975  0.63382353  0.53829989  1
  F  F27  1  0.90724025  0.86617647  0.03829989  1
  F  F28  1  0.96509947  0.23153363  0.23827665  1
  F  F29  1  0.86731851  0.36955224  0.96168658  1
  F  F30  1  0.58060410  0.63862197  0.46456826  1
  F  F31  1  0.61125795  0.59659270  0.89700018  1
  F  F32  1  0.58060410  0.13862197  0.03543174  1
  F  F33  1  0.03490053  0.26846637  0.73827665  1
  F  F34  1  0.41939590  0.36137803  0.53543174  1
  F  F35  1  0.80989690  0.98175049  0.29202449  1
  F  F36  1  0.80989690  0.48175049  0.20797551  1
  F  F37  1  0.19010310  0.01824951  0.70797551  1
  F  F38  1  0.61125795  0.09659270  0.60299982  1
  F  F39  1  0.49149593  0.26471034  0.77972901  1
