# generated using pymatgen
data_Mn2Zn(PO4)2
_symmetry_space_group_name_H-M   'P 1'
_cell_length_a   4.98901714
_cell_length_b   8.64910303
_cell_length_c   15.68283695
_cell_angle_alpha   88.18242553
_cell_angle_beta   80.84768128
_cell_angle_gamma   73.23706224
_symmetry_Int_Tables_number   1
_chemical_formula_structural   Mn2Zn(PO4)2
_chemical_formula_sum   'Mn8 Zn4 P8 O32'
_cell_volume   639.64512579
_cell_formula_units_Z   4
loop_
 _symmetry_equiv_pos_site_id
 _symmetry_equiv_pos_as_xyz
  1  'x, y, z'
loop_
 _atom_site_type_symbol
 _atom_site_label
 _atom_site_symmetry_multiplicity
 _atom_site_fract_x
 _atom_site_fract_y
 _atom_site_fract_z
 _atom_site_occupancy
  Mn  Mn0  1  0.21778678  0.20666188  0.96785005  1
  Mn  Mn1  1  0.39229770  0.29333812  0.53214995  1
  Mn  Mn2  1  0.78221322  0.79333812  0.03214995  1
  Mn  Mn3  1  0.50000000  0.50000000  -0.00000000  1
  Mn  Mn4  1  0.60770230  0.70666188  0.46785005  1
  Mn  Mn5  1  0.58151685  0.75000000  0.25000000  1
  Mn  Mn6  1  0.41848315  0.25000000  0.75000000  1
  Mn  Mn7  1  0.00000000  -0.00000000  0.50000000  1
  Zn  Zn8  1  0.46665177  0.82453025  0.84207517  1
  Zn  Zn9  1  0.13325719  0.67546975  0.65792483  1
  Zn  Zn10  1  0.86674281  0.32453025  0.34207517  1
  Zn  Zn11  1  0.53334823  0.17546975  0.15792483  1
  P  P12  1  0.06783467  0.56786540  0.86372277  1
  P  P13  1  0.76592949  0.43202159  0.61800598  1
  P  P14  1  0.93216533  0.43213460  0.13627723  1
  P  P15  1  0.18404193  0.93202159  0.11800598  1
  P  P16  1  0.50057817  0.06786540  0.36372277  1
  P  P17  1  0.49942183  0.93213460  0.63627723  1
  P  P18  1  0.23407051  0.56797841  0.38199402  1
  P  P19  1  0.81595807  0.06797841  0.88199402  1
  O  O20  1  0.69272277  0.36707011  0.11017737  1
  O  O21  1  0.70507680  0.92043352  0.91532919  1
  O  O22  1  0.83002975  0.86707011  0.61017736  1
  O  O23  1  0.81734474  0.28400616  0.55654269  1
  O  O24  1  0.17790342  0.39752829  0.05769190  1
  O  O25  1  0.64767892  0.40664038  0.71072443  1
  O  O26  1  0.65789559  0.21599384  0.94345731  1
  O  O27  1  0.86129601  0.97005662  0.11004636  1
  O  O28  1  0.18265526  0.71599384  0.44345731  1
  O  O29  1  0.54084051  0.57956648  0.58467081  1
  O  O30  1  0.83029710  0.61960412  0.14438966  1
  O  O31  1  0.60382781  0.15200196  0.28215309  1
  O  O32  1  0.29492320  0.07956648  0.08467081  1
  O  O33  1  0.05860200  0.47005662  0.61004636  1
  O  O34  1  0.30727623  0.63292989  0.88982263  1
  O  O35  1  0.16970290  0.38039588  0.85561034  1
  O  O36  1  0.96201714  0.65200196  0.78215309  1
  O  O37  1  0.34210441  0.78400616  0.05654269  1
  O  O38  1  0.40570912  0.11960412  0.64438966  1
  O  O39  1  0.39617219  0.84799804  0.71784691  1
  O  O40  1  0.94139800  0.52994338  0.38995364  1
  O  O41  1  0.36687639  0.89752829  0.55769190  1
  O  O42  1  0.13870399  0.02994338  0.88995364  1
  O  O43  1  0.23495627  0.90664038  0.21072443  1
  O  O44  1  0.45915949  0.42043352  0.41532919  1
  O  O45  1  0.16997025  0.13292989  0.38982264  1
  O  O46  1  0.03798286  0.34799804  0.21784691  1
  O  O47  1  0.63312361  0.10247171  0.44230810  1
  O  O48  1  0.82209658  0.60247171  0.94230810  1
  O  O49  1  0.76504373  0.09335962  0.78927557  1
  O  O50  1  0.35232108  0.59335962  0.28927557  1
  O  O51  1  0.59429088  0.88039588  0.35561034  1
