# generated using pymatgen
data_CrCuO4
_symmetry_space_group_name_H-M   'P 1'
_cell_length_a   6.46322541
_cell_length_b   8.54506408
_cell_length_c   11.74340264
_cell_angle_alpha   90.00000000
_cell_angle_beta   90.12061321
_cell_angle_gamma   90.00000000
_symmetry_Int_Tables_number   1
_chemical_formula_structural   CrCuO4
_chemical_formula_sum   'Cr8 Cu8 O32'
_cell_volume   648.57113401
_cell_formula_units_Z   8
loop_
 _symmetry_equiv_pos_site_id
 _symmetry_equiv_pos_as_xyz
  1  'x, y, z'
loop_
 _atom_site_type_symbol
 _atom_site_label
 _atom_site_symmetry_multiplicity
 _atom_site_fract_x
 _atom_site_fract_y
 _atom_site_fract_z
 _atom_site_occupancy
  Cr  Cr0  1  0.10470416  0.45727303  0.84920464  1
  Cr  Cr1  1  0.10470416  0.04272697  0.34920464  1
  Cr  Cr2  1  0.59630683  0.09749117  0.13822775  1
  Cr  Cr3  1  0.89529584  0.95727303  0.65079536  1
  Cr  Cr4  1  0.40369317  0.90250883  0.86177225  1
  Cr  Cr5  1  0.40369317  0.59749117  0.36177225  1
  Cr  Cr6  1  0.59630683  0.40250883  0.63822775  1
  Cr  Cr7  1  0.89529584  0.54272697  0.15079536  1
  Cu  Cu8  1  0.77688092  0.17087822  0.87605358  1
  Cu  Cu9  1  0.37804050  0.05045982  0.62532634  1
  Cu  Cu10  1  0.62195950  0.94954018  0.37467366  1
  Cu  Cu11  1  0.22311908  0.82912178  0.12394642  1
  Cu  Cu12  1  0.77688092  0.32912178  0.37605358  1
  Cu  Cu13  1  0.37804050  0.44954018  0.12532634  1
  Cu  Cu14  1  0.22311908  0.67087822  0.62394642  1
  Cu  Cu15  1  0.62195950  0.55045982  0.87467366  1
  O  O16  1  0.03993183  0.22877723  0.37771705  1
  O  O17  1  0.66366570  0.00428279  0.58972078  1
  O  O18  1  0.21306925  0.61535941  0.45476910  1
  O  O19  1  0.78693075  0.11535941  0.04523090  1
  O  O20  1  0.03993183  0.27122277  0.87771705  1
  O  O21  1  0.96006817  0.77122277  0.62228295  1
  O  O22  1  0.08376815  0.07947924  0.60861904  1
  O  O23  1  0.49742947  0.91562092  0.13091115  1
  O  O24  1  0.49742947  0.58437908  0.63091115  1
  O  O25  1  0.32520616  0.86697809  0.72165170  1
  O  O26  1  0.67479384  0.36697809  0.77834830  1
  O  O27  1  0.50257053  0.08437908  0.86908885  1
  O  O28  1  0.91623185  0.92052076  0.39138096  1
  O  O29  1  0.87332649  0.52183893  0.28983040  1
  O  O30  1  0.41582306  0.27319187  0.60639796  1
  O  O31  1  0.41582306  0.22680813  0.10639796  1
  O  O32  1  0.12667351  0.02183893  0.21016960  1
  O  O33  1  0.50257053  0.41562092  0.36908885  1
  O  O34  1  0.12667351  0.47816107  0.71016960  1
  O  O35  1  0.78693075  0.38464059  0.54523090  1
  O  O36  1  0.66366570  0.49571721  0.08972078  1
  O  O37  1  0.67479384  0.13302191  0.27834830  1
  O  O38  1  0.96006817  0.72877723  0.12228295  1
  O  O39  1  0.08376815  0.42052076  0.10861904  1
  O  O40  1  0.21306925  0.88464059  0.95476910  1
  O  O41  1  0.58417694  0.77319187  0.89360204  1
  O  O42  1  0.33633430  0.99571721  0.41027922  1
  O  O43  1  0.33633430  0.50428279  0.91027922  1
  O  O44  1  0.91623185  0.57947924  0.89138096  1
  O  O45  1  0.58417694  0.72680813  0.39360204  1
  O  O46  1  0.32520616  0.63302191  0.22165170  1
  O  O47  1  0.87332649  0.97816107  0.78983040  1
