# generated using pymatgen
data_KMg30CoO32
_symmetry_space_group_name_H-M   'P 1'
_cell_length_a   8.57095392
_cell_length_b   8.57219818
_cell_length_c   8.57219818
_cell_angle_alpha   90.00000000
_cell_angle_beta   90.00000000
_cell_angle_gamma   90.00000000
_symmetry_Int_Tables_number   1
_chemical_formula_structural   KMg30CoO32
_chemical_formula_sum   'K1 Mg30 Co1 O32'
_cell_volume   629.81582114
_cell_formula_units_Z   1
loop_
 _symmetry_equiv_pos_site_id
 _symmetry_equiv_pos_as_xyz
  1  'x, y, z'
loop_
 _atom_site_type_symbol
 _atom_site_label
 _atom_site_symmetry_multiplicity
 _atom_site_fract_x
 _atom_site_fract_y
 _atom_site_fract_z
 _atom_site_occupancy
  K  K0  1  0.00000000  0.50000000  0.50000000  1
  Mg  Mg1  1  0.00000000  0.00000000  0.50000000  1
  Mg  Mg2  1  0.00000000  0.50000000  0.00000000  1
  Mg  Mg3  1  0.50000000  0.00000000  0.00000000  1
  Mg  Mg4  1  0.50000000  0.00000000  0.50000000  1
  Mg  Mg5  1  0.50000000  0.50000000  0.00000000  1
  Mg  Mg6  1  0.50000000  0.50000000  0.50000000  1
  Mg  Mg7  1  0.00000000  0.24907530  0.24907530  1
  Mg  Mg8  1  0.00000000  0.24907530  0.75092470  1
  Mg  Mg9  1  0.00000000  0.75092470  0.24907530  1
  Mg  Mg10  1  0.00000000  0.75092470  0.75092470  1
  Mg  Mg11  1  0.50000000  0.25082777  0.25082777  1
  Mg  Mg12  1  0.50000000  0.25082777  0.74917223  1
  Mg  Mg13  1  0.50000000  0.74917223  0.25082777  1
  Mg  Mg14  1  0.50000000  0.74917223  0.74917223  1
  Mg  Mg15  1  0.24956847  0.00000000  0.25042435  1
  Mg  Mg16  1  0.24956847  0.00000000  0.74957565  1
  Mg  Mg17  1  0.25161948  0.50000000  0.24954313  1
  Mg  Mg18  1  0.25161948  0.50000000  0.75045687  1
  Mg  Mg19  1  0.75043153  0.00000000  0.25042435  1
  Mg  Mg20  1  0.75043153  0.00000000  0.74957565  1
  Mg  Mg21  1  0.74838052  0.50000000  0.24954313  1
  Mg  Mg22  1  0.74838052  0.50000000  0.75045687  1
  Mg  Mg23  1  0.24956847  0.25042435  0.00000000  1
  Mg  Mg24  1  0.25161948  0.24954313  0.50000000  1
  Mg  Mg25  1  0.24956847  0.74957565  0.00000000  1
  Mg  Mg26  1  0.25161948  0.75045687  0.50000000  1
  Mg  Mg27  1  0.75043153  0.25042435  0.00000000  1
  Mg  Mg28  1  0.74838052  0.24954313  0.50000000  1
  Mg  Mg29  1  0.75043153  0.74957565  0.00000000  1
  Mg  Mg30  1  0.74838052  0.75045687  0.50000000  1
  Co  Co31  1  0.00000000  0.00000000  0.00000000  1
  O  O32  1  0.23711020  0.00000000  0.00000000  1
  O  O33  1  0.25231069  0.00000000  0.50000000  1
  O  O34  1  0.25231069  0.50000000  0.00000000  1
  O  O35  1  0.27368550  0.50000000  0.50000000  1
  O  O36  1  0.76288980  0.00000000  0.00000000  1
  O  O37  1  0.74768931  0.00000000  0.50000000  1
  O  O38  1  0.74768931  0.50000000  0.00000000  1
  O  O39  1  0.72631450  0.50000000  0.50000000  1
  O  O40  1  0.24930262  0.24933069  0.24933069  1
  O  O41  1  0.24930262  0.24933069  0.75066931  1
  O  O42  1  0.24930262  0.75066931  0.24933069  1
  O  O43  1  0.24930262  0.75066931  0.75066931  1
  O  O44  1  0.75069738  0.24933069  0.24933069  1
  O  O45  1  0.75069738  0.24933069  0.75066931  1
  O  O46  1  0.75069738  0.75066931  0.24933069  1
  O  O47  1  0.75069738  0.75066931  0.75066931  1
  O  O48  1  0.00000000  0.00000000  0.23327613  1
  O  O49  1  0.00000000  0.00000000  0.76672387  1
  O  O50  1  0.00000000  0.50000000  0.22452468  1
  O  O51  1  0.00000000  0.50000000  0.77547532  1
  O  O52  1  0.50000000  0.00000000  0.24530261  1
  O  O53  1  0.50000000  0.00000000  0.75469739  1
  O  O54  1  0.50000000  0.50000000  0.24437650  1
  O  O55  1  0.50000000  0.50000000  0.75562350  1
  O  O56  1  0.00000000  0.23327613  0.00000000  1
  O  O57  1  0.00000000  0.22452468  0.50000000  1
  O  O58  1  0.00000000  0.76672387  0.00000000  1
  O  O59  1  0.00000000  0.77547532  0.50000000  1
  O  O60  1  0.50000000  0.24530261  0.00000000  1
  O  O61  1  0.50000000  0.24437650  0.50000000  1
  O  O62  1  0.50000000  0.75469739  0.00000000  1
  O  O63  1  0.50000000  0.75562350  0.50000000  1
