# generated using pymatgen
data_ZnSnP2O7
_symmetry_space_group_name_H-M   'P 1'
_cell_length_a   6.69678299
_cell_length_b   6.85652683
_cell_length_c   7.03488463
_cell_angle_alpha   85.47887712
_cell_angle_beta   79.93251955
_cell_angle_gamma   66.71017101
_symmetry_Int_Tables_number   1
_chemical_formula_structural   ZnSnP2O7
_chemical_formula_sum   'Zn2 Sn2 P4 O14'
_cell_volume   292.11261209
_cell_formula_units_Z   2
loop_
 _symmetry_equiv_pos_site_id
 _symmetry_equiv_pos_as_xyz
  1  'x, y, z'
loop_
 _atom_site_type_symbol
 _atom_site_label
 _atom_site_symmetry_multiplicity
 _atom_site_fract_x
 _atom_site_fract_y
 _atom_site_fract_z
 _atom_site_occupancy
  Zn  Zn0  1  0.40459329  0.65271960  0.68744324  1
  Zn  Zn1  1  0.59540719  0.34728133  0.31255736  1
  Sn  Sn2  1  0.26093092  0.11544519  0.15443159  1
  Sn  Sn3  1  0.73906890  0.88455460  0.84556826  1
  P  P4  1  0.17481404  0.66619060  0.12581553  1
  P  P5  1  0.82518606  0.33380915  0.87418503  1
  P  P6  1  0.25335803  0.22477893  0.61549652  1
  P  P7  1  0.74664194  0.77522051  0.38450309  1
  O  O8  1  0.15431462  0.72419656  0.91009876  1
  O  O9  1  0.84568618  0.27580319  0.08990149  1
  O  O10  1  0.19610862  0.83163459  0.24304629  1
  O  O11  1  0.80389024  0.16836497  0.75695414  1
  O  O12  1  0.35263006  0.44504670  0.15057677  1
  O  O13  1  0.64737035  0.55495266  0.84942378  1
  O  O14  1  0.61031258  0.63206208  0.42653665  1
  O  O15  1  0.38968732  0.36793785  0.57346309  1
  O  O16  1  0.13974310  0.21752311  0.44750056  1
  O  O17  1  0.86025762  0.78247531  0.55249940  1
  O  O18  1  0.05786814  0.35410007  0.78643218  1
  O  O19  1  0.61863562  0.99577267  0.30191579  1
  O  O20  1  0.38136542  0.00422680  0.69808422  1
  O  O21  1  0.94213176  0.64589854  0.21356727  1
