# generated using pymatgen
data_Ge2WO6
_symmetry_space_group_name_H-M   'P 1'
_cell_length_a   5.69807551
_cell_length_b   6.83448072
_cell_length_c   6.83448199
_cell_angle_alpha   84.17142571
_cell_angle_beta   77.00425258
_cell_angle_gamma   77.00424736
_symmetry_Int_Tables_number   1
_chemical_formula_structural   Ge2WO6
_chemical_formula_sum   'Ge4 W2 O12'
_cell_volume   252.33357040
_cell_formula_units_Z   2
loop_
 _symmetry_equiv_pos_site_id
 _symmetry_equiv_pos_as_xyz
  1  'x, y, z'
loop_
 _atom_site_type_symbol
 _atom_site_label
 _atom_site_symmetry_multiplicity
 _atom_site_fract_x
 _atom_site_fract_y
 _atom_site_fract_z
 _atom_site_occupancy
  Ge  Ge0  1  0.75476800  0.38724798  0.21285590  1
  Ge  Ge1  1  0.74523201  0.78714410  0.61275202  1
  Ge  Ge2  1  0.24523200  0.61275202  0.78714410  1
  Ge  Ge3  1  0.25476799  0.21285590  0.38724798  1
  W  W4  1  0.75000000  0.90405997  0.09594003  1
  W  W5  1  0.25000000  0.09594003  0.90405997  1
  O  O6  1  0.49484994  0.33660839  0.38722545  1
  O  O7  1  0.00515006  0.61277455  0.66339161  1
  O  O8  1  0.50515006  0.66339161  0.61277455  1
  O  O9  1  0.99484994  0.38722545  0.33660839  1
  O  O10  1  0.18761063  0.09930418  0.62676548  1
  O  O11  1  0.31238937  0.37323552  0.90069582  1
  O  O12  1  0.81238937  0.90069582  0.37323552  1
  O  O13  1  0.68761063  0.62676548  0.09930418  1
  O  O14  1  0.86318001  0.18412563  0.04230878  1
  O  O15  1  0.63681999  0.95769122  0.81587437  1
  O  O16  1  0.13681999  0.81587437  0.95769122  1
  O  O17  1  0.36318001  0.04230878  0.18412563  1
