# generated using pymatgen
data_Mg(NiO2)2
_symmetry_space_group_name_H-M   'P 1'
_cell_length_a   2.92772753
_cell_length_b   9.28862676
_cell_length_c   9.52908843
_cell_angle_alpha   89.99617094
_cell_angle_beta   89.98542572
_cell_angle_gamma   90.04347609
_symmetry_Int_Tables_number   1
_chemical_formula_structural   Mg(NiO2)2
_chemical_formula_sum   'Mg4 Ni8 O16'
_cell_volume   259.13936293
_cell_formula_units_Z   4
loop_
 _symmetry_equiv_pos_site_id
 _symmetry_equiv_pos_as_xyz
  1  'x, y, z'
loop_
 _atom_site_type_symbol
 _atom_site_label
 _atom_site_symmetry_multiplicity
 _atom_site_fract_x
 _atom_site_fract_y
 _atom_site_fract_z
 _atom_site_occupancy
  Mg  Mg0  1  0.30408297  0.74964905  0.14702132  1
  Mg  Mg1  1  0.30387740  0.24976608  0.35299042  1
  Mg  Mg2  1  0.69640887  0.75008543  0.64703061  1
  Mg  Mg3  1  0.69580021  0.25007444  0.85287574  1
  Ni  Ni4  1  0.77553481  0.56994373  0.38654789  1
  Ni  Ni5  1  0.77598261  0.06999500  0.11347894  1
  Ni  Ni6  1  0.22436914  0.06994588  0.61348841  1
  Ni  Ni7  1  0.77564353  0.42998784  0.11348019  1
  Ni  Ni8  1  0.22369040  0.43004216  0.61346586  1
  Ni  Ni9  1  0.77635307  0.93002298  0.38645633  1
  Ni  Ni10  1  0.22429265  0.93007622  0.88661028  1
  Ni  Ni11  1  0.22415771  0.57001813  0.88648517  1
  O  O12  1  0.22337870  0.88641037  0.52733536  1
  O  O13  1  0.77771940  0.11352763  0.47258951  1
  O  O14  1  0.34873977  0.00013029  0.25015199  1
  O  O15  1  0.77630874  0.88650738  0.02734569  1
  O  O16  1  0.77679432  0.61354691  0.02732917  1
  O  O17  1  0.80339524  0.25004284  0.20483080  1
  O  O18  1  0.22383264  0.11357771  0.97273302  1
  O  O19  1  0.19649107  0.25001038  0.70477647  1
  O  O20  1  0.34813066  0.49994963  0.25000461  1
  O  O21  1  0.65163463  0.00011061  0.74997962  1
  O  O22  1  0.22316547  0.61356982  0.52731863  1
  O  O23  1  0.19686788  0.75006591  0.79519086  1
  O  O24  1  0.80338657  0.74993756  0.29514339  1
  O  O25  1  0.65155807  0.50009122  0.74994209  1
  O  O26  1  0.22290465  0.38646092  0.97260581  1
  O  O27  1  0.77549881  0.38645189  0.47279685  1
