# generated using pymatgen
data_MgFe(Si2O5)2
_symmetry_space_group_name_H-M   'P 1'
_cell_length_a   7.33303217
_cell_length_b   7.33303217
_cell_length_c   14.90616094
_cell_angle_alpha   90.00000000
_cell_angle_beta   90.00000000
_cell_angle_gamma   90.00000000
_symmetry_Int_Tables_number   1
_chemical_formula_structural   MgFe(Si2O5)2
_chemical_formula_sum   'Mg4 Fe4 Si16 O40'
_cell_volume   801.55437046
_cell_formula_units_Z   4
loop_
 _symmetry_equiv_pos_site_id
 _symmetry_equiv_pos_as_xyz
  1  'x, y, z'
loop_
 _atom_site_type_symbol
 _atom_site_label
 _atom_site_symmetry_multiplicity
 _atom_site_fract_x
 _atom_site_fract_y
 _atom_site_fract_z
 _atom_site_occupancy
  Mg  Mg0  1  0.25000000  0.75000000  0.50000000  1
  Mg  Mg1  1  0.75000000  0.25000000  0.50000000  1
  Mg  Mg2  1  0.75000000  0.25000000  0.00000000  1
  Mg  Mg3  1  0.25000000  0.75000000  0.00000000  1
  Fe  Fe4  1  0.25000000  0.25000000  0.56880430  1
  Fe  Fe5  1  0.75000000  0.75000000  0.93119570  1
  Fe  Fe6  1  0.75000000  0.75000000  0.43119570  1
  Fe  Fe7  1  0.25000000  0.25000000  0.06880430  1
  Si  Si8  1  0.91230539  0.49155134  0.64488941  1
  Si  Si9  1  0.58769461  0.00844866  0.64488941  1
  Si  Si10  1  0.99155134  0.41230539  0.85511059  1
  Si  Si11  1  0.49155134  0.58769461  0.64488941  1
  Si  Si12  1  0.00844866  0.91230539  0.64488941  1
  Si  Si13  1  0.08769461  0.99155134  0.85511059  1
  Si  Si14  1  0.41230539  0.50844866  0.85511059  1
  Si  Si15  1  0.50844866  0.08769461  0.85511059  1
  Si  Si16  1  0.08769461  0.50844866  0.35511059  1
  Si  Si17  1  0.41230539  0.99155134  0.35511059  1
  Si  Si18  1  0.00844866  0.58769461  0.14488941  1
  Si  Si19  1  0.50844866  0.41230539  0.35511059  1
  Si  Si20  1  0.99155134  0.08769461  0.35511059  1
  Si  Si21  1  0.91230539  0.00844866  0.14488941  1
  Si  Si22  1  0.58769461  0.49155134  0.14488941  1
  Si  Si23  1  0.49155134  0.91230539  0.14488941  1
  O  O24  1  0.98219981  0.33684177  0.57540331  1
  O  O25  1  0.51780019  0.16315823  0.57540331  1
  O  O26  1  0.83684177  0.48219981  0.92459669  1
  O  O27  1  0.33684177  0.51780019  0.57540331  1
  O  O28  1  0.16315823  0.98219981  0.57540331  1
  O  O29  1  0.01780019  0.83684177  0.92459669  1
  O  O30  1  0.48219981  0.66315823  0.92459669  1
  O  O31  1  0.66315823  0.01780019  0.92459669  1
  O  O32  1  0.01780019  0.66315823  0.42459669  1
  O  O33  1  0.48219981  0.83684177  0.42459669  1
  O  O34  1  0.16315823  0.51780019  0.07540331  1
  O  O35  1  0.66315823  0.48219981  0.42459669  1
  O  O36  1  0.83684177  0.01780019  0.42459669  1
  O  O37  1  0.98219981  0.16315823  0.07540331  1
  O  O38  1  0.51780019  0.33684177  0.07540331  1
  O  O39  1  0.00076495  0.30771502  0.37520272  1
  O  O40  1  0.33684177  0.98219981  0.07540331  1
  O  O41  1  0.50076495  0.80771502  0.62479728  1
  O  O42  1  0.19228498  0.49923505  0.87520272  1
  O  O43  1  0.69228498  0.50076495  0.62479728  1
  O  O44  1  0.80771502  0.99923505  0.62479728  1
  O  O45  1  0.00076495  0.19228498  0.87520272  1
  O  O46  1  0.49923505  0.30771502  0.87520272  1
  O  O47  1  0.30771502  0.00076495  0.87520272  1
  O  O48  1  0.44576202  0.94576202  0.25000000  1
  O  O49  1  0.55423798  0.44576202  0.25000000  1
  O  O50  1  0.94576202  0.05423898  0.25000000  1
  O  O51  1  0.05423898  0.55423798  0.25000000  1
  O  O52  1  0.55423798  0.05423898  0.75000000  1
  O  O53  1  0.44576202  0.55423798  0.75000000  1
  O  O54  1  0.05423898  0.94576202  0.75000000  1
  O  O55  1  0.94576202  0.44576202  0.75000000  1
  O  O56  1  0.69228498  0.99923505  0.12479728  1
  O  O57  1  0.50076495  0.69228498  0.12479728  1
  O  O58  1  0.99923505  0.80771502  0.12479728  1
  O  O59  1  0.19228498  0.00076495  0.37520272  1
  O  O60  1  0.30771502  0.49923505  0.37520272  1
  O  O61  1  0.80771502  0.50076495  0.12479728  1
  O  O62  1  0.49923505  0.19228498  0.37520272  1
  O  O63  1  0.99923505  0.69228498  0.62479728  1
