# generated using pymatgen
data_Li7Mn2(CoO4)3
_symmetry_space_group_name_H-M   'P 1'
_cell_length_a   2.86467872
_cell_length_b   5.23821111
_cell_length_c   14.41990106
_cell_angle_alpha   87.77186176
_cell_angle_beta   90.00000000
_cell_angle_gamma   90.00000000
_symmetry_Int_Tables_number   1
_chemical_formula_structural   Li7Mn2(CoO4)3
_chemical_formula_sum   'Li7 Mn2 Co3 O12'
_cell_volume   216.21843734
_cell_formula_units_Z   1
loop_
 _symmetry_equiv_pos_site_id
 _symmetry_equiv_pos_as_xyz
  1  'x, y, z'
loop_
 _atom_site_type_symbol
 _atom_site_label
 _atom_site_symmetry_multiplicity
 _atom_site_fract_x
 _atom_site_fract_y
 _atom_site_fract_z
 _atom_site_occupancy
  Li  Li0  1  0.50000000  0.17717691  0.17719802  1
  Li  Li1  1  0.50000000  0.48949009  0.48946898  1
  Li  Li2  1  0.50000000  0.83333300  0.83333300  1
  Li  Li3  1  -0.00000000  0.67348264  0.17376883  1
  Li  Li4  1  0.00000000  0.99318436  0.49289817  1
  Li  Li5  1  -0.00000000  0.33333300  0.83333300  1
  Li  Li6  1  0.50000000  0.83333300  0.33333300  1
  Mn  Mn7  1  -0.00000000  0.00264565  0.00319758  1
  Mn  Mn8  1  0.00000000  0.66402135  0.66346942  1
  Co  Co9  1  -0.00000000  0.33333300  0.33333300  1
  Co  Co10  1  0.50000000  0.50393858  0.00091659  1
  Co  Co11  1  0.50000000  0.16272842  0.66575041  1
  O  O12  1  0.50000000  0.85508207  0.08137524  1
  O  O13  1  0.50000000  0.18101490  0.40846337  1
  O  O14  1  0.50000000  0.52030021  0.74319173  1
  O  O15  1  0.00000000  0.36031628  0.07499190  1
  O  O16  1  -0.00000000  0.61198058  0.40336147  1
  O  O17  1  0.00000000  0.01967409  0.74133739  1
  O  O18  1  0.50000000  0.48565210  0.25820363  1
  O  O19  1  0.50000000  0.81158493  0.58529176  1
  O  O20  1  0.50000000  0.14636579  0.92347427  1
  O  O21  1  -0.00000000  0.05468642  0.26330553  1
  O  O22  1  0.00000000  0.30635072  0.59167510  1
  O  O23  1  -0.00000000  0.64699191  0.92532861  1
