# generated using pymatgen
data_ZnNi3(P2O7)2
_symmetry_space_group_name_H-M   'P 1'
_cell_length_a   7.23734062
_cell_length_b   7.49350805
_cell_length_c   9.48371400
_cell_angle_alpha   90.00000000
_cell_angle_beta   112.38501769
_cell_angle_gamma   90.00000000
_symmetry_Int_Tables_number   1
_chemical_formula_structural   ZnNi3(P2O7)2
_chemical_formula_sum   'Zn2 Ni6 P8 O28'
_cell_volume   475.57385366
_cell_formula_units_Z   2
loop_
 _symmetry_equiv_pos_site_id
 _symmetry_equiv_pos_as_xyz
  1  'x, y, z'
loop_
 _atom_site_type_symbol
 _atom_site_label
 _atom_site_symmetry_multiplicity
 _atom_site_fract_x
 _atom_site_fract_y
 _atom_site_fract_z
 _atom_site_occupancy
  Zn  Zn0  1  0.50000000  -0.00000000  0.00000000  1
  Zn  Zn1  1  0.50000000  0.50000000  0.50000000  1
  Ni  Ni2  1  0.18572034  0.87158095  0.52249507  1
  Ni  Ni3  1  0.81427966  0.37158095  0.97750493  1
  Ni  Ni4  1  0.81427966  0.12841905  0.47750493  1
  Ni  Ni5  1  0.18572034  0.62841905  0.02249507  1
  Ni  Ni6  1  0.00000000  -0.00000000  0.00000000  1
  Ni  Ni7  1  0.00000000  0.50000000  0.50000000  1
  P  P8  1  0.58824670  0.07587942  0.70363348  1
  P  P9  1  0.41175330  0.57587942  0.79636652  1
  P  P10  1  0.41175330  0.92412058  0.29636652  1
  P  P11  1  0.58824670  0.42412058  0.20363348  1
  P  P12  1  0.86772000  0.79212498  0.68725084  1
  P  P13  1  0.13228000  0.29212498  0.81274916  1
  P  P14  1  0.13228000  0.20787502  0.31274916  1
  P  P15  1  0.86772000  0.70787502  0.18725084  1
  O  O16  1  0.80449218  0.61523067  0.59874449  1
  O  O17  1  0.19550782  0.11523067  0.90125551  1
  O  O18  1  0.19550782  0.38476933  0.40125551  1
  O  O19  1  0.80449218  0.88476933  0.09874449  1
  O  O20  1  0.27866831  0.62164356  0.62686829  1
  O  O21  1  0.72133169  0.12164356  0.87313171  1
  O  O22  1  0.72133169  0.37835644  0.37313171  1
  O  O23  1  0.27866831  0.87835644  0.12686829  1
  O  O24  1  0.61863829  0.20929352  0.59203566  1
  O  O25  1  0.38136171  0.70929352  0.90796434  1
  O  O26  1  0.38136171  0.79070648  0.40796434  1
  O  O27  1  0.61863829  0.29070648  0.09203566  1
  O  O28  1  0.66316131  0.88445929  0.67138831  1
  O  O29  1  0.33683869  0.38445929  0.82861169  1
  O  O30  1  0.33683869  0.11554071  0.32861169  1
  O  O31  1  0.66316131  0.61554071  0.17138831  1
  O  O32  1  0.37836757  0.46716289  0.19060287  1
  O  O33  1  0.62163243  0.96716289  0.30939713  1
  O  O34  1  0.62163243  0.53283711  0.80939713  1
  O  O35  1  0.37836757  0.03283711  0.69060287  1
  O  O36  1  0.01640035  0.21599053  0.13995807  1
  O  O37  1  0.98359965  0.71599053  0.36004193  1
  O  O38  1  0.98359965  0.78400947  0.86004193  1
  O  O39  1  0.01640035  0.28400947  0.63995807  1
  O  O40  1  0.96777587  0.58414916  0.10940899  1
  O  O41  1  0.03222413  0.08414916  0.39059101  1
  O  O42  1  0.03222413  0.41585084  0.89059101  1
  O  O43  1  0.96777587  0.91585084  0.60940899  1
