# generated using pymatgen
data_Nb2Zn2SnO8
_symmetry_space_group_name_H-M   'P 1'
_cell_length_a   5.40533578
_cell_length_b   6.06398238
_cell_length_c   10.91197040
_cell_angle_alpha   106.13578192
_cell_angle_beta   90.92403058
_cell_angle_gamma   90.00399656
_symmetry_Int_Tables_number   1
_chemical_formula_structural   Nb2Zn2SnO8
_chemical_formula_sum   'Nb4 Zn4 Sn2 O16'
_cell_volume   343.53233875
_cell_formula_units_Z   2
loop_
 _symmetry_equiv_pos_site_id
 _symmetry_equiv_pos_as_xyz
  1  'x, y, z'
loop_
 _atom_site_type_symbol
 _atom_site_label
 _atom_site_symmetry_multiplicity
 _atom_site_fract_x
 _atom_site_fract_y
 _atom_site_fract_z
 _atom_site_occupancy
  Nb  Nb0  1  0.72760566  0.28831958  0.25249944  1
  Nb  Nb1  1  0.77265377  0.03644173  0.74890426  1
  Nb  Nb2  1  0.27272634  0.71274139  0.74864944  1
  Nb  Nb3  1  0.22736735  0.96461926  0.25319075  1
  Zn  Zn4  1  0.76959193  0.43056772  0.55819676  1
  Zn  Zn5  1  0.73054516  0.87339688  0.44294758  1
  Zn  Zn6  1  0.22981690  0.57050984  0.44176196  1
  Zn  Zn7  1  0.26980631  0.12984309  0.55937802  1
  Sn  Sn8  1  0.74957115  0.69100084  0.00080355  1
  Sn  Sn9  1  0.24904395  0.30791823  0.99995205  1
  O  O10  1  0.04173920  0.17313454  0.16365619  1
  O  O11  1  0.45912978  0.01050421  0.83887029  1
  O  O12  1  0.95982934  0.82891152  0.83867323  1
  O  O13  1  0.54202422  0.98921231  0.16436332  1
  O  O14  1  0.62003498  0.44057496  0.13596476  1
  O  O15  1  0.87902981  0.30683313  0.86471321  1
  O  O16  1  0.37884879  0.55686720  0.86367540  1
  O  O17  1  0.11837982  0.69523504  0.13783818  1
  O  O18  1  0.42797802  0.29606383  0.36749328  1
  O  O19  1  0.07322206  0.92981999  0.63460487  1
  O  O20  1  0.36232317  0.84728362  0.39873928  1
  O  O21  1  0.13815411  0.45037891  0.60270708  1
  O  O22  1  0.63808658  0.15514485  0.60367015  1
  O  O23  1  0.86191564  0.55278398  0.39753950  1
  O  O24  1  0.92808732  0.07424605  0.36848308  1
  O  O25  1  0.57414962  0.70656431  0.63469438  1
