# generated using pymatgen
data_CaCr(SiO3)2
_symmetry_space_group_name_H-M   'P 1'
_cell_length_a   5.46075891
_cell_length_b   9.70125108
_cell_length_c   19.28602061
_cell_angle_alpha   90.00000000
_cell_angle_beta   90.00000000
_cell_angle_gamma   90.00000000
_symmetry_Int_Tables_number   1
_chemical_formula_structural   CaCr(SiO3)2
_chemical_formula_sum   'Ca8 Cr8 Si16 O48'
_cell_volume   1021.69995531
_cell_formula_units_Z   8
loop_
 _symmetry_equiv_pos_site_id
 _symmetry_equiv_pos_as_xyz
  1  'x, y, z'
loop_
 _atom_site_type_symbol
 _atom_site_label
 _atom_site_symmetry_multiplicity
 _atom_site_fract_x
 _atom_site_fract_y
 _atom_site_fract_z
 _atom_site_occupancy
  Ca  Ca0  1  0.61778781  0.14643041  0.62368302  1
  Ca  Ca1  1  0.38221219  0.85356959  0.37631698  1
  Ca  Ca2  1  0.61778781  0.64643041  0.87631698  1
  Ca  Ca3  1  0.11778781  0.85356959  0.87631698  1
  Ca  Ca4  1  0.88221219  0.14643041  0.12368302  1
  Ca  Ca5  1  0.38221219  0.35356959  0.12368302  1
  Ca  Ca6  1  0.11778781  0.35356959  0.62368302  1
  Ca  Ca7  1  0.88221219  0.64643041  0.37631698  1
  Cr  Cr8  1  0.37396764  0.97510387  0.12515677  1
  Cr  Cr9  1  0.62603236  0.02489613  0.87484323  1
  Cr  Cr10  1  0.87396764  0.02489613  0.37484323  1
  Cr  Cr11  1  0.12603236  0.97510387  0.62515677  1
  Cr  Cr12  1  0.37396764  0.47510387  0.37484323  1
  Cr  Cr13  1  0.62603236  0.52489613  0.62515677  1
  Cr  Cr14  1  0.87396764  0.52489613  0.12515677  1
  Cr  Cr15  1  0.12603236  0.47510387  0.87484323  1
  Si  Si16  1  0.56481708  0.66763280  0.22478042  1
  Si  Si17  1  0.74654746  0.83465980  0.52226598  1
  Si  Si18  1  0.75345254  0.83465980  0.02226598  1
  Si  Si19  1  0.93518292  0.16763280  0.77521958  1
  Si  Si20  1  0.06481708  0.33236720  0.27521958  1
  Si  Si21  1  0.43518292  0.83236720  0.72478042  1
  Si  Si22  1  0.24654746  0.66534020  0.52226598  1
  Si  Si23  1  0.74654746  0.33465980  0.97773402  1
  Si  Si24  1  0.75345254  0.33465980  0.47773402  1
  Si  Si25  1  0.93518292  0.66763280  0.72478042  1
  Si  Si26  1  0.43518292  0.33236720  0.77521958  1
  Si  Si27  1  0.56481708  0.16763280  0.27521958  1
  Si  Si28  1  0.25345254  0.16534020  0.47773402  1
  Si  Si29  1  0.06481708  0.83236720  0.22478042  1
  Si  Si30  1  0.25345254  0.66534020  0.02226598  1
  Si  Si31  1  0.24654746  0.16534020  0.97773402  1
  O  O32  1  0.93233627  0.52059722  0.68565806  1
  O  O33  1  0.31257290  0.03271477  0.93113722  1
  O  O34  1  0.06766373  0.47940278  0.31434194  1
  O  O35  1  0.74860514  0.35511336  0.06227973  1
  O  O36  1  0.24860514  0.14488664  0.06227973  1
  O  O37  1  0.96048553  0.21631979  0.95794509  1
  O  O38  1  0.95477654  0.66381659  0.80845080  1
  O  O39  1  0.04522346  0.83618341  0.30845080  1
  O  O40  1  0.74860514  0.85511336  0.43772027  1
  O  O41  1  0.95477654  0.16381659  0.69154920  1
  O  O42  1  0.43233627  0.47940278  0.81434194  1
  O  O43  1  0.75139486  0.35511336  0.56227973  1
  O  O44  1  0.68742810  0.96728523  0.06886278  1
  O  O45  1  0.45477654  0.83618341  0.80845080  1
  O  O46  1  0.56766373  0.02059722  0.31434194  1
  O  O47  1  0.31257290  0.53271477  0.56886278  1
  O  O48  1  0.43233627  0.97940278  0.68565806  1
  O  O49  1  0.16043919  0.77139139  0.69562273  1
  O  O50  1  0.33956081  0.77139139  0.19562273  1
  O  O51  1  0.53951447  0.71631979  0.04205491  1
  O  O52  1  0.75139486  0.85511336  0.93772027  1
  O  O53  1  0.54522346  0.66381659  0.30845080  1
  O  O54  1  0.81257190  0.46728523  0.93113722  1
  O  O55  1  0.16043919  0.27139139  0.80437727  1
  O  O56  1  0.25139486  0.14488664  0.56227973  1
  O  O57  1  0.54522346  0.16381659  0.19154920  1
  O  O58  1  0.68742810  0.46728523  0.43113722  1
  O  O59  1  0.24860514  0.64488664  0.43772027  1
  O  O60  1  0.18742810  0.53271477  0.06886278  1
  O  O61  1  0.66043919  0.72860861  0.69562273  1
  O  O62  1  0.06766373  0.97940278  0.18565806  1
  O  O63  1  0.83956081  0.72860861  0.19562273  1
  O  O64  1  0.83956081  0.22860861  0.30437727  1
  O  O65  1  0.81257190  0.96728523  0.56886278  1
  O  O66  1  0.25139486  0.64488664  0.93772027  1
  O  O67  1  0.18742810  0.03271477  0.43113722  1
  O  O68  1  0.33956081  0.27139139  0.30437727  1
  O  O69  1  0.03951447  0.78368021  0.04205491  1
  O  O70  1  0.46048553  0.78368021  0.54205491  1
  O  O71  1  0.66043919  0.22860861  0.80437727  1
  O  O72  1  0.46048553  0.28368021  0.95794509  1
  O  O73  1  0.53951447  0.21631979  0.45794509  1
  O  O74  1  0.03951447  0.28368021  0.45794509  1
  O  O75  1  0.45477654  0.33618341  0.69154920  1
  O  O76  1  0.56766373  0.52059722  0.18565806  1
  O  O77  1  0.96048553  0.71631979  0.54205491  1
  O  O78  1  0.04522346  0.33618341  0.19154920  1
  O  O79  1  0.93233627  0.02059722  0.81434194  1
