# generated using pymatgen
data_CaTi2(PO5)2
_symmetry_space_group_name_H-M   'P 1'
_cell_length_a   6.97908859
_cell_length_b   6.97908806
_cell_length_c   8.93157376
_cell_angle_alpha   102.26964073
_cell_angle_beta   102.26964055
_cell_angle_gamma   117.13371903
_symmetry_Int_Tables_number   1
_chemical_formula_structural   CaTi2(PO5)2
_chemical_formula_sum   'Ca2 Ti4 P4 O20'
_cell_volume   353.55475215
_cell_formula_units_Z   2
loop_
 _symmetry_equiv_pos_site_id
 _symmetry_equiv_pos_as_xyz
  1  'x, y, z'
loop_
 _atom_site_type_symbol
 _atom_site_label
 _atom_site_symmetry_multiplicity
 _atom_site_fract_x
 _atom_site_fract_y
 _atom_site_fract_z
 _atom_site_occupancy
  Ca  Ca0  1  0.49982717  0.99982717  0.50000000  1
  Ca  Ca1  1  0.24982717  0.24982717  0.00000000  1
  Ti  Ti2  1  0.87505502  0.60670476  0.25940973  1
  Ti  Ti3  1  0.34729503  0.61564429  0.74059027  1
  Ti  Ti4  1  0.86564429  0.09729503  0.24059027  1
  Ti  Ti5  1  0.85670476  0.62505502  0.75940973  1
  P  P6  1  0.03693653  0.03679410  0.58313576  1
  P  P7  1  0.70380077  0.20365834  0.91686424  1
  P  P8  1  0.45365834  0.45380077  0.41686424  1
  P  P9  1  0.28679410  0.78693653  0.08313576  1
  O  O10  1  0.58418596  0.55213252  0.30506184  1
  O  O11  1  0.66203238  0.66211753  0.83144374  1
  O  O12  1  0.31373536  0.60555770  0.96961819  1
  O  O13  1  0.80213252  0.33418596  0.80506184  1
  O  O14  1  0.21622841  0.24313134  0.29997903  1
  O  O15  1  0.42147860  0.63461932  0.52608943  1
  O  O16  1  0.08058865  0.58067379  0.66855626  1
  O  O17  1  0.83067379  0.83058865  0.16855626  1
  O  O18  1  0.91211753  0.41203238  0.33144374  1
  O  O19  1  0.16625038  0.69315232  0.20002097  1
  O  O20  1  0.24706969  0.27912512  0.69493816  1
  O  O21  1  0.49313134  0.96622841  0.79997903  1
  O  O22  1  0.94315232  0.91625038  0.70002097  1
  O  O23  1  0.14539017  0.85853090  0.97391057  1
  O  O24  1  0.10853090  0.89538917  0.47391057  1
  O  O25  1  0.88461932  0.17147860  0.02608943  1
  O  O26  1  0.85555770  0.06373536  0.46961819  1
  O  O27  1  0.63593952  0.34411717  0.03038181  1
  O  O28  1  0.52912512  0.99706968  0.19493816  1
  O  O29  1  0.59411717  0.38593952  0.53038181  1
