# generated using pymatgen
data_Zn2Cr3O8
_symmetry_space_group_name_H-M   'P 1'
_cell_length_a   5.87467397
_cell_length_b   5.87467360
_cell_length_c   9.53574105
_cell_angle_alpha   90.00000000
_cell_angle_beta   90.00000000
_cell_angle_gamma   120.00000204
_symmetry_Int_Tables_number   1
_chemical_formula_structural   Zn2Cr3O8
_chemical_formula_sum   'Zn4 Cr6 O16'
_cell_volume   285.00506808
_cell_formula_units_Z   2
loop_
 _symmetry_equiv_pos_site_id
 _symmetry_equiv_pos_as_xyz
  1  'x, y, z'
loop_
 _atom_site_type_symbol
 _atom_site_label
 _atom_site_symmetry_multiplicity
 _atom_site_fract_x
 _atom_site_fract_y
 _atom_site_fract_z
 _atom_site_occupancy
  Zn  Zn0  1  0.66666700  0.33333400  0.02664489  1
  Zn  Zn1  1  0.33333300  0.66666600  0.52664589  1
  Zn  Zn2  1  0.66666700  0.33333400  0.42550642  1
  Zn  Zn3  1  0.33333300  0.66666600  0.92550742  1
  Cr  Cr4  1  0.67317804  0.83659002  0.24311002  1
  Cr  Cr5  1  0.83659102  0.16341098  0.74311002  1
  Cr  Cr6  1  0.16341098  0.32682296  0.24311002  1
  Cr  Cr7  1  0.83658902  0.67317804  0.74311002  1
  Cr  Cr8  1  0.32682296  0.16341098  0.74311002  1
  Cr  Cr9  1  0.16341098  0.83659002  0.24311002  1
  O  O10  1  0.83773270  0.16226830  0.14741316  1
  O  O11  1  0.67546440  0.83773270  0.64741216  1
  O  O12  1  0.16226830  0.32453660  0.64741216  1
  O  O13  1  0.83773170  0.67546440  0.14741316  1
  O  O14  1  0.32453560  0.16226830  0.14741316  1
  O  O15  1  0.16226830  0.83773270  0.64741216  1
  O  O16  1  0.51846527  0.48153373  0.86198260  1
  O  O17  1  0.03693154  0.51846527  0.36198160  1
  O  O18  1  0.48153473  0.96306946  0.36198160  1
  O  O19  1  0.51846527  0.03693154  0.86198260  1
  O  O20  1  -0.00000000  -0.00000000  0.35093499  1
  O  O21  1  -0.00000000  -0.00000000  0.85093499  1
  O  O22  1  0.33333300  0.66666600  0.13290035  1
  O  O23  1  0.96306746  0.48153373  0.86198260  1
  O  O24  1  0.48153373  0.51846527  0.36198160  1
  O  O25  1  0.66666700  0.33333400  0.63290035  1
