# generated using pymatgen
data_ReBiO5
_symmetry_space_group_name_H-M   'P 1'
_cell_length_a   6.30480006
_cell_length_b   12.50873835
_cell_length_c   16.92331680
_cell_angle_alpha   90.00000000
_cell_angle_beta   90.00000000
_cell_angle_gamma   90.00000000
_symmetry_Int_Tables_number   1
_chemical_formula_structural   ReBiO5
_chemical_formula_sum   'Re8 Bi8 O40'
_cell_volume   1334.65897529
_cell_formula_units_Z   8
loop_
 _symmetry_equiv_pos_site_id
 _symmetry_equiv_pos_as_xyz
  1  'x, y, z'
loop_
 _atom_site_type_symbol
 _atom_site_label
 _atom_site_symmetry_multiplicity
 _atom_site_fract_x
 _atom_site_fract_y
 _atom_site_fract_z
 _atom_site_occupancy
  Re  Re0  1  0.98598521  0.39463577  0.61204627  1
  Re  Re1  1  0.51401479  0.89463577  0.38795373  1
  Re  Re2  1  0.01401479  0.60536423  0.38795373  1
  Re  Re3  1  0.48598521  0.10536423  0.61204627  1
  Re  Re4  1  0.01401479  0.10536423  0.11204627  1
  Re  Re5  1  0.98598521  0.89463577  0.88795373  1
  Re  Re6  1  0.51401479  0.39463577  0.11204627  1
  Re  Re7  1  0.48598521  0.60536423  0.88795373  1
  Bi  Bi8  1  0.95071585  0.82263765  0.21154995  1
  Bi  Bi9  1  0.04928415  0.17736235  0.78845005  1
  Bi  Bi10  1  0.54928415  0.32263765  0.78845005  1
  Bi  Bi11  1  0.04928415  0.67736235  0.71154995  1
  Bi  Bi12  1  0.45071585  0.17736235  0.28845005  1
  Bi  Bi13  1  0.45071585  0.67736235  0.21154995  1
  Bi  Bi14  1  0.54928415  0.82263765  0.71154995  1
  Bi  Bi15  1  0.95071585  0.32263765  0.28845005  1
  O  O16  1  0.91743294  0.30388678  0.69099707  1
  O  O17  1  0.24404860  0.05124820  0.07342005  1
  O  O18  1  0.25595140  0.55124820  0.92657995  1
  O  O19  1  0.23945515  0.78155690  0.15588742  1
  O  O20  1  0.26054485  0.28155690  0.84411258  1
  O  O21  1  0.91743294  0.80388678  0.80900293  1
  O  O22  1  0.26054485  0.78155690  0.65588742  1
  O  O23  1  0.58256706  0.80388678  0.30900293  1
  O  O24  1  0.24404860  0.55124820  0.42657995  1
  O  O25  1  0.08256706  0.69611322  0.30900293  1
  O  O26  1  0.58256706  0.30388678  0.19099707  1
  O  O27  1  0.62256247  0.17115615  0.53829011  1
  O  O28  1  0.74404860  0.94875180  0.42657995  1
  O  O29  1  0.76054485  0.71844310  0.65588742  1
  O  O30  1  0.14309843  0.00047521  0.84929018  1
  O  O31  1  0.74404860  0.44875180  0.07342005  1
  O  O32  1  0.08256706  0.19611322  0.19099707  1
  O  O33  1  0.73945515  0.21844310  0.34411258  1
  O  O34  1  0.12256247  0.82884385  0.96170989  1
  O  O35  1  0.25595140  0.05124820  0.57342005  1
  O  O36  1  0.37743753  0.82884385  0.46170989  1
  O  O37  1  0.85690157  0.99952479  0.15070982  1
  O  O38  1  0.76054485  0.21844310  0.84411258  1
  O  O39  1  0.64309843  0.99952479  0.65070982  1
  O  O40  1  0.37743753  0.32884385  0.03829011  1
  O  O41  1  0.12256247  0.32884385  0.53829011  1
  O  O42  1  0.75595140  0.44875180  0.57342005  1
  O  O43  1  0.75595140  0.94875180  0.92657995  1
  O  O44  1  0.64309843  0.49952479  0.84929018  1
  O  O45  1  0.87743753  0.67115615  0.46170989  1
  O  O46  1  0.87743753  0.17115615  0.03829011  1
  O  O47  1  0.62256247  0.67115615  0.96170989  1
  O  O48  1  0.85690157  0.49952479  0.34929018  1
  O  O49  1  0.73945515  0.71844310  0.15588742  1
  O  O50  1  0.23945515  0.28155690  0.34411258  1
  O  O51  1  0.14309843  0.50047521  0.65070982  1
  O  O52  1  0.35690157  0.50047521  0.15070982  1
  O  O53  1  0.41743294  0.19611322  0.69099707  1
  O  O54  1  0.35690157  0.00047521  0.34929018  1
  O  O55  1  0.41743294  0.69611322  0.80900293  1
