# generated using pymatgen
data_Sr2YCu2AgO7
_symmetry_space_group_name_H-M   'P 1'
_cell_length_a   5.37597576
_cell_length_b   5.37265407
_cell_length_c   12.60744940
_cell_angle_alpha   102.14487002
_cell_angle_beta   102.15971528
_cell_angle_gamma   89.82089470
_symmetry_Int_Tables_number   1
_chemical_formula_structural   Sr2YCu2AgO7
_chemical_formula_sum   'Sr4 Y2 Cu4 Ag2 O14'
_cell_volume   347.68385697
_cell_formula_units_Z   2
loop_
 _symmetry_equiv_pos_site_id
 _symmetry_equiv_pos_as_xyz
  1  'x, y, z'
loop_
 _atom_site_type_symbol
 _atom_site_label
 _atom_site_symmetry_multiplicity
 _atom_site_fract_x
 _atom_site_fract_y
 _atom_site_fract_z
 _atom_site_occupancy
  Sr  Sr0  1  0.32714674  0.34886301  0.69790040  1
  Sr  Sr1  1  0.62874059  0.65087724  0.30267353  1
  Sr  Sr2  1  0.82696254  0.84785359  0.69751619  1
  Sr  Sr3  1  0.12874102  0.15192171  0.30283398  1
  Y  Y4  1  0.98554145  0.99918796  0.00013249  1
  Y  Y5  1  0.48570626  0.49912398  0.00018279  1
  Cu  Cu6  1  0.91026346  0.42540865  0.85351433  1
  Cu  Cu7  1  0.05736228  0.57338172  0.14682251  1
  Cu  Cu8  1  0.41017371  0.92615565  0.85376818  1
  Cu  Cu9  1  0.55717017  0.07253863  0.14637365  1
  Ag  Ag10  1  0.24094205  0.73257955  0.50014909  1
  Ag  Ag11  1  0.73976265  0.26492549  0.50038303  1
  O  O12  1  0.16414935  0.28744332  0.50041025  1
  O  O13  1  0.66664818  0.72118456  0.50026868  1
  O  O14  1  0.17515475  0.19093821  0.87997333  1
  O  O15  1  0.29702546  0.80894656  0.12145506  1
  O  O16  1  0.67448475  0.18699331  0.87900020  1
  O  O17  1  0.79589644  0.81106802  0.12049343  1
  O  O18  1  0.67386508  0.68831029  0.87931043  1
  O  O19  1  0.79485933  0.31173428  0.12182416  1
  O  O20  1  0.17254216  0.68768165  0.87886262  1
  O  O21  1  0.29340897  0.30894300  0.12083211  1
  O  O22  1  0.31628647  0.83480164  0.67430358  1
  O  O23  1  0.64255601  0.16556663  0.32657421  1
  O  O24  1  0.81616651  0.33847392  0.67386894  1
  O  O25  1  0.14335162  0.66097544  0.32629582  1
