# generated using pymatgen
data_Ba2CaCuSb2F14
_symmetry_space_group_name_H-M   'P 1'
_cell_length_a   5.54961276
_cell_length_b   7.70532512
_cell_length_c   16.28966020
_cell_angle_alpha   90.67997263
_cell_angle_beta   90.11371273
_cell_angle_gamma   110.97376234
_symmetry_Int_Tables_number   1
_chemical_formula_structural   Ba2CaCuSb2F14
_chemical_formula_sum   'Ba4 Ca2 Cu2 Sb4 F28'
_cell_volume   650.35942728
_cell_formula_units_Z   2
loop_
 _symmetry_equiv_pos_site_id
 _symmetry_equiv_pos_as_xyz
  1  'x, y, z'
loop_
 _atom_site_type_symbol
 _atom_site_label
 _atom_site_symmetry_multiplicity
 _atom_site_fract_x
 _atom_site_fract_y
 _atom_site_fract_z
 _atom_site_occupancy
  Ba  Ba0  1  0.09659419  0.36009680  0.62382884  1
  Ba  Ba1  1  0.26315760  0.36128212  0.12444847  1
  Ba  Ba2  1  0.90225423  0.63742691  0.37612097  1
  Ba  Ba3  1  0.73771434  0.63969183  0.87705297  1
  Ca  Ca4  1  0.44587850  0.99944734  0.75049087  1
  Ca  Ca5  1  0.55392586  0.99981724  0.25030531  1
  Cu  Cu6  1  0.50132447  0.00087112  0.00046308  1
  Cu  Cu7  1  0.49869060  0.99812440  0.50036829  1
  Sb  Sb8  1  0.06850040  0.23044685  0.87708196  1
  Sb  Sb9  1  0.93385622  0.77093457  0.12328513  1
  Sb  Sb10  1  0.15971164  0.22712115  0.37748021  1
  Sb  Sb11  1  0.83941000  0.77042653  0.62357921  1
  F  F12  1  0.85842477  0.95945060  0.33232626  1
  F  F13  1  0.89621454  0.29904911  0.45637263  1
  F  F14  1  0.10258133  0.69880208  0.54416968  1
  F  F15  1  0.62416042  0.48427717  0.60835243  1
  F  F16  1  0.63616501  0.05793699  0.61249531  1
  F  F17  1  0.57862162  0.94000543  0.88832687  1
  F  F18  1  0.40319302  0.30184708  0.95625217  1
  F  F19  1  0.89624810  0.03793765  0.16788269  1
  F  F20  1  0.35798442  0.32820910  0.78985050  1
  F  F21  1  0.37626055  0.51215782  0.39386213  1
  F  F22  1  0.82524013  0.25042551  0.76622462  1
  F  F23  1  0.14008617  0.51703345  0.89204715  1
  F  F24  1  0.42344043  0.25002113  0.26710596  1
  F  F25  1  0.17843229  0.74657796  0.23335262  1
  F  F26  1  0.42311905  0.06195395  0.11260238  1
  F  F27  1  0.64605820  0.66892178  0.21096784  1
  F  F28  1  0.14541384  0.83892294  0.98854409  1
  F  F29  1  0.13998603  0.03778275  0.66806175  1
  F  F30  1  0.85718508  0.16107404  0.01259238  1
  F  F31  1  0.69706253  0.83855842  0.48746632  1
  F  F32  1  0.59812710  0.69980528  0.04476171  1
  F  F33  1  0.57928160  0.75005745  0.73450879  1
  F  F34  1  0.96778274  0.32698880  0.29028440  1
  F  F35  1  0.30204900  0.15885227  0.51302657  1
  F  F36  1  0.36195492  0.93890146  0.38794952  1
  F  F37  1  0.10423652  0.96309996  0.83347186  1
  F  F38  1  0.03473361  0.67291097  0.71042627  1
  F  F39  1  0.86500591  0.48588200  0.10602876  1
