# generated using pymatgen
data_ZnFe3(P2O7)2
_symmetry_space_group_name_H-M   'P 1'
_cell_length_a   7.26040354
_cell_length_b   7.76016789
_cell_length_c   9.59524677
_cell_angle_alpha   90.00000000
_cell_angle_beta   110.66384801
_cell_angle_gamma   90.00000000
_symmetry_Int_Tables_number   1
_chemical_formula_structural   ZnFe3(P2O7)2
_chemical_formula_sum   'Zn2 Fe6 P8 O28'
_cell_volume   505.83547152
_cell_formula_units_Z   2
loop_
 _symmetry_equiv_pos_site_id
 _symmetry_equiv_pos_as_xyz
  1  'x, y, z'
loop_
 _atom_site_type_symbol
 _atom_site_label
 _atom_site_symmetry_multiplicity
 _atom_site_fract_x
 _atom_site_fract_y
 _atom_site_fract_z
 _atom_site_occupancy
  Zn  Zn0  1  0.50000000  -0.00000000  -0.00000000  1
  Zn  Zn1  1  0.50000000  0.50000000  0.50000000  1
  Fe  Fe2  1  0.18534065  0.86956631  0.51432539  1
  Fe  Fe3  1  0.81465935  0.36956631  0.98567461  1
  Fe  Fe4  1  0.81465935  0.13043369  0.48567461  1
  Fe  Fe5  1  0.18534065  0.63043369  0.01432539  1
  Fe  Fe6  1  0.00000000  -0.00000000  -0.00000000  1
  Fe  Fe7  1  0.00000000  0.50000000  0.50000000  1
  P  P8  1  0.57898359  0.06836690  0.70692056  1
  P  P9  1  0.42101641  0.56836690  0.79307944  1
  P  P10  1  0.42101641  0.93163310  0.29307944  1
  P  P11  1  0.57898359  0.43163310  0.20692056  1
  P  P12  1  0.86370824  0.79406564  0.68890166  1
  P  P13  1  0.13629176  0.29406564  0.81109834  1
  P  P14  1  0.13629176  0.20593436  0.31109834  1
  P  P15  1  0.86370824  0.70593436  0.18890166  1
  O  O16  1  0.80654903  0.62104210  0.60732921  1
  O  O17  1  0.19345097  0.12104210  0.89267079  1
  O  O18  1  0.19345097  0.37895790  0.39267079  1
  O  O19  1  0.80654903  0.87895790  0.10732921  1
  O  O20  1  0.31569842  0.60020936  0.62016612  1
  O  O21  1  0.68430158  0.10020936  0.87983388  1
  O  O22  1  0.68430158  0.39979064  0.37983388  1
  O  O23  1  0.31569842  0.89979064  0.12016612  1
  O  O24  1  0.63231111  0.20525311  0.61310231  1
  O  O25  1  0.36768889  0.70525311  0.88689769  1
  O  O26  1  0.36768889  0.79474689  0.38689769  1
  O  O27  1  0.63231111  0.29474689  0.11310231  1
  O  O28  1  0.65765852  0.88341649  0.67196469  1
  O  O29  1  0.34234148  0.38341649  0.82803531  1
  O  O30  1  0.34234148  0.11658351  0.32803531  1
  O  O31  1  0.65765852  0.61658351  0.17196469  1
  O  O32  1  0.36360478  0.46912358  0.17376869  1
  O  O33  1  0.63639522  0.96912358  0.32623131  1
  O  O34  1  0.63639522  0.53087642  0.82623131  1
  O  O35  1  0.36360478  0.03087642  0.67376869  1
  O  O36  1  0.02622852  0.21124672  0.14055209  1
  O  O37  1  0.97377148  0.71124672  0.35944791  1
  O  O38  1  0.97377148  0.78875328  0.85944791  1
  O  O39  1  0.02622852  0.28875328  0.64055209  1
  O  O40  1  0.96839492  0.58826954  0.11276979  1
  O  O41  1  0.03160508  0.08826954  0.38723021  1
  O  O42  1  0.03160508  0.41173046  0.88723021  1
  O  O43  1  0.96839492  0.91173046  0.61276979  1
