# generated using pymatgen
data_CaLaFeAgO6
_symmetry_space_group_name_H-M   'P 1'
_cell_length_a   5.78921343
_cell_length_b   5.62221902
_cell_length_c   7.79945959
_cell_angle_alpha   89.45333617
_cell_angle_beta   90.00000000
_cell_angle_gamma   90.00000000
_symmetry_Int_Tables_number   1
_chemical_formula_structural   CaLaFeAgO6
_chemical_formula_sum   'Ca2 La2 Fe2 Ag2 O12'
_cell_volume   253.84701779
_cell_formula_units_Z   2
loop_
 _symmetry_equiv_pos_site_id
 _symmetry_equiv_pos_as_xyz
  1  'x, y, z'
loop_
 _atom_site_type_symbol
 _atom_site_label
 _atom_site_symmetry_multiplicity
 _atom_site_fract_x
 _atom_site_fract_y
 _atom_site_fract_z
 _atom_site_occupancy
  Ca  Ca0  1  0.55952940  0.51774927  0.25185435  1
  Ca  Ca1  1  0.94047060  0.01774927  0.75185435  1
  La  La2  1  0.05311603  0.98520478  0.24894415  1
  La  La3  1  0.44688397  0.48520478  0.74894415  1
  Fe  Fe4  1  0.50276805  0.99942709  0.00062802  1
  Fe  Fe5  1  0.99723195  0.49942709  0.50062802  1
  Ag  Ag6  1  0.50099036  0.00020792  0.49955868  1
  Ag  Ag7  1  0.99900964  0.50020792  0.99955868  1
  O  O8  1  0.03644359  0.60744760  0.74584662  1
  O  O9  1  0.21979571  0.18615226  0.94645634  1
  O  O10  1  0.19124075  0.21314766  0.55233437  1
  O  O11  1  0.30875925  0.71314766  0.05233437  1
  O  O12  1  0.28020429  0.68615226  0.44645634  1
  O  O13  1  0.46355641  0.10744760  0.24584562  1
  O  O14  1  0.54212551  0.90104501  0.75348882  1
  O  O15  1  0.72221052  0.30871782  0.55293684  1
  O  O16  1  0.69735848  0.28089861  0.94795081  1
  O  O17  1  0.80264152  0.78089861  0.44795081  1
  O  O18  1  0.77778948  0.80871782  0.05293684  1
  O  O19  1  0.95787449  0.40104501  0.25348882  1
