# generated using pymatgen
data_MgV2(PO5)2
_symmetry_space_group_name_H-M   'P 1'
_cell_length_a   6.72798956
_cell_length_b   6.72798953
_cell_length_c   8.82526466
_cell_angle_alpha   102.67663020
_cell_angle_beta   102.67663011
_cell_angle_gamma   115.10565704
_symmetry_Int_Tables_number   1
_chemical_formula_structural   MgV2(PO5)2
_chemical_formula_sum   'Mg2 V4 P4 O20'
_cell_volume   330.09931481
_cell_formula_units_Z   2
loop_
 _symmetry_equiv_pos_site_id
 _symmetry_equiv_pos_as_xyz
  1  'x, y, z'
loop_
 _atom_site_type_symbol
 _atom_site_label
 _atom_site_symmetry_multiplicity
 _atom_site_fract_x
 _atom_site_fract_y
 _atom_site_fract_z
 _atom_site_occupancy
  Mg  Mg0  1  0.50213341  0.00213341  0.50000000  1
  Mg  Mg1  1  0.25213341  0.25213341  1.00000000  1
  V  V2  1  0.87757514  0.60968489  0.25957783  1
  V  V3  1  0.35010706  0.61799631  0.74042217  1
  V  V4  1  0.86799631  0.10010706  0.24042217  1
  V  V5  1  0.85968489  0.62757514  0.75957783  1
  P  P6  1  0.03716297  0.03771787  0.58435288  1
  P  P7  1  0.70281009  0.20336498  0.91564712  1
  P  P8  1  0.45336498  0.45281009  0.41564712  1
  P  P9  1  0.28771787  0.78716297  0.08435288  1
  O  O10  1  0.58301116  0.55300351  0.30319411  1
  O  O11  1  0.65761432  0.66250007  0.83483793  1
  O  O12  1  0.30745652  0.58775790  0.97013896  1
  O  O13  1  0.80300351  0.33301116  0.80319411  1
  O  O14  1  0.21522075  0.24239211  0.29486753  1
  O  O15  1  0.42685659  0.64971055  0.52702952  1
  O  O16  1  0.07277739  0.57766215  0.66516207  1
  O  O17  1  0.82766215  0.82277739  0.16516207  1
  O  O18  1  0.91250007  0.40761432  0.33483793  1
  O  O19  1  0.17035322  0.69752458  0.20513247  1
  O  O20  1  0.24980939  0.27981804  0.69680589  1
  O  O21  1  0.49239211  0.96522075  0.79486753  1
  O  O22  1  0.94752458  0.92035322  0.70513247  1
  O  O23  1  0.14982807  0.87268204  0.97297048  1
  O  O24  1  0.12268204  0.89982807  0.47297048  1
  O  O25  1  0.89971055  0.17685659  0.02702952  1
  O  O26  1  0.83775790  0.05745652  0.47013896  1
  O  O27  1  0.61761894  0.33731856  0.02986104  1
  O  O28  1  0.52981804  -0.00019061  0.19680589  1
  O  O29  1  0.58731856  0.36761894  0.52986104  1
