# generated using pymatgen
data_Li7Mn2(CoO4)3
_symmetry_space_group_name_H-M   'P 1'
_cell_length_a   3.02600218
_cell_length_b   6.00682666
_cell_length_c   12.38487492
_cell_angle_alpha   103.45854906
_cell_angle_beta   88.33953535
_cell_angle_gamma   93.92346404
_symmetry_Int_Tables_number   1
_chemical_formula_structural   Li7Mn2(CoO4)3
_chemical_formula_sum   'Li7 Mn2 Co3 O12'
_cell_volume   218.40091787
_cell_formula_units_Z   1
loop_
 _symmetry_equiv_pos_site_id
 _symmetry_equiv_pos_as_xyz
  1  'x, y, z'
loop_
 _atom_site_type_symbol
 _atom_site_label
 _atom_site_symmetry_multiplicity
 _atom_site_fract_x
 _atom_site_fract_y
 _atom_site_fract_z
 _atom_site_occupancy
  Li  Li0  1  0.99798066  0.49898074  0.99886870  1
  Li  Li1  1  0.50000000  0.33333300  0.16666700  1
  Li  Li2  1  0.49721167  0.65632841  0.82851169  1
  Li  Li3  1  0.00000000  0.83333300  0.66666700  1
  Li  Li4  1  0.50278833  0.01033859  0.50482131  1
  Li  Li5  1  0.00201934  0.16768626  0.33446430  1
  Li  Li6  1  0.00000000  0.33333300  0.66666700  1
  Mn  Mn7  1  0.00131575  0.00052646  0.99729508  1
  Mn  Mn8  1  0.99868425  0.66614054  0.33603792  1
  Co  Co9  1  0.50000000  0.83333300  0.16666700  1
  Co  Co10  1  0.50715080  0.49115154  0.50758156  1
  Co  Co11  1  0.49284920  0.17551546  0.82575144  1
  O  O12  1  0.47503146  0.23539259  0.98619158  1
  O  O13  1  0.00354578  0.07334779  0.15982004  1
  O  O14  1  0.97418156  0.39640901  0.83262855  1
  O  O15  1  0.49718909  0.57794811  0.65091429  1
  O  O16  1  0.97596870  0.73644808  0.49575740  1
  O  O17  1  0.47177148  0.90647456  0.32642683  1
  O  O18  1  0.52822852  0.76019244  0.00690617  1
  O  O19  1  -0.00354578  0.59331821  0.17351396  1
  O  O20  1  0.02403130  0.93021892  0.83757560  1
  O  O21  1  0.50281091  0.08871789  0.68241971  1
  O  O22  1  0.02581844  0.27025799  0.50070445  1
  O  O23  1  0.52496854  0.43127441  0.34714142  1
