# generated using pymatgen
data_V3ZnO7
_symmetry_space_group_name_H-M   'P 1'
_cell_length_a   5.40715381
_cell_length_b   10.27496718
_cell_length_c   10.18031682
_cell_angle_alpha   90.00000000
_cell_angle_beta   90.00000000
_cell_angle_gamma   90.00000000
_symmetry_Int_Tables_number   1
_chemical_formula_structural   V3ZnO7
_chemical_formula_sum   'V12 Zn4 O28'
_cell_volume   565.60138037
_cell_formula_units_Z   4
loop_
 _symmetry_equiv_pos_site_id
 _symmetry_equiv_pos_as_xyz
  1  'x, y, z'
loop_
 _atom_site_type_symbol
 _atom_site_label
 _atom_site_symmetry_multiplicity
 _atom_site_fract_x
 _atom_site_fract_y
 _atom_site_fract_z
 _atom_site_occupancy
  V  V0  1  0.28466394  0.02996576  0.31523812  1
  V  V1  1  0.78466394  0.97003424  0.18476188  1
  V  V2  1  0.71533606  0.52996576  0.68476188  1
  V  V3  1  0.21533606  0.47003424  0.81523812  1
  V  V4  1  0.29289021  0.75000000  0.22240382  1
  V  V5  1  0.79289021  0.25000000  0.27759618  1
  V  V6  1  0.70710979  0.25000000  0.77759618  1
  V  V7  1  0.20710979  0.75000000  0.72240382  1
  V  V8  1  0.78466394  0.52996576  0.18476188  1
  V  V9  1  0.28466394  0.47003424  0.31523812  1
  V  V10  1  0.21533606  0.02996576  0.81523812  1
  V  V11  1  0.71533606  0.97003424  0.68476188  1
  Zn  Zn12  1  0.61918759  0.75000000  0.93750384  1
  Zn  Zn13  1  0.11918759  0.25000000  0.56249616  1
  Zn  Zn14  1  0.38081241  0.25000000  0.06249616  1
  Zn  Zn15  1  0.88081241  0.75000000  0.43750384  1
  O  O16  1  0.95421811  0.12061443  0.70804167  1
  O  O17  1  0.45421811  0.87938557  0.79195833  1
  O  O18  1  0.04578189  0.62061443  0.29195833  1
  O  O19  1  0.54578189  0.37938557  0.20804167  1
  O  O20  1  0.04578189  0.87938557  0.29195833  1
  O  O21  1  0.54578189  0.12061443  0.20804167  1
  O  O22  1  0.95421811  0.37938557  0.70804167  1
  O  O23  1  0.45421811  0.62061443  0.79195833  1
  O  O24  1  0.48141907  0.11434285  0.71783169  1
  O  O25  1  0.98141907  0.88565715  0.78216831  1
  O  O26  1  0.51858093  0.61434285  0.28216831  1
  O  O27  1  0.01858093  0.38565715  0.21783169  1
  O  O28  1  0.51858093  0.88565715  0.28216831  1
  O  O29  1  0.01858093  0.11434285  0.21783169  1
  O  O30  1  0.48141907  0.38565715  0.71783169  1
  O  O31  1  0.98141907  0.61434285  0.78216831  1
  O  O32  1  0.19302179  0.75000000  0.55827197  1
  O  O33  1  0.69302179  0.25000000  0.94172803  1
  O  O34  1  0.80697821  0.25000000  0.44172803  1
  O  O35  1  0.30697821  0.75000000  0.05827197  1
  O  O36  1  0.22508464  0.40212786  0.96488598  1
  O  O37  1  0.72508464  0.59787214  0.53511402  1
  O  O38  1  0.77491536  0.90212786  0.03511402  1
  O  O39  1  0.27491536  0.09787214  0.46488598  1
  O  O40  1  0.77491536  0.59787214  0.03511402  1
  O  O41  1  0.27491536  0.40212786  0.46488598  1
  O  O42  1  0.22508464  0.09787214  0.96488598  1
  O  O43  1  0.72508464  0.90212786  0.53511402  1
