# generated using pymatgen
data_Mn3ZnP3O13
_symmetry_space_group_name_H-M   'P 1'
_cell_length_a   6.16683821
_cell_length_b   7.76305617
_cell_length_c   10.32883540
_cell_angle_alpha   99.98560697
_cell_angle_beta   90.00000000
_cell_angle_gamma   90.00000000
_symmetry_Int_Tables_number   1
_chemical_formula_structural   Mn3ZnP3O13
_chemical_formula_sum   'Mn6 Zn2 P6 O26'
_cell_volume   486.98694728
_cell_formula_units_Z   2
loop_
 _symmetry_equiv_pos_site_id
 _symmetry_equiv_pos_as_xyz
  1  'x, y, z'
loop_
 _atom_site_type_symbol
 _atom_site_label
 _atom_site_symmetry_multiplicity
 _atom_site_fract_x
 _atom_site_fract_y
 _atom_site_fract_z
 _atom_site_occupancy
  Mn  Mn0  1  0.25000000  0.34881472  0.21047112  1
  Mn  Mn1  1  0.75000000  0.65118528  0.78952888  1
  Mn  Mn2  1  0.25000000  0.77219626  0.43174814  1
  Mn  Mn3  1  0.50000000  -0.00000000  0.00000000  1
  Mn  Mn4  1  0.75000000  0.22780374  0.56825186  1
  Mn  Mn5  1  0.00000000  -0.00000000  0.00000000  1
  Zn  Zn6  1  0.75000000  0.63430877  0.15718660  1
  Zn  Zn7  1  0.25000000  0.36569123  0.84281340  1
  P  P8  1  0.25000000  0.20964359  0.49185054  1
  P  P9  1  0.75000000  0.79035641  0.50814946  1
  P  P10  1  0.25000000  0.73430637  0.76108332  1
  P  P11  1  0.75000000  0.26569363  0.23891668  1
  P  P12  1  0.75000000  0.32467218  0.88280911  1
  P  P13  1  0.25000000  0.67532782  0.11719089  1
  O  O14  1  0.75000000  0.37678483  0.74383196  1
  O  O15  1  0.55692936  0.75029777  0.40891411  1
  O  O16  1  0.25000000  0.78023637  0.62518939  1
  O  O17  1  0.53582412  0.22119839  0.89559060  1
  O  O18  1  0.75000000  0.65457645  0.60118957  1
  O  O19  1  0.75000000  0.88315660  0.90628547  1
  O  O20  1  0.25000000  0.34542355  0.39881043  1
  O  O21  1  0.03582412  0.77880161  0.10440940  1
  O  O22  1  0.25000000  0.02491746  0.41346993  1
  O  O23  1  0.75000000  0.97508254  0.58653007  1
  O  O24  1  0.05848230  0.61610205  0.79116064  1
  O  O25  1  0.25000000  0.11684340  0.09371453  1
  O  O26  1  0.55848230  0.38389795  0.20883936  1
  O  O27  1  0.75000000  0.50671436  0.97142138  1
  O  O28  1  0.75000000  0.21976363  0.37481061  1
  O  O29  1  0.46417588  0.77880161  0.10440940  1
  O  O30  1  0.94307064  0.75029777  0.40891411  1
  O  O31  1  0.44307064  0.24970223  0.59108589  1
  O  O32  1  0.44151770  0.61610205  0.79116064  1
  O  O33  1  0.25000000  0.62321517  0.25616804  1
  O  O34  1  0.75000000  0.09576839  0.13182342  1
  O  O35  1  0.25000000  0.90423161  0.86817658  1
  O  O36  1  0.94151770  0.38389795  0.20883936  1
  O  O37  1  0.96417588  0.22119839  0.89559060  1
  O  O38  1  0.05692936  0.24970223  0.59108589  1
  O  O39  1  0.25000000  0.49328564  0.02857862  1
