# generated using pymatgen
data_MgFeBiO5
_symmetry_space_group_name_H-M   'P 1'
_cell_length_a   5.38991718
_cell_length_b   8.30421196
_cell_length_c   10.46518919
_cell_angle_alpha   90.00000000
_cell_angle_beta   90.00000000
_cell_angle_gamma   106.98264076
_symmetry_Int_Tables_number   1
_chemical_formula_structural   MgFeBiO5
_chemical_formula_sum   'Mg4 Fe4 Bi4 O20'
_cell_volume   447.98567177
_cell_formula_units_Z   4
loop_
 _symmetry_equiv_pos_site_id
 _symmetry_equiv_pos_as_xyz
  1  'x, y, z'
loop_
 _atom_site_type_symbol
 _atom_site_label
 _atom_site_symmetry_multiplicity
 _atom_site_fract_x
 _atom_site_fract_y
 _atom_site_fract_z
 _atom_site_occupancy
  Mg  Mg0  1  0.63035349  0.16773211  0.91045723  1
  Mg  Mg1  1  0.36964651  0.83226789  0.08954277  1
  Mg  Mg2  1  0.86964651  0.33226789  0.41045723  1
  Mg  Mg3  1  0.13035349  0.66773211  0.58954277  1
  Fe  Fe4  1  0.80753354  0.94644850  0.61451124  1
  Fe  Fe5  1  0.19246646  0.05355150  0.38548876  1
  Fe  Fe6  1  0.69246646  0.55355150  0.11451124  1
  Fe  Fe7  1  0.30753354  0.44644850  0.88548876  1
  Bi  Bi8  1  0.12322400  0.15668742  0.10321154  1
  Bi  Bi9  1  0.87677600  0.84331258  0.89678846  1
  Bi  Bi10  1  0.62322400  0.65668742  0.39678846  1
  Bi  Bi11  1  0.37677600  0.34331258  0.60321154  1
  O  O12  1  0.48698566  0.33777009  0.04369624  1
  O  O13  1  0.99641136  0.31456435  0.97109918  1
  O  O14  1  0.51077087  0.69365415  0.21041487  1
  O  O15  1  0.75265293  0.50855877  0.54293445  1
  O  O16  1  0.78579697  0.49609602  0.28289204  1
  O  O17  1  0.28579697  0.99609602  0.21710796  1
  O  O18  1  0.49641136  0.81456435  0.52890082  1
  O  O19  1  0.50358864  0.18543565  0.47109918  1
  O  O20  1  0.24734707  0.49144123  0.45706555  1
  O  O21  1  0.01301434  0.16222991  0.54369624  1
  O  O22  1  0.21420303  0.50390398  0.71710796  1
  O  O23  1  0.51301434  0.66222991  0.95630376  1
  O  O24  1  0.98698566  0.83777009  0.45630376  1
  O  O25  1  0.71420303  0.00390398  0.78289204  1
  O  O26  1  0.74734707  0.99144123  0.04293445  1
  O  O27  1  0.25265293  0.00855877  0.95706555  1
  O  O28  1  0.48922913  0.30634585  0.78958513  1
  O  O29  1  0.00358864  0.68543565  0.02890082  1
  O  O30  1  0.98922913  0.80634585  0.71041487  1
  O  O31  1  0.01077087  0.19365415  0.28958513  1
