# generated using pymatgen
data_Li7Mn2(CoO4)3
_symmetry_space_group_name_H-M   'P 1'
_cell_length_a   3.00288137
_cell_length_b   14.49906593
_cell_length_c   5.00158654
_cell_angle_alpha   92.33575370
_cell_angle_beta   86.93633760
_cell_angle_gamma   92.37156453
_symmetry_Int_Tables_number   1
_chemical_formula_structural   Li7Mn2(CoO4)3
_chemical_formula_sum   'Li7 Mn2 Co3 O12'
_cell_volume   217.10427717
_cell_formula_units_Z   1
loop_
 _symmetry_equiv_pos_site_id
 _symmetry_equiv_pos_as_xyz
  1  'x, y, z'
loop_
 _atom_site_type_symbol
 _atom_site_label
 _atom_site_symmetry_multiplicity
 _atom_site_fract_x
 _atom_site_fract_y
 _atom_site_fract_z
 _atom_site_occupancy
  Li  Li0  1  0.98842989  0.17694779  0.66545213  1
  Li  Li1  1  0.49602375  0.48530728  0.48669035  1
  Li  Li2  1  0.00000000  0.83333300  0.33333300  1
  Li  Li3  1  0.50397625  0.18135972  0.17997665  1
  Li  Li4  1  0.01157011  0.48971921  0.00121487  1
  Li  Li5  1  0.50000000  0.83333300  0.83333300  1
  Li  Li6  1  0.00000000  0.33333300  0.33333300  1
  Mn  Mn7  1  0.99769558  0.00165007  0.00102377  1
  Mn  Mn8  1  0.00230442  0.66501693  0.66564323  1
  Co  Co9  1  0.50000000  0.33333300  0.83333300  1
  Co  Co10  1  0.49643853  0.00158279  0.50037398  1
  Co  Co11  1  0.50356147  0.66508421  0.16629302  1
  O  O12  1  0.48161175  0.07481180  0.82817612  1
  O  O13  1  0.00734043  0.40742727  0.67911439  1
  O  O14  1  0.47854980  0.74241005  0.49080385  1
  O  O15  1  0.96831369  0.07706859  0.33393992  1
  O  O16  1  0.49395517  0.40800077  0.12745085  1
  O  O17  1  0.96702718  0.74308407  0.99596301  1
  O  O18  1  0.50604483  0.25866623  0.53921615  1
  O  O19  1  0.03168631  0.58959841  0.33272708  1
  O  O20  1  0.52145020  0.92425595  0.17586215  1
  O  O21  1  -0.00734043  0.25923973  0.98755261  1
  O  O22  1  0.51838825  0.59185520  0.83849088  1
  O  O23  1  0.03297282  0.92358193  0.67070299  1
