# generated using pymatgen
data_TaPS
_symmetry_space_group_name_H-M   'P 1'
_cell_length_a   3.45508327
_cell_length_b   4.74433533
_cell_length_c   6.64898745
_cell_angle_alpha   110.90204020
_cell_angle_beta   105.05939712
_cell_angle_gamma   90.00000000
_symmetry_Int_Tables_number   1
_chemical_formula_structural   TaPS
_chemical_formula_sum   'Ta2 P2 S2'
_cell_volume   97.80101650
_cell_formula_units_Z   2
loop_
 _symmetry_equiv_pos_site_id
 _symmetry_equiv_pos_as_xyz
  1  'x, y, z'
loop_
 _atom_site_type_symbol
 _atom_site_label
 _atom_site_symmetry_multiplicity
 _atom_site_fract_x
 _atom_site_fract_y
 _atom_site_fract_z
 _atom_site_occupancy
  Ta  Ta0  1  0.87776409  0.37776409  0.75552818  1
  Ta  Ta1  1  0.12223591  0.62223591  0.24447182  1
  P  P2  1  0.50000000  0.23609430  -0.00000000  1
  P  P3  1  0.50000000  0.76390570  -0.00000000  1
  S  S4  1  0.78681133  0.78681133  0.57362266  1
  S  S5  1  0.21318867  0.21318867  0.42637734  1
