# generated using pymatgen
data_TbFeGe2
_symmetry_space_group_name_H-M   'P 1'
_cell_length_a   4.30419384
_cell_length_b   4.17243697
_cell_length_c   8.42077399
_cell_angle_alpha   104.34421012
_cell_angle_beta   90.00000000
_cell_angle_gamma   90.00000000
_symmetry_Int_Tables_number   1
_chemical_formula_structural   TbFeGe2
_chemical_formula_sum   'Tb2 Fe2 Ge4'
_cell_volume   146.51392053
_cell_formula_units_Z   2
loop_
 _symmetry_equiv_pos_site_id
 _symmetry_equiv_pos_as_xyz
  1  'x, y, z'
loop_
 _atom_site_type_symbol
 _atom_site_label
 _atom_site_symmetry_multiplicity
 _atom_site_fract_x
 _atom_site_fract_y
 _atom_site_fract_z
 _atom_site_occupancy
  Tb  Tb0  1  0.75000000  0.10652410  0.21304821  1
  Tb  Tb1  1  0.25000000  0.89347590  0.78695179  1
  Fe  Fe2  1  0.75000000  0.31573373  0.63146746  1
  Fe  Fe3  1  0.25000000  0.68426627  0.36853254  1
  Ge  Ge4  1  0.75000000  0.45584411  0.91168822  1
  Ge  Ge5  1  0.25000000  0.54415589  0.08831178  1
  Ge  Ge6  1  0.75000000  0.74705139  0.49410277  1
  Ge  Ge7  1  0.25000000  0.25294861  0.50589723  1
