# generated using pymatgen
data_Sr3Ca5Mn7FeO20
_symmetry_space_group_name_H-M   'P 1'
_cell_length_a   10.99155162
_cell_length_b   11.15685950
_cell_length_c   17.47781883
_cell_angle_alpha   108.56469494
_cell_angle_beta   108.32063210
_cell_angle_gamma   90.08701486
_symmetry_Int_Tables_number   1
_chemical_formula_structural   Sr3Ca5Mn7FeO20
_chemical_formula_sum   'Sr12 Ca20 Mn28 Fe4 O80'
_cell_volume   1916.47954114
_cell_formula_units_Z   4
loop_
 _symmetry_equiv_pos_site_id
 _symmetry_equiv_pos_as_xyz
  1  'x, y, z'
loop_
 _atom_site_type_symbol
 _atom_site_label
 _atom_site_symmetry_multiplicity
 _atom_site_fract_x
 _atom_site_fract_y
 _atom_site_fract_z
 _atom_site_occupancy
  Sr  Sr0  1  0.30933305  0.55960004  0.60956932  1
  Sr  Sr1  1  0.80614778  0.05765347  0.60789386  1
  Sr  Sr2  1  0.80852701  0.55884898  0.61021672  1
  Sr  Sr3  1  0.19663454  0.43858471  0.38697116  1
  Sr  Sr4  1  0.20053656  0.44216444  0.89250727  1
  Sr  Sr5  1  0.69582565  0.93696841  0.38616658  1
  Sr  Sr6  1  0.05946356  0.29919197  0.60890066  1
  Sr  Sr7  1  0.05884992  0.80130572  0.60973221  1
  Sr  Sr8  1  0.55908447  0.30037237  0.61051609  1
  Sr  Sr9  1  0.45013984  0.20051638  0.88999722  1
  Sr  Sr10  1  0.94644454  0.19751551  0.38630742  1
  Sr  Sr11  1  0.94907478  0.20030206  0.89128719  1
  Ca  Ca12  1  0.30631740  0.06458341  0.10841938  1
  Ca  Ca13  1  0.30671991  0.05968660  0.60361170  1
  Ca  Ca14  1  0.30506542  0.56721802  0.10891446  1
  Ca  Ca15  1  0.80330598  0.06221970  0.10491477  1
  Ca  Ca16  1  0.80744344  0.56268534  0.10839894  1
  Ca  Ca17  1  0.20190972  0.93593604  0.39187194  1
  Ca  Ca18  1  0.20051422  0.93932834  0.89687413  1
  Ca  Ca19  1  0.70008349  0.43721614  0.39211045  1
  Ca  Ca20  1  0.70100661  0.43809701  0.89666933  1
  Ca  Ca21  1  0.69997319  0.93744749  0.89428344  1
  Ca  Ca22  1  0.05579738  0.29197833  0.10707571  1
  Ca  Ca23  1  0.05545704  0.79320189  0.10705784  1
  Ca  Ca24  1  0.55612648  0.29403444  0.10804413  1
  Ca  Ca25  1  0.55553874  0.79216932  0.10590435  1
  Ca  Ca26  1  0.55853166  0.79445871  0.60516269  1
  Ca  Ca27  1  0.45129465  0.20581905  0.39221971  1
  Ca  Ca28  1  0.44799529  0.70606912  0.39285304  1
  Ca  Ca29  1  0.45132712  0.70926075  0.89608429  1
  Ca  Ca30  1  0.95037122  0.70477107  0.39219878  1
  Ca  Ca31  1  0.94993044  0.70969533  0.89752729  1
  Mn  Mn32  1  0.00496713  0.99830920  0.49786868  1
  Mn  Mn33  1  0.00256978  0.49990049  0.49727768  1
  Mn  Mn34  1  0.50317280  0.99869428  0.49831948  1
  Mn  Mn35  1  0.50765785  0.50155280  0.00279943  1
  Mn  Mn36  1  0.50299337  0.49883576  0.49629936  1
  Mn  Mn37  1  0.25827915  0.25217749  0.00350079  1
  Mn  Mn38  1  0.25410521  0.24683075  0.49685854  1
  Mn  Mn39  1  0.25769673  0.75320801  0.00243737  1
  Mn  Mn40  1  0.25512036  0.75112683  0.49820241  1
  Mn  Mn41  1  0.75698046  0.25188675  0.00296020  1
  Mn  Mn42  1  0.75216774  0.24900439  0.49700899  1
  Mn  Mn43  1  0.75189340  0.74626097  0.49587281  1
  Mn  Mn44  1  0.11057895  0.09038935  0.24618623  1
  Mn  Mn45  1  0.11650035  0.09106525  0.75248967  1
  Mn  Mn46  1  0.11049675  0.59952955  0.24824240  1
  Mn  Mn47  1  0.11424440  0.60361640  0.75472699  1
  Mn  Mn48  1  0.60410459  0.09670864  0.24592994  1
  Mn  Mn49  1  0.60797271  0.09226648  0.74932660  1
  Mn  Mn50  1  0.60589018  0.59157362  0.24815804  1
  Mn  Mn51  1  0.61343371  0.60542677  0.75497053  1
  Mn  Mn52  1  0.35911831  0.40427881  0.24708569  1
  Mn  Mn53  1  0.36791329  0.40608517  0.75286921  1
  Mn  Mn54  1  0.35506680  0.90209939  0.24865232  1
  Mn  Mn55  1  0.36499282  0.90135514  0.75061724  1
  Mn  Mn56  1  0.85321259  0.40746414  0.24774624  1
  Mn  Mn57  1  0.86023467  0.41140046  0.75636435  1
  Mn  Mn58  1  0.86038022  0.89788990  0.24450729  1
  Mn  Mn59  1  0.85704911  0.89904429  0.75149150  1
  Fe  Fe60  1  0.00723917  0.00040081  0.00264067  1
  Fe  Fe61  1  0.00745234  0.50281359  0.00389603  1
  Fe  Fe62  1  0.50647138  0.00151255  0.00215247  1
  Fe  Fe63  1  0.75621866  0.74962453  0.00119530  1
  O  O64  1  0.12833344  0.11815538  0.49180584  1
  O  O65  1  0.13037587  0.12310623  0.99475134  1
  O  O66  1  0.12195048  0.62483717  0.48976498  1
  O  O67  1  0.12629472  0.62835063  0.99156790  1
  O  O68  1  0.61984626  0.12151113  0.48855953  1
  O  O69  1  0.63052762  0.12296965  0.99401019  1
  O  O70  1  0.62175130  0.61872121  0.48741301  1
  O  O71  1  0.62399520  0.61897013  0.99098047  1
  O  O72  1  0.13990450  0.38032986  0.01626116  1
  O  O73  1  0.13077280  0.37617255  0.50385333  1
  O  O74  1  0.13712550  0.87980948  0.01128849  1
  O  O75  1  0.13409411  0.87809185  0.50277872  1
  O  O76  1  0.64043602  0.38018605  0.01515325  1
  O  O77  1  0.62894885  0.37544771  0.50058875  1
  O  O78  1  0.63430329  0.87863982  0.01309249  1
  O  O79  1  0.62661157  0.87147091  0.50373991  1
  O  O80  1  0.37173165  0.11599394  0.48804622  1
  O  O81  1  0.37315592  0.12010088  0.99171213  1
  O  O82  1  0.37862346  0.62542296  0.49230999  1
  O  O83  1  0.37812646  0.62787108  0.99453383  1
  O  O84  1  0.87533553  0.12091261  0.49408046  1
  O  O85  1  0.87474772  0.11904610  0.99415145  1
  O  O86  1  0.87175175  0.61778415  0.48743380  1
  O  O87  1  0.87219089  0.61574269  0.98725455  1
  O  O88  1  0.38806207  0.38621490  0.01624148  1
  O  O89  1  0.38171952  0.37554408  0.50215506  1
  O  O90  1  0.38406474  0.88342955  0.01259943  1
  O  O91  1  0.38418244  0.88164697  0.51075005  1
  O  O92  1  0.88549765  0.38129977  0.01448212  1
  O  O93  1  0.87776212  0.37828889  0.50166975  1
  O  O94  1  0.88787810  0.88270977  0.01415194  1
  O  O95  1  0.88086183  0.87349367  0.50134816  1
  O  O96  1  0.08830995  0.09304126  0.13468803  1
  O  O97  1  0.08169826  0.07638328  0.63601739  1
  O  O98  1  0.08066297  0.59894339  0.13077278  1
  O  O99  1  0.07061250  0.58395610  0.63655326  1
  O  O100  1  0.57600347  0.09567943  0.13250182  1
  O  O101  1  0.57564845  0.08180772  0.63136672  1
  O  O102  1  0.58126289  0.59405354  0.13566439  1
  O  O103  1  0.57482852  0.58705221  0.63718210  1
  O  O104  1  0.43724684  0.40952416  0.36079179  1
  O  O105  1  0.44702123  0.41427372  0.86959043  1
  O  O106  1  0.43523111  0.90701405  0.36444064  1
  O  O107  1  0.45375136  0.91241569  0.86755994  1
  O  O108  1  0.93592121  0.41448684  0.36035428  1
  O  O109  1  0.94645069  0.41188291  0.86915917  1
  O  O110  1  0.93970841  0.91212135  0.36049993  1
  O  O111  1  0.94567673  0.91075353  0.86833016  1
  O  O112  1  0.33687103  0.29049078  0.13604184  1
  O  O113  1  0.32827110  0.29797735  0.63555043  1
  O  O114  1  0.32909261  0.79261628  0.13266987  1
  O  O115  1  0.32277053  0.79825003  0.63332684  1
  O  O116  1  0.82907484  0.29265488  0.13546596  1
  O  O117  1  0.82259035  0.31059685  0.63946589  1
  O  O118  1  0.83144283  0.78381752  0.13246612  1
  O  O119  1  0.81787603  0.80084640  0.63417152  1
  O  O120  1  0.18845183  0.19437573  0.36106594  1
  O  O121  1  0.19205415  0.20468341  0.86708187  1
  O  O122  1  0.19902676  0.70702703  0.36889768  1
  O  O123  1  0.20362966  0.71253376  0.87110116  1
  O  O124  1  0.68592379  0.19864396  0.36118191  1
  O  O125  1  0.69044242  0.20920405  0.86827490  1
  O  O126  1  0.69002731  0.69597606  0.36157218  1
  O  O127  1  0.69892193  0.71550556  0.86898178  1
  O  O128  1  0.42621121  0.07148019  0.24935312  1
  O  O129  1  0.42294939  0.06574325  0.74283142  1
  O  O130  1  0.42658155  0.57649617  0.24914786  1
  O  O131  1  0.43889177  0.57999713  0.75914469  1
  O  O132  1  0.92864056  0.06299430  0.23878571  1
  O  O133  1  0.93686625  0.05916652  0.74987716  1
  O  O134  1  0.92323412  0.57091715  0.24942169  1
  O  O135  1  0.93743305  0.57864840  0.76138755  1
  O  O136  1  0.17927533  0.42424193  0.24032247  1
  O  O137  1  0.18953500  0.44009242  0.75131664  1
  O  O138  1  0.17311930  0.92062938  0.24758468  1
  O  O139  1  0.18889528  0.92776639  0.76014361  1
  O  O140  1  0.67027903  0.42089428  0.24823134  1
  O  O141  1  0.68434797  0.43768132  0.76029503  1
  O  O142  1  0.68005195  0.92963184  0.24002726  1
  O  O143  1  0.67727703  0.92152598  0.75189471  1
