# generated using pymatgen
data_Sr3Ca5Mn3Fe5O24
_symmetry_space_group_name_H-M   'P 1'
_cell_length_a   7.71548761
_cell_length_b   7.71103206
_cell_length_c   7.75268624
_cell_angle_alpha   90.03354938
_cell_angle_beta   89.96995721
_cell_angle_gamma   89.98548603
_symmetry_Int_Tables_number   1
_chemical_formula_structural   Sr3Ca5Mn3Fe5O24
_chemical_formula_sum   'Sr3 Ca5 Mn3 Fe5 O24'
_cell_volume   461.24104422
_cell_formula_units_Z   1
loop_
 _symmetry_equiv_pos_site_id
 _symmetry_equiv_pos_as_xyz
  1  'x, y, z'
loop_
 _atom_site_type_symbol
 _atom_site_label
 _atom_site_symmetry_multiplicity
 _atom_site_fract_x
 _atom_site_fract_y
 _atom_site_fract_z
 _atom_site_occupancy
  Sr  Sr0  1  0.25011641  0.25004036  0.25126325  1
  Sr  Sr1  1  0.25002423  0.25001584  0.74874154  1
  Sr  Sr2  1  0.74994456  0.25006112  0.74858865  1
  Ca  Ca3  1  0.25043115  0.74969163  0.25202152  1
  Ca  Ca4  1  0.25047498  0.74966734  0.74797139  1
  Ca  Ca5  1  0.74963770  0.25035882  0.25191218  1
  Ca  Ca6  1  0.74956299  0.74962496  0.25197329  1
  Ca  Ca7  1  0.74955812  0.74968579  0.74808081  1
  Mn  Mn8  1  0.99888453  0.50214395  0.49914790  1
  Mn  Mn9  1  0.50072323  0.99703023  0.49917882  1
  Mn  Mn10  1  0.50083505  0.50228141  0.49927677  1
  Fe  Fe11  1  0.99909585  0.99738274  0.00090437  1
  Fe  Fe12  1  0.99911990  0.99743266  0.49919822  1
  Fe  Fe13  1  0.99918944  0.50241310  0.00089354  1
  Fe  Fe14  1  0.50078154  0.99772668  0.00086629  1
  Fe  Fe15  1  0.50083134  0.50241840  0.00101652  1
  O  O16  1  0.24836151  0.99259095  0.00099844  1
  O  O17  1  0.25384860  0.99234832  0.49907597  1
  O  O18  1  0.25050094  0.50746207  0.00091445  1
  O  O19  1  0.25094397  0.50853957  0.49922649  1
  O  O20  1  0.75157622  0.99488215  0.00312761  1
  O  O21  1  0.74622980  0.99482184  0.49673558  1
  O  O22  1  0.74955620  0.50508919  0.00311766  1
  O  O23  1  0.74914481  0.50518012  0.49629157  1
  O  O24  1  0.99667021  0.24825199  0.00333764  1
  O  O25  1  0.99656389  0.25389486  0.49653380  1
  O  O26  1  0.99896967  0.75149176  0.00104229  1
  O  O27  1  0.99901355  0.74633870  0.49898341  1
  O  O28  1  0.50338459  0.25051403  0.00334627  1
  O  O29  1  0.50399831  0.25100760  0.49612429  1
  O  O30  1  0.50099577  0.74959196  0.00097670  1
  O  O31  1  0.50071057  0.74916539  0.49913691  1
  O  O32  1  0.99677357  0.99473552  0.24762877  1
  O  O33  1  0.99905014  0.99236078  0.75250130  1
  O  O34  1  0.99663341  0.50546930  0.25278841  1
  O  O35  1  0.99909625  0.50797806  0.74713682  1
  O  O36  1  0.50341883  0.99471753  0.25274919  1
  O  O37  1  0.50095803  0.99217823  0.74720075  1
  O  O38  1  0.50344696  0.50538888  0.25280756  1
  O  O39  1  0.50094322  0.50802617  0.74718303  1
