# generated using pymatgen
data_Sr5Ca3Mn4(FeO5)4
_symmetry_space_group_name_H-M   'P 1'
_cell_length_a   11.10754121
_cell_length_b   11.21553466
_cell_length_c   17.66070268
_cell_angle_alpha   108.45263958
_cell_angle_beta   108.47657190
_cell_angle_gamma   90.00751021
_symmetry_Int_Tables_number   1
_chemical_formula_structural   Sr5Ca3Mn4(FeO5)4
_chemical_formula_sum   'Sr20 Ca12 Mn16 Fe16 O80'
_cell_volume   1967.04792892
_cell_formula_units_Z   4
loop_
 _symmetry_equiv_pos_site_id
 _symmetry_equiv_pos_as_xyz
  1  'x, y, z'
loop_
 _atom_site_type_symbol
 _atom_site_label
 _atom_site_symmetry_multiplicity
 _atom_site_fract_x
 _atom_site_fract_y
 _atom_site_fract_z
 _atom_site_occupancy
  Sr  Sr0  1  0.30791641  0.05807519  0.60842101  1
  Sr  Sr1  1  0.30691717  0.55854119  0.60876271  1
  Sr  Sr2  1  0.80768706  0.05888265  0.60911061  1
  Sr  Sr3  1  0.80917605  0.55856181  0.61032825  1
  Sr  Sr4  1  0.19623029  0.43919507  0.38721005  1
  Sr  Sr5  1  0.19900113  0.44205112  0.89329672  1
  Sr  Sr6  1  0.69691763  0.44004124  0.38776274  1
  Sr  Sr7  1  0.69682325  0.94008113  0.38769012  1
  Sr  Sr8  1  0.70000394  0.94089447  0.89311566  1
  Sr  Sr9  1  0.05910593  0.30065881  0.60972190  1
  Sr  Sr10  1  0.05877143  0.80142439  0.60983640  1
  Sr  Sr11  1  0.55810860  0.30152381  0.61026752  1
  Sr  Sr12  1  0.55796165  0.80098008  0.60943570  1
  Sr  Sr13  1  0.44687613  0.19813747  0.38784546  1
  Sr  Sr14  1  0.45071504  0.20266106  0.89373903  1
  Sr  Sr15  1  0.44651727  0.69798542  0.38723475  1
  Sr  Sr16  1  0.44922877  0.70112824  0.89303285  1
  Sr  Sr17  1  0.94682407  0.19763807  0.38751969  1
  Sr  Sr18  1  0.94960367  0.20176844  0.89322418  1
  Sr  Sr19  1  0.94702250  0.69847675  0.38731948  1
  Ca  Ca20  1  0.30445092  0.06259887  0.10464822  1
  Ca  Ca21  1  0.30359702  0.56361276  0.10515048  1
  Ca  Ca22  1  0.80440966  0.06280656  0.10457769  1
  Ca  Ca23  1  0.80471692  0.56314483  0.10490141  1
  Ca  Ca24  1  0.20083486  0.93866563  0.39316184  1
  Ca  Ca25  1  0.20253550  0.93984475  0.89809746  1
  Ca  Ca26  1  0.70355517  0.44089347  0.89791350  1
  Ca  Ca27  1  0.05479596  0.29216083  0.10600377  1
  Ca  Ca28  1  0.05610106  0.79276964  0.10624606  1
  Ca  Ca29  1  0.55407291  0.29186000  0.10540196  1
  Ca  Ca30  1  0.55557135  0.79208051  0.10493193  1
  Ca  Ca31  1  0.95370725  0.70823785  0.89810991  1
  Mn  Mn32  1  0.10646320  0.09133596  0.24598989  1
  Mn  Mn33  1  0.11342374  0.09573098  0.75335679  1
  Mn  Mn34  1  0.10758330  0.59768116  0.24467141  1
  Mn  Mn35  1  0.11108997  0.60295902  0.75418251  1
  Mn  Mn36  1  0.60591939  0.09220977  0.24503553  1
  Mn  Mn37  1  0.61318131  0.10145280  0.75218293  1
  Mn  Mn38  1  0.60736815  0.59357072  0.24465830  1
  Mn  Mn39  1  0.61593364  0.59647599  0.75363501  1
  Mn  Mn40  1  0.35668264  0.40153271  0.24457061  1
  Mn  Mn41  1  0.36522222  0.40425380  0.75200328  1
  Mn  Mn42  1  0.35317015  0.90187159  0.24629450  1
  Mn  Mn43  1  0.36034062  0.90441835  0.75366914  1
  Mn  Mn44  1  0.85768151  0.40217820  0.24502651  1
  Mn  Mn45  1  0.86090912  0.40887771  0.75549494  1
  Mn  Mn46  1  0.85886542  0.90045089  0.24461932  1
  Mn  Mn47  1  0.86556319  0.90028090  0.75255404  1
  Fe  Fe48  1  0.00758188  0.00082843  0.00378412  1
  Fe  Fe49  1  0.00258993  0.99890551  0.49733898  1
  Fe  Fe50  1  0.00589334  0.50226151  0.00310611  1
  Fe  Fe51  1  0.00201385  0.49968900  0.49875779  1
  Fe  Fe52  1  0.50641287  0.00150291  0.00424168  1
  Fe  Fe53  1  0.50192960  0.99930875  0.49765414  1
  Fe  Fe54  1  0.50754601  0.50196379  0.00437348  1
  Fe  Fe55  1  0.50289962  0.49948382  0.49888108  1
  Fe  Fe56  1  0.25649173  0.25164293  0.00420209  1
  Fe  Fe57  1  0.25181564  0.24796633  0.49740250  1
  Fe  Fe58  1  0.25599710  0.75303875  0.00407355  1
  Fe  Fe59  1  0.25164740  0.74896563  0.49751108  1
  Fe  Fe60  1  0.75748773  0.25357686  0.00513473  1
  Fe  Fe61  1  0.75283385  0.24996620  0.49939705  1
  Fe  Fe62  1  0.75738436  0.75062899  0.00253942  1
  Fe  Fe63  1  0.75270647  0.74895845  0.49864751  1
  O  O64  1  0.12520081  0.11937471  0.49166687  1
  O  O65  1  0.12778949  0.11964784  0.99343000  1
  O  O66  1  0.12430066  0.62316186  0.49391769  1
  O  O67  1  0.12275418  0.62590229  0.99270236  1
  O  O68  1  0.62478870  0.12359797  0.49522806  1
  O  O69  1  0.62753765  0.12474928  0.99717161  1
  O  O70  1  0.62461607  0.62336297  0.49485326  1
  O  O71  1  0.62909862  0.62032008  0.99370807  1
  O  O72  1  0.13583753  0.38080496  0.01518918  1
  O  O73  1  0.12871360  0.37565420  0.50344283  1
  O  O74  1  0.13527553  0.87996946  0.01213760  1
  O  O75  1  0.12943714  0.87624181  0.50088824  1
  O  O76  1  0.63654408  0.38124327  0.01402871  1
  O  O77  1  0.62878700  0.37572629  0.50249799  1
  O  O78  1  0.63614086  0.87960812  0.01465999  1
  O  O79  1  0.62890297  0.87596316  0.50310922  1
  O  O80  1  0.37078156  0.11728316  0.49056537  1
  O  O81  1  0.37349749  0.11778605  0.99343333  1
  O  O82  1  0.37453595  0.62223131  0.49479740  1
  O  O83  1  0.37737209  0.62319567  0.99743509  1
  O  O84  1  0.87570692  0.12217898  0.49559563  1
  O  O85  1  0.87765458  0.12167517  0.99606629  1
  O  O86  1  0.87469306  0.62209664  0.49442464  1
  O  O87  1  0.87470856  0.61960196  0.99040127  1
  O  O88  1  0.38651166  0.38307378  0.01439766  1
  O  O89  1  0.37908583  0.37660489  0.50295520  1
  O  O90  1  0.38516259  0.88423631  0.01438769  1
  O  O91  1  0.37742476  0.87740527  0.50170100  1
  O  O92  1  0.88389936  0.38519993  0.01351665  1
  O  O93  1  0.87875941  0.37679561  0.50274043  1
  O  O94  1  0.88744457  0.88124416  0.01320928  1
  O  O95  1  0.87920654  0.87719859  0.50254139  1
  O  O96  1  0.08580505  0.09320709  0.13625334  1
  O  O97  1  0.07917284  0.07913419  0.63772848  1
  O  O98  1  0.08120712  0.59805076  0.13395544  1
  O  O99  1  0.07125484  0.58237874  0.63696085  1
  O  O100  1  0.58133692  0.09642982  0.13539227  1
  O  O101  1  0.57375287  0.08214548  0.63597889  1
  O  O102  1  0.58412658  0.59791904  0.13510364  1
  O  O103  1  0.57841835  0.57955223  0.63736562  1
  O  O104  1  0.43524081  0.42098419  0.36143769  1
  O  O105  1  0.44502548  0.41665664  0.86736820  1
  O  O106  1  0.43754138  0.92035092  0.36198326  1
  O  O107  1  0.44467452  0.91540767  0.86769727  1
  O  O108  1  0.93523791  0.42086478  0.36156830  1
  O  O109  1  0.94366190  0.41250146  0.86790112  1
  O  O110  1  0.93776157  0.92090927  0.36088946  1
  O  O111  1  0.94538344  0.90802397  0.86680149  1
  O  O112  1  0.33200533  0.28720378  0.13503070  1
  O  O113  1  0.32488794  0.30274911  0.63592029  1
  O  O114  1  0.32574359  0.79031650  0.13607244  1
  O  O115  1  0.32159144  0.80634110  0.63739241  1
  O  O116  1  0.83475355  0.28866524  0.13546711  1
  O  O117  1  0.82489764  0.31004991  0.63883745  1
  O  O118  1  0.83461795  0.78758431  0.13465786  1
  O  O119  1  0.82562109  0.80412535  0.63634746  1
  O  O120  1  0.18416330  0.19435403  0.36104948  1
  O  O121  1  0.19145086  0.20435966  0.86672018  1
  O  O122  1  0.18588353  0.69845811  0.36143073  1
  O  O123  1  0.19410053  0.71038874  0.86798349  1
  O  O124  1  0.68473733  0.18943401  0.36102722  1
  O  O125  1  0.69112739  0.20837197  0.86696170  1
  O  O126  1  0.68525458  0.69093991  0.36133909  1
  O  O127  1  0.69531664  0.70460744  0.86700268  1
  O  O128  1  0.42946453  0.06086492  0.23966509  1
  O  O129  1  0.44203586  0.06298398  0.75236255  1
  O  O130  1  0.42965769  0.56325073  0.23897200  1
  O  O131  1  0.44232983  0.56648609  0.75169679  1
  O  O132  1  0.92968582  0.06343903  0.23892074  1
  O  O133  1  0.94215442  0.06385098  0.75212047  1
  O  O134  1  0.93034007  0.56324997  0.23964830  1
  O  O135  1  0.93882520  0.57526618  0.76080537  1
  O  O136  1  0.17981812  0.42917678  0.23975538  1
  O  O137  1  0.19251919  0.44252539  0.75304195  1
  O  O138  1  0.17903397  0.92404308  0.24791389  1
  O  O139  1  0.19043626  0.93303408  0.76026263  1
  O  O140  1  0.67957938  0.42608710  0.23918813  1
  O  O141  1  0.68813645  0.43142486  0.75986989  1
  O  O142  1  0.68227703  0.92644940  0.23939090  1
  O  O143  1  0.69539654  0.94091568  0.75295127  1
