# generated using pymatgen
data_Sr4Ca4Mn5Fe3O20
_symmetry_space_group_name_H-M   'P 1'
_cell_length_a   11.02149655
_cell_length_b   11.15061459
_cell_length_c   17.64007741
_cell_angle_alpha   108.43906859
_cell_angle_beta   108.28486067
_cell_angle_gamma   90.00733886
_symmetry_Int_Tables_number   1
_chemical_formula_structural   Sr4Ca4Mn5Fe3O20
_chemical_formula_sum   'Sr16 Ca16 Mn20 Fe12 O80'
_cell_volume   1940.84558608
_cell_formula_units_Z   4
loop_
 _symmetry_equiv_pos_site_id
 _symmetry_equiv_pos_as_xyz
  1  'x, y, z'
loop_
 _atom_site_type_symbol
 _atom_site_label
 _atom_site_symmetry_multiplicity
 _atom_site_fract_x
 _atom_site_fract_y
 _atom_site_fract_z
 _atom_site_occupancy
  Sr  Sr0  1  0.30797971  0.55957824  0.61084543  1
  Sr  Sr1  1  0.80715271  0.05757567  0.60877086  1
  Sr  Sr2  1  0.81015095  0.55927103  0.61042379  1
  Sr  Sr3  1  0.19508497  0.43858420  0.38605572  1
  Sr  Sr4  1  0.19939198  0.44291316  0.89371215  1
  Sr  Sr5  1  0.69672380  0.43951641  0.38666519  1
  Sr  Sr6  1  0.69806125  0.93806908  0.38710806  1
  Sr  Sr7  1  0.69985689  0.94037898  0.89239257  1
  Sr  Sr8  1  0.06097227  0.30000683  0.61041466  1
  Sr  Sr9  1  0.05898254  0.80159038  0.61019608  1
  Sr  Sr10  1  0.55815705  0.30094242  0.61019056  1
  Sr  Sr11  1  0.55700996  0.80079828  0.60879202  1
  Sr  Sr12  1  0.44591848  0.19824213  0.38728152  1
  Sr  Sr13  1  0.45026273  0.20004900  0.89092559  1
  Sr  Sr14  1  0.94833873  0.19697517  0.38630800  1
  Sr  Sr15  1  0.94816564  0.20041637  0.89181002  1
  Ca  Ca16  1  0.30507006  0.06312169  0.10587516  1
  Ca  Ca17  1  0.30613424  0.05989438  0.60443627  1
  Ca  Ca18  1  0.30733355  0.56503954  0.10869882  1
  Ca  Ca19  1  0.80450568  0.06312921  0.10517156  1
  Ca  Ca20  1  0.80699562  0.56317544  0.10741682  1
  Ca  Ca21  1  0.19956350  0.93698324  0.39206267  1
  Ca  Ca22  1  0.20279220  0.93751048  0.89730693  1
  Ca  Ca23  1  0.70251437  0.44126064  0.89774890  1
  Ca  Ca24  1  0.05531909  0.29342804  0.10683806  1
  Ca  Ca25  1  0.05609327  0.79264919  0.10624959  1
  Ca  Ca26  1  0.55447330  0.29286735  0.10525307  1
  Ca  Ca27  1  0.55484341  0.79227534  0.10486924  1
  Ca  Ca28  1  0.44837245  0.70483138  0.39265577  1
  Ca  Ca29  1  0.45103590  0.70734279  0.89680150  1
  Ca  Ca30  1  0.94867716  0.70471955  0.39080678  1
  Ca  Ca31  1  0.95128952  0.70783670  0.89776053  1
  Mn  Mn32  1  0.00513542  0.99934187  0.49889727  1
  Mn  Mn33  1  0.00232138  0.49936599  0.49732502  1
  Mn  Mn34  1  0.25708050  0.25137473  0.00381169  1
  Mn  Mn35  1  0.25233181  0.24825493  0.49801599  1
  Mn  Mn36  1  0.10656316  0.08987663  0.24470285  1
  Mn  Mn37  1  0.11770987  0.09525521  0.75505485  1
  Mn  Mn38  1  0.10891131  0.60070387  0.24735004  1
  Mn  Mn39  1  0.11388155  0.60406533  0.75566080  1
  Mn  Mn40  1  0.60719806  0.09261389  0.24518545  1
  Mn  Mn41  1  0.60911134  0.10031766  0.74990118  1
  Mn  Mn42  1  0.60738045  0.59649956  0.24655454  1
  Mn  Mn43  1  0.61211351  0.59783310  0.75477756  1
  Mn  Mn44  1  0.35839813  0.40596732  0.24579488  1
  Mn  Mn45  1  0.36570398  0.40470596  0.75480909  1
  Mn  Mn46  1  0.35484833  0.89702262  0.24710904  1
  Mn  Mn47  1  0.36004435  0.90149601  0.75141634  1
  Mn  Mn48  1  0.85728143  0.40561967  0.24478638  1
  Mn  Mn49  1  0.86088218  0.40843706  0.75513431  1
  Mn  Mn50  1  0.85938325  0.89540275  0.24385207  1
  Mn  Mn51  1  0.86644638  0.89962676  0.75168375  1
  Fe  Fe52  1  0.00817138  0.00151682  0.00358858  1
  Fe  Fe53  1  0.00646056  0.50202034  0.00367439  1
  Fe  Fe54  1  0.50606877  0.00135064  0.00333332  1
  Fe  Fe55  1  0.50156663  0.99915504  0.49791730  1
  Fe  Fe56  1  0.50674010  0.50161783  0.00299174  1
  Fe  Fe57  1  0.50104739  0.49794432  0.49590858  1
  Fe  Fe58  1  0.25649662  0.75215613  0.00283510  1
  Fe  Fe59  1  0.25109625  0.74927993  0.49715369  1
  Fe  Fe60  1  0.75706922  0.25349705  0.00467658  1
  Fe  Fe61  1  0.75377989  0.24973756  0.49862605  1
  Fe  Fe62  1  0.75653034  0.74993779  0.00207048  1
  Fe  Fe63  1  0.75297499  0.74750655  0.49644164  1
  O  O64  1  0.12789601  0.11765533  0.49193033  1
  O  O65  1  0.13016815  0.12226061  0.99334769  1
  O  O66  1  0.11903692  0.62218036  0.48958660  1
  O  O67  1  0.12359339  0.62511977  0.99331579  1
  O  O68  1  0.62468818  0.12283966  0.49369666  1
  O  O69  1  0.62598490  0.12448584  0.99632785  1
  O  O70  1  0.62190329  0.62285063  0.49088690  1
  O  O71  1  0.62481131  0.62092209  0.99022528  1
  O  O72  1  0.13826963  0.37972499  0.01550569  1
  O  O73  1  0.13096669  0.37652659  0.50517216  1
  O  O74  1  0.13586685  0.88027616  0.01161155  1
  O  O75  1  0.13042967  0.87924642  0.50281963  1
  O  O76  1  0.63714781  0.38333968  0.01527163  1
  O  O77  1  0.63096614  0.37690441  0.50434924  1
  O  O78  1  0.63391428  0.87809216  0.01278670  1
  O  O79  1  0.62727536  0.87313846  0.50076208  1
  O  O80  1  0.37018190  0.11947500  0.49220804  1
  O  O81  1  0.37227328  0.11976888  0.99291333  1
  O  O82  1  0.37422243  0.62229215  0.49148431  1
  O  O83  1  0.37844868  0.62368794  0.99389843  1
  O  O84  1  0.87830997  0.12084897  0.49528898  1
  O  O85  1  0.87771769  0.12106287  0.99475694  1
  O  O86  1  0.87635839  0.62105128  0.49202602  1
  O  O87  1  0.87451026  0.61848487  0.98980440  1
  O  O88  1  0.38445816  0.38210298  0.01441829  1
  O  O89  1  0.37832300  0.37572469  0.50419879  1
  O  O90  1  0.38546308  0.88438712  0.01327689  1
  O  O91  1  0.37708627  0.88152434  0.50510744  1
  O  O92  1  0.88481547  0.38466681  0.01291295  1
  O  O93  1  0.88104206  0.37824505  0.50307185  1
  O  O94  1  0.88800213  0.88163975  0.01375136  1
  O  O95  1  0.88220338  0.87659746  0.50188271  1
  O  O96  1  0.08718360  0.09403329  0.13424355  1
  O  O97  1  0.08557060  0.08035389  0.64057068  1
  O  O98  1  0.07839302  0.59672871  0.13436567  1
  O  O99  1  0.07295666  0.58490860  0.64045244  1
  O  O100  1  0.58040016  0.09588612  0.13512919  1
  O  O101  1  0.57436048  0.08139313  0.63381880  1
  O  O102  1  0.57630576  0.59658289  0.13458405  1
  O  O103  1  0.57334977  0.58004512  0.63799637  1
  O  O104  1  0.43669470  0.41377584  0.36352618  1
  O  O105  1  0.44586955  0.41311674  0.86907368  1
  O  O106  1  0.43541411  0.91291078  0.36303249  1
  O  O107  1  0.44459397  0.91146223  0.86681654  1
  O  O108  1  0.93259554  0.41358322  0.35752629  1
  O  O109  1  0.94350231  0.41229159  0.86743082  1
  O  O110  1  0.93922265  0.91044393  0.35808799  1
  O  O111  1  0.94714821  0.90886180  0.86713787  1
  O  O112  1  0.33092248  0.28821218  0.13084892  1
  O  O113  1  0.32802639  0.29988125  0.64086237  1
  O  O114  1  0.32721401  0.78932407  0.13493259  1
  O  O115  1  0.31874141  0.80038089  0.63487767  1
  O  O116  1  0.83480798  0.29081273  0.13441553  1
  O  O117  1  0.82605577  0.30904250  0.63836304  1
  O  O118  1  0.83189263  0.78503149  0.13249236  1
  O  O119  1  0.82439615  0.80274364  0.63424207  1
  O  O120  1  0.18111077  0.19127923  0.35847355  1
  O  O121  1  0.19376781  0.20619490  0.87136645  1
  O  O122  1  0.19112327  0.70210030  0.36378604  1
  O  O123  1  0.20089211  0.71039837  0.86967027  1
  O  O124  1  0.68719917  0.19006035  0.36205883  1
  O  O125  1  0.68625937  0.20733526  0.86605630  1
  O  O126  1  0.69497999  0.69301834  0.36250209  1
  O  O127  1  0.69879065  0.70450615  0.86686454  1
  O  O128  1  0.42979999  0.05923869  0.24065715  1
  O  O129  1  0.42971798  0.06406353  0.74381105  1
  O  O130  1  0.43030117  0.57901337  0.24904935  1
  O  O131  1  0.44030148  0.57698787  0.75983033  1
  O  O132  1  0.92831778  0.06082506  0.23863415  1
  O  O133  1  0.94111224  0.06371417  0.75089295  1
  O  O134  1  0.92732480  0.57562052  0.24801745  1
  O  O135  1  0.93999657  0.57608305  0.76100237  1
  O  O136  1  0.17388730  0.43303598  0.23997147  1
  O  O137  1  0.19223623  0.44032333  0.75303288  1
  O  O138  1  0.17888520  0.92153186  0.24729644  1
  O  O139  1  0.18883492  0.93021553  0.76050155  1
  O  O140  1  0.67634944  0.42666285  0.23888361  1
  O  O141  1  0.68706397  0.43262347  0.75948404  1
  O  O142  1  0.68190747  0.92510850  0.23964539  1
  O  O143  1  0.69193621  0.94065616  0.75220359  1
