# generated using pymatgen
data_Li7Mn2(CoO4)3
_symmetry_space_group_name_H-M   'P 1'
_cell_length_a   3.01019677
_cell_length_b   10.14217686
_cell_length_c   7.64111296
_cell_angle_alpha   72.67355291
_cell_angle_beta   98.18480928
_cell_angle_gamma   92.16362069
_symmetry_Int_Tables_number   1
_chemical_formula_structural   Li7Mn2(CoO4)3
_chemical_formula_sum   'Li7 Mn2 Co3 O12'
_cell_volume   220.42615450
_cell_formula_units_Z   1
loop_
 _symmetry_equiv_pos_site_id
 _symmetry_equiv_pos_as_xyz
  1  'x, y, z'
loop_
 _atom_site_type_symbol
 _atom_site_label
 _atom_site_symmetry_multiplicity
 _atom_site_fract_x
 _atom_site_fract_y
 _atom_site_fract_z
 _atom_site_occupancy
  Li  Li0  1  0.83155758  0.25784889  0.66351903  1
  Li  Li1  1  0.17193563  0.74701441  0.33250842  1
  Li  Li2  1  0.49194633  0.25505667  0.99902765  1
  Li  Li3  1  0.16555546  0.25265571  0.33276744  1
  Li  Li4  1  0.50218448  0.74626940  0.00174567  1
  Li  Li5  1  0.83529370  0.74115987  0.67070983  1
  Li  Li6  1  0.33304533  0.49982288  0.66667397  1
  Mn  Mn7  1  0.00434096  0.99872401  0.00064918  1
  Mn  Mn8  1  0.32817221  0.00252100  0.66518275  1
  Co  Co9  1  0.66620698  0.99894026  0.33376955  1
  Co  Co10  1  0.99062409  0.50203607  0.99022522  1
  Co  Co11  1  0.67648796  0.49809603  0.34345774  1
  O  O12  1  0.38742703  0.11877670  0.83390792  1
  O  O13  1  0.73670760  0.61408784  0.47535909  1
  O  O14  1  0.07776321  0.11333157  0.17242684  1
  O  O15  1  0.72225068  0.11786230  0.50495529  1
  O  O16  1  0.05747654  0.60653850  0.16231155  1
  O  O17  1  0.40107957  0.61470576  0.84771904  1
  O  O18  1  0.26600486  0.38588736  0.48455764  1
  O  O19  1  0.61173576  0.88131722  0.16054184  1
  O  O20  1  0.93186086  0.38521481  0.85935753  1
  O  O21  1  0.60838714  0.39310281  0.17051987  1
  O  O22  1  0.94298391  0.88488137  0.83137576  1
  O  O23  1  0.25897213  0.88414856  0.49673118  1
