# generated using pymatgen
data_Na4ZnSe3
_symmetry_space_group_name_H-M   'P 1'
_cell_length_a   7.32309126
_cell_length_b   7.84731647
_cell_length_c   9.99901374
_cell_angle_alpha   110.08762336
_cell_angle_beta   89.90229749
_cell_angle_gamma   62.27520864
_symmetry_Int_Tables_number   1
_chemical_formula_structural   Na4ZnSe3
_chemical_formula_sum   'Na8 Zn2 Se6'
_cell_volume   468.59927594
_cell_formula_units_Z   2
loop_
 _symmetry_equiv_pos_site_id
 _symmetry_equiv_pos_as_xyz
  1  'x, y, z'
loop_
 _atom_site_type_symbol
 _atom_site_label
 _atom_site_symmetry_multiplicity
 _atom_site_fract_x
 _atom_site_fract_y
 _atom_site_fract_z
 _atom_site_occupancy
  Na  Na0  1  0.23490022  0.65298990  0.60008026  1
  Na  Na1  1  0.60353326  0.82244380  0.79043604  1
  Na  Na2  1  0.26582631  0.82445529  0.29132967  1
  Na  Na3  1  0.80766926  0.65270743  0.10062432  1
  Na  Na4  1  0.77066900  0.46718223  0.37766613  1
  Na  Na5  1  0.04766391  0.27111472  0.69487936  1
  Na  Na6  1  0.45464282  0.46584228  0.87862384  1
  Na  Na7  1  0.37362260  0.27076118  0.19461065  1
  Zn  Zn8  1  0.00242993  0.98978116  0.00198762  1
  Zn  Zn9  1  0.70153101  0.99070492  0.50227288  1
  Se  Se10  1  0.01226200  0.66565827  0.85509409  1
  Se  Se11  1  0.01550837  0.66565669  0.35589165  1
  Se  Se12  1  0.43199434  0.91303386  0.55149621  1
  Se  Se13  1  0.34907762  0.91163269  0.05180692  1
  Se  Se14  1  0.67172803  0.32771679  0.58449540  1
  Se  Se15  1  0.69504132  0.32611878  0.08390496  1
