# generated using pymatgen
data_Mg3Zn
_symmetry_space_group_name_H-M   'P 1'
_cell_length_a   3.13110352
_cell_length_b   10.00281003
_cell_length_c   5.22407654
_cell_angle_alpha   90.00000000
_cell_angle_beta   90.00000000
_cell_angle_gamma   90.00000000
_symmetry_Int_Tables_number   1
_chemical_formula_structural   Mg3Zn
_chemical_formula_sum   'Mg6 Zn2'
_cell_volume   163.61720844
_cell_formula_units_Z   2
loop_
 _symmetry_equiv_pos_site_id
 _symmetry_equiv_pos_as_xyz
  1  'x, y, z'
loop_
 _atom_site_type_symbol
 _atom_site_label
 _atom_site_symmetry_multiplicity
 _atom_site_fract_x
 _atom_site_fract_y
 _atom_site_fract_z
 _atom_site_occupancy
  Mg  Mg0  1  0.00000000  0.00000000  0.34532779  1
  Mg  Mg1  1  0.00000000  0.75838061  0.99548975  1
  Mg  Mg2  1  0.50000000  0.74161939  0.49548975  1
  Mg  Mg3  1  0.50000000  0.50000000  0.84532779  1
  Mg  Mg4  1  0.50000000  0.25838061  0.49548975  1
  Mg  Mg5  1  0.00000000  0.24161939  0.99548975  1
  Zn  Zn6  1  0.50000000  0.00000000  0.83035872  1
  Zn  Zn7  1  -0.00000000  0.50000000  0.33035872  1
