# generated using pymatgen
data_MgSn2
_symmetry_space_group_name_H-M   'P 1'
_cell_length_a   13.04375365
_cell_length_b   3.38449111
_cell_length_c   7.30195763
_cell_angle_alpha   90.00000000
_cell_angle_beta   107.12302340
_cell_angle_gamma   90.00000000
_symmetry_Int_Tables_number   1
_chemical_formula_structural   MgSn2
_chemical_formula_sum   'Mg4 Sn8'
_cell_volume   308.06715688
_cell_formula_units_Z   4
loop_
 _symmetry_equiv_pos_site_id
 _symmetry_equiv_pos_as_xyz
  1  'x, y, z'
loop_
 _atom_site_type_symbol
 _atom_site_label
 _atom_site_symmetry_multiplicity
 _atom_site_fract_x
 _atom_site_fract_y
 _atom_site_fract_z
 _atom_site_occupancy
  Mg  Mg0  1  0.47087378  0.00000000  0.19924595  1
  Mg  Mg1  1  0.02912622  0.50000000  0.80075405  1
  Mg  Mg2  1  0.97087378  0.50000000  0.19924595  1
  Mg  Mg3  1  0.52912622  -0.00000000  0.80075405  1
  Sn  Sn4  1  0.18233309  0.00000000  0.13528326  1
  Sn  Sn5  1  0.36700734  0.50000000  0.46623994  1
  Sn  Sn6  1  0.13299266  -0.00000000  0.53376006  1
  Sn  Sn7  1  0.31766691  0.50000000  0.86471674  1
  Sn  Sn8  1  0.68233309  0.50000000  0.13528326  1
  Sn  Sn9  1  0.86700734  0.00000000  0.46623994  1
  Sn  Sn10  1  0.63299266  0.50000000  0.53376006  1
  Sn  Sn11  1  0.81766691  -0.00000000  0.86471674  1
