# generated using pymatgen
data_MgGa
_symmetry_space_group_name_H-M   'P 1'
_cell_length_a   11.20143575
_cell_length_b   3.22311550
_cell_length_c   6.80903472
_cell_angle_alpha   90.00000000
_cell_angle_beta   104.83780990
_cell_angle_gamma   90.00000000
_symmetry_Int_Tables_number   1
_chemical_formula_structural   MgGa
_chemical_formula_sum   'Mg6 Ga6'
_cell_volume   237.63282706
_cell_formula_units_Z   6
loop_
 _symmetry_equiv_pos_site_id
 _symmetry_equiv_pos_as_xyz
  1  'x, y, z'
loop_
 _atom_site_type_symbol
 _atom_site_label
 _atom_site_symmetry_multiplicity
 _atom_site_fract_x
 _atom_site_fract_y
 _atom_site_fract_z
 _atom_site_occupancy
  Mg  Mg0  1  0.50764641  0.50000000  0.02384208  1
  Mg  Mg1  1  0.05079844  0.00000000  0.59105966  1
  Mg  Mg2  1  0.32949057  -0.00000000  0.66580162  1
  Mg  Mg3  1  0.00764641  0.00000000  0.02384208  1
  Mg  Mg4  1  0.55079844  0.50000000  0.59105966  1
  Mg  Mg5  1  0.82949057  0.50000000  0.66580162  1
  Ga  Ga6  1  0.37903832  0.00000000  0.27183238  1
  Ga  Ga7  1  0.17370155  0.50000000  0.33106999  1
  Ga  Ga8  1  0.22599171  0.50000000  0.94972728  1
  Ga  Ga9  1  0.87903832  0.50000000  0.27183238  1
  Ga  Ga10  1  0.67370155  0.00000000  0.33106999  1
  Ga  Ga11  1  0.72599171  -0.00000000  0.94972728  1
