# generated using pymatgen
data_MgSn2
_symmetry_space_group_name_H-M   'P 1'
_cell_length_a   9.81566111
_cell_length_b   5.75311008
_cell_length_c   5.48011220
_cell_angle_alpha   90.00000000
_cell_angle_beta   90.00000000
_cell_angle_gamma   90.00000000
_symmetry_Int_Tables_number   1
_chemical_formula_structural   MgSn2
_chemical_formula_sum   'Mg4 Sn8'
_cell_volume   309.46510823
_cell_formula_units_Z   4
loop_
 _symmetry_equiv_pos_site_id
 _symmetry_equiv_pos_as_xyz
  1  'x, y, z'
loop_
 _atom_site_type_symbol
 _atom_site_label
 _atom_site_symmetry_multiplicity
 _atom_site_fract_x
 _atom_site_fract_y
 _atom_site_fract_z
 _atom_site_occupancy
  Mg  Mg0  1  0.00000000  0.66755814  0.75000000  1
  Mg  Mg1  1  0.00000000  0.33244186  0.25000000  1
  Mg  Mg2  1  0.50000000  0.16755814  0.75000000  1
  Mg  Mg3  1  0.50000000  0.83244186  0.25000000  1
  Sn  Sn4  1  0.16565309  0.17162191  0.75000000  1
  Sn  Sn5  1  0.33434691  0.67162191  0.75000000  1
  Sn  Sn6  1  0.16565309  0.82837809  0.25000000  1
  Sn  Sn7  1  0.33434691  0.32837809  0.25000000  1
  Sn  Sn8  1  0.66565309  0.67162191  0.75000000  1
  Sn  Sn9  1  0.83434691  0.17162191  0.75000000  1
  Sn  Sn10  1  0.66565309  0.32837809  0.25000000  1
  Sn  Sn11  1  0.83434691  0.82837809  0.25000000  1
