# generated using pymatgen
data_SrMg
_symmetry_space_group_name_H-M   'P 1'
_cell_length_a   13.32483875
_cell_length_b   3.98920185
_cell_length_c   6.05042018
_cell_angle_alpha   90.00000000
_cell_angle_beta   112.10209812
_cell_angle_gamma   90.00000000
_symmetry_Int_Tables_number   1
_chemical_formula_structural   SrMg
_chemical_formula_sum   'Sr4 Mg4'
_cell_volume   297.97916317
_cell_formula_units_Z   4
loop_
 _symmetry_equiv_pos_site_id
 _symmetry_equiv_pos_as_xyz
  1  'x, y, z'
loop_
 _atom_site_type_symbol
 _atom_site_label
 _atom_site_symmetry_multiplicity
 _atom_site_fract_x
 _atom_site_fract_y
 _atom_site_fract_z
 _atom_site_occupancy
  Sr  Sr0  1  0.89463691  0.50000000  0.67067566  1
  Sr  Sr1  1  0.60536309  -0.00000000  0.32932434  1
  Sr  Sr2  1  0.39463691  0.00000000  0.67067566  1
  Sr  Sr3  1  0.10536309  0.50000000  0.32932434  1
  Mg  Mg4  1  0.65653252  0.50000000  0.87561638  1
  Mg  Mg5  1  0.84346748  -0.00000000  0.12438362  1
  Mg  Mg6  1  0.15653252  0.00000000  0.87561638  1
  Mg  Mg7  1  0.34346748  0.50000000  0.12438362  1
