# generated using pymatgen
data_V3CrCo2(PO4)6
_symmetry_space_group_name_H-M   'P 1'
_cell_length_a   8.50726406
_cell_length_b   8.60557144
_cell_length_c   8.60557235
_cell_angle_alpha   59.99999848
_cell_angle_beta   59.61699827
_cell_angle_gamma   59.61699629
_symmetry_Int_Tables_number   1
_chemical_formula_structural   V3CrCo2(PO4)6
_chemical_formula_sum   'V3 Cr1 Co2 P6 O24'
_cell_volume   442.88993290
_cell_formula_units_Z   1
loop_
 _symmetry_equiv_pos_site_id
 _symmetry_equiv_pos_as_xyz
  1  'x, y, z'
loop_
 _atom_site_type_symbol
 _atom_site_label
 _atom_site_symmetry_multiplicity
 _atom_site_fract_x
 _atom_site_fract_y
 _atom_site_fract_z
 _atom_site_occupancy
  V  V0  1  0.07180953  0.64272982  0.64272982  1
  V  V1  1  0.42660847  0.85779751  0.85779751  1
  V  V2  1  0.92792365  0.35735912  0.35735912  1
  Cr  Cr3  1  0.57585687  0.14138138  0.14138138  1
  Co  Co4  1  0.99878594  0.00040435  0.00040435  1
  Co  Co5  1  0.49826171  0.50057976  0.50057976  1
  P  P6  1  0.25117456  0.24974713  0.54157743  1
  P  P7  1  0.25117456  0.95750188  0.24974713  1
  P  P8  1  0.25117456  0.54157743  0.95750188  1
  P  P9  1  0.75039499  0.45635149  0.04301237  1
  P  P10  1  0.75039499  0.04301237  0.75024116  1
  P  P11  1  0.75039499  0.75024116  0.45635149  1
  O  O12  1  0.06461616  0.11934432  0.31175154  1
  O  O13  1  0.06461616  0.50428798  0.11934432  1
  O  O14  1  0.06461616  0.31175154  0.50428798  1
  O  O15  1  0.23140815  0.08763910  0.73966405  1
  O  O16  1  0.43450689  0.19045491  0.38404647  1
  O  O17  1  0.26264638  0.41429053  0.56205755  1
  O  O18  1  0.23140815  0.94128769  0.08763910  1
  O  O19  1  0.26264638  0.76100554  0.41429053  1
  O  O20  1  0.56603613  0.61790025  0.00454201  1
  O  O21  1  0.26264638  0.56205755  0.76100554  1
  O  O22  1  0.77157443  0.26102792  0.05633505  1
  O  O23  1  0.56603613  0.00454201  0.81152162  1
  O  O24  1  0.43450689  0.99099173  0.19045491  1
  O  O25  1  0.23140815  0.73966405  0.94128769  1
  O  O26  1  0.73369159  0.44145920  0.23906724  1
  O  O27  1  0.43450689  0.38404647  0.99099173  1
  O  O28  1  0.73369159  0.23906724  0.58578298  1
  O  O29  1  0.77157443  0.05633505  0.91106259  1
  O  O30  1  0.73369159  0.58578298  0.44145920  1
  O  O31  1  0.56603613  0.81152162  0.61790025  1
  O  O32  1  0.77157443  0.91106259  0.26102792  1
  O  O33  1  0.93420166  0.68446119  0.49852492  1
  O  O34  1  0.93420166  0.49852492  0.88281223  1
  O  O35  1  0.93420166  0.88281223  0.68446119  1
