# generated using pymatgen
data_Mg30TiCrO32
_symmetry_space_group_name_H-M   'P 1'
_cell_length_a   8.59630422
_cell_length_b   8.51483279
_cell_length_c   8.51483279
_cell_angle_alpha   90.00000000
_cell_angle_beta   90.00000000
_cell_angle_gamma   90.00000000
_symmetry_Int_Tables_number   1
_chemical_formula_structural   Mg30TiCrO32
_chemical_formula_sum   'Mg30 Ti1 Cr1 O32'
_cell_volume   623.25249316
_cell_formula_units_Z   1
loop_
 _symmetry_equiv_pos_site_id
 _symmetry_equiv_pos_as_xyz
  1  'x, y, z'
loop_
 _atom_site_type_symbol
 _atom_site_label
 _atom_site_symmetry_multiplicity
 _atom_site_fract_x
 _atom_site_fract_y
 _atom_site_fract_z
 _atom_site_occupancy
  Mg  Mg0  1  0.00000000  -0.00000000  0.50000000  1
  Mg  Mg1  1  0.00000000  0.50000000  0.00000000  1
  Mg  Mg2  1  0.50000000  -0.00000000  0.00000000  1
  Mg  Mg3  1  0.50000000  -0.00000000  0.50000000  1
  Mg  Mg4  1  0.50000000  0.50000000  0.00000000  1
  Mg  Mg5  1  0.50000000  0.50000000  0.50000000  1
  Mg  Mg6  1  0.00000000  0.25075563  0.25075563  1
  Mg  Mg7  1  0.00000000  0.25075563  0.74924437  1
  Mg  Mg8  1  0.00000000  0.74924437  0.25075563  1
  Mg  Mg9  1  0.00000000  0.74924437  0.74924437  1
  Mg  Mg10  1  0.50000000  0.25006118  0.25006118  1
  Mg  Mg11  1  0.50000000  0.25006118  0.74993882  1
  Mg  Mg12  1  0.50000000  0.74993882  0.25006118  1
  Mg  Mg13  1  0.50000000  0.74993882  0.74993882  1
  Mg  Mg14  1  0.25113481  -0.00000000  0.24968907  1
  Mg  Mg15  1  0.25113481  -0.00000000  0.75031093  1
  Mg  Mg16  1  0.25168233  0.50000000  0.25016008  1
  Mg  Mg17  1  0.25168233  0.50000000  0.74983992  1
  Mg  Mg18  1  0.74886519  -0.00000000  0.24968907  1
  Mg  Mg19  1  0.74886519  -0.00000000  0.75031093  1
  Mg  Mg20  1  0.74831767  0.50000000  0.25016008  1
  Mg  Mg21  1  0.74831767  0.50000000  0.74983992  1
  Mg  Mg22  1  0.25113481  0.24968907  0.00000000  1
  Mg  Mg23  1  0.25168233  0.25016008  0.50000000  1
  Mg  Mg24  1  0.25113481  0.75031093  0.00000000  1
  Mg  Mg25  1  0.25168233  0.74983992  0.50000000  1
  Mg  Mg26  1  0.74886519  0.24968907  0.00000000  1
  Mg  Mg27  1  0.74831767  0.25016008  0.50000000  1
  Mg  Mg28  1  0.74886519  0.75031093  0.00000000  1
  Mg  Mg29  1  0.74831767  0.74983992  0.50000000  1
  Ti  Ti30  1  0.00000000  -0.00000000  0.00000000  1
  Cr  Cr31  1  0.00000000  0.50000000  0.50000000  1
  O  O32  1  0.25890100  -0.00000000  0.00000000  1
  O  O33  1  0.24991415  -0.00000000  0.50000000  1
  O  O34  1  0.24991415  0.50000000  0.00000000  1
  O  O35  1  0.26246179  0.50000000  0.50000000  1
  O  O36  1  0.74109900  -0.00000000  0.00000000  1
  O  O37  1  0.75008585  -0.00000000  0.50000000  1
  O  O38  1  0.75008585  0.50000000  0.00000000  1
  O  O39  1  0.73753821  0.50000000  0.50000000  1
  O  O40  1  0.24890892  0.24970915  0.24970915  1
  O  O41  1  0.24890892  0.24970915  0.75029085  1
  O  O42  1  0.24890892  0.75029085  0.24970915  1
  O  O43  1  0.24890892  0.75029085  0.75029085  1
  O  O44  1  0.75109108  0.24970915  0.24970915  1
  O  O45  1  0.75109108  0.24970915  0.75029085  1
  O  O46  1  0.75109108  0.75029085  0.24970915  1
  O  O47  1  0.75109108  0.75029085  0.75029085  1
  O  O48  1  0.00000000  -0.00000000  0.25300504  1
  O  O49  1  0.00000000  -0.00000000  0.74699496  1
  O  O50  1  0.00000000  0.50000000  0.24718858  1
  O  O51  1  0.00000000  0.50000000  0.75281142  1
  O  O52  1  0.50000000  -0.00000000  0.25079011  1
  O  O53  1  0.50000000  -0.00000000  0.74920989  1
  O  O54  1  0.50000000  0.50000000  0.24829547  1
  O  O55  1  0.50000000  0.50000000  0.75170453  1
  O  O56  1  0.00000000  0.25300504  0.00000000  1
  O  O57  1  0.00000000  0.24718858  0.50000000  1
  O  O58  1  0.00000000  0.74699496  0.00000000  1
  O  O59  1  0.00000000  0.75281142  0.50000000  1
  O  O60  1  0.50000000  0.25079011  0.00000000  1
  O  O61  1  0.50000000  0.24829547  0.50000000  1
  O  O62  1  0.50000000  0.74920989  0.00000000  1
  O  O63  1  0.50000000  0.75170453  0.50000000  1
