# generated using pymatgen
data_Li9Mn7O16
_symmetry_space_group_name_H-M   'P 1'
_cell_length_a   3.03328789
_cell_length_b   5.11026458
_cell_length_c   19.59325111
_cell_angle_alpha   93.14247972
_cell_angle_beta   84.34701696
_cell_angle_gamma   93.86964995
_symmetry_Int_Tables_number   1
_chemical_formula_structural   Li9Mn7O16
_chemical_formula_sum   'Li9 Mn7 O16'
_cell_volume   301.19189181
_cell_formula_units_Z   1
loop_
 _symmetry_equiv_pos_site_id
 _symmetry_equiv_pos_as_xyz
  1  'x, y, z'
loop_
 _atom_site_type_symbol
 _atom_site_label
 _atom_site_symmetry_multiplicity
 _atom_site_fract_x
 _atom_site_fract_y
 _atom_site_fract_z
 _atom_site_occupancy
  Li  Li0  1  0.87675299  0.36488300  0.13279157  1
  Li  Li1  1  0.13702676  0.61889589  0.36889134  1
  Li  Li2  1  0.37541562  0.87446833  0.62458513  1
  Li  Li3  1  0.62519057  0.12458062  0.87529425  1
  Li  Li4  1  0.36297324  0.88110411  0.13110866  1
  Li  Li5  1  0.62324701  0.13511700  0.36720843  1
  Li  Li6  1  0.87480943  0.37541938  0.62470575  1
  Li  Li7  1  0.12458438  0.62553167  0.87541487  1
  Li  Li8  1  0.25000000  0.25000000  0.25000000  1
  Mn  Mn9  1  0.99587481  0.00023556  0.00088423  1
  Mn  Mn10  1  0.75000000  0.75000000  0.25000000  1
  Mn  Mn11  1  0.50412519  0.49976444  0.49911577  1
  Mn  Mn12  1  0.75000000  0.75000000  0.75000000  1
  Mn  Mn13  1  0.49654566  0.50176079  0.00070637  1
  Mn  Mn14  1  0.00345434  0.99823921  0.49929363  1
  Mn  Mn15  1  0.25000000  0.25000000  0.75000000  1
  O  O16  1  0.41512623  0.19527688  0.05764749  1
  O  O17  1  0.68274771  0.46177822  0.30876660  1
  O  O18  1  0.91341658  0.69474872  0.55808166  1
  O  O19  1  0.16184010  0.94576380  0.80823512  1
  O  O20  1  0.92088751  0.69095661  0.05611961  1
  O  O21  1  0.22804188  0.91124846  0.30365408  1
  O  O22  1  0.41772156  0.19459308  0.55781315  1
  O  O23  1  0.66150749  0.44574335  0.80826292  1
  O  O24  1  0.27195812  0.58875154  0.19634592  1
  O  O25  1  0.57911249  0.80904339  0.44388039  1
  O  O26  1  0.83849251  0.05425665  0.69173708  1
  O  O27  1  0.08227844  0.30540692  0.94218685  1
  O  O28  1  0.81725229  0.03822178  0.19123340  1
  O  O29  1  0.08487377  0.30472312  0.44235251  1
  O  O30  1  0.33815990  0.55423620  0.69176488  1
  O  O31  1  0.58658342  0.80525128  0.94191834  1
