# generated using pymatgen
data_Li7Mn2(CoO4)3
_symmetry_space_group_name_H-M   'P 1'
_cell_length_a   3.00036931
_cell_length_b   7.61940565
_cell_length_c   9.87554790
_cell_angle_alpha   78.73333354
_cell_angle_beta   93.56545164
_cell_angle_gamma   81.66935494
_symmetry_Int_Tables_number   1
_chemical_formula_structural   Li7Mn2(CoO4)3
_chemical_formula_sum   'Li7 Mn2 Co3 O12'
_cell_volume   218.12335234
_cell_formula_units_Z   1
loop_
 _symmetry_equiv_pos_site_id
 _symmetry_equiv_pos_as_xyz
  1  'x, y, z'
loop_
 _atom_site_type_symbol
 _atom_site_label
 _atom_site_symmetry_multiplicity
 _atom_site_fract_x
 _atom_site_fract_y
 _atom_site_fract_z
 _atom_site_occupancy
  Li  Li0  1  0.91593388  0.16477420  0.25233014  1
  Li  Li1  1  0.42040117  0.16640782  0.74508679  1
  Li  Li2  1  0.23885907  0.49707100  0.25546576  1
  Li  Li3  1  0.74987945  0.50232350  0.74275359  1
  Li  Li4  1  0.58285482  0.83077206  0.25899358  1
  Li  Li5  1  0.09193598  0.83690602  0.74551249  1
  Li  Li6  1  0.16641700  0.66651960  0.50027166  1
  Mn  Mn7  1  0.99428799  -0.00076912  0.00438762  1
  Mn  Mn8  1  0.67253754  0.66753040  0.99707120  1
  Co  Co9  1  0.51042502  0.99151902  0.49750164  1
  Co  Co10  1  0.33359111  0.33360775  0.99849526  1
  Co  Co11  1  0.82373222  0.34169824  0.50216672  1
  O  O12  1  0.42291366  0.08512051  0.11960839  1
  O  O13  1  0.92680927  0.10037516  0.60796499  1
  O  O14  1  0.78687904  0.41931292  0.11159483  1
  O  O15  1  0.26913881  0.40864726  0.61540487  1
  O  O16  1  0.09244193  0.75220636  0.11948206  1
  O  O17  1  0.60849132  0.78358477  0.61363813  1
  O  O18  1  0.40617070  0.23374306  0.39218488  1
  O  O19  1  0.87931024  0.24698585  0.88752691  1
  O  O20  1  0.72523330  0.54980624  0.38514539  1
  O  O21  1  0.24641622  0.58358549  0.87821742  1
  O  O22  1  0.06204568  0.92438373  0.38558018  1
  O  O23  1  0.57329459  0.91388815  0.88361552  1
