# generated using pymatgen
data_Li9Mn7O16
_symmetry_space_group_name_H-M   'P 1'
_cell_length_a   3.03309451
_cell_length_b   19.58921635
_cell_length_c   5.11197776
_cell_angle_alpha   94.72045587
_cell_angle_beta   86.04218375
_cell_angle_gamma   89.29318404
_symmetry_Int_Tables_number   1
_chemical_formula_structural   Li9Mn7O16
_chemical_formula_sum   'Li9 Mn7 O16'
_cell_volume   301.93125920
_cell_formula_units_Z   1
loop_
 _symmetry_equiv_pos_site_id
 _symmetry_equiv_pos_as_xyz
  1  'x, y, z'
loop_
 _atom_site_type_symbol
 _atom_site_label
 _atom_site_symmetry_multiplicity
 _atom_site_fract_x
 _atom_site_fract_y
 _atom_site_fract_z
 _atom_site_occupancy
  Li  Li0  1  0.94393558  0.13277466  0.70152613  1
  Li  Li1  1  0.32032043  0.36885267  0.56571642  1
  Li  Li2  1  0.68774706  0.62460878  0.43779536  1
  Li  Li3  1  0.06225294  0.87539122  0.31220464  1
  Li  Li4  1  0.42967957  0.13114733  0.18428358  1
  Li  Li5  1  0.80606442  0.36722534  0.04847387  1
  Li  Li6  1  0.18720848  0.62472742  0.93699706  1
  Li  Li7  1  0.56279152  0.87527258  0.81300294  1
  Li  Li8  1  0.37500000  0.25000000  0.87500000  1
  Mn  Mn9  1  0.99692349  0.00080466  0.99943754  1
  Mn  Mn10  1  0.87500000  0.25000000  0.37500000  1
  Mn  Mn11  1  0.75307651  0.49919534  0.75056246  1
  Mn  Mn12  1  0.12503371  0.74997549  0.62494010  1
  Mn  Mn13  1  0.49647232  0.00053420  0.49937712  1
  Mn  Mn14  1  0.25352768  0.49946580  0.25062288  1
  Mn  Mn15  1  0.62496629  0.75002451  0.12505990  1
  O  O16  1  0.44419614  0.05762364  0.83329692  1
  O  O17  1  0.83720304  0.30900712  0.69351702  1
  O  O18  1  0.19223698  0.55839685  0.58449153  1
  O  O19  1  0.56593478  0.80819142  0.45859839  1
  O  O20  1  0.94950610  0.05605567  0.33705927  1
  O  O21  1  0.38488715  0.30365966  0.24074327  1
  O  O22  1  0.69618767  0.55804047  0.08451443  1
  O  O23  1  0.06611529  0.80820768  0.95832017  1
  O  O24  1  0.36511285  0.19634034  0.50925673  1
  O  O25  1  0.80049390  0.44394433  0.41294073  1
  O  O26  1  0.18406522  0.69180858  0.29140161  1
  O  O27  1  0.55776302  0.94160315  0.16550847  1
  O  O28  1  0.91279696  0.19099288  0.05648298  1
  O  O29  1  0.30580386  0.44237636  0.91670308  1
  O  O30  1  0.68388471  0.69179232  0.79167983  1
  O  O31  1  0.05381233  0.94195953  0.66548557  1
