# generated using pymatgen
data_Al4ZnS7
_symmetry_space_group_name_H-M   'P 1'
_cell_length_a   6.17017514
_cell_length_b   6.54322756
_cell_length_c   15.23711898
_cell_angle_alpha   90.00000000
_cell_angle_beta   90.00000000
_cell_angle_gamma   90.00000000
_symmetry_Int_Tables_number   1
_chemical_formula_structural   Al4ZnS7
_chemical_formula_sum   'Al8 Zn2 S14'
_cell_volume   615.16607178
_cell_formula_units_Z   2
loop_
 _symmetry_equiv_pos_site_id
 _symmetry_equiv_pos_as_xyz
  1  'x, y, z'
loop_
 _atom_site_type_symbol
 _atom_site_label
 _atom_site_symmetry_multiplicity
 _atom_site_fract_x
 _atom_site_fract_y
 _atom_site_fract_z
 _atom_site_occupancy
  Al  Al0  1  0.57713753  0.15268561  0.12535535  1
  Al  Al1  1  0.57713753  0.15268561  0.87464465  1
  Al  Al2  1  0.07713753  0.84731439  0.37464465  1
  Al  Al3  1  0.07713753  0.84731439  0.62535535  1
  Al  Al4  1  0.57629178  0.67392338  0.24462935  1
  Al  Al5  1  0.57629178  0.67392338  0.75537065  1
  Al  Al6  1  0.07629178  0.32607662  0.25537065  1
  Al  Al7  1  0.07629178  0.32607662  0.74462935  1
  Zn  Zn8  1  0.61108579  0.74632422  0.50000000  1
  Zn  Zn9  1  0.11108579  0.25367578  0.00000000  1
  S  S10  1  0.44606912  0.81605677  0.37095874  1
  S  S11  1  0.44606912  0.81605677  0.62904126  1
  S  S12  1  0.94606912  0.18394323  0.12904126  1
  S  S13  1  0.94606912  0.18394323  0.87095874  1
  S  S14  1  0.46246446  0.83451591  0.12679554  1
  S  S15  1  0.46246446  0.83451591  0.87320446  1
  S  S16  1  0.96246446  0.16548409  0.37320446  1
  S  S17  1  0.96246446  0.16548409  0.62679554  1
  S  S18  1  0.45034730  0.34144532  0.24280140  1
  S  S19  1  0.45034730  0.34144532  0.75719860  1
  S  S20  1  0.95034730  0.65855468  0.25719860  1
  S  S21  1  0.95034730  0.65855468  0.74280140  1
  S  S22  1  0.97109384  0.67862729  0.50000000  1
  S  S23  1  0.47109384  0.32137271  -0.00000000  1
