# generated using pymatgen
data_Li9Mn7O16
_symmetry_space_group_name_H-M   'P 1'
_cell_length_a   2.86921070
_cell_length_b   19.57437842
_cell_length_c   5.40061311
_cell_angle_alpha   89.37089441
_cell_angle_beta   90.00000000
_cell_angle_gamma   85.79702478
_symmetry_Int_Tables_number   1
_chemical_formula_structural   Li9Mn7O16
_chemical_formula_sum   'Li9 Mn7 O16'
_cell_volume   302.48067511
_cell_formula_units_Z   1
loop_
 _symmetry_equiv_pos_site_id
 _symmetry_equiv_pos_as_xyz
  1  'x, y, z'
loop_
 _atom_site_type_symbol
 _atom_site_label
 _atom_site_symmetry_multiplicity
 _atom_site_fract_x
 _atom_site_fract_y
 _atom_site_fract_z
 _atom_site_occupancy
  Li  Li0  1  0.44021990  0.11956020  0.18166240  1
  Li  Li1  1  0.31271266  0.37457469  0.56289047  1
  Li  Li2  1  0.18732573  0.62534854  0.93782020  1
  Li  Li3  1  0.05935544  0.88128912  0.31729905  1
  Li  Li4  1  0.94064456  0.11871088  0.68270095  1
  Li  Li5  1  0.81267427  0.37465146  0.06217980  1
  Li  Li6  1  0.68728734  0.62542531  0.43710953  1
  Li  Li7  1  0.55978010  0.88043980  0.81833760  1
  Li  Li8  1  0.50000000  -0.00000000  0.50000000  1
  Mn  Mn9  1  0.00000000  -0.00000000  -0.00000000  1
  Mn  Mn10  1  0.87541288  0.24917423  0.37373240  1
  Mn  Mn11  1  0.74999483  0.50001034  0.75000882  1
  Mn  Mn12  1  0.62497513  0.75004974  0.12707439  1
  Mn  Mn13  1  0.37502487  0.24995026  0.87292561  1
  Mn  Mn14  1  0.25000517  0.49998966  0.24999118  1
  Mn  Mn15  1  0.12458712  0.75082577  0.62626760  1
  O  O16  1  0.47140396  0.05719208  0.85872246  1
  O  O17  1  0.34605192  0.30789615  0.23809354  1
  O  O18  1  0.22095598  0.55808804  0.61414743  1
  O  O19  1  0.09700014  0.80599973  0.98690945  1
  O  O20  1  0.97248509  0.05502982  0.29689933  1
  O  O21  1  0.84581060  0.30837881  0.73581539  1
  O  O22  1  0.72096068  0.55807863  0.11393610  1
  O  O23  1  0.59611513  0.80776974  0.48555537  1
  O  O24  1  0.40388487  0.19223026  0.51444463  1
  O  O25  1  0.27903932  0.44192137  0.88606390  1
  O  O26  1  0.15418940  0.69162119  0.26418461  1
  O  O27  1  0.02751491  0.94497018  0.70310067  1
  O  O28  1  0.90299986  0.19400027  0.01309055  1
  O  O29  1  0.77904402  0.44191196  0.38585257  1
  O  O30  1  0.65394808  0.69210385  0.76190646  1
  O  O31  1  0.52859604  0.94280792  0.14127754  1
