# generated using pymatgen
data_Sr2Ti6N2O11
_symmetry_space_group_name_H-M   'P 1'
_cell_length_a   3.81967561
_cell_length_b   7.92334216
_cell_length_c   9.30001537
_cell_angle_alpha   81.09532371
_cell_angle_beta   90.00000000
_cell_angle_gamma   76.05210403
_symmetry_Int_Tables_number   1
_chemical_formula_structural   Sr2Ti6N2O11
_chemical_formula_sum   'Sr2 Ti6 N2 O11'
_cell_volume   269.66565907
_cell_formula_units_Z   1
loop_
 _symmetry_equiv_pos_site_id
 _symmetry_equiv_pos_as_xyz
  1  'x, y, z'
loop_
 _atom_site_type_symbol
 _atom_site_label
 _atom_site_symmetry_multiplicity
 _atom_site_fract_x
 _atom_site_fract_y
 _atom_site_fract_z
 _atom_site_occupancy
  Sr  Sr0  1  0.55106327  0.89787347  0.75823141  1
  Sr  Sr1  1  0.45241078  0.09517844  0.23308513  1
  Ti  Ti2  1  0.11823237  0.76353426  0.09552919  1
  Ti  Ti3  1  0.16793042  0.66413916  0.43899654  1
  Ti  Ti4  1  0.23616281  0.52767438  0.77206962  1
  Ti  Ti5  1  0.77426524  0.45146953  0.23552408  1
  Ti  Ti6  1  0.83507588  0.32984924  0.55837047  1
  Ti  Ti7  1  0.88708021  0.22583857  0.88777471  1
  N  N8  1  0.87485809  0.25028481  0.38221954  1
  N  N9  1  0.93261896  0.13476109  0.71404802  1
  O  O10  1  0.07034510  0.85930880  0.29615276  1
  O  O11  1  0.12729161  0.74541679  0.61612000  1
  O  O12  1  0.15822243  0.68355614  0.90405231  1
  O  O13  1  0.63453686  0.73092527  0.11042152  1
  O  O14  1  0.69984362  0.60031377  0.43024242  1
  O  O15  1  0.75595746  0.48808509  0.76219468  1
  O  O16  1  0.23675833  0.52648334  0.24179581  1
  O  O17  1  0.29411193  0.41177514  0.57587107  1
  O  O18  1  0.35529658  0.28940684  0.88612701  1
  O  O19  1  0.83785210  0.32429581  0.09156688  1
  O  O20  1  0.00008595  0.99982909  0.00960583  1
