# generated using pymatgen
data_TiCr2Fe3(PO4)6
_symmetry_space_group_name_H-M   'P 1'
_cell_length_a   8.53349635
_cell_length_b   8.53349558
_cell_length_c   8.53349611
_cell_angle_alpha   60.82547394
_cell_angle_beta   60.82547277
_cell_angle_gamma   60.82546992
_symmetry_Int_Tables_number   1
_chemical_formula_structural   TiCr2Fe3(PO4)6
_chemical_formula_sum   'Ti1 Cr2 Fe3 P6 O24'
_cell_volume   447.58575157
_cell_formula_units_Z   1
loop_
 _symmetry_equiv_pos_site_id
 _symmetry_equiv_pos_as_xyz
  1  'x, y, z'
loop_
 _atom_site_type_symbol
 _atom_site_label
 _atom_site_symmetry_multiplicity
 _atom_site_fract_x
 _atom_site_fract_y
 _atom_site_fract_z
 _atom_site_occupancy
  Ti  Ti0  1  0.85445491  0.85445491  0.85445491  1
  Cr  Cr1  1  0.00094612  0.00094612  0.00094612  1
  Cr  Cr2  1  0.50081880  0.50081880  0.50081880  1
  Fe  Fe3  1  0.14650249  0.14650249  0.14650249  1
  Fe  Fe4  1  0.35380002  0.35380002  0.35380002  1
  Fe  Fe5  1  0.64598938  0.64598938  0.64598938  1
  P  P6  1  0.25031127  0.54539231  0.95336206  1
  P  P7  1  0.54539231  0.95336206  0.25031127  1
  P  P8  1  0.95336206  0.25031127  0.54539231  1
  P  P9  1  0.04659862  0.74938364  0.45277966  1
  P  P10  1  0.45277966  0.04659862  0.74938364  1
  P  P11  1  0.74938364  0.45277966  0.04659862  1
  O  O12  1  0.11006029  0.31493591  0.50822732  1
  O  O13  1  0.31493591  0.50822732  0.11006029  1
  O  O14  1  0.06103303  0.90975273  0.25714936  1
  O  O15  1  0.50822732  0.11006029  0.31493591  1
  O  O16  1  0.99553662  0.81801744  0.61590242  1
  O  O17  1  0.24450072  0.59067755  0.44560607  1
  O  O18  1  0.25714936  0.06103303  0.90975273  1
  O  O19  1  0.44560607  0.24450072  0.59067755  1
  O  O20  1  0.18174351  0.39052188  0.99421874  1
  O  O21  1  0.59067755  0.44560607  0.24450072  1
  O  O22  1  0.08849638  0.74480722  0.93696350  1
  O  O23  1  0.39052188  0.99421874  0.18174351  1
  O  O24  1  0.61590242  0.99553662  0.81801744  1
  O  O25  1  0.90975273  0.25714936  0.06103303  1
  O  O26  1  0.40928791  0.56138880  0.75384040  1
  O  O27  1  0.81801744  0.61590242  0.99553662  1
  O  O28  1  0.56138880  0.75384040  0.40928791  1
  O  O29  1  0.74480722  0.93696350  0.08849638  1
  O  O30  1  0.75384040  0.40928791  0.56138880  1
  O  O31  1  0.99421874  0.18174351  0.39052188  1
  O  O32  1  0.49494333  0.89114437  0.68090822  1
  O  O33  1  0.93696350  0.08849638  0.74480722  1
  O  O34  1  0.68090822  0.49494333  0.89114437  1
  O  O35  1  0.89114437  0.68090822  0.49494333  1
