# generated using pymatgen
data_Ti3FeCo2(PO4)6
_symmetry_space_group_name_H-M   'P 1'
_cell_length_a   8.55666051
_cell_length_b   8.66009000
_cell_length_c   8.66008965
_cell_angle_alpha   59.99999829
_cell_angle_beta   59.59934112
_cell_angle_gamma   59.59933679
_symmetry_Int_Tables_number   1
_chemical_formula_structural   Ti3FeCo2(PO4)6
_chemical_formula_sum   'Ti3 Fe1 Co2 P6 O24'
_cell_volume   451.00077560
_cell_formula_units_Z   1
loop_
 _symmetry_equiv_pos_site_id
 _symmetry_equiv_pos_as_xyz
  1  'x, y, z'
loop_
 _atom_site_type_symbol
 _atom_site_label
 _atom_site_symmetry_multiplicity
 _atom_site_fract_x
 _atom_site_fract_y
 _atom_site_fract_z
 _atom_site_occupancy
  Ti  Ti0  1  0.07083401  0.64305566  0.64305566  1
  Ti  Ti1  1  0.42601629  0.85799457  0.85799457  1
  Ti  Ti2  1  0.93057303  0.35647566  0.35647566  1
  Fe  Fe3  1  0.57311972  0.14229309  0.14229309  1
  Co  Co4  1  0.99562473  0.00145876  0.00145876  1
  Co  Co5  1  0.49826512  0.50057829  0.50057829  1
  P  P6  1  0.25271508  0.24852402  0.54135408  1
  P  P7  1  0.25271508  0.95740682  0.24852402  1
  P  P8  1  0.25271508  0.54135408  0.95740682  1
  P  P9  1  0.74965125  0.45832353  0.04251645  1
  P  P10  1  0.74965125  0.04251645  0.74950877  1
  P  P11  1  0.74965125  0.74950877  0.45832353  1
  O  O12  1  0.07108104  0.12165294  0.31110938  1
  O  O13  1  0.07108104  0.49615664  0.12165294  1
  O  O14  1  0.07108104  0.31110938  0.49615664  1
  O  O15  1  0.23201886  0.08742009  0.73737268  1
  O  O16  1  0.43425077  0.18716118  0.38513534  1
  O  O17  1  0.25961975  0.41274815  0.56327457  1
  O  O18  1  0.23201886  0.94318837  0.08742009  1
  O  O19  1  0.25961975  0.76435754  0.41274815  1
  O  O20  1  0.56914234  0.62183271  0.99652438  1
  O  O21  1  0.25961975  0.56327457  0.76435754  1
  O  O22  1  0.77159395  0.26588769  0.05281251  1
  O  O23  1  0.56914234  0.99652438  0.81250056  1
  O  O24  1  0.43425077  0.99345271  0.18716118  1
  O  O25  1  0.23201886  0.73737268  0.94318837  1
  O  O26  1  0.73350201  0.44547137  0.23519869  1
  O  O27  1  0.43425077  0.38513534  0.99345271  1
  O  O28  1  0.73350201  0.23519869  0.58582792  1
  O  O29  1  0.77159395  0.05281251  0.90970586  1
  O  O30  1  0.73350201  0.58582792  0.44547137  1
  O  O31  1  0.56914234  0.81250056  0.62183271  1
  O  O32  1  0.77159395  0.90970586  0.26588769  1
  O  O33  1  0.92828098  0.68098167  0.50914079  1
  O  O34  1  0.92828098  0.50914079  0.88159557  1
  O  O35  1  0.92828098  0.88159557  0.68098167  1
