# generated using pymatgen
data_BaDyFe4O7
_symmetry_space_group_name_H-M   'P 1'
_cell_length_a   6.35411241
_cell_length_b   6.35411241
_cell_length_c   6.47699263
_cell_angle_alpha   119.37438196
_cell_angle_beta   119.37438206
_cell_angle_gamma   90.00000000
_symmetry_Int_Tables_number   1
_chemical_formula_structural   BaDyFe4O7
_chemical_formula_sum   'Ba1 Dy1 Fe4 O7'
_cell_volume   188.35610430
_cell_formula_units_Z   1
loop_
 _symmetry_equiv_pos_site_id
 _symmetry_equiv_pos_as_xyz
  1  'x, y, z'
loop_
 _atom_site_type_symbol
 _atom_site_label
 _atom_site_symmetry_multiplicity
 _atom_site_fract_x
 _atom_site_fract_y
 _atom_site_fract_z
 _atom_site_occupancy
  Ba  Ba0  1  0.25000000  0.75000000  0.50000000  1
  Dy  Dy1  1  -0.00000000  -0.00000000  -0.00000000  1
  Fe  Fe2  1  0.13927451  0.40865893  0.76004673  1
  Fe  Fe3  1  0.62077222  0.35138780  0.76004673  1
  Fe  Fe4  1  0.64861220  0.86072549  0.23995327  1
  Fe  Fe5  1  0.59134107  0.37922778  0.23995327  1
  O  O6  1  0.82414887  0.72518899  0.04705344  1
  O  O7  1  0.22290457  0.32186446  0.04705344  1
  O  O8  1  0.67813554  0.17585113  0.95294656  1
  O  O9  1  0.27481101  0.77709543  0.95294656  1
  O  O10  1  0.75466392  0.75466392  0.50932784  1
  O  O11  1  0.24533608  0.24533608  0.49067216  1
  O  O12  1  0.75000000  0.25000000  0.50000000  1
