# generated using pymatgen
data_Li7Mn2(CoO4)3
_symmetry_space_group_name_H-M   'P 1'
_cell_length_a   3.02416832
_cell_length_b   7.60937025
_cell_length_c   9.80454855
_cell_angle_alpha   89.70041872
_cell_angle_beta   81.12827967
_cell_angle_gamma   101.46173791
_symmetry_Int_Tables_number   1
_chemical_formula_structural   Li7Mn2(CoO4)3
_chemical_formula_sum   'Li7 Mn2 Co3 O12'
_cell_volume   218.32750545
_cell_formula_units_Z   1
loop_
 _symmetry_equiv_pos_site_id
 _symmetry_equiv_pos_as_xyz
  1  'x, y, z'
loop_
 _atom_site_type_symbol
 _atom_site_label
 _atom_site_symmetry_multiplicity
 _atom_site_fract_x
 _atom_site_fract_y
 _atom_site_fract_z
 _atom_site_occupancy
  Li  Li0  1  0.59064962  0.92009904  0.73879879  1
  Li  Li1  1  0.40843570  0.08137722  0.26450682  1
  Li  Li2  1  0.25863834  0.25337115  0.73609446  1
  Li  Li3  1  0.07695812  0.41318844  0.25927120  1
  Li  Li4  1  0.74369276  0.74679971  0.25941419  1
  Li  Li5  1  0.92244609  0.58633642  0.74144523  1
  Li  Li6  1  0.83273823  0.16612546  0.50064801  1
  Mn  Mn7  1  0.00103506  0.00257234  0.00050222  1
  Mn  Mn8  1  0.33155108  0.66417950  0.00107634  1
  Co  Co9  1  0.66714979  0.33246261  0.99816403  1
  Co  Co10  1  0.49236631  0.48870283  0.50397020  1
  Co  Co11  1  0.17414102  0.84440354  0.49612250  1
  O  O12  1  0.38008610  0.87309335  0.11292215  1
  O  O13  1  0.19944433  0.01515936  0.61627070  1
  O  O14  1  0.04600976  0.20644271  0.11442220  1
  O  O15  1  0.88401375  0.38413424  0.61610774  1
  O  O16  1  0.54461946  0.69715600  0.60791608  1
  O  O17  1  0.71271206  0.53947908  0.11405497  1
  O  O18  1  0.78267704  0.94887483  0.38352076  1
  O  O19  1  0.62338337  0.12967613  0.88290840  1
  O  O20  1  0.46695725  0.31816902  0.38425551  1
  O  O21  1  0.28732256  0.46124463  0.88659951  1
  O  O22  1  0.95154543  0.79160728  0.88851743  1
  O  O23  1  0.12142676  0.63534510  0.39249058  1
