# generated using pymatgen
data_Fe(PO3)4
_symmetry_space_group_name_H-M   'P 1'
_cell_length_a   8.51840334
_cell_length_b   8.51840308
_cell_length_c   7.66128056
_cell_angle_alpha   83.09890757
_cell_angle_beta   96.90109227
_cell_angle_gamma   69.07424983
_symmetry_Int_Tables_number   1
_chemical_formula_structural   Fe(PO3)4
_chemical_formula_sum   'Fe2 P8 O24'
_cell_volume   507.46439135
_cell_formula_units_Z   2
loop_
 _symmetry_equiv_pos_site_id
 _symmetry_equiv_pos_as_xyz
  1  'x, y, z'
loop_
 _atom_site_type_symbol
 _atom_site_label
 _atom_site_symmetry_multiplicity
 _atom_site_fract_x
 _atom_site_fract_y
 _atom_site_fract_z
 _atom_site_occupancy
  Fe  Fe0  1  0.86852243  0.86852243  0.25000000  1
  Fe  Fe1  1  0.13147757  0.13147757  0.75000000  1
  P  P2  1  0.76010802  0.56392121  0.12888314  1
  P  P3  1  0.20136814  0.95210515  0.16599135  1
  P  P4  1  0.23989198  0.43607879  0.87111686  1
  P  P5  1  0.95210515  0.20136814  0.33400865  1
  P  P6  1  0.04789485  0.79863186  0.66599135  1
  P  P7  1  0.79863186  0.04789485  0.83400865  1
  P  P8  1  0.56392121  0.76010802  0.37111686  1
  P  P9  1  0.43607879  0.23989198  0.62888314  1
  O  O10  1  0.85602742  0.08305361  0.34076491  1
  O  O11  1  0.26051920  0.99780858  0.99720437  1
  O  O12  1  0.84235733  0.36151232  0.18129668  1
  O  O13  1  0.91694639  0.14397258  0.84076491  1
  O  O14  1  0.08305361  0.85602742  0.15923509  1
  O  O15  1  0.00219142  0.73948080  0.49720437  1
  O  O16  1  0.61099498  0.61099498  0.25000000  1
  O  O17  1  0.15764267  0.63848768  0.81870332  1
  O  O18  1  0.14397258  0.91694639  0.65923509  1
  O  O19  1  0.87862189  0.87862189  0.75000000  1
  O  O20  1  0.64041762  0.88998619  0.31771890  1
  O  O21  1  0.33348662  0.38895915  0.05999962  1
  O  O22  1  0.11001381  0.35958238  0.81771990  1
  O  O23  1  0.61104085  0.66651338  0.55999962  1
  O  O24  1  0.38895915  0.33348662  0.44000038  1
  O  O25  1  0.73948080  0.00219142  0.00279563  1
  O  O26  1  0.36151232  0.84235733  0.31870332  1
  O  O27  1  0.38900502  0.38900502  0.75000000  1
  O  O28  1  0.12137811  0.12137811  0.25000000  1
  O  O29  1  0.35958238  0.11001381  0.68228010  1
  O  O30  1  0.88998619  0.64041762  0.18228010  1
  O  O31  1  0.63848768  0.15764267  0.68129668  1
  O  O32  1  0.99780858  0.26051920  0.50279563  1
  O  O33  1  0.66651338  0.61104085  0.94000038  1
