# generated using pymatgen
data_Tl(SbO3)2
_symmetry_space_group_name_H-M   'P 1'
_cell_length_a   7.41066007
_cell_length_b   7.41066007
_cell_length_c   7.41066007
_cell_angle_alpha   59.84672970
_cell_angle_beta   90.69586718
_cell_angle_gamma   120.65250591
_symmetry_Int_Tables_number   1
_chemical_formula_structural   Tl(SbO3)2
_chemical_formula_sum   'Tl2 Sb4 O12'
_cell_volume   285.99451924
_cell_formula_units_Z   2
loop_
 _symmetry_equiv_pos_site_id
 _symmetry_equiv_pos_as_xyz
  1  'x, y, z'
loop_
 _atom_site_type_symbol
 _atom_site_label
 _atom_site_symmetry_multiplicity
 _atom_site_fract_x
 _atom_site_fract_y
 _atom_site_fract_z
 _atom_site_occupancy
  Tl  Tl0  1  0.50000000  0.00000000  0.50000000  1
  Tl  Tl1  1  -0.00000000  0.50000000  0.50000000  1
  Sb  Sb2  1  -0.00000000  0.00000000  0.00000000  1
  Sb  Sb3  1  0.50000000  0.50000000  0.00000000  1
  Sb  Sb4  1  -0.00000000  0.50000000  0.00000000  1
  Sb  Sb5  1  -0.00000000  0.00000000  0.50000000  1
  O  O6  1  0.92639935  0.25000000  0.32360065  1
  O  O7  1  0.67523427  0.34660450  0.08292046  1
  O  O8  1  0.68236728  0.75000000  0.06763272  1
  O  O9  1  0.32476573  0.24184426  0.32862977  1
  O  O10  1  0.92952496  0.25815574  0.91707954  1
  O  O11  1  0.92952496  0.84660450  0.32862977  1
  O  O12  1  0.07047504  0.74184426  0.08292046  1
  O  O13  1  0.07047504  0.15339550  0.67137023  1
  O  O14  1  0.67523427  0.75815574  0.67137023  1
  O  O15  1  0.31763272  0.25000000  0.93236728  1
  O  O16  1  0.32476573  0.65339550  0.91707954  1
  O  O17  1  0.07360065  0.75000000  0.67639935  1
