# generated using pymatgen
data_V14Fe5O32
_symmetry_space_group_name_H-M   'P 1'
_cell_length_a   5.91831606
_cell_length_b   5.92367119
_cell_length_c   18.87043404
_cell_angle_alpha   89.68007882
_cell_angle_beta   89.90769179
_cell_angle_gamma   118.93066472
_symmetry_Int_Tables_number   1
_chemical_formula_structural   V14Fe5O32
_chemical_formula_sum   'V14 Fe5 O32'
_cell_volume   578.98739320
_cell_formula_units_Z   1
loop_
 _symmetry_equiv_pos_site_id
 _symmetry_equiv_pos_as_xyz
  1  'x, y, z'
loop_
 _atom_site_type_symbol
 _atom_site_label
 _atom_site_symmetry_multiplicity
 _atom_site_fract_x
 _atom_site_fract_y
 _atom_site_fract_z
 _atom_site_occupancy
  V  V0  1  0.16366398  0.83816951  0.81484745  1
  V  V1  1  0.33278370  0.66822589  0.17748445  1
  V  V2  1  0.17126446  0.30927528  0.32711059  1
  V  V3  1  0.16130954  0.31872591  0.81640147  1
  V  V4  1  0.68179616  0.84237690  0.31523971  1
  V  V5  1  0.68084001  0.83847090  0.81611687  1
  V  V6  1  0.31713609  0.16066909  0.06994031  1
  V  V7  1  0.32434092  0.16629038  0.56959060  1
  V  V8  1  0.83503528  0.67543653  0.06867214  1
  V  V9  1  0.67794504  0.32414672  0.23024020  1
  V  V10  1  0.83448627  0.67577321  0.57023098  1
  V  V11  1  0.68164070  0.35909430  0.42575550  1
  V  V12  1  0.83413466  0.16109167  0.06903045  1
  V  V13  1  0.84032068  0.16217727  0.56585014  1
  Fe  Fe14  1  0.33384889  0.66683127  0.67569434  1
  Fe  Fe15  1  0.33793721  0.67775840  0.47144553  1
  Fe  Fe16  1  0.33241172  0.66982918  0.97668638  1
  Fe  Fe17  1  0.67038187  0.33418669  0.72890014  1
  Fe  Fe18  1  0.66214689  0.33228898  0.92359053  1
  O  O19  1  0.17101221  0.82941428  0.11926960  1
  O  O20  1  0.17018515  0.82945219  0.61650131  1
  O  O21  1  0.01378570  0.47771441  0.24309920  1
  O  O22  1  0.04727348  0.51952031  0.75369004  1
  O  O23  1  0.34777415  0.65979255  0.37153299  1
  O  O24  1  0.33351723  0.66459359  0.87567013  1
  O  O25  1  0.98871584  0.01278328  0.51342091  1
  O  O26  1  0.00765685  0.99345646  0.01483524  1
  O  O27  1  0.97430223  0.98931732  0.27053846  1
  O  O28  1  0.99481950  0.00956163  0.76054941  1
  O  O29  1  0.18009224  0.33198093  0.11952461  1
  O  O30  1  0.16663671  0.33716219  0.61952544  1
  O  O31  1  0.51184078  0.98186244  0.24503196  1
  O  O32  1  0.48371724  0.95489955  0.75315835  1
  O  O33  1  0.48548572  0.50940541  0.25243342  1
  O  O34  1  0.47929772  0.52140236  0.75175685  1
  O  O35  1  0.66335275  0.83372804  0.61979106  1
  O  O36  1  0.66167981  0.81996678  0.12020068  1
  O  O37  1  0.34726532  0.20129386  0.37483131  1
  O  O38  1  0.32610727  0.17696813  0.86662875  1
  O  O39  1  0.50824120  0.48557215  0.00610778  1
  O  O40  1  0.51694840  0.49024203  0.50193531  1
  O  O41  1  0.50684212  0.02622117  0.00813491  1
  O  O42  1  0.51751434  0.03884228  0.49832182  1
  O  O43  1  0.66189005  0.33498479  0.12775066  1
  O  O44  1  0.79005010  0.63741290  0.37682785  1
  O  O45  1  0.82269742  0.67568319  0.86606202  1
  O  O46  1  0.67357299  0.32232723  0.61905361  1
  O  O47  1  0.97331781  0.49006914  0.00696631  1
  O  O48  1  0.97360271  0.48835602  0.49898997  1
  O  O49  1  0.82831957  0.17503782  0.37023641  1
  O  O50  1  0.83228129  0.16753748  0.86372485  1
