# generated using pymatgen
data_ZrU4O10
_symmetry_space_group_name_H-M   'P 1'
_cell_length_a   3.81883276
_cell_length_b   6.59000571
_cell_length_c   15.63546732
_cell_angle_alpha   93.99506122
_cell_angle_beta   97.01451805
_cell_angle_gamma   90.00000000
_symmetry_Int_Tables_number   1
_chemical_formula_structural   ZrU4O10
_chemical_formula_sum   'Zr2 U8 O20'
_cell_volume   389.57569204
_cell_formula_units_Z   2
loop_
 _symmetry_equiv_pos_site_id
 _symmetry_equiv_pos_as_xyz
  1  'x, y, z'
loop_
 _atom_site_type_symbol
 _atom_site_label
 _atom_site_symmetry_multiplicity
 _atom_site_fract_x
 _atom_site_fract_y
 _atom_site_fract_z
 _atom_site_occupancy
  Zr  Zr0  1  0.80040613  0.60045809  0.60081125  1
  Zr  Zr1  1  0.99959387  0.99954191  0.99918875  1
  U  U2  1  0.40000000  0.80000000  0.80000000  1
  U  U3  1  0.90000000  0.30000000  0.80000000  1
  U  U4  1  0.70057967  0.89916404  0.40115934  1
  U  U5  1  0.09942033  0.70083596  0.19884066  1
  U  U6  1  0.30026280  0.09988464  0.60052559  1
  U  U7  1  0.20112574  0.40057095  0.40225147  1
  U  U8  1  0.59887426  0.19942905  0.19774853  1
  U  U9  1  0.49973720  0.50011536  0.99947441  1
  O  O10  1  0.92656485  0.97337592  0.85312970  1
  O  O11  1  0.47568945  0.83230728  0.95137789  1
  O  O12  1  0.32431055  0.76769272  0.64862211  1
  O  O13  1  0.97582962  0.31770972  0.95165924  1
  O  O14  1  0.77650011  0.91790554  0.55300022  1
  O  O15  1  0.87343515  0.62662408  0.74687030  1
  O  O16  1  0.42496962  0.47669721  0.84994024  1
  O  O17  1  0.72759109  0.57532841  0.45518219  1
  O  O18  1  0.37503038  0.12330279  0.75005976  1
  O  O19  1  0.17524052  0.72437177  0.35048005  1
  O  O20  1  0.62475948  0.87562823  0.24951995  1
  O  O21  1  0.27672571  0.43277806  0.55345142  1
  O  O22  1  0.82417038  0.28229028  0.64834076  1
  O  O23  1  0.12472188  0.37426854  0.24944376  1
  O  O24  1  0.02349989  0.68209446  0.04699978  1
  O  O25  1  0.22587931  0.07598578  0.45175862  1
  O  O26  1  0.57412069  0.52401422  0.14824138  1
  O  O27  1  0.67527812  0.22573146  0.35055624  1
  O  O28  1  0.07240891  0.02467159  0.14481781  1
  O  O29  1  0.52327429  0.16722194  0.04654858  1
