# generated using pymatgen
data_Li9Mn2Co5O16
_symmetry_space_group_name_H-M   'P 1'
_cell_length_a   3.01181342
_cell_length_b   5.00669874
_cell_length_c   19.57539330
_cell_angle_alpha   92.88572041
_cell_angle_beta   82.21838380
_cell_angle_gamma   91.26082132
_symmetry_Int_Tables_number   1
_chemical_formula_structural   Li9Mn2Co5O16
_chemical_formula_sum   'Li9 Mn2 Co5 O16'
_cell_volume   292.05860139
_cell_formula_units_Z   1
loop_
 _symmetry_equiv_pos_site_id
 _symmetry_equiv_pos_as_xyz
  1  'x, y, z'
loop_
 _atom_site_type_symbol
 _atom_site_label
 _atom_site_symmetry_multiplicity
 _atom_site_fract_x
 _atom_site_fract_y
 _atom_site_fract_z
 _atom_site_occupancy
  Li  Li0  1  0.87050240  0.37537725  0.12752173  1
  Li  Li1  1  0.12577810  0.62067817  0.37954081  1
  Li  Li2  1  0.38077611  0.87060951  0.62012865  1
  Li  Li3  1  0.62947088  0.12445664  0.87251889  1
  Li  Li4  1  0.37052912  0.87554336  0.12748111  1
  Li  Li5  1  0.61922389  0.12939049  0.37987135  1
  Li  Li6  1  0.87422190  0.37932183  0.62045919  1
  Li  Li7  1  0.12949760  0.62462275  0.87247827  1
  Li  Li8  1  0.50000000  0.50000000  0.50000000  1
  Mn  Mn9  1  -0.00000000  -0.00000000  0.00000000  1
  Mn  Mn10  1  0.50000000  0.50000000  0.00000000  1
  Co  Co11  1  0.24863716  0.24999867  0.25158210  1
  Co  Co12  1  0.75136284  0.75000133  0.74841790  1
  Co  Co13  1  0.74918771  0.75028562  0.25117486  1
  Co  Co14  1  -0.00000000  -0.00000000  0.50000000  1
  Co  Co15  1  0.25081229  0.24971438  0.74882514  1
  O  O16  1  0.39736364  0.19418843  0.05881971  1
  O  O17  1  0.69767933  0.44465235  0.30968187  1
  O  O18  1  0.94265622  0.72374592  0.55548538  1
  O  O19  1  0.20002966  0.94361333  0.80723416  1
  O  O20  1  0.89727375  0.69418635  0.05891401  1
  O  O21  1  0.19963145  0.94131602  0.30774238  1
  O  O22  1  0.45959025  0.16498126  0.55298509  1
  O  O23  1  0.69998392  0.44521094  0.80702175  1
  O  O24  1  0.30001608  0.55478906  0.19297825  1
  O  O25  1  0.54040975  0.83501874  0.44701491  1
  O  O26  1  0.80036855  0.05868398  0.69225762  1
  O  O27  1  0.10272625  0.30581365  0.94108599  1
  O  O28  1  0.79997034  0.05638667  0.19276584  1
  O  O29  1  0.05734378  0.27625408  0.44451462  1
  O  O30  1  0.30232067  0.55534765  0.69031813  1
  O  O31  1  0.60263636  0.80581157  0.94118029  1
