# generated using pymatgen
data_Ce4(FeB2)3
_symmetry_space_group_name_H-M   'P 1'
_cell_length_a   5.24962184
_cell_length_b   5.24962184
_cell_length_c   7.95895772
_cell_angle_alpha   70.74376958
_cell_angle_beta   70.74376958
_cell_angle_gamma   59.99999798
_symmetry_Int_Tables_number   1
_chemical_formula_structural   Ce4(FeB2)3
_chemical_formula_sum   'Ce4 Fe3 B6'
_cell_volume   175.63914121
_cell_formula_units_Z   1
loop_
 _symmetry_equiv_pos_site_id
 _symmetry_equiv_pos_as_xyz
  1  'x, y, z'
loop_
 _atom_site_type_symbol
 _atom_site_label
 _atom_site_symmetry_multiplicity
 _atom_site_fract_x
 _atom_site_fract_y
 _atom_site_fract_z
 _atom_site_occupancy
  Ce  Ce0  1  0.26028224  0.26028224  0.21915328  1
  Ce  Ce1  1  0.73971776  0.73971776  0.78084672  1
  Ce  Ce2  1  0.40552616  0.40552616  0.78342152  1
  Ce  Ce3  1  0.59447384  0.59447384  0.21657848  1
  Fe  Fe4  1  -0.00000000  -0.00000000  0.00000000  1
  Fe  Fe5  1  0.11252611  0.11252611  0.66242167  1
  Fe  Fe6  1  0.88747389  0.88747389  0.33757833  1
  B  B7  1  0.16828696  0.83171304  0.50000000  1
  B  B8  1  0.83171304  0.50000000  0.50000000  1
  B  B9  1  0.50000000  0.16828696  0.50000000  1
  B  B10  1  0.16828696  0.50000000  0.50000000  1
  B  B11  1  0.50000000  0.83171304  0.50000000  1
  B  B12  1  0.83171304  0.16828696  0.50000000  1
