# generated using pymatgen
data_Y(Mo3Se4)2
_symmetry_space_group_name_H-M   'P 1'
_cell_length_a   6.78437202
_cell_length_b   6.78437202
_cell_length_c   6.78437174
_cell_angle_alpha   89.23844476
_cell_angle_beta   89.23844476
_cell_angle_gamma   89.23844929
_symmetry_Int_Tables_number   1
_chemical_formula_structural   Y(Mo3Se4)2
_chemical_formula_sum   'Y1 Mo6 Se8'
_cell_volume   312.18702796
_cell_formula_units_Z   1
loop_
 _symmetry_equiv_pos_site_id
 _symmetry_equiv_pos_as_xyz
  1  'x, y, z'
loop_
 _atom_site_type_symbol
 _atom_site_label
 _atom_site_symmetry_multiplicity
 _atom_site_fract_x
 _atom_site_fract_y
 _atom_site_fract_z
 _atom_site_occupancy
  Y  Y0  1  -0.00000000  0.00000000  -0.00000000  1
  Mo  Mo1  1  0.57731355  0.76596236  0.44089879  1
  Mo  Mo2  1  0.76596236  0.44089879  0.57731355  1
  Mo  Mo3  1  0.44089879  0.57731355  0.76596236  1
  Mo  Mo4  1  0.42268645  0.23403764  0.55910121  1
  Mo  Mo5  1  0.23403764  0.55910121  0.42268645  1
  Mo  Mo6  1  0.55910121  0.42268645  0.23403764  1
  Se  Se7  1  0.76309202  0.76309202  0.76309202  1
  Se  Se8  1  0.23690798  0.23690798  0.23690798  1
  Se  Se9  1  0.62818840  0.24440190  0.87762090  1
  Se  Se10  1  0.24440190  0.87762090  0.62818840  1
  Se  Se11  1  0.87762090  0.62818840  0.24440190  1
  Se  Se12  1  0.37181160  0.75559810  0.12237910  1
  Se  Se13  1  0.75559810  0.12237910  0.37181160  1
  Se  Se14  1  0.12237910  0.37181160  0.75559810  1
