# generated using pymatgen
data_BaHoFe4O7
_symmetry_space_group_name_H-M   'P 1'
_cell_length_a   6.33948999
_cell_length_b   6.33948999
_cell_length_c   6.46435975
_cell_angle_alpha   119.36304150
_cell_angle_beta   119.36304150
_cell_angle_gamma   90.00000000
_symmetry_Int_Tables_number   1
_chemical_formula_structural   BaHoFe4O7
_chemical_formula_sum   'Ba1 Ho1 Fe4 O7'
_cell_volume   187.18552191
_cell_formula_units_Z   1
loop_
 _symmetry_equiv_pos_site_id
 _symmetry_equiv_pos_as_xyz
  1  'x, y, z'
loop_
 _atom_site_type_symbol
 _atom_site_label
 _atom_site_symmetry_multiplicity
 _atom_site_fract_x
 _atom_site_fract_y
 _atom_site_fract_z
 _atom_site_occupancy
  Ba  Ba0  1  0.25000000  0.75000000  0.50000000  1
  Ho  Ho1  1  -0.00000000  0.00000000  -0.00000000  1
  Fe  Fe2  1  0.13958364  0.40813154  0.75992194  1
  Fe  Fe3  1  0.62033829  0.35179039  0.75992194  1
  Fe  Fe4  1  0.64820961  0.86041636  0.24007806  1
  Fe  Fe5  1  0.59186846  0.37966171  0.24007806  1
  O  O6  1  0.82438503  0.72616061  0.04683571  1
  O  O7  1  0.22245068  0.32067509  0.04683571  1
  O  O8  1  0.67932491  0.17561497  0.95316429  1
  O  O9  1  0.27383939  0.77754932  0.95316429  1
  O  O10  1  0.75539382  0.75539382  0.51078765  1
  O  O11  1  0.24460618  0.24460618  0.48921235  1
  O  O12  1  0.75000000  0.25000000  0.50000000  1
