# generated using pymatgen
data_Na2MnP2O7F3
_symmetry_space_group_name_H-M   'P 1'
_cell_length_a   4.64859716
_cell_length_b   6.15621997
_cell_length_c   7.97397635
_cell_angle_alpha   105.07463591
_cell_angle_beta   97.14285244
_cell_angle_gamma   105.93520093
_symmetry_Int_Tables_number   1
_chemical_formula_structural   Na2MnP2O7F3
_chemical_formula_sum   'Na2 Mn1 P2 O7 F3'
_cell_volume   207.11534204
_cell_formula_units_Z   1
loop_
 _symmetry_equiv_pos_site_id
 _symmetry_equiv_pos_as_xyz
  1  'x, y, z'
loop_
 _atom_site_type_symbol
 _atom_site_label
 _atom_site_symmetry_multiplicity
 _atom_site_fract_x
 _atom_site_fract_y
 _atom_site_fract_z
 _atom_site_occupancy
  Na  Na0  1  0.84922899  0.11582456  0.33813159  1
  Na  Na1  1  0.24930099  0.82949672  0.92701244  1
  Mn  Mn2  1  0.55536735  0.48030008  0.15403747  1
  P  P3  1  0.91626010  0.24390444  0.87926366  1
  P  P4  1  0.19616025  0.71427298  0.43986188  1
  O  O5  1  0.21349801  0.45582705  0.97177672  1
  O  O6  1  0.66917348  0.23452477  0.99491434  1
  O  O7  1  0.44513424  0.72076051  0.32394109  1
  O  O8  1  0.29692626  0.66927553  0.61342706  1
  O  O9  1  0.89197995  0.50849016  0.33664579  1
  O  O10  1  0.94589382  0.00512921  0.80969640  1
  O  O11  1  0.16475889  0.96281934  0.48160740  1
  F  F12  1  0.31919684  0.22810847  0.21656728  1
  F  F13  1  0.78627812  0.73275157  0.09093353  1
  F  F14  1  0.79004271  0.32611460  0.72078336  1
