# generated using pymatgen
data_Ce2Te5
_symmetry_space_group_name_H-M   'P 1'
_cell_length_a   4.41733274
_cell_length_b   4.41749272
_cell_length_c   21.81827807
_cell_angle_alpha   90.00000000
_cell_angle_beta   95.81000923
_cell_angle_gamma   90.00000000
_symmetry_Int_Tables_number   1
_chemical_formula_structural   Ce2Te5
_chemical_formula_sum   'Ce4 Te10'
_cell_volume   423.56466777
_cell_formula_units_Z   2
loop_
 _symmetry_equiv_pos_site_id
 _symmetry_equiv_pos_as_xyz
  1  'x, y, z'
loop_
 _atom_site_type_symbol
 _atom_site_label
 _atom_site_symmetry_multiplicity
 _atom_site_fract_x
 _atom_site_fract_y
 _atom_site_fract_z
 _atom_site_occupancy
  Ce  Ce0  1  0.90330396  0.75000000  0.80660793  1
  Ce  Ce1  1  0.09669604  0.25000000  0.19339207  1
  Ce  Ce2  1  0.69282363  0.75000000  0.38564726  1
  Ce  Ce3  1  0.30717637  0.25000000  0.61435274  1
  Te  Te4  1  0.04189324  0.75000000  0.08378648  1
  Te  Te5  1  0.95810676  0.25000000  0.91621352  1
  Te  Te6  1  0.45781560  0.75000000  0.91563120  1
  Te  Te7  1  0.54218440  0.25000000  0.08436880  1
  Te  Te8  1  0.24999034  0.75000000  0.49998068  1
  Te  Te9  1  0.75000966  0.25000000  0.50001932  1
  Te  Te10  1  0.82660779  0.75000000  0.65321558  1
  Te  Te11  1  0.17339221  0.25000000  0.34678442  1
  Te  Te12  1  0.61827353  0.75000000  0.23654706  1
  Te  Te13  1  0.38172647  0.25000000  0.76345294  1
