# generated using pymatgen
data_Li9Mn2Co5O16
_symmetry_space_group_name_H-M   'P 1'
_cell_length_a   3.01553915
_cell_length_b   19.44290618
_cell_length_c   5.00155814
_cell_angle_alpha   94.84168564
_cell_angle_beta   88.78554532
_cell_angle_gamma   86.83055246
_symmetry_Int_Tables_number   1
_chemical_formula_structural   Li9Mn2Co5O16
_chemical_formula_sum   'Li9 Mn2 Co5 O16'
_cell_volume   291.65366362
_cell_formula_units_Z   1
loop_
 _symmetry_equiv_pos_site_id
 _symmetry_equiv_pos_as_xyz
  1  'x, y, z'
loop_
 _atom_site_type_symbol
 _atom_site_label
 _atom_site_symmetry_multiplicity
 _atom_site_fract_x
 _atom_site_fract_y
 _atom_site_fract_z
 _atom_site_occupancy
  Li  Li0  1  0.93264304  0.12740998  0.68849488  1
  Li  Li1  1  0.31555306  0.37960433  0.56931836  1
  Li  Li2  1  0.69253098  0.62010013  0.43925450  1
  Li  Li3  1  0.06722814  0.87257826  0.31185057  1
  Li  Li4  1  0.43277186  0.12742174  0.18814943  1
  Li  Li5  1  0.80746902  0.37989987  0.06074550  1
  Li  Li6  1  0.18444694  0.62039567  0.93068164  1
  Li  Li7  1  0.56735696  0.87259002  0.81150512  1
  Li  Li8  1  0.75000000  0.50000000  0.75000000  1
  Mn  Mn9  1  0.00006776  0.99999305  -0.00007259  1
  Mn  Mn10  1  0.49993224  0.00000695  0.50007259  1
  Co  Co11  1  0.37437730  0.25176492  0.87624039  1
  Co  Co12  1  0.12562270  0.74823508  0.62375961  1
  Co  Co13  1  0.87435302  0.25144804  0.37567709  1
  Co  Co14  1  0.25000000  0.50000000  0.25000000  1
  Co  Co15  1  0.62564698  0.74855196  0.12432291  1
  O  O16  1  0.42815054  0.05876733  0.83584395  1
  O  O17  1  0.85333359  0.30978590  0.70999807  1
  O  O18  1  0.21978160  0.55566046  0.55359133  1
  O  O19  1  0.60412955  0.80677850  0.45917784  1
  O  O20  1  0.92813641  0.05891962  0.33598178  1
  O  O21  1  0.35484384  0.30805452  0.21228817  1
  O  O22  1  0.73289965  0.55337658  0.11253985  1
  O  O23  1  0.10416370  0.80658893  0.95796441  1
  O  O24  1  0.39583630  0.19341107  0.54203559  1
  O  O25  1  0.76710035  0.44662342  0.38746015  1
  O  O26  1  0.14515616  0.69194548  0.28771183  1
  O  O27  1  0.57186359  0.94108038  0.16401822  1
  O  O28  1  0.89587045  0.19322150  0.04082216  1
  O  O29  1  0.28021840  0.44433954  0.94640867  1
  O  O30  1  0.64666641  0.69021410  0.79000193  1
  O  O31  1  0.07184946  0.94123267  0.66415605  1
