# generated using pymatgen
data_CsV5Se8
_symmetry_space_group_name_H-M   'P 1'
_cell_length_a   3.88872414
_cell_length_b   8.99354285
_cell_length_c   9.51893052
_cell_angle_alpha   104.75844147
_cell_angle_beta   101.78633853
_cell_angle_gamma   89.99999999
_symmetry_Int_Tables_number   1
_chemical_formula_structural   CsV5Se8
_chemical_formula_sum   'Cs1 V5 Se8'
_cell_volume   314.66229985
_cell_formula_units_Z   1
loop_
 _symmetry_equiv_pos_site_id
 _symmetry_equiv_pos_as_xyz
  1  'x, y, z'
loop_
 _atom_site_type_symbol
 _atom_site_label
 _atom_site_symmetry_multiplicity
 _atom_site_fract_x
 _atom_site_fract_y
 _atom_site_fract_z
 _atom_site_occupancy
  Cs  Cs0  1  0.50000000  0.50000000  0.00000000  1
  V  V1  1  0.00000000  0.00000000  0.00000000  1
  V  V2  1  0.65499888  0.99311088  0.30999777  1
  V  V3  1  0.34500112  0.00688912  0.69000223  1
  V  V4  1  0.71161788  0.34730527  0.42323577  1
  V  V5  1  0.28838212  0.65269473  0.57676423  1
  Se  Se6  1  0.42866581  0.83608497  0.85733162  1
  Se  Se7  1  0.57133419  0.16391503  0.14266838  1
  Se  Se8  1  0.90642826  0.16370103  0.81285652  1
  Se  Se9  1  0.09357174  0.83629897  0.18714348  1
  Se  Se10  1  0.83541184  0.52165832  0.67082367  1
  Se  Se11  1  0.16458816  0.47834168  0.32917633  1
  Se  Se12  1  0.75950443  0.83673700  0.51900887  1
  Se  Se13  1  0.24049557  0.16326300  0.48099113  1
