# generated using pymatgen
data_GdMoC2
_symmetry_space_group_name_H-M   'P 1'
_cell_length_a   3.44343614
_cell_length_b   5.72744772
_cell_length_c   10.81953557
_cell_angle_alpha   90.00000000
_cell_angle_beta   90.00000000
_cell_angle_gamma   90.00000000
_symmetry_Int_Tables_number   1
_chemical_formula_structural   GdMoC2
_chemical_formula_sum   'Gd4 Mo4 C8'
_cell_volume   213.38396754
_cell_formula_units_Z   4
loop_
 _symmetry_equiv_pos_site_id
 _symmetry_equiv_pos_as_xyz
  1  'x, y, z'
loop_
 _atom_site_type_symbol
 _atom_site_label
 _atom_site_symmetry_multiplicity
 _atom_site_fract_x
 _atom_site_fract_y
 _atom_site_fract_z
 _atom_site_occupancy
  Gd  Gd0  1  0.75000000  0.41495037  0.63849320  1
  Gd  Gd1  1  0.75000000  0.91495037  0.86150680  1
  Gd  Gd2  1  0.25000000  0.58504963  0.36150680  1
  Gd  Gd3  1  0.25000000  0.08504963  0.13849320  1
  Mo  Mo4  1  0.75000000  0.09359154  0.39129832  1
  Mo  Mo5  1  0.75000000  0.59359154  0.10870168  1
  Mo  Mo6  1  0.25000000  0.90640846  0.60870168  1
  Mo  Mo7  1  0.25000000  0.40640846  0.89129832  1
  C  C8  1  0.75000000  0.34144780  0.25210584  1
  C  C9  1  0.75000000  0.84144780  0.24789416  1
  C  C10  1  0.25000000  0.65855220  0.74789416  1
  C  C11  1  0.25000000  0.15855220  0.75210584  1
  C  C12  1  0.75000000  0.78141899  0.51867580  1
  C  C13  1  0.75000000  0.28141899  0.98132420  1
  C  C14  1  0.25000000  0.21858101  0.48132420  1
  C  C15  1  0.25000000  0.71858101  0.01867580  1
