# generated using pymatgen
data_K2YCuCl6
_symmetry_space_group_name_H-M   'P 1'
_cell_length_a   7.31921988
_cell_length_b   7.31921978
_cell_length_c   7.31921992
_cell_angle_alpha   59.99820649
_cell_angle_beta   59.99820127
_cell_angle_gamma   59.99820269
_symmetry_Int_Tables_number   1
_chemical_formula_structural   K2YCuCl6
_chemical_formula_sum   'K2 Y1 Cu1 Cl6'
_cell_volume   277.24370346
_cell_formula_units_Z   1
loop_
 _symmetry_equiv_pos_site_id
 _symmetry_equiv_pos_as_xyz
  1  'x, y, z'
loop_
 _atom_site_type_symbol
 _atom_site_label
 _atom_site_symmetry_multiplicity
 _atom_site_fract_x
 _atom_site_fract_y
 _atom_site_fract_z
 _atom_site_occupancy
  K  K0  1  0.25000056  0.25000061  0.25000060  1
  K  K1  1  0.74999944  0.74999942  0.74999940  1
  Y  Y2  1  0.50000000  0.50000000  0.49999998  1
  Cu  Cu3  1  0.99999999  1.00000000  0.00000001  1
  Cl  Cl4  1  0.24549407  0.75450496  0.24549404  1
  Cl  Cl5  1  0.75450602  0.75450600  0.24549497  1
  Cl  Cl6  1  0.75450594  0.24549503  0.75450596  1
  Cl  Cl7  1  0.75450498  0.24549403  0.24549403  1
  Cl  Cl8  1  0.24549501  0.75450596  0.75450599  1
  Cl  Cl9  1  0.24549398  0.24549398  0.75450503  1
