# generated using pymatgen
data_Cs2RbSbI6
_symmetry_space_group_name_H-M   'P 1'
_cell_length_a   9.22710888
_cell_length_b   9.22710948
_cell_length_c   9.22710944
_cell_angle_alpha   59.99999833
_cell_angle_beta   59.99999758
_cell_angle_gamma   59.99999768
_symmetry_Int_Tables_number   1
_chemical_formula_structural   Cs2RbSbI6
_chemical_formula_sum   'Cs2 Rb1 Sb1 I6'
_cell_volume   555.49732478
_cell_formula_units_Z   1
loop_
 _symmetry_equiv_pos_site_id
 _symmetry_equiv_pos_as_xyz
  1  'x, y, z'
loop_
 _atom_site_type_symbol
 _atom_site_label
 _atom_site_symmetry_multiplicity
 _atom_site_fract_x
 _atom_site_fract_y
 _atom_site_fract_z
 _atom_site_occupancy
  Cs  Cs0  1  0.25000000  0.25000000  0.25000000  1
  Cs  Cs1  1  0.75000000  0.75000000  0.75000000  1
  Rb  Rb2  1  0.50000000  0.50000000  0.50000000  1
  Sb  Sb3  1  0.00000000  -0.00000000  0.00000000  1
  I  I4  1  0.23227597  0.76772403  0.23227597  1
  I  I5  1  0.76772403  0.76772403  0.23227597  1
  I  I6  1  0.76772403  0.23227597  0.76772403  1
  I  I7  1  0.76772403  0.23227597  0.23227597  1
  I  I8  1  0.23227597  0.76772403  0.76772403  1
  I  I9  1  0.23227597  0.23227597  0.76772403  1
