# generated using pymatgen
data_Li9Mn2Co5O16
_symmetry_space_group_name_H-M   'P 1'
_cell_length_a   3.00843008
_cell_length_b   5.01567686
_cell_length_c   19.50544991
_cell_angle_alpha   93.03234574
_cell_angle_beta   82.71644283
_cell_angle_gamma   91.72906096
_symmetry_Int_Tables_number   1
_chemical_formula_structural   Li9Mn2Co5O16
_chemical_formula_sum   'Li9 Mn2 Co5 O16'
_cell_volume   291.45830120
_cell_formula_units_Z   1
loop_
 _symmetry_equiv_pos_site_id
 _symmetry_equiv_pos_as_xyz
  1  'x, y, z'
loop_
 _atom_site_type_symbol
 _atom_site_label
 _atom_site_symmetry_multiplicity
 _atom_site_fract_x
 _atom_site_fract_y
 _atom_site_fract_z
 _atom_site_occupancy
  Li  Li0  1  0.86798126  0.36860442  0.13022508  1
  Li  Li1  1  0.15007483  0.62364865  0.36885695  1
  Li  Li2  1  0.37542971  0.87522785  0.62577749  1
  Li  Li3  1  0.63149596  0.12508838  0.87510479  1
  Li  Li4  1  0.34992517  0.87635135  0.13114305  1
  Li  Li5  1  0.63201874  0.13139558  0.36977492  1
  Li  Li6  1  0.86850404  0.37491162  0.62489521  1
  Li  Li7  1  0.12457029  0.62477215  0.87422251  1
  Li  Li8  1  0.25000000  0.25000000  0.25000000  1
  Mn  Mn9  1  0.99673635  0.99939933  0.00192216  1
  Mn  Mn10  1  0.50326365  0.50060067  0.49807784  1
  Co  Co11  1  0.75000000  0.75000000  0.75000000  1
  Co  Co12  1  0.49779463  0.49953336  0.00161869  1
  Co  Co13  1  0.75000000  0.75000000  0.25000000  1
  Co  Co14  1  0.00220537  0.00046664  0.49838131  1
  Co  Co15  1  0.25000000  0.25000000  0.75000000  1
  O  O16  1  0.39928748  0.19759586  0.06126969  1
  O  O17  1  0.69593811  0.47512121  0.30533383  1
  O  O18  1  0.90628167  0.69690997  0.55754055  1
  O  O19  1  0.15129912  0.94158819  0.80707856  1
  O  O20  1  0.95179458  0.68799363  0.05797023  1
  O  O21  1  0.21034271  0.91497433  0.30327828  1
  O  O22  1  0.45138667  0.19354082  0.55650182  1
  O  O23  1  0.70155878  0.44642248  0.80641167  1
  O  O24  1  0.28965729  0.58502567  0.19672172  1
  O  O25  1  0.54820542  0.81200637  0.44202977  1
  O  O26  1  0.79844122  0.05357752  0.69358833  1
  O  O27  1  0.04861333  0.30645918  0.94349818  1
  O  O28  1  0.80406189  0.02487879  0.19466617  1
  O  O29  1  0.10071252  0.30240414  0.43873031  1
  O  O30  1  0.34870088  0.55841181  0.69292144  1
  O  O31  1  0.59371833  0.80309003  0.94245945  1
