# generated using pymatgen
data_Li9Mn2Co5O16
_symmetry_space_group_name_H-M   'P 1'
_cell_length_a   2.99250321
_cell_length_b   5.04309036
_cell_length_c   19.49959009
_cell_angle_alpha   93.32901131
_cell_angle_beta   82.59201499
_cell_angle_gamma   91.65477404
_symmetry_Int_Tables_number   1
_chemical_formula_structural   Li9Mn2Co5O16
_chemical_formula_sum   'Li9 Mn2 Co5 O16'
_cell_volume   291.26064368
_cell_formula_units_Z   1
loop_
 _symmetry_equiv_pos_site_id
 _symmetry_equiv_pos_as_xyz
  1  'x, y, z'
loop_
 _atom_site_type_symbol
 _atom_site_label
 _atom_site_symmetry_multiplicity
 _atom_site_fract_x
 _atom_site_fract_y
 _atom_site_fract_z
 _atom_site_occupancy
  Li  Li0  1  0.87161747  0.37218190  0.13130737  1
  Li  Li1  1  0.13692373  0.62210153  0.36884014  1
  Li  Li2  1  0.37430767  0.87310644  0.62588240  1
  Li  Li3  1  0.62458532  0.12687930  0.87361953  1
  Li  Li4  1  0.36424813  0.87546507  0.13238977  1
  Li  Li5  1  0.62841910  0.13265083  0.36767572  1
  Li  Li6  1  0.87428191  0.37744709  0.62524262  1
  Li  Li7  1  0.12594557  0.62299967  0.87480387  1
  Li  Li8  1  0.24978050  0.24979300  0.24982414  1
  Mn  Mn9  1  0.99834446  0.00013607  0.00044829  1
  Mn  Mn10  1  0.00142118  -0.00015864  0.49992504  1
  Co  Co11  1  0.50187970  0.50000408  0.49927573  1
  Co  Co12  1  0.75016662  0.75005854  0.75022567  1
  Co  Co13  1  0.49731722  0.50021580  0.00025679  1
  Co  Co14  1  0.74963270  0.74979583  0.25016264  1
  Co  Co15  1  0.24984936  0.25003183  0.74968601  1
  O  O16  1  0.42014465  0.19558943  0.05765374  1
  O  O17  1  0.68781558  0.47754395  0.30555435  1
  O  O18  1  0.94526935  0.69376859  0.55813775  1
  O  O19  1  0.18818372  0.93707396  0.80798126  1
  O  O20  1  0.91284657  0.68611345  0.05513816  1
  O  O21  1  0.21072294  0.91856489  0.30441734  1
  O  O22  1  0.41198360  0.19518315  0.55829460  1
  O  O23  1  0.68927895  0.43622719  0.80768341  1
  O  O24  1  0.28838972  0.58046595  0.19550743  1
  O  O25  1  0.58703047  0.80775239  0.44315886  1
  O  O26  1  0.81140750  0.06320600  0.69248951  1
  O  O27  1  0.08823561  0.30922124  0.94318130  1
  O  O28  1  0.81331754  0.02123257  0.19409170  1
  O  O29  1  0.05456454  0.30589648  0.44174445  1
  O  O30  1  0.31133560  0.56379519  0.69262563  1
  O  O31  1  0.58075304  0.80565723  0.94277478  1
