# generated using pymatgen
data_Li2CrPO4F
_symmetry_space_group_name_H-M   'P 1'
_cell_length_a   5.36442282
_cell_length_b   5.46920650
_cell_length_c   7.62791727
_cell_angle_alpha   72.81547971
_cell_angle_beta   74.08613344
_cell_angle_gamma   93.29416938
_symmetry_Int_Tables_number   1
_chemical_formula_structural   Li2CrPO4F
_chemical_formula_sum   'Li4 Cr2 P2 O8 F2'
_cell_volume   203.26293197
_cell_formula_units_Z   2
loop_
 _symmetry_equiv_pos_site_id
 _symmetry_equiv_pos_as_xyz
  1  'x, y, z'
loop_
 _atom_site_type_symbol
 _atom_site_label
 _atom_site_symmetry_multiplicity
 _atom_site_fract_x
 _atom_site_fract_y
 _atom_site_fract_z
 _atom_site_occupancy
  Li  Li0  1  0.76341883  0.42190540  0.15561783  1
  Li  Li1  1  0.51806977  0.86832988  0.84592597  1
  Li  Li2  1  0.50515380  0.00118777  0.47145433  1
  Li  Li3  1  0.19553302  0.54308375  0.82215764  1
  Cr  Cr4  1  0.99671674  0.99713766  0.01147702  1
  Cr  Cr5  1  0.01788781  0.01661915  0.49720213  1
  P  P6  1  0.35473246  0.64734535  0.23101732  1
  P  P7  1  0.64978544  0.35746721  0.77999459  1
  O  O8  1  0.73676014  0.19655546  0.64230715  1
  O  O9  1  0.27593010  0.80354604  0.37059411  1
  O  O10  1  0.63676028  0.64512877  0.68243414  1
  O  O11  1  0.84599211  0.33909052  0.90272390  1
  O  O12  1  0.16471137  0.66679869  0.10211322  1
  O  O13  1  0.63622485  0.76551434  0.08142934  1
  O  O14  1  0.37161955  0.36383276  0.33360499  1
  O  O15  1  0.36697208  0.22990716  0.91160699  1
  F  F16  1  0.19657243  0.90440728  0.70815599  1
  F  F17  1  0.83927723  0.10050982  0.29159334  1
