# generated using pymatgen
data_PrNb3O9
_symmetry_space_group_name_H-M   'P 1'
_cell_length_a   5.61131914
_cell_length_b   16.84739537
_cell_length_c   9.76110766
_cell_angle_alpha   54.89329618
_cell_angle_beta   90.26293141
_cell_angle_gamma   90.46535534
_symmetry_Int_Tables_number   1
_chemical_formula_structural   PrNb3O9
_chemical_formula_sum   'Pr4 Nb12 O36'
_cell_volume   754.88288789
_cell_formula_units_Z   4
loop_
 _symmetry_equiv_pos_site_id
 _symmetry_equiv_pos_as_xyz
  1  'x, y, z'
loop_
 _atom_site_type_symbol
 _atom_site_label
 _atom_site_symmetry_multiplicity
 _atom_site_fract_x
 _atom_site_fract_y
 _atom_site_fract_z
 _atom_site_occupancy
  Pr  Pr0  1  0.26402431  0.91111457  0.00000105  1
  Pr  Pr1  1  0.25859931  0.25046635  0.99867663  1
  Pr  Pr2  1  0.73597569  0.75555143  -0.00000105  1
  Pr  Pr3  1  0.74140069  0.41620065  0.00132337  1
  Nb  Nb4  1  0.24779034  0.99932409  0.24672875  1
  Nb  Nb5  1  0.24945423  0.83619166  0.73236654  1
  Nb  Nb6  1  0.25066740  0.65819023  0.26374102  1
  Nb  Nb7  1  0.25123941  0.50684810  0.74516097  1
  Nb  Nb8  1  0.25085018  0.33249497  0.26343115  1
  Nb  Nb9  1  0.24529485  0.16729754  0.74407311  1
  Nb  Nb10  1  0.75054577  0.83047534  0.26763346  1
  Nb  Nb11  1  0.75220966  0.66734291  0.75327125  1
  Nb  Nb12  1  0.75470515  0.49936946  0.25592689  1
  Nb  Nb13  1  0.74914982  0.33417103  0.73656885  1
  Nb  Nb14  1  0.74876059  0.15981790  0.25483903  1
  Nb  Nb15  1  0.74933260  0.00847677  0.73625898  1
  O  O16  1  0.00015087  0.90484873  0.78550381  1
  O  O17  1  0.01114217  0.92763819  0.20272069  1
  O  O18  1  0.99984913  0.76181727  0.21449619  1
  O  O19  1  0.98667148  0.57286045  0.76529178  1
  O  O20  1  0.98636028  0.41731875  0.23278964  1
  O  O21  1  0.01332852  0.09380655  0.23470822  1
  O  O22  1  0.21491105  0.90750167  0.49733467  1
  O  O23  1  0.21678609  0.57093671  0.49996369  1
  O  O24  1  0.21612267  0.23770248  0.50292725  1
  O  O25  1  0.30279530  0.76744579  0.00001235  1
  O  O26  1  0.29525375  0.42377508  0.99855229  1
  O  O27  1  0.27985256  0.09838551  0.00161830  1
  O  O28  1  0.50030875  0.92129636  0.73605245  1
  O  O29  1  0.49149687  0.91890009  0.23252712  1
  O  O30  1  0.50850313  0.74776691  0.76747288  1
  O  O31  1  0.50756246  0.58810751  0.72715726  1
  O  O32  1  0.49969125  0.74537064  0.26394755  1
  O  O33  1  0.50955247  0.59286222  0.23060750  1
  O  O34  1  0.50181245  0.40705771  0.77653159  1
  O  O35  1  0.50687003  0.40721904  0.27045348  1
  O  O36  1  0.49312997  0.25944796  0.72954652  1
  O  O37  1  0.49818755  0.25960829  0.22346841  1
  O  O38  1  0.49044753  0.07380478  0.76939250  1
  O  O39  1  0.49243754  0.07855849  0.27284274  1
  O  O40  1  0.69720470  0.89922021  -0.00001235  1
  O  O41  1  0.72014744  0.56828149  0.99838170  1
  O  O42  1  0.70474625  0.24289192  0.00144771  1
  O  O43  1  0.78508895  0.75916433  0.50266533  1
  O  O44  1  0.78387733  0.42896452  0.49707275  1
  O  O45  1  0.78321391  0.09573029  0.50003631  1
  O  O46  1  0.98885783  0.73902881  0.79727931  1
  O  O47  1  0.98777274  0.60384626  0.20157769  1
  O  O48  1  0.99860485  0.39590021  0.81024367  1
  O  O49  1  0.01363972  0.24934825  0.76721036  1
  O  O50  1  0.00139515  0.27076579  0.18975633  1
  O  O51  1  0.01222726  0.06282074  0.79842231  1
