# generated using pymatgen
data_Sr4La2Mg(RuO6)2
_symmetry_space_group_name_H-M   'P 1'
_cell_length_a   3.93965434
_cell_length_b   3.93965432
_cell_length_c   41.62356275
_cell_angle_alpha   106.45690463
_cell_angle_beta   106.45690372
_cell_angle_gamma   89.71489912
_symmetry_Int_Tables_number   1
_chemical_formula_structural   Sr4La2Mg(RuO6)2
_chemical_formula_sum   'Sr8 La4 Mg2 Ru4 O24'
_cell_volume   592.19273138
_cell_formula_units_Z   2
loop_
 _symmetry_equiv_pos_site_id
 _symmetry_equiv_pos_as_xyz
  1  'x, y, z'
loop_
 _atom_site_type_symbol
 _atom_site_label
 _atom_site_symmetry_multiplicity
 _atom_site_fract_x
 _atom_site_fract_y
 _atom_site_fract_z
 _atom_site_occupancy
  Sr  Sr0  1  0.35313844  0.35313844  0.95083395  1
  Sr  Sr1  1  0.35383885  0.35383885  0.45194680  1
  Sr  Sr2  1  0.64686156  0.64686156  0.54916605  1
  Sr  Sr3  1  0.35114949  0.35114949  0.28460071  1
  Sr  Sr4  1  0.65194457  0.65194457  0.38283762  1
  Sr  Sr5  1  0.34805543  0.34805543  0.11716238  1
  Sr  Sr6  1  0.64885051  0.64885051  0.21539929  1
  Sr  Sr7  1  0.64616115  0.64616115  0.04805320  1
  La  La8  1  0.34280219  0.34280219  0.78728510  1
  La  La9  1  0.66517822  0.66517822  0.87810000  1
  La  La10  1  0.33482178  0.33482178  0.62190000  1
  La  La11  1  0.65719781  0.65719781  0.71271490  1
  Mg  Mg12  1  0.99856858  0.99856858  0.83283488  1
  Mg  Mg13  1  0.00143142  0.00143142  0.66716512  1
  Ru  Ru14  1  0.00076715  0.00076715  0.33364456  1
  Ru  Ru15  1  0.99923285  0.99923285  0.16635544  1
  Ru  Ru16  1  0.99684204  0.99684204  0.99887173  1
  Ru  Ru17  1  0.00315796  0.00315796  0.50112827  1
  O  O18  1  0.99552108  0.49691505  0.83263210  1
  O  O19  1  0.13521665  0.13521665  0.88969888  1
  O  O20  1  0.00447892  0.50308495  0.66736790  1
  O  O21  1  0.15837753  0.15837753  0.72650637  1
  O  O22  1  0.49691505  0.99552108  0.83263210  1
  O  O23  1  0.00071526  0.50146952  0.50057930  1
  O  O24  1  0.16354703  0.16354703  0.55620081  1
  O  O25  1  0.83645297  0.83645297  0.94379919  1
  O  O26  1  0.50308495  0.00447892  0.66736790  1
  O  O27  1  0.00075054  0.50086087  0.33371784  1
  O  O28  1  0.15731816  0.15731816  0.38823375  1
  O  O29  1  0.84162247  0.84162247  0.77349363  1
  O  O30  1  0.50146952  0.00071526  0.50057930  1
  O  O31  1  0.99924946  0.49913913  0.16628216  1
  O  O32  1  0.15570884  0.15570884  0.22082081  1
  O  O33  1  0.86478335  0.86478335  0.61030112  1
  O  O34  1  0.50086087  0.00075054  0.33371784  1
  O  O35  1  0.99928474  0.49853048  0.99942070  1
  O  O36  1  0.15503432  0.15503432  0.05353285  1
  O  O37  1  0.84496568  0.84496568  0.44646715  1
  O  O38  1  0.49913913  0.99924946  0.16628216  1
  O  O39  1  0.84429116  0.84429116  0.27917919  1
  O  O40  1  0.49853048  0.99928474  0.99942070  1
  O  O41  1  0.84268184  0.84268184  0.11176625  1
