# generated using pymatgen
data_Li3Mn2O5
_symmetry_space_group_name_H-M   'P 1'
_cell_length_a   2.96444974
_cell_length_b   12.15544738
_cell_length_c   5.08389901
_cell_angle_alpha   84.31308930
_cell_angle_beta   91.14293594
_cell_angle_gamma   86.04266106
_symmetry_Int_Tables_number   1
_chemical_formula_structural   Li3Mn2O5
_chemical_formula_sum   'Li6 Mn4 O10'
_cell_volume   181.79180898
_cell_formula_units_Z   2
loop_
 _symmetry_equiv_pos_site_id
 _symmetry_equiv_pos_as_xyz
  1  'x, y, z'
loop_
 _atom_site_type_symbol
 _atom_site_label
 _atom_site_symmetry_multiplicity
 _atom_site_fract_x
 _atom_site_fract_y
 _atom_site_fract_z
 _atom_site_occupancy
  Li  Li0  1  0.90000000  0.20000000  0.30000000  1
  Li  Li1  1  0.30755773  0.39293556  0.09501152  1
  Li  Li2  1  0.69856485  0.60114071  0.90629461  1
  Li  Li3  1  0.10143515  0.79885929  0.69370539  1
  Li  Li4  1  0.49244227  0.00706444  0.50498848  1
  Li  Li5  1  0.40000000  0.20000000  0.80000000  1
  Mn  Mn6  1  0.98798263  0.00835805  0.98941764  1
  Mn  Mn7  1  0.81201737  0.39164195  0.61058236  1
  Mn  Mn8  1  0.21129417  0.59783090  0.39823788  1
  Mn  Mn9  1  0.58870583  0.80216910  0.20176212  1
  O  O10  1  0.46883810  0.08819968  0.13079821  1
  O  O11  1  0.83891660  0.30880909  0.92875921  1
  O  O12  1  0.28023038  0.49052224  0.72325933  1
  O  O13  1  0.62124195  0.69980184  0.53570789  1
  O  O14  1  0.00623739  0.89995687  0.32667036  1
  O  O15  1  0.33116190  0.31180032  0.46920179  1
  O  O16  1  0.79376261  0.50004313  0.27332964  1
  O  O17  1  0.17875805  0.70019816  0.06429211  1
  O  O18  1  0.51976962  0.90947776  0.87674067  1
  O  O19  1  0.96108340  0.09119091  0.67124079  1
