# generated using pymatgen
data_Li9Mn2Co5O16
_symmetry_space_group_name_H-M   'P 1'
_cell_length_a   3.00009723
_cell_length_b   19.34272885
_cell_length_c   5.00125436
_cell_angle_alpha   94.50027889
_cell_angle_beta   87.82203900
_cell_angle_gamma   87.33496009
_symmetry_Int_Tables_number   1
_chemical_formula_structural   Li9Mn2Co5O16
_chemical_formula_sum   'Li9 Mn2 Co5 O16'
_cell_volume   288.76251401
_cell_formula_units_Z   1
loop_
 _symmetry_equiv_pos_site_id
 _symmetry_equiv_pos_as_xyz
  1  'x, y, z'
loop_
 _atom_site_type_symbol
 _atom_site_label
 _atom_site_symmetry_multiplicity
 _atom_site_fract_x
 _atom_site_fract_y
 _atom_site_fract_z
 _atom_site_occupancy
  Li  Li0  1  0.93762349  0.12459549  0.68796483  1
  Li  Li1  1  0.31174162  0.38401593  0.57751515  1
  Li  Li2  1  0.69856611  0.61980397  0.43556933  1
  Li  Li3  1  0.06455671  0.87357414  0.31462091  1
  Li  Li4  1  0.43699920  0.12488931  0.18677725  1
  Li  Li5  1  0.79911351  0.38181306  0.06229969  1
  Li  Li6  1  0.18598162  0.62012081  0.92839340  1
  Li  Li7  1  0.56201974  0.87206877  0.80965434  1
  Li  Li8  1  0.75006101  0.50065172  0.75043205  1
  Mn  Mn9  1  0.00105562  0.99935496  0.00017557  1
  Mn  Mn10  1  0.87251313  0.25124106  0.37554247  1
  Co  Co11  1  0.37182312  0.25117882  0.87567646  1
  Co  Co12  1  0.12718541  0.74828146  0.62401547  1
  Co  Co13  1  0.50134271  0.99954096  0.49993249  1
  Co  Co14  1  0.25048730  0.50033261  0.24981016  1
  Co  Co15  1  0.62854544  0.74897463  0.12493225  1
  O  O16  1  0.43997967  0.05756529  0.83106456  1
  O  O17  1  0.81436630  0.30800428  0.71625293  1
  O  O18  1  0.21638269  0.55589092  0.55065379  1
  O  O19  1  0.60184818  0.80743121  0.46122347  1
  O  O20  1  0.93768077  0.05727612  0.33867414  1
  O  O21  1  0.32311817  0.30625945  0.21045316  1
  O  O22  1  0.74141557  0.55432958  0.10945126  1
  O  O23  1  0.09827936  0.80762524  0.95826202  1
  O  O24  1  0.42717204  0.19359538  0.54225554  1
  O  O25  1  0.76123236  0.44555491  0.39141364  1
  O  O26  1  0.14856902  0.69249315  0.28652477  1
  O  O27  1  0.55983778  0.94236536  0.16878197  1
  O  O28  1  0.93502558  0.19326080  0.03622428  1
  O  O29  1  0.28430726  0.44439875  0.94761690  1
  O  O30  1  0.64999609  0.69046903  0.78820197  1
  O  O31  1  0.06117339  0.94304285  0.65963379  1
