# generated using pymatgen
data_Li3Mn2O5
_symmetry_space_group_name_H-M   'P 1'
_cell_length_a   2.96097360
_cell_length_b   6.00435159
_cell_length_c   10.43996854
_cell_angle_alpha   97.81494253
_cell_angle_beta   96.95513409
_cell_angle_gamma   93.13123612
_symmetry_Int_Tables_number   1
_chemical_formula_structural   Li3Mn2O5
_chemical_formula_sum   'Li6 Mn4 O10'
_cell_volume   182.05479379
_cell_formula_units_Z   2
loop_
 _symmetry_equiv_pos_site_id
 _symmetry_equiv_pos_as_xyz
  1  'x, y, z'
loop_
 _atom_site_type_symbol
 _atom_site_label
 _atom_site_symmetry_multiplicity
 _atom_site_fract_x
 _atom_site_fract_y
 _atom_site_fract_z
 _atom_site_occupancy
  Li  Li0  1  0.00870896  0.51266564  0.01682053  1
  Li  Li1  1  0.60000000  0.30000000  0.20000000  1
  Li  Li2  1  0.39761138  0.70363075  0.80182383  1
  Li  Li3  1  0.80238862  0.89636925  0.59817617  1
  Li  Li4  1  0.19129104  0.08733436  0.38317947  1
  Li  Li5  1  0.60000000  0.80000000  0.20000000  1
  Mn  Mn6  1  0.01362041  0.99476700  0.00994466  1
  Mn  Mn7  1  0.18637959  0.60523300  0.39005534  1
  Mn  Mn8  1  0.79270416  0.40355734  0.59966093  1
  Mn  Mn9  1  0.40729584  0.19644266  0.80033907  1
  O  O10  1  0.52485675  0.21912852  0.99569015  1
  O  O11  1  0.08987473  0.04889543  0.18685395  1
  O  O12  1  0.86656767  0.43882097  0.79580256  1
  O  O13  1  0.25533013  0.63878168  0.58992328  1
  O  O14  1  0.71368547  0.81959425  0.39922132  1
  O  O15  1  0.48631453  0.78040575  0.00077868  1
  O  O16  1  0.11012527  0.55110457  0.21314605  1
  O  O17  1  0.94466987  0.96121832  0.81007672  1
  O  O18  1  0.33343233  0.16117903  0.60419744  1
  O  O19  1  0.67514325  0.38087148  0.40430985  1
