# generated using pymatgen
data_Ta3O7F
_symmetry_space_group_name_H-M   'P 1'
_cell_length_a   3.94205959
_cell_length_b   6.20886872
_cell_length_c   6.20886834
_cell_angle_alpha   114.75402403
_cell_angle_beta   90.00000000
_cell_angle_gamma   90.00000000
_symmetry_Int_Tables_number   1
_chemical_formula_structural   Ta3O7F
_chemical_formula_sum   'Ta3 O7 F1'
_cell_volume   138.00295093
_cell_formula_units_Z   1
loop_
 _symmetry_equiv_pos_site_id
 _symmetry_equiv_pos_as_xyz
  1  'x, y, z'
loop_
 _atom_site_type_symbol
 _atom_site_label
 _atom_site_symmetry_multiplicity
 _atom_site_fract_x
 _atom_site_fract_y
 _atom_site_fract_z
 _atom_site_occupancy
  Ta  Ta0  1  0.00000000  -0.00000000  -0.00000000  1
  Ta  Ta1  1  0.00000000  0.31648807  0.68351193  1
  Ta  Ta2  1  0.00000000  0.68351193  0.31648807  1
  O  O3  1  0.00000000  0.33085099  0.04827984  1
  O  O4  1  0.00000000  0.50000000  0.50000000  1
  O  O5  1  0.50000000  0.30149948  0.69850052  1
  O  O6  1  0.50000000  0.69850052  0.30149948  1
  O  O7  1  0.00000000  0.04827984  0.33085099  1
  O  O8  1  0.00000000  0.66914901  0.95172016  1
  O  O9  1  0.00000000  0.95172016  0.66914901  1
  F  F10  1  0.50000000  -0.00000000  -0.00000000  1
