# generated using pymatgen
data_Li3MnCoO5
_symmetry_space_group_name_H-M   'P 1'
_cell_length_a   5.11198687
_cell_length_b   7.72308789
_cell_length_c   5.02691300
_cell_angle_alpha   108.99265977
_cell_angle_beta   70.91461895
_cell_angle_gamma   96.10861741
_symmetry_Int_Tables_number   1
_chemical_formula_structural   Li3MnCoO5
_chemical_formula_sum   'Li6 Mn2 Co2 O10'
_cell_volume   177.34460454
_cell_formula_units_Z   2
loop_
 _symmetry_equiv_pos_site_id
 _symmetry_equiv_pos_as_xyz
  1  'x, y, z'
loop_
 _atom_site_type_symbol
 _atom_site_label
 _atom_site_symmetry_multiplicity
 _atom_site_fract_x
 _atom_site_fract_y
 _atom_site_fract_z
 _atom_site_occupancy
  Li  Li0  1  0.50000000  0.20619960  0.10309980  1
  Li  Li1  1  0.50000000  0.40552928  0.70276464  1
  Li  Li2  1  0.50000000  0.59519970  0.29759985  1
  Li  Li3  1  0.50000000  0.78867312  0.89433656  1
  Li  Li4  1  0.50000000  0.00271964  0.50135982  1
  Li  Li5  1  1.00000000  0.59745249  0.79872625  1
  Mn  Mn6  1  0.00000000  0.99590437  0.99795219  1
  Mn  Mn7  1  1.00000000  0.79556096  0.39778048  1
  Co  Co8  1  0.00000000  0.21510056  0.60755028  1
  Co  Co9  1  1.00000000  0.40648050  0.20324025  1
  O  O10  1  0.22864894  0.19083793  0.85892794  1
  O  O11  1  0.23293507  0.38810399  0.44113893  1
  O  O12  1  0.23374266  0.61059568  0.08186661  1
  O  O13  1  0.22090687  0.81436283  0.65625817  1
  O  O14  1  0.21951829  0.99168946  0.24681223  1
  O  O15  1  0.77135106  0.19083793  0.33190999  1
  O  O16  1  0.76706493  0.38810399  0.94696506  1
  O  O17  1  0.76625734  0.61059568  0.52872907  1
  O  O18  1  0.77909313  0.81436283  0.15810465  1
  O  O19  1  0.78048171  0.99168946  0.74487723  1
