# generated using pymatgen
data_Li5Mn3O8
_symmetry_space_group_name_H-M   'P 1'
_cell_length_a   2.88665695
_cell_length_b   5.08495105
_cell_length_c   10.35590585
_cell_angle_alpha   99.07430081
_cell_angle_beta   90.00000000
_cell_angle_gamma   73.51029002
_symmetry_Int_Tables_number   1
_chemical_formula_structural   Li5Mn3O8
_chemical_formula_sum   'Li5 Mn3 O8'
_cell_volume   143.77207478
_cell_formula_units_Z   1
loop_
 _symmetry_equiv_pos_site_id
 _symmetry_equiv_pos_as_xyz
  1  'x, y, z'
loop_
 _atom_site_type_symbol
 _atom_site_label
 _atom_site_symmetry_multiplicity
 _atom_site_fract_x
 _atom_site_fract_y
 _atom_site_fract_z
 _atom_site_occupancy
  Li  Li0  1  0.24929667  0.50140667  0.13575670  1
  Li  Li1  1  0.75070333  0.49859333  0.36424330  1
  Li  Li2  1  0.25532485  0.48935029  0.61651829  1
  Li  Li3  1  0.74467515  0.51064971  0.88348171  1
  Li  Li4  1  0.50000000  -0.00000000  0.25000000  1
  Mn  Mn5  1  0.99036579  0.01926842  0.01425720  1
  Mn  Mn6  1  0.00963421  0.98073158  0.48574280  1
  Mn  Mn7  1  0.50000000  0.00000000  0.75000000  1
  O  O8  1  0.38254203  0.23491593  0.94685248  1
  O  O9  1  0.88154808  0.23690384  0.17271910  1
  O  O10  1  0.39190938  0.21618123  0.44638054  1
  O  O11  1  0.89157975  0.21684051  0.68396297  1
  O  O12  1  0.11845192  0.76309616  0.32728090  1
  O  O13  1  0.61745797  0.76508407  0.55314752  1
  O  O14  1  0.10842025  0.78315949  0.81603703  1
  O  O15  1  0.60809062  0.78381877  0.05361946  1
