# generated using pymatgen
data_Li3MnCoO5
_symmetry_space_group_name_H-M   'P 1'
_cell_length_a   5.02412958
_cell_length_b   5.13540588
_cell_length_c   7.74106276
_cell_angle_alpha   108.89983355
_cell_angle_beta   71.18387156
_cell_angle_gamma   99.47580925
_symmetry_Int_Tables_number   1
_chemical_formula_structural   Li3MnCoO5
_chemical_formula_sum   'Li6 Mn2 Co2 O10'
_cell_volume   178.45646188
_cell_formula_units_Z   2
loop_
 _symmetry_equiv_pos_site_id
 _symmetry_equiv_pos_as_xyz
  1  'x, y, z'
loop_
 _atom_site_type_symbol
 _atom_site_label
 _atom_site_symmetry_multiplicity
 _atom_site_fract_x
 _atom_site_fract_y
 _atom_site_fract_z
 _atom_site_occupancy
  Li  Li0  1  0.69943483  0.50582370  0.10584228  1
  Li  Li1  1  0.51300676  0.50039387  0.49528647  1
  Li  Li2  1  0.09387410  0.50079278  0.30867510  1
  Li  Li3  1  0.90376208  0.49097638  0.69230311  1
  Li  Li4  1  0.29522818  0.49982649  0.89781684  1
  Li  Li5  1  0.80148934  0.99688842  0.39910611  1
  Mn  Mn6  1  0.99775830  0.00137265  0.00356007  1
  Mn  Mn7  1  0.39683115  0.00269604  0.20553659  1
  Co  Co8  1  0.60045336  0.00756988  0.78754878  1
  Co  Co9  1  0.19283243  0.99011263  0.59140245  1
  O  O10  1  0.95198466  0.22349400  0.85355045  1
  O  O11  1  0.74387172  0.22513841  0.23167510  1
  O  O12  1  0.33346463  0.22130905  0.05327622  1
  O  O13  1  0.17792149  0.23328677  0.43667640  1
  O  O14  1  0.53855644  0.22979401  0.66008350  1
  O  O15  1  0.43747905  0.77237417  0.34315023  1
  O  O16  1  0.23853256  0.77155145  0.76626132  1
  O  O17  1  0.85851634  0.76161903  0.56163626  1
  O  O18  1  0.65530435  0.78461877  0.96340253  1
  O  O19  1  0.06969824  0.78036147  0.14321018  1
