# generated using pymatgen
data_Li3MnCoO5
_symmetry_space_group_name_H-M   'P 1'
_cell_length_a   5.01866046
_cell_length_b   5.89205456
_cell_length_c   6.60352106
_cell_angle_alpha   76.50112263
_cell_angle_beta   82.57288937
_cell_angle_gamma   106.84673234
_symmetry_Int_Tables_number   1
_chemical_formula_structural   Li3MnCoO5
_chemical_formula_sum   'Li6 Mn2 Co2 O10'
_cell_volume   177.61000252
_cell_formula_units_Z   2
loop_
 _symmetry_equiv_pos_site_id
 _symmetry_equiv_pos_as_xyz
  1  'x, y, z'
loop_
 _atom_site_type_symbol
 _atom_site_label
 _atom_site_symmetry_multiplicity
 _atom_site_fract_x
 _atom_site_fract_y
 _atom_site_fract_z
 _atom_site_occupancy
  Li  Li0  1  0.80572208  0.10178977  0.40441009  1
  Li  Li1  1  0.00066273  0.50252807  0.99433059  1
  Li  Li2  1  0.59723771  0.69719421  0.79510772  1
  Li  Li3  1  0.39471612  0.30277289  0.20511130  1
  Li  Li4  1  0.20579752  0.89689684  0.59750615  1
  Li  Li5  1  0.20246085  0.40215108  0.60043137  1
  Mn  Mn6  1  0.00055424  0.00271644  0.99617896  1
  Mn  Mn7  1  0.60313945  0.20447667  0.79490655  1
  Co  Co8  1  0.38588628  0.78157902  0.21193078  1
  Co  Co9  1  0.78865840  0.59779326  0.41020142  1
  O  O10  1  0.70476498  0.13534366  0.08003417  1
  O  O11  1  0.87543741  0.52734883  0.70352397  1
  O  O12  1  0.51688864  0.74902728  0.48539892  1
  O  O13  1  0.30129378  0.31992345  0.90284276  1
  O  O14  1  0.09914595  0.95046037  0.27943520  1
  O  O15  1  0.88624639  0.05346690  0.72554565  1
  O  O16  1  0.10345970  0.47557476  0.29362438  1
  O  O17  1  0.71322990  0.67366370  0.10115221  1
  O  O18  1  0.51848859  0.24974308  0.51803939  1
  O  O19  1  0.29620928  0.87554973  0.90028841  1
