# generated using pymatgen
data_Li7Mn4CoO12
_symmetry_space_group_name_H-M   'P 1'
_cell_length_a   2.96844090
_cell_length_b   7.65316220
_cell_length_c   9.90694993
_cell_angle_alpha   79.01314493
_cell_angle_beta   92.81038337
_cell_angle_gamma   81.41177991
_symmetry_Int_Tables_number   1
_chemical_formula_structural   Li7Mn4CoO12
_chemical_formula_sum   'Li7 Mn4 Co1 O12'
_cell_volume   217.76578282
_cell_formula_units_Z   1
loop_
 _symmetry_equiv_pos_site_id
 _symmetry_equiv_pos_as_xyz
  1  'x, y, z'
loop_
 _atom_site_type_symbol
 _atom_site_label
 _atom_site_symmetry_multiplicity
 _atom_site_fract_x
 _atom_site_fract_y
 _atom_site_fract_z
 _atom_site_occupancy
  Li  Li0  1  0.90241493  0.18075171  0.24220467  1
  Li  Li1  1  0.40675333  0.17443396  0.75402292  1
  Li  Li2  1  0.25991367  0.49223304  0.24597708  1
  Li  Li3  1  0.76425207  0.48591529  0.75779533  1
  Li  Li4  1  0.58382403  0.83375160  0.25191095  1
  Li  Li5  1  0.08284197  0.83291440  0.74808905  1
  Li  Li6  1  0.33333300  0.33333300  0.00000000  1
  Mn  Mn7  1  0.99949381  0.01129910  0.99600904  1
  Mn  Mn8  1  0.66717319  0.65536790  0.00399096  1
  Mn  Mn9  1  0.49586050  0.00301090  0.49949889  1
  Mn  Mn10  1  0.17080650  0.66365610  0.50050111  1
  Co  Co11  1  0.83333300  0.33333300  0.50000000  1
  O  O12  1  0.49399619  0.06780688  0.10840094  1
  O  O13  1  0.91737286  0.09471431  0.61476973  1
  O  O14  1  0.77592605  0.43542606  0.11839714  1
  O  O15  1  0.25770652  0.42107396  0.61599695  1
  O  O16  1  0.13878109  0.74972735  0.10634743  1
  O  O17  1  0.58329518  0.75884651  0.61974999  1
  O  O18  1  0.40896048  0.24559304  0.38400305  1
  O  O19  1  0.89074095  0.23124094  0.88160286  1
  O  O20  1  0.74929414  0.57195269  0.38523027  1
  O  O21  1  0.17267081  0.59886012  0.89159906  1
  O  O22  1  0.08337082  0.90781949  0.38025001  1
  O  O23  1  0.52788491  0.91693865  0.89365257  1
