# generated using pymatgen
data_Li7Mn4CoO12
_symmetry_space_group_name_H-M   'P 1'
_cell_length_a   2.96876503
_cell_length_b   7.64434412
_cell_length_c   9.76758443
_cell_angle_alpha   92.04793167
_cell_angle_beta   83.49531886
_cell_angle_gamma   81.49522031
_symmetry_Int_Tables_number   1
_chemical_formula_structural   Li7Mn4CoO12
_chemical_formula_sum   'Li7 Mn4 Co1 O12'
_cell_volume   217.50829408
_cell_formula_units_Z   1
loop_
 _symmetry_equiv_pos_site_id
 _symmetry_equiv_pos_as_xyz
  1  'x, y, z'
loop_
 _atom_site_type_symbol
 _atom_site_label
 _atom_site_symmetry_multiplicity
 _atom_site_fract_x
 _atom_site_fract_y
 _atom_site_fract_z
 _atom_site_occupancy
  Li  Li0  1  0.74920181  0.25177325  0.25233138  1
  Li  Li1  1  0.90247534  0.42428773  0.75665546  1
  Li  Li2  1  0.07237275  0.59567641  0.24203528  1
  Li  Li3  1  0.25862316  0.74029769  0.75549624  1
  Li  Li4  1  0.43116879  0.90681173  0.24592350  1
  Li  Li5  1  0.58694726  0.08196683  0.74681626  1
  Li  Li6  1  0.66640703  0.66687938  0.99952869  1
  Mn  Mn7  1  0.99580652  0.99069597  0.00434442  1
  Mn  Mn8  1  0.33750636  0.34249815  0.99601748  1
  Mn  Mn9  1  0.17010632  0.16351885  0.49927908  1
  Mn  Mn10  1  0.49715121  0.50253938  0.50014988  1
  Co  Co11  1  0.83302041  0.83372282  0.50091255  1
  O  O12  1  0.40087749  0.11835295  0.10632817  1
  O  O13  1  0.50480408  0.29659970  0.61635114  1
  O  O14  1  0.75767591  0.43682111  0.10795572  1
  O  O15  1  0.83974625  0.63524326  0.61698276  1
  O  O16  1  0.02940246  0.80842128  0.11811997  1
  O  O17  1  0.17798709  0.95902996  0.61671309  1
  O  O18  1  0.16318832  0.36953043  0.38001673  1
  O  O19  1  0.30506173  0.52423556  0.88155585  1
  O  O20  1  0.48686877  0.70638538  0.38519859  1
  O  O21  1  0.57496974  0.89732241  0.89202449  1
  O  O22  1  0.82660048  0.03263895  0.38501241  1
  O  O23  1  0.93203069  0.21475085  0.89425084  1
