# generated using pymatgen
data_Li7Mn4CoO12
_symmetry_space_group_name_H-M   'P 1'
_cell_length_a   2.97403083
_cell_length_b   15.04161298
_cell_length_c   5.08831266
_cell_angle_alpha   96.22129282
_cell_angle_beta   76.43920983
_cell_angle_gamma   86.36249763
_symmetry_Int_Tables_number   1
_chemical_formula_structural   Li7Mn4CoO12
_chemical_formula_sum   'Li7 Mn4 Co1 O12'
_cell_volume   219.04109326
_cell_formula_units_Z   1
loop_
 _symmetry_equiv_pos_site_id
 _symmetry_equiv_pos_as_xyz
  1  'x, y, z'
loop_
 _atom_site_type_symbol
 _atom_site_label
 _atom_site_symmetry_multiplicity
 _atom_site_fract_x
 _atom_site_fract_y
 _atom_site_fract_z
 _atom_site_occupancy
  Li  Li0  1  0.63455938  0.09435474  0.59449491  1
  Li  Li1  1  0.03223481  0.23912355  0.74051912  1
  Li  Li2  1  0.31943693  0.41808909  0.92461219  1
  Li  Li3  1  0.66955628  0.58129226  0.08574128  1
  Li  Li4  1  0.99788601  0.75020867  0.25019870  1
  Li  Li5  1  0.34615744  0.91684183  0.40450227  1
  Li  Li6  1  0.33232314  0.16786132  0.16821731  1
  Mn  Mn7  1  0.98861978  0.00693597  0.00148301  1
  Mn  Mn8  1  0.67450519  0.32869656  0.33360280  1
  Mn  Mn9  1  0.33723982  0.66428191  0.66413766  1
  Mn  Mn10  1  0.65393683  0.83357971  0.83884667  1
  Co  Co11  1  0.01904545  0.49830668  0.49253513  1
  O  O12  1  0.37848260  0.03682420  0.24969632  1
  O  O13  1  0.65382620  0.22063822  0.46360553  1
  O  O14  1  0.04329981  0.37741820  0.58750619  1
  O  O15  1  0.31989693  0.54158401  0.77018779  1
  O  O16  1  0.63485183  0.71084360  0.94710149  1
  O  O17  1  0.96529550  0.88003341  0.11338707  1
  O  O18  1  0.01133746  0.11501005  0.87183335  1
  O  O19  1  0.28547635  0.29891871  0.08462070  1
  O  O20  1  0.69410021  0.45508115  0.22848882  1
  O  O21  1  0.03098888  0.61818006  0.38533455  1
  O  O22  1  0.35657477  0.78741698  0.55485009  1
  O  O23  1  0.62036839  0.95847909  0.74449705  1
