# generated using pymatgen
data_Li5Mn3O8
_symmetry_space_group_name_H-M   'P 1'
_cell_length_a   2.93317886
_cell_length_b   10.19502394
_cell_length_c   5.08274692
_cell_angle_alpha   79.79153370
_cell_angle_beta   75.14072291
_cell_angle_gamma   91.95906312
_symmetry_Int_Tables_number   1
_chemical_formula_structural   Li5Mn3O8
_chemical_formula_sum   'Li5 Mn3 O8'
_cell_volume   144.07749086
_cell_formula_units_Z   1
loop_
 _symmetry_equiv_pos_site_id
 _symmetry_equiv_pos_as_xyz
  1  'x, y, z'
loop_
 _atom_site_type_symbol
 _atom_site_label
 _atom_site_symmetry_multiplicity
 _atom_site_fract_x
 _atom_site_fract_y
 _atom_site_fract_z
 _atom_site_occupancy
  Li  Li0  1  0.74145925  0.12365301  0.51116761  1
  Li  Li1  1  0.25854075  0.37634699  0.48883239  1
  Li  Li2  1  0.73975859  0.63954896  0.49839408  1
  Li  Li3  1  0.26024141  0.86045104  0.50160592  1
  Li  Li4  1  0.50000000  0.75000000  0.00000000  1
  Mn  Mn5  1  0.00157066  0.98967924  0.00781215  1
  Mn  Mn6  1  0.99842934  0.51032076  0.99218785  1
  Mn  Mn7  1  0.50000000  0.25000000  0.00000000  1
  O  O8  1  0.41091838  0.06061113  0.21890089  1
  O  O9  1  0.84908073  0.31752498  0.22941994  1
  O  O10  1  0.40210831  0.55414094  0.21579356  1
  O  O11  1  0.87707091  0.82812967  0.24020680  1
  O  O12  1  0.15091927  0.18247502  0.77058006  1
  O  O13  1  0.58908162  0.43938887  0.78109911  1
  O  O14  1  0.12292909  0.67187033  0.75979320  1
  O  O15  1  0.59789169  0.94585906  0.78420644  1
