# generated using pymatgen
data_Li9Mn2Co5O16
_symmetry_space_group_name_H-M   'P 1'
_cell_length_a   2.95939021
_cell_length_b   19.31956972
_cell_length_c   5.05635161
_cell_angle_alpha   93.61614096
_cell_angle_beta   88.12390782
_cell_angle_gamma   87.38110428
_symmetry_Int_Tables_number   1
_chemical_formula_structural   Li9Mn2Co5O16
_chemical_formula_sum   'Li9 Mn2 Co5 O16'
_cell_volume   288.03164339
_cell_formula_units_Z   1
loop_
 _symmetry_equiv_pos_site_id
 _symmetry_equiv_pos_as_xyz
  1  'x, y, z'
loop_
 _atom_site_type_symbol
 _atom_site_label
 _atom_site_symmetry_multiplicity
 _atom_site_fract_x
 _atom_site_fract_y
 _atom_site_fract_z
 _atom_site_occupancy
  Li  Li0  1  0.93712910  0.12463396  0.68442868  1
  Li  Li1  1  0.30925212  0.38071211  0.57256133  1
  Li  Li2  1  0.70217566  0.62085423  0.43663648  1
  Li  Li3  1  0.06710680  0.87379637  0.31630168  1
  Li  Li4  1  0.44012784  0.12641776  0.19091958  1
  Li  Li5  1  0.79677371  0.38116274  0.06493639  1
  Li  Li6  1  0.18428263  0.62070403  0.92449456  1
  Li  Li7  1  0.56219891  0.87151918  0.80820902  1
  Li  Li8  1  0.75004011  0.50038103  0.75065962  1
  Mn  Mn9  1  -0.00012797  0.99929199  -0.00023906  1
  Mn  Mn10  1  0.37297988  0.25145327  0.87620093  1
  Co  Co11  1  0.12704505  0.74835070  0.62411114  1
  Co  Co12  1  0.50058309  0.99932886  0.49940715  1
  Co  Co13  1  0.87383727  0.25159525  0.37661591  1
  Co  Co14  1  0.25078421  0.50083092  0.25106295  1
  Co  Co15  1  0.62695967  0.74842599  0.12394057  1
  O  O16  1  0.44295177  0.05675833  0.83035809  1
  O  O17  1  0.82758600  0.31099900  0.73204960  1
  O  O18  1  0.21976701  0.55583301  0.55120793  1
  O  O19  1  0.55779061  0.80631231  0.46362181  1
  O  O20  1  0.93959639  0.05699914  0.33699435  1
  O  O21  1  0.34108512  0.30771030  0.21336804  1
  O  O22  1  0.74078269  0.55483097  0.11102353  1
  O  O23  1  0.10621449  0.80481956  0.95711714  1
  O  O24  1  0.40785088  0.19376717  0.53984603  1
  O  O25  1  0.76014950  0.44636367  0.39080922  1
  O  O26  1  0.14282839  0.69417839  0.28839447  1
  O  O27  1  0.55845252  0.94127800  0.16931574  1
  O  O28  1  0.91898074  0.19200997  0.01937557  1
  O  O29  1  0.28101256  0.44575558  0.94999413  1
  O  O30  1  0.69472412  0.69048000  0.78511439  1
  O  O31  1  0.05907911  0.94244620  0.66116304  1
