# generated using pymatgen
data_Li7Mn4CoO12
_symmetry_space_group_name_H-M   'P 1'
_cell_length_a   2.97043758
_cell_length_b   10.17003511
_cell_length_c   7.65520681
_cell_angle_alpha   72.47923338
_cell_angle_beta   98.59135138
_cell_angle_gamma   91.38997379
_symmetry_Int_Tables_number   1
_chemical_formula_structural   Li7Mn4CoO12
_chemical_formula_sum   'Li7 Mn4 Co1 O12'
_cell_volume   218.00377832
_cell_formula_units_Z   1
loop_
 _symmetry_equiv_pos_site_id
 _symmetry_equiv_pos_as_xyz
  1  'x, y, z'
loop_
 _atom_site_type_symbol
 _atom_site_label
 _atom_site_symmetry_multiplicity
 _atom_site_fract_x
 _atom_site_fract_y
 _atom_site_fract_z
 _atom_site_occupancy
  Li  Li0  1  0.83072062  0.25249601  0.66511932  1
  Li  Li1  1  0.17477978  0.75508231  0.33985351  1
  Li  Li2  1  0.50823371  0.24377865  0.00856308  1
  Li  Li3  1  0.15855422  0.24491769  0.32681249  1
  Li  Li4  1  0.50261238  0.74750399  0.00154768  1
  Li  Li5  1  0.82509929  0.75622135  0.65810392  1
  Li  Li6  1  0.66666700  0.00000000  0.33333300  1
  Mn  Mn7  1  0.99796342  0.00385536  0.00748245  1
  Mn  Mn8  1  0.33536958  0.99614464  0.65918455  1
  Mn  Mn9  1  0.33199009  0.50132493  0.66323318  1
  Mn  Mn10  1  0.00134291  0.49867507  0.00343382  1
  Co  Co11  1  0.66666700  0.50000000  0.33333300  1
  O  O12  1  0.43623593  0.10618332  0.84573221  1
  O  O13  1  0.71337421  0.61746764  0.49154534  1
  O  O14  1  0.06883309  0.11869026  0.15112335  1
  O  O15  1  0.78989319  0.10813621  0.52722296  1
  O  O16  1  0.05191668  0.61561364  0.16863869  1
  O  O17  1  0.37859312  0.61661308  0.83319165  1
  O  O18  1  0.28141632  0.38438636  0.49802831  1
  O  O19  1  0.54344081  0.89186379  0.13944304  1
  O  O20  1  0.95473988  0.38338692  0.83347535  1
  O  O21  1  0.61995979  0.38253236  0.17512066  1
  O  O22  1  0.89709707  0.89381668  0.82093479  1
  O  O23  1  0.26449991  0.88130974  0.51554365  1
