# generated using pymatgen
data_Li7Co5O12
_symmetry_space_group_name_H-M   'P 1'
_cell_length_a   5.06256767
_cell_length_b   6.45631002
_cell_length_c   6.56815883
_cell_angle_alpha   83.50879854
_cell_angle_beta   98.15850628
_cell_angle_gamma   96.52389635
_symmetry_Int_Tables_number   1
_chemical_formula_structural   Li7Co5O12
_chemical_formula_sum   'Li7 Co5 O12'
_cell_volume   210.10682850
_cell_formula_units_Z   1
loop_
 _symmetry_equiv_pos_site_id
 _symmetry_equiv_pos_as_xyz
  1  'x, y, z'
loop_
 _atom_site_type_symbol
 _atom_site_label
 _atom_site_symmetry_multiplicity
 _atom_site_fract_x
 _atom_site_fract_y
 _atom_site_fract_z
 _atom_site_occupancy
  Li  Li0  1  0.74659559  0.24623847  0.24988218  1
  Li  Li1  1  0.74187684  0.58891537  0.92228309  1
  Li  Li2  1  0.25812316  0.07775063  0.41105091  1
  Li  Li3  1  0.25340441  0.42042853  0.08345082  1
  Li  Li4  1  0.74855947  0.91810800  0.58234925  1
  Li  Li5  1  0.25144053  0.74855900  0.75098375  1
  Li  Li6  1  0.50000000  0.83333300  0.16666700  1
  Co  Co7  1  0.00629219  0.99639936  0.00479512  1
  Co  Co8  1  0.99370781  0.67026764  0.32853788  1
  Co  Co9  1  0.00000000  0.33333300  0.66666700  1
  Co  Co10  1  0.49739043  0.15990986  0.84043605  1
  Co  Co11  1  0.50260957  0.50675714  0.49289695  1
  O  O12  1  0.88272290  0.27257348  0.95024191  1
  O  O13  1  0.87751827  0.62458017  0.60146124  1
  O  O14  1  0.34370832  0.11728965  0.11122193  1
  O  O15  1  0.37611535  0.44510338  0.79020266  1
  O  O16  1  0.89687419  0.94152437  0.27716733  1
  O  O17  1  0.35257801  0.76802320  0.45408475  1
  O  O18  1  0.62388465  0.22156362  0.54313034  1
  O  O19  1  0.65629168  0.54937635  0.22211207  1
  O  O20  1  0.12248173  0.04208583  0.73187276  1
  O  O21  1  0.11727710  0.39409352  0.38309109  1
  O  O22  1  0.64742199  0.89864380  0.87924825  1
  O  O23  1  0.10312581  0.72514263  0.05616567  1
