# generated using pymatgen
data_Li7Mn4CoO12
_symmetry_space_group_name_H-M   'P 1'
_cell_length_a   2.87453911
_cell_length_b   11.71545647
_cell_length_c   6.77868367
_cell_angle_alpha   78.20428912
_cell_angle_beta   77.75877792
_cell_angle_gamma   89.99999821
_symmetry_Int_Tables_number   1
_chemical_formula_structural   Li7Mn4CoO12
_chemical_formula_sum   'Li7 Mn4 Co1 O12'
_cell_volume   218.15689701
_cell_formula_units_Z   1
loop_
 _symmetry_equiv_pos_site_id
 _symmetry_equiv_pos_as_xyz
  1  'x, y, z'
loop_
 _atom_site_type_symbol
 _atom_site_label
 _atom_site_symmetry_multiplicity
 _atom_site_fract_x
 _atom_site_fract_y
 _atom_site_fract_z
 _atom_site_occupancy
  Li  Li0  1  0.33600620  0.07705885  0.32798661  1
  Li  Li1  1  0.99688165  0.25040930  0.00623670  1
  Li  Li2  1  0.66978535  0.41625770  0.66043030  1
  Li  Li3  1  0.67005421  0.91516394  0.65989257  1
  Li  Li4  1  0.99661279  0.75150306  0.00677443  1
  Li  Li5  1  0.33065980  0.58960715  0.33867939  1
  Li  Li6  1  0.33333300  0.83333300  0.33333300  1
  Mn  Mn7  1  0.98929824  0.99473561  0.02140352  1
  Mn  Mn8  1  0.67736876  0.67193139  0.64526348  1
  Mn  Mn9  1  0.66563449  0.16602466  0.66873202  1
  Mn  Mn10  1  0.00103251  0.50064234  0.99793498  1
  Co  Co11  1  0.33333300  0.33333300  0.33333300  1
  O  O12  1  0.49624882  0.11059649  0.00750137  1
  O  O13  1  0.16378140  0.27962117  0.67243720  1
  O  O14  1  0.83115907  0.44354901  0.33768286  1
  O  O15  1  0.84841300  0.96353636  0.30317499  1
  O  O16  1  0.16557632  0.77914954  0.66884736  1
  O  O17  1  0.50929772  0.61839793  0.98140356  1
  O  O18  1  0.15736828  0.04826807  0.68526244  1
  O  O19  1  0.83550793  0.22311799  0.32898414  1
  O  O20  1  0.50288560  0.38704583  0.99422980  1
  O  O21  1  0.50109068  0.88751746  0.99781964  1
  O  O22  1  0.81825400  0.70313064  0.36349201  1
  O  O23  1  0.17041718  0.55606951  0.65916463  1
