# generated using pymatgen
data_MnCoO4
_symmetry_space_group_name_H-M   'P 1'
_cell_length_a   5.27193668
_cell_length_b   5.27193623
_cell_length_c   5.27193710
_cell_angle_alpha   107.59502868
_cell_angle_beta   108.56137801
_cell_angle_gamma   112.29605430
_symmetry_Int_Tables_number   1
_chemical_formula_structural   MnCoO4
_chemical_formula_sum   'Mn2 Co2 O8'
_cell_volume   112.58034920
_cell_formula_units_Z   2
loop_
 _symmetry_equiv_pos_site_id
 _symmetry_equiv_pos_as_xyz
  1  'x, y, z'
loop_
 _atom_site_type_symbol
 _atom_site_label
 _atom_site_symmetry_multiplicity
 _atom_site_fract_x
 _atom_site_fract_y
 _atom_site_fract_z
 _atom_site_occupancy
  Mn  Mn0  1  0.74632445  0.75000000  0.99632445  1
  Mn  Mn1  1  0.25367555  0.25000000  0.00367555  1
  Co  Co2  1  0.00000000  0.50000000  0.50000000  1
  Co  Co3  1  0.50000000  0.00000000  0.50000000  1
  O  O4  1  0.26055125  0.93915427  0.69970553  1
  O  O5  1  0.19509199  0.99473339  0.20035860  1
  O  O6  1  0.29437479  0.49473339  0.79964140  1
  O  O7  1  0.26055125  0.56084573  0.32139698  1
  O  O8  1  0.73944875  0.43915427  0.67860302  1
  O  O9  1  0.70562521  0.50526661  0.20035860  1
  O  O10  1  0.80490801  0.00526661  0.79964140  1
  O  O11  1  0.73944875  0.06084573  0.30029447  1
