# generated using pymatgen
data_Li9Mn2Co5O16
_symmetry_space_group_name_H-M   'P 1'
_cell_length_a   3.00394780
_cell_length_b   19.39540707
_cell_length_c   5.00789764
_cell_angle_alpha   94.32444975
_cell_angle_beta   88.19469882
_cell_angle_gamma   87.16381065
_symmetry_Int_Tables_number   1
_chemical_formula_structural   Li9Mn2Co5O16
_chemical_formula_sum   'Li9 Mn2 Co5 O16'
_cell_volume   290.40513365
_cell_formula_units_Z   1
loop_
 _symmetry_equiv_pos_site_id
 _symmetry_equiv_pos_as_xyz
  1  'x, y, z'
loop_
 _atom_site_type_symbol
 _atom_site_label
 _atom_site_symmetry_multiplicity
 _atom_site_fract_x
 _atom_site_fract_y
 _atom_site_fract_z
 _atom_site_occupancy
  Li  Li0  1  0.93287537  0.13264820  0.69933471  1
  Li  Li1  1  0.32324152  0.37068364  0.56132888  1
  Li  Li2  1  0.68979793  0.62475200  0.43896158  1
  Li  Li3  1  0.06794276  0.87307935  0.31297027  1
  Li  Li4  1  0.42477804  0.13250885  0.18806310  1
  Li  Li5  1  0.80760209  0.37160397  0.05109614  1
  Li  Li6  1  0.18679173  0.62352179  0.93614320  1
  Li  Li7  1  0.56704029  0.87172508  0.81378017  1
  Li  Li8  1  0.37484018  0.25089817  0.87577326  1
  Mn  Mn9  1  0.99775915  0.00119903  0.00133178  1
  Mn  Mn10  1  0.49791782  0.00107482  0.50061514  1
  Co  Co11  1  0.75149352  0.49861400  0.74854783  1
  Co  Co12  1  0.12679601  0.74924116  0.62495298  1
  Co  Co13  1  0.87469500  0.25072901  0.37491297  1
  Co  Co14  1  0.25139795  0.49903634  0.24928999  1
  Co  Co15  1  0.62565141  0.74893776  0.12499927  1
  O  O16  1  0.42962125  0.06079116  0.83471622  1
  O  O17  1  0.84323518  0.30609922  0.67782137  1
  O  O18  1  0.23375598  0.55731882  0.58818927  1
  O  O19  1  0.56098083  0.80652877  0.46115368  1
  O  O20  1  0.93160248  0.05863981  0.33678044  1
  O  O21  1  0.36160274  0.30419566  0.23571428  1
  O  O22  1  0.72726183  0.55723488  0.08585994  1
  O  O23  1  0.10633078  0.80587982  0.95690296  1
  O  O24  1  0.38849676  0.19685203  0.51549088  1
  O  O25  1  0.77153952  0.44228350  0.40881343  1
  O  O26  1  0.14405679  0.69296749  0.29285192  1
  O  O27  1  0.56858459  0.94115249  0.16636015  1
  O  O28  1  0.90615868  0.19516619  0.07165665  1
  O  O29  1  0.26954697  0.44012783  0.91099876  1
  O  O30  1  0.69115453  0.69253264  0.78775584  1
  O  O31  1  0.06545033  0.94197653  0.66683297  1
