# generated using pymatgen
data_Li7Mn4CoO12
_symmetry_space_group_name_H-M   'P 1'
_cell_length_a   2.87699847
_cell_length_b   7.99236919
_cell_length_c   10.57610007
_cell_angle_alpha   113.37889988
_cell_angle_beta   82.18272428
_cell_angle_gamma   100.36883284
_symmetry_Int_Tables_number   1
_chemical_formula_structural   Li7Mn4CoO12
_chemical_formula_sum   'Li7 Mn4 Co1 O12'
_cell_volume   219.01379231
_cell_formula_units_Z   1
loop_
 _symmetry_equiv_pos_site_id
 _symmetry_equiv_pos_as_xyz
  1  'x, y, z'
loop_
 _atom_site_type_symbol
 _atom_site_label
 _atom_site_symmetry_multiplicity
 _atom_site_fract_x
 _atom_site_fract_y
 _atom_site_fract_z
 _atom_site_occupancy
  Li  Li0  1  0.50381571  0.25150542  0.24387400  1
  Li  Li1  1  0.50097828  0.75187734  0.74992078  1
  Li  Li2  1  0.16483054  0.57619165  0.24653157  1
  Li  Li3  1  0.16850346  0.09047435  0.75346843  1
  Li  Li4  1  0.83235472  0.91478966  0.25007922  1
  Li  Li5  1  0.82951729  0.41516158  0.75612600  1
  Li  Li6  1  0.66666700  0.33333300  0.00000000  1
  Mn  Mn7  1  0.00352979  0.01012235  0.00306277  1
  Mn  Mn8  1  0.32980321  0.65654465  0.99693723  1
  Mn  Mn9  1  0.00200799  0.50288136  0.49886538  1
  Mn  Mn10  1  0.33132501  0.16378564  0.50113462  1
  Co  Co11  1  0.66666700  0.83333300  0.50000000  1
  O  O12  1  0.41923578  0.94513480  0.10666324  1
  O  O13  1  0.42872097  0.47319578  0.61575385  1
  O  O14  1  0.07075675  0.25416108  0.11264858  1
  O  O15  1  0.09486521  0.80390221  0.61417279  1
  O  O16  1  0.76050198  0.63438515  0.11338020  1
  O  O17  1  0.75709249  0.13400146  0.61981548  1
  O  O18  1  0.57624051  0.53266554  0.38018452  1
  O  O19  1  0.57283102  0.03228185  0.88661980  1
  O  O20  1  0.23846879  0.86276379  0.38582721  1
  O  O21  1  0.26257725  0.41250492  0.88735142  1
  O  O22  1  0.90461203  0.19347122  0.38424615  1
  O  O23  1  0.91409722  0.72153220  0.89333676  1
