# generated using pymatgen
data_MnOF
_symmetry_space_group_name_H-M   'P 1'
_cell_length_a   6.95159114
_cell_length_b   5.73607035
_cell_length_c   6.91641063
_cell_angle_alpha   87.20542869
_cell_angle_beta   95.63297189
_cell_angle_gamma   87.94152902
_symmetry_Int_Tables_number   1
_chemical_formula_structural   MnOF
_chemical_formula_sum   'Mn8 O8 F8'
_cell_volume   273.90247612
_cell_formula_units_Z   8
loop_
 _symmetry_equiv_pos_site_id
 _symmetry_equiv_pos_as_xyz
  1  'x, y, z'
loop_
 _atom_site_type_symbol
 _atom_site_label
 _atom_site_symmetry_multiplicity
 _atom_site_fract_x
 _atom_site_fract_y
 _atom_site_fract_z
 _atom_site_occupancy
  Mn  Mn0  1  0.37194313  0.34308095  0.13110011  1
  Mn  Mn1  1  0.12638258  0.65818891  0.37529511  1
  Mn  Mn2  1  0.89027501  0.14932127  0.13261188  1
  Mn  Mn3  1  0.36359699  0.15153552  0.61144075  1
  Mn  Mn4  1  0.14224091  0.89409906  0.87185478  1
  Mn  Mn5  1  0.64341254  0.79624613  0.36809518  1
  Mn  Mn6  1  0.61970546  0.64245184  0.88011574  1
  Mn  Mn7  1  0.87145152  0.35290408  0.65702087  1
  O  O8  1  0.16037051  0.11403360  0.07050218  1
  O  O9  1  0.30877874  0.38523140  0.39880946  1
  O  O10  1  0.55912867  0.59172541  0.14614110  1
  O  O11  1  0.09429695  0.12552345  0.67196728  1
  O  O12  1  0.40092054  0.89561778  0.81669236  1
  O  O13  1  0.91554090  0.88116936  0.31951909  1
  O  O14  1  0.67749193  0.60075068  0.61332487  1
  O  O15  1  0.82256631  0.38260518  0.92203883  1
  F  F16  1  0.16066659  0.63830172  0.07636491  1
  F  F17  1  0.09086771  0.64614072  0.67364872  1
  F  F18  1  0.34892078  0.87754833  0.40514483  1
  F  F19  1  0.60981042  0.09785206  0.16770231  1
  F  F20  1  0.63903218  0.11156922  0.56796304  1
  F  F21  1  0.40614630  0.37561244  0.84941069  1
  F  F22  1  0.91469952  0.39773352  0.36918540  1
  F  F23  1  0.86175381  0.89075538  0.90405253  1
