# generated using pymatgen
data_Na2Co3O4
_symmetry_space_group_name_H-M   'P 1'
_cell_length_a   6.27561356
_cell_length_b   7.58195443
_cell_length_c   5.66491182
_cell_angle_alpha   74.23256008
_cell_angle_beta   90.00000002
_cell_angle_gamma   65.55295470
_symmetry_Int_Tables_number   1
_chemical_formula_structural   Na2Co3O4
_chemical_formula_sum   'Na4 Co6 O8'
_cell_volume   234.19176390
_cell_formula_units_Z   2
loop_
 _symmetry_equiv_pos_site_id
 _symmetry_equiv_pos_as_xyz
  1  'x, y, z'
loop_
 _atom_site_type_symbol
 _atom_site_label
 _atom_site_symmetry_multiplicity
 _atom_site_fract_x
 _atom_site_fract_y
 _atom_site_fract_z
 _atom_site_occupancy
  Na  Na0  1  0.23837215  0.76155545  0.97561610  1
  Na  Na1  1  0.00007340  0.76155545  0.47561610  1
  Na  Na2  1  -0.00007340  0.23844455  0.52438390  1
  Na  Na3  1  0.76162785  0.23844455  0.02438390  1
  Co  Co4  1  0.56156788  0.63385975  0.57370499  1
  Co  Co5  1  0.80457236  0.63385975  0.07370499  1
  Co  Co6  1  0.19542764  0.36614025  0.92629501  1
  Co  Co7  1  0.43843212  0.36614025  0.42629501  1
  Co  Co8  1  0.51786261  0.00000000  0.75000000  1
  Co  Co9  1  0.48213739  1.00000000  0.25000000  1
  O  O10  1  0.32784928  0.91711730  0.54420991  1
  O  O11  1  0.75503342  0.91711730  0.04420991  1
  O  O12  1  0.86208698  0.53974315  0.76915234  1
  O  O13  1  0.40183013  0.46025685  0.73084766  1
  O  O14  1  0.59816987  0.53974315  0.26915234  1
  O  O15  1  0.13791302  0.46025685  0.23084766  1
  O  O16  1  0.24496658  0.08288270  0.95579009  1
  O  O17  1  0.67215072  0.08288270  0.45579009  1
