# generated using pymatgen
data_Li7Mn4CoO12
_symmetry_space_group_name_H-M   'P 1'
_cell_length_a   2.87762994
_cell_length_b   5.09045331
_cell_length_c   15.79274979
_cell_angle_alpha   97.82984188
_cell_angle_beta   89.99999958
_cell_angle_gamma   106.41841606
_symmetry_Int_Tables_number   1
_chemical_formula_structural   Li7Mn4CoO12
_chemical_formula_sum   'Li7 Mn4 Co1 O12'
_cell_volume   219.65651031
_cell_formula_units_Z   1
loop_
 _symmetry_equiv_pos_site_id
 _symmetry_equiv_pos_as_xyz
  1  'x, y, z'
loop_
 _atom_site_type_symbol
 _atom_site_label
 _atom_site_symmetry_multiplicity
 _atom_site_fract_x
 _atom_site_fract_y
 _atom_site_fract_z
 _atom_site_occupancy
  Li  Li0  1  0.74421789  0.48843578  0.07714435  1
  Li  Li1  1  0.25359444  0.50718888  0.25101938  1
  Li  Li2  1  0.74640556  0.49281112  0.41564762  1
  Li  Li3  1  0.25578211  0.51156422  0.58952165  1
  Li  Li4  1  0.75008233  0.50016467  0.75582205  1
  Li  Li5  1  0.24991767  0.49983533  0.91084495  1
  Li  Li6  1  0.50000000  -0.00000000  0.83333300  1
  Mn  Mn7  1  0.99018880  0.98037761  0.98965189  1
  Mn  Mn8  1  0.00981120  0.01962239  0.67701511  1
  Mn  Mn9  1  0.49741359  0.99482719  0.16427071  1
  Mn  Mn10  1  0.50258641  0.00517281  0.50239629  1
  Co  Co11  1  0.00000000  -0.00000000  0.33333300  1
  O  O12  1  0.60871682  0.21743364  0.96356242  1
  O  O13  1  0.10744303  0.21488606  0.12206410  1
  O  O14  1  0.61349321  0.22698643  0.29824235  1
  O  O15  1  0.11677475  0.23354951  0.46334596  1
  O  O16  1  0.61719028  0.23438057  0.63205814  1
  O  O17  1  0.11697566  0.23395131  0.78038537  1
  O  O18  1  0.88322525  0.76645049  0.20332004  1
  O  O19  1  0.38650679  0.77301357  0.36842465  1
  O  O20  1  0.89255697  0.78511394  0.54460290  1
  O  O21  1  0.39128318  0.78256636  0.70310358  1
  O  O22  1  0.88302434  0.76604869  0.88628163  1
  O  O23  1  0.38280972  0.76561943  0.03460886  1
