# generated using pymatgen
data_Li7Mn4CoO12
_symmetry_space_group_name_H-M   'P 1'
_cell_length_a   2.87841934
_cell_length_b   9.84433356
_cell_length_c   7.96959313
_cell_angle_alpha   81.64171652
_cell_angle_beta   79.59601852
_cell_angle_gamma   81.59341243
_symmetry_Int_Tables_number   1
_chemical_formula_structural   Li7Mn4CoO12
_chemical_formula_sum   'Li7 Mn4 Co1 O12'
_cell_volume   218.07952711
_cell_formula_units_Z   1
loop_
 _symmetry_equiv_pos_site_id
 _symmetry_equiv_pos_as_xyz
  1  'x, y, z'
loop_
 _atom_site_type_symbol
 _atom_site_label
 _atom_site_symmetry_multiplicity
 _atom_site_fract_x
 _atom_site_fract_y
 _atom_site_fract_z
 _atom_site_occupancy
  Li  Li0  1  0.33426254  0.24990599  0.08156792  1
  Li  Li1  1  0.99928504  0.74971769  0.25171222  1
  Li  Li2  1  0.66684128  0.24421605  0.42210238  1
  Li  Li3  1  0.32647435  0.75667293  0.59037738  1
  Li  Li4  1  0.00437211  0.24618443  0.74507134  1
  Li  Li5  1  0.66794087  0.75378179  0.91033748  1
  Li  Li6  1  0.66651883  0.00028604  0.66667730  1
  Mn  Mn7  1  0.00582909  0.99670505  0.99163677  1
  Mn  Mn8  1  0.32778816  0.00291417  0.34150851  1
  Mn  Mn9  1  0.66893041  0.49898209  0.16315808  1
  Mn  Mn10  1  0.99822176  0.50036454  0.50319193  1
  Co  Co11  1  0.33288515  0.50073189  0.83349681  1
  O  O12  1  0.49737484  0.11341165  0.89183767  1
  O  O13  1  0.16393629  0.61640101  0.05572641  1
  O  O14  1  0.84305578  0.10671129  0.20717815  1
  O  O15  1  0.49364403  0.61854461  0.39416632  1
  O  O16  1  0.18674135  0.11311244  0.51340486  1
  O  O17  1  0.82836588  0.61565936  0.72760988  1
  O  O18  1  0.17253573  0.38231870  0.27260883  1
  O  O19  1  0.83565855  0.88667425  0.44200865  1
  O  O20  1  0.50282399  0.38203905  0.61231397  1
  O  O21  1  0.14702395  0.88669587  0.81925523  1
  O  O22  1  0.83885331  0.38502606  0.93726732  1
  O  O23  1  0.49063668  0.89294306  0.12578459  1
