# generated using pymatgen
data_Li7Mn4CoO12
_symmetry_space_group_name_H-M   'P 1'
_cell_length_a   2.87577878
_cell_length_b   7.96633766
_cell_length_c   9.77079079
_cell_angle_alpha   81.83892191
_cell_angle_beta   89.99999968
_cell_angle_gamma   79.60136413
_symmetry_Int_Tables_number   1
_chemical_formula_structural   Li7Mn4CoO12
_chemical_formula_sum   'Li7 Mn4 Co1 O12'
_cell_volume   217.86160951
_cell_formula_units_Z   1
loop_
 _symmetry_equiv_pos_site_id
 _symmetry_equiv_pos_as_xyz
  1  'x, y, z'
loop_
 _atom_site_type_symbol
 _atom_site_label
 _atom_site_symmetry_multiplicity
 _atom_site_fract_x
 _atom_site_fract_y
 _atom_site_fract_z
 _atom_site_occupancy
  Li  Li0  1  0.58229058  0.83541784  0.25047306  1
  Li  Li1  1  0.75473084  0.49053832  0.75705576  1
  Li  Li2  1  0.91193616  0.17612868  0.24294424  1
  Li  Li3  1  0.25251306  0.49497388  0.24606847  1
  Li  Li4  1  0.41415394  0.17169312  0.75393153  1
  Li  Li5  1  0.08437542  0.83124816  0.74952694  1
  Li  Li6  1  0.33333300  0.33333300  -0.00000000  1
  Mn  Mn7  1  0.99498611  0.01002777  0.99642289  1
  Mn  Mn8  1  0.67168089  0.65663923  0.00357711  1
  Mn  Mn9  1  0.16860638  0.66278823  0.50260539  1
  Mn  Mn10  1  0.49806062  0.00387877  0.49739461  1
  Co  Co11  1  0.83333300  0.33333300  0.50000000  1
  O  O12  1  0.46447096  0.07105708  0.11269200  1
  O  O13  1  0.63293658  0.73412683  0.61945970  1
  O  O14  1  0.77584875  0.44830349  0.11369888  1
  O  O15  1  0.12152744  0.75694512  0.10635675  1
  O  O16  1  0.30020122  0.39959856  0.61552147  1
  O  O17  1  0.96420123  0.07159654  0.61441614  1
  O  O18  1  0.70246477  0.59506946  0.38558386  1
  O  O19  1  0.89081825  0.21836351  0.88630112  1
  O  O20  1  0.03373042  0.93254017  0.38054030  1
  O  O21  1  0.36646578  0.26706844  0.38447853  1
  O  O22  1  0.54513956  0.90972188  0.89364325  1
  O  O23  1  0.20219504  0.59560892  0.88730800  1
