# generated using pymatgen
data_Li7Mn4CoO12
_symmetry_space_group_name_H-M   'P 1'
_cell_length_a   2.89992769
_cell_length_b   8.47282134
_cell_length_c   9.80217496
_cell_angle_alpha   64.67609560
_cell_angle_beta   90.00000000
_cell_angle_gamma   90.00000000
_symmetry_Int_Tables_number   1
_chemical_formula_structural   Li7Mn4CoO12
_chemical_formula_sum   'Li7 Mn4 Co1 O12'
_cell_volume   217.70081706
_cell_formula_units_Z   1
loop_
 _symmetry_equiv_pos_site_id
 _symmetry_equiv_pos_as_xyz
  1  'x, y, z'
loop_
 _atom_site_type_symbol
 _atom_site_label
 _atom_site_symmetry_multiplicity
 _atom_site_fract_x
 _atom_site_fract_y
 _atom_site_fract_z
 _atom_site_occupancy
  Li  Li0  1  0.50000000  0.16666700  0.16666700  1
  Li  Li1  1  0.50000000  0.50752427  0.49026289  1
  Li  Li2  1  0.50000000  0.82580873  0.84307011  1
  Li  Li3  1  -0.00000000  0.52988329  0.00031905  1
  Li  Li4  1  0.00000000  0.80344971  0.33301395  1
  Li  Li5  1  0.00000000  0.16666700  0.66666700  1
  Li  Li6  1  0.50000000  0.66666700  0.16666700  1
  Mn  Mn7  1  0.00000000  0.98355781  0.00401047  1
  Mn  Mn8  1  0.00000000  0.34977519  0.32932253  1
  Mn  Mn9  1  0.50000000  0.33378137  0.83615528  1
  Mn  Mn10  1  0.50000000  0.99955163  0.49717772  1
  Co  Co11  1  0.00000000  0.66666700  0.66666700  1
  O  O12  1  0.50000000  0.92645780  0.14933943  1
  O  O13  1  0.50000000  0.25985724  0.48157333  1
  O  O14  1  0.50000000  0.57972004  0.82897770  1
  O  O15  1  0.00000000  0.23746776  0.98852692  1
  O  O16  1  0.00000000  0.56234412  0.33534096  1
  O  O17  1  0.00000000  0.93370478  0.64548516  1
  O  O18  1  0.50000000  0.40687620  0.18399457  1
  O  O19  1  0.50000000  0.75361296  0.50435530  1
  O  O20  1  0.50000000  0.07347576  0.85175967  1
  O  O21  1  -0.00000000  0.77098888  -0.00200796  1
  O  O22  1  -0.00000000  0.09586524  0.34480608  1
  O  O23  1  -0.00000000  0.39962922  0.68784884  1
