# generated using pymatgen
data_Li7Mn4CoO12
_symmetry_space_group_name_H-M   'P 1'
_cell_length_a   2.87456739
_cell_length_b   7.79353026
_cell_length_c   10.38837816
_cell_angle_alpha   106.95098274
_cell_angle_beta   90.00000000
_cell_angle_gamma   100.62732531
_symmetry_Int_Tables_number   1
_chemical_formula_structural   Li7Mn4CoO12
_chemical_formula_sum   'Li7 Mn4 Co1 O12'
_cell_volume   218.44339856
_cell_formula_units_Z   1
loop_
 _symmetry_equiv_pos_site_id
 _symmetry_equiv_pos_as_xyz
  1  'x, y, z'
loop_
 _atom_site_type_symbol
 _atom_site_label
 _atom_site_symmetry_multiplicity
 _atom_site_fract_x
 _atom_site_fract_y
 _atom_site_fract_z
 _atom_site_occupancy
  Li  Li0  1  0.49777481  0.99554963  0.24374893  1
  Li  Li1  1  0.49643842  0.99287684  0.75577608  1
  Li  Li2  1  0.16889219  0.33778337  0.42291807  1
  Li  Li3  1  0.17022858  0.34045616  0.91089092  1
  Li  Li4  1  0.83192782  0.66385664  0.07588481  1
  Li  Li5  1  0.83473818  0.66947736  0.59078119  1
  Li  Li6  1  0.33333300  0.66666700  0.83333300  1
  Mn  Mn7  1  0.99260686  0.98521373  0.98729527  1
  Mn  Mn8  1  0.67406014  0.34811927  0.67937173  1
  Mn  Mn9  1  0.00077410  0.00154821  0.50268555  1
  Mn  Mn10  1  0.66589290  0.33178479  0.16398145  1
  Co  Co11  1  0.33333300  0.66666700  0.33333300  1
  O  O12  1  0.42464355  0.84928710  0.03982108  1
  O  O13  1  0.42472684  0.84945369  0.54097530  1
  O  O14  1  0.08550421  0.17100742  0.19608649  1
  O  O15  1  0.09516703  0.19033305  0.70696428  1
  O  O16  1  0.74172198  0.48344495  0.85595365  1
  O  O17  1  0.76006758  0.52013616  0.37364647  1
  O  O18  1  0.58116279  0.16232558  0.47058051  1
  O  O19  1  0.57149997  0.14299995  0.95970272  1
  O  O20  1  0.24202345  0.48404590  0.62684592  1
  O  O21  1  0.24194016  0.48387931  0.12569170  1
  O  O22  1  0.90659842  0.81319784  0.29301953  1
  O  O23  1  0.92494402  0.84988905  0.81071235  1
