# generated using pymatgen
data_Li6MnV3(PO4)6
_symmetry_space_group_name_H-M   'P 1'
_cell_length_a   8.61141267
_cell_length_b   8.65152174
_cell_length_c   12.71822755
_cell_angle_alpha   74.15860156
_cell_angle_beta   106.15945241
_cell_angle_gamma   85.53641101
_symmetry_Int_Tables_number   1
_chemical_formula_structural   Li6MnV3(PO4)6
_chemical_formula_sum   'Li12 Mn2 V6 P12 O48'
_cell_volume   863.31746060
_cell_formula_units_Z   2
loop_
 _symmetry_equiv_pos_site_id
 _symmetry_equiv_pos_as_xyz
  1  'x, y, z'
loop_
 _atom_site_type_symbol
 _atom_site_label
 _atom_site_symmetry_multiplicity
 _atom_site_fract_x
 _atom_site_fract_y
 _atom_site_fract_z
 _atom_site_occupancy
  Li  Li0  1  0.00494746  0.00621008  0.87345282  1
  Li  Li1  1  0.00801731  0.00497332  0.37537982  1
  Li  Li2  1  0.28600555  0.28955445  0.62350970  1
  Li  Li3  1  0.49962611  0.50077556  0.74875729  1
  Li  Li4  1  0.28799194  0.28739872  0.12553601  1
  Li  Li5  1  0.50000000  0.50000000  0.50000000  1
  Li  Li6  1  0.71200806  0.71260128  0.87446399  1
  Li  Li7  1  0.50037389  0.49922444  0.25124271  1
  Li  Li8  1  0.50000000  0.50000000  0.00000000  1
  Li  Li9  1  0.71399445  0.71044555  0.37649030  1
  Li  Li10  1  0.99198269  0.99502668  0.62462018  1
  Li  Li11  1  0.99505254  0.99378992  0.12654718  1
  Mn  Mn12  1  0.05798621  0.62520441  0.31714869  1
  Mn  Mn13  1  0.94201379  0.37479559  0.68285131  1
  V  V14  1  0.05773734  0.62214645  0.81916398  1
  V  V15  1  0.37972292  0.94290427  0.56964927  1
  V  V16  1  0.61965817  0.05704242  0.92927397  1
  V  V17  1  0.38034183  0.94295758  0.07072603  1
  V  V18  1  0.62027708  0.05709573  0.43035073  1
  V  V19  1  0.94226266  0.37785355  0.18083602  1
  P  P20  1  0.28438135  0.28729478  0.87491789  1
  P  P21  1  0.13919365  0.66341547  0.56696640  1
  P  P22  1  0.33854933  0.86289870  0.81818153  1
  P  P23  1  0.28405036  0.28772266  0.37479190  1
  P  P24  1  0.13714939  0.66125238  0.06899799  1
  P  P25  1  0.33861836  0.86670147  0.31747657  1
  P  P26  1  0.66138164  0.13329853  0.68252343  1
  P  P27  1  0.86285061  0.33874762  0.93100201  1
  P  P28  1  0.71594964  0.71227734  0.62520810  1
  P  P29  1  0.66145067  0.13710130  0.18181847  1
  P  P30  1  0.86080635  0.33658453  0.43303360  1
  P  P31  1  0.71561865  0.71270522  0.12508211  1
  O  O32  1  0.01090441  0.65994648  0.95519465  1
  O  O33  1  0.05398883  0.61175518  0.66232127  1
  O  O34  1  0.25626433  0.17130301  0.98214957  1
  O  O35  1  0.01339346  0.66160959  0.45177655  1
  O  O36  1  0.16952800  0.26363522  0.76320345  1
  O  O37  1  0.15499521  0.84286914  0.80475284  1
  O  O38  1  0.26414617  0.46166544  0.88641474  1
  O  O39  1  0.15960512  0.84706268  0.54994304  1
  O  O40  1  0.04971361  0.59897561  0.16470704  1
  O  O41  1  0.25756056  0.17262958  0.48335613  1
  O  O42  1  0.17157372  0.25807392  0.26560010  1
  O  O43  1  0.15397533  0.85482843  0.30184846  1
  O  O44  1  0.29763023  0.54430071  0.60152832  1
  O  O45  1  0.39910892  0.94981145  0.91346871  1
  O  O46  1  0.33863333  0.98759210  0.70423146  1
  O  O47  1  0.45979060  0.26234645  0.86444613  1
  O  O48  1  0.25904340  0.46349765  0.38446740  1
  O  O49  1  0.45632705  0.70406086  0.85241739  1
  O  O50  1  0.15695526  0.84374372  0.05560081  1
  O  O51  1  0.29706581  0.54474787  0.10300678  1
  O  O52  1  0.40226519  0.95162438  0.41343084  1
  O  O53  1  0.54673384  0.29380856  0.64886220  1
  O  O54  1  0.34303197  0.99039462  0.20375018  1
  O  O55  1  0.46086782  0.26577411  0.36600236  1
  O  O56  1  0.53913218  0.73422589  0.63399764  1
  O  O57  1  0.65696803  0.00960538  0.79624982  1
  O  O58  1  0.45326616  0.70619144  0.35113780  1
  O  O59  1  0.59773481  0.04837562  0.58656916  1
  O  O60  1  0.70293419  0.45525213  0.89699322  1
  O  O61  1  0.84304474  0.15625628  0.94439919  1
  O  O62  1  0.54367295  0.29593914  0.14758261  1
  O  O63  1  0.74095660  0.53650235  0.61553260  1
  O  O64  1  0.54020940  0.73765355  0.13555387  1
  O  O65  1  0.66136667  0.01240790  0.29576854  1
  O  O66  1  0.60089108  0.05018855  0.08653129  1
  O  O67  1  0.70236977  0.45569929  0.39847168  1
  O  O68  1  0.84602467  0.14517157  0.69815154  1
  O  O69  1  0.82842628  0.74192608  0.73439990  1
  O  O70  1  0.74243944  0.82737042  0.51664387  1
  O  O71  1  0.95028639  0.40102439  0.83529296  1
  O  O72  1  0.84039488  0.15293732  0.45005596  1
  O  O73  1  0.73585383  0.53833456  0.11358526  1
  O  O74  1  0.84500479  0.15713086  0.19524716  1
  O  O75  1  0.83047200  0.73636478  0.23679655  1
  O  O76  1  0.98660654  0.33839041  0.54822345  1
  O  O77  1  0.74373567  0.82869699  0.01785043  1
  O  O78  1  0.94601117  0.38824482  0.33767873  1
  O  O79  1  0.98909559  0.34005352  0.04480535  1
