# generated using pymatgen
data_Li4V3P8O29
_symmetry_space_group_name_H-M   'P 1'
_cell_length_a   9.79781493
_cell_length_b   9.81227636
_cell_length_c   14.01536490
_cell_angle_alpha   89.90016712
_cell_angle_beta   90.02346933
_cell_angle_gamma   60.03030975
_symmetry_Int_Tables_number   1
_chemical_formula_structural   Li4V3P8O29
_chemical_formula_sum   'Li8 V6 P16 O58'
_cell_volume   1167.25427436
_cell_formula_units_Z   2
loop_
 _symmetry_equiv_pos_site_id
 _symmetry_equiv_pos_as_xyz
  1  'x, y, z'
loop_
 _atom_site_type_symbol
 _atom_site_label
 _atom_site_symmetry_multiplicity
 _atom_site_fract_x
 _atom_site_fract_y
 _atom_site_fract_z
 _atom_site_occupancy
  Li  Li0  1  0.77074545  0.91228978  0.55970713  1
  Li  Li1  1  0.76945429  0.32445976  0.06092330  1
  Li  Li2  1  0.32063482  0.90316230  0.05799364  1
  Li  Li3  1  0.32352026  0.77183885  0.56107242  1
  Li  Li4  1  0.68306314  0.08772692  0.94026944  1
  Li  Li5  1  0.09405206  0.67554436  0.43908604  1
  Li  Li6  1  0.22394946  0.09679433  0.44196540  1
  Li  Li7  1  0.09533488  0.22792857  0.93897299  1
  V  V8  1  0.56546160  0.42934448  0.25567692  1
  V  V9  1  0.43195140  0.56150145  0.75461437  1
  V  V10  1  0.56961406  0.99986685  0.74979978  1
  V  V11  1  0.43471449  0.00004475  0.25014249  1
  V  V12  1  0.99477164  0.57062078  0.24421562  1
  V  V13  1  0.99369837  0.43844603  0.74556903  1
  P  P14  1  0.91626921  0.76909200  0.84489432  1
  P  P15  1  0.77028226  0.91114793  0.34172925  1
  P  P16  1  0.91412777  0.31729314  0.34145007  1
  P  P17  1  0.66400604  0.66323855  0.12753242  1
  P  P18  1  0.66259313  0.66943792  0.62745410  1
  P  P19  1  0.77033626  0.31670632  0.84076648  1
  P  P20  1  0.68533197  0.23099916  0.65495473  1
  P  P21  1  0.32074690  0.90988075  0.84039644  1
  P  P22  1  0.68116219  0.08894907  0.15819384  1
  P  P23  1  0.31790987  0.76900875  0.34221419  1
  P  P24  1  0.23127343  0.68280699  0.15854001  1
  P  P25  1  0.32745423  0.33679776  0.37241976  1
  P  P26  1  0.33227396  0.33044926  0.87270855  1
  P  P27  1  0.08702035  0.68322482  0.65918495  1
  P  P28  1  0.23058771  0.08994790  0.65975599  1
  P  P29  1  0.08689816  0.23098666  0.15780887  1
  O  O30  1  0.00277457  0.75547654  0.56754210  1
  O  O31  1  0.91883530  0.74225961  0.33500408  1
  O  O32  1  0.75576921  0.01272241  0.06702340  1
  O  O33  1  0.74642194  0.91376941  0.83897075  1
  O  O34  1  0.90832027  0.61654667  0.82053438  1
  O  O35  1  0.81464121  0.66390134  0.17374889  1
  O  O36  1  0.90860685  0.47607334  0.32215855  1
  O  O37  1  -0.00017773  0.24489392  0.06691300  1
  O  O38  1  0.91658869  0.33848347  0.83884559  1
  O  O39  1  0.67339293  0.81349262  0.66706241  1
  O  O40  1  0.62005161  0.90037187  0.32313885  1
  O  O41  1  0.81403130  0.51929185  0.67410268  1
  O  O42  1  0.67339342  0.65751429  0.02178698  1
  O  O43  1  0.66721597  0.66554930  0.52151763  1
  O  O44  1  0.67011922  0.51136189  0.16979045  1
  O  O45  1  0.47952489  0.90125319  0.82446920  1
  O  O46  1  0.51468913  0.81247805  0.16675088  1
  O  O47  1  0.74392716  0.34498332  0.33458984  1
  O  O48  1  0.78889403  0.20746537  0.75251170  1
  O  O49  1  0.76427681  0.24079671  0.56846554  1
  O  O50  1  0.75853472  0.24438003  0.93239564  1
  O  O51  1  0.61845161  0.47879457  0.82349590  1
  O  O52  1  0.51363517  0.66865020  0.66866497  1
  O  O53  1  0.66112308  0.25775930  0.16504424  1
  O  O54  1  0.47868013  0.61825312  0.32322944  1
  O  O55  1  0.33724126  0.91583705  0.34074070  1
  O  O56  1  0.78996676  0.99996959  0.24999186  1
  O  O57  1  0.76819550  0.98740863  0.43294855  1
  O  O58  1  0.23738776  0.00352341  0.57003327  1
  O  O59  1  0.66052539  0.08622182  0.66056837  1
  O  O60  1  0.52479208  0.38353728  0.67951249  1
  O  O61  1  0.34214549  0.74262709  0.83315994  1
  O  O62  1  0.47867549  0.33608829  0.32623231  1
  O  O63  1  0.38460164  0.52394382  0.17779927  1
  O  O64  1  0.23747969  0.76734837  0.07317713  1
  O  O65  1  0.24473643  0.75507820  0.43308348  1
  O  O66  1  0.20671029  0.78921013  0.25353862  1
  O  O67  1  0.25498365  0.66148880  0.66110437  1
  O  O68  1  0.48669977  0.18655714  0.83294044  1
  O  O69  1  0.52037011  0.09989862  0.17678721  1
  O  O70  1  0.33326395  0.48070497  0.82602480  1
  O  O71  1  0.33265059  0.33483663  0.97864052  1
  O  O72  1  0.33113741  0.34219381  0.47816456  1
  O  O73  1  0.18153404  0.48861313  0.33019307  1
  O  O74  1  0.38136240  0.09804193  0.67574381  1
  O  O75  1  0.32726176  0.18746010  0.33322553  1
  O  O76  1  0.08878411  0.65506312  0.16540324  1
  O  O77  1  0.99628632  0.79252196  0.74744618  1
  O  O78  1  0.00455218  0.75978625  0.93153653  1
  O  O79  1  0.09724257  0.52122062  0.67661734  1
  O  O80  1  0.18229106  0.33146057  0.83139642  1
  O  O81  1  0.09698148  0.38168068  0.17676180  1
  O  O82  1  0.25320178  0.08415719  0.15942538  1
  O  O83  1  0.24045656  0.99632746  0.93000621  1
  O  O84  1  0.20851589  0.00013727  0.75004195  1
  O  O85  1  0.08524183  0.25743937  0.66671056  1
  O  O86  1  0.00500116  0.23270176  0.42682836  1
  O  O87  1  0.99596076  0.21086239  0.24644710  1
