# generated using pymatgen
data_Li5Fe4(P2O7)4
_symmetry_space_group_name_H-M   'P 1'
_cell_length_a   9.75036603
_cell_length_b   9.76737453
_cell_length_c   11.18886407
_cell_angle_alpha   89.85669200
_cell_angle_beta   101.56868359
_cell_angle_gamma   90.21000925
_symmetry_Int_Tables_number   1
_chemical_formula_structural   Li5Fe4(P2O7)4
_chemical_formula_sum   'Li10 Fe8 P16 O56'
_cell_volume   1043.92091057
_cell_formula_units_Z   2
loop_
 _symmetry_equiv_pos_site_id
 _symmetry_equiv_pos_as_xyz
  1  'x, y, z'
loop_
 _atom_site_type_symbol
 _atom_site_label
 _atom_site_symmetry_multiplicity
 _atom_site_fract_x
 _atom_site_fract_y
 _atom_site_fract_z
 _atom_site_occupancy
  Li  Li0  1  0.12200792  0.72119565  0.44948436  1
  Li  Li1  1  0.18840719  0.40732435  0.55301771  1
  Li  Li2  1  0.09164619  0.11071964  0.02370033  1
  Li  Li3  1  0.41892853  0.59130376  0.97653374  1
  Li  Li4  1  0.60747008  0.03753272  0.50489583  1
  Li  Li5  1  0.85093273  0.58442292  0.95979847  1
  Li  Li6  1  0.64648217  0.10431973  0.04268383  1
  Li  Li7  1  0.90947150  0.89336303  0.96928710  1
  Li  Li8  1  0.81561978  0.59482279  0.44630682  1
  Li  Li9  1  0.88133356  0.28409359  0.54650490  1
  Fe  Fe10  1  0.20781867  0.92747034  0.67040189  1
  Fe  Fe11  1  0.25605145  0.21741216  0.82509220  1
  Fe  Fe12  1  0.25665930  0.70427668  0.17857775  1
  Fe  Fe13  1  0.29819225  0.41244438  0.32298052  1
  Fe  Fe14  1  0.69983062  0.57955240  0.67358582  1
  Fe  Fe15  1  0.74888978  0.28614071  0.82969770  1
  Fe  Fe16  1  0.73619260  0.77852522  0.17183732  1
  Fe  Fe17  1  0.79689066  0.07446174  0.32273205  1
  P  P18  1  0.02286649  0.45033528  0.75252629  1
  P  P19  1  0.12174792  0.71146819  0.88543854  1
  P  P20  1  0.06121835  0.92730646  0.23692233  1
  P  P21  1  0.12424825  0.14459129  0.42572394  1
  P  P22  1  0.37585366  0.64755675  0.58090943  1
  P  P23  1  0.43165253  0.42398446  0.76045891  1
  P  P24  1  0.52501071  0.05442025  0.75737182  1
  P  P25  1  0.38457819  0.20987408  0.11260617  1
  P  P26  1  0.61334161  0.79064960  0.88119052  1
  P  P27  1  0.47692968  0.95273291  0.25491848  1
  P  P28  1  0.56736101  0.57532463  0.24388303  1
  P  P29  1  0.62108404  0.35200977  0.41959133  1
  P  P30  1  0.87718374  0.85576587  0.57452405  1
  P  P31  1  0.94062153  0.07662934  0.75954592  1
  P  P32  1  0.89020617  0.29299819  0.11852319  1
  P  P33  1  0.98039916  0.55151568  0.24367933  1
  O  O34  1  0.02234846  0.42469495  0.61869975  1
  O  O35  1  0.03075565  0.84231824  0.56090462  1
  O  O36  1  0.09418576  0.08637769  0.73650285  1
  O  O37  1  0.11263897  0.58708944  0.78835056  1
  O  O38  1  0.09862514  0.33935217  0.83848002  1
  O  O39  1  0.17839811  0.82906020  0.81944480  1
  O  O40  1  0.22794661  0.66467439  0.00318931  1
  O  O41  1  0.03364174  0.25390679  0.10521550  1
  O  O42  1  0.13195292  0.06242591  0.30337894  1
  O  O43  1  0.06310858  0.93964985  0.10351869  1
  O  O44  1  0.13783994  0.53593221  0.22746784  1
  O  O45  1  0.18530977  0.28781800  0.40903760  1
  O  O46  1  0.15480743  0.80508920  0.29174699  1
  O  O47  1  0.20495561  0.06587404  0.53322276  1
  O  O48  1  0.28127086  0.56385263  0.47942002  1
  O  O49  1  0.32852935  0.31524834  0.69063069  1
  O  O50  1  0.30842821  0.78664499  0.59245975  1
  O  O51  1  0.36722466  0.04217308  0.77455450  1
  O  O52  1  0.36894863  0.56885835  0.70690131  1
  O  O53  1  0.41654600  0.41478104  0.89192411  1
  O  O54  1  0.47444414  0.75100287  0.90591880  1
  O  O55  1  0.27742745  0.16383452  0.99483677  1
  O  O56  1  0.32066108  0.32704208  0.17499560  1
  O  O57  1  0.38443293  0.08556791  0.20779234  1
  O  O58  1  0.41253915  0.57933301  0.26764161  1
  O  O59  1  0.40028105  0.83680437  0.17349287  1
  O  O60  1  0.46915596  0.34709361  0.43329044  1
  O  O61  1  0.53927361  0.10316369  0.63456489  1
  O  O62  1  0.48199211  0.93937683  0.38778456  1
  O  O63  1  0.52969746  0.65368057  0.57204493  1
  O  O64  1  0.60640227  0.13784271  0.86499740  1
  O  O65  1  0.58277815  0.41879277  0.73553905  1
  O  O66  1  0.59024899  0.90176634  0.77165057  1
  O  O67  1  0.69289880  0.67357316  0.82778470  1
  O  O68  1  0.71713299  0.85441916  0.99147195  1
  O  O69  1  0.52734547  0.23314328  0.09019465  1
  O  O70  1  0.57416621  0.59146296  0.11161390  1
  O  O71  1  0.62367307  0.42530221  0.29071193  1
  O  O72  1  0.62598800  0.97198974  0.21985572  1
  O  O73  1  0.68599320  0.20942109  0.41044690  1
  O  O74  1  0.66843901  0.67817788  0.31901847  1
  O  O75  1  0.71879605  0.43699087  0.51876681  1
  O  O76  1  0.78813326  0.94422503  0.47561222  1
  O  O77  1  0.84668390  0.19082084  0.69480954  1
  O  O78  1  0.81542687  0.71295945  0.59072644  1
  O  O79  1  0.87175241  0.47408473  0.77644351  1
  O  O80  1  0.93361090  0.06831984  0.89261189  1
  O  O81  1  0.88038008  0.93160410  0.70274223  1
  O  O82  1  0.97841122  0.72952545  0.91312982  1
  O  O83  1  0.80070576  0.36137280  0.00456036  1
  O  O84  1  0.80855580  0.17484288  0.16925358  1
  O  O85  1  0.90023169  0.64159993  0.14101027  1
  O  O86  1  0.90845302  0.40346962  0.23012874  1
  O  O87  1  0.91205471  0.91650967  0.26685556  1
  O  O88  1  0.96655112  0.16158553  0.42823680  1
  O  O89  1  0.97544668  0.59474046  0.37264400  1
