# generated using pymatgen
data_Li6MnV3(PO4)6
_symmetry_space_group_name_H-M   'P 1'
_cell_length_a   9.89559892
_cell_length_b   9.88077098
_cell_length_c   9.90185563
_cell_angle_alpha   87.68373784
_cell_angle_beta   86.95809532
_cell_angle_gamma   87.11349345
_symmetry_Int_Tables_number   1
_chemical_formula_structural   Li6MnV3(PO4)6
_chemical_formula_sum   'Li12 Mn2 V6 P12 O48'
_cell_volume   964.88280605
_cell_formula_units_Z   2
loop_
 _symmetry_equiv_pos_site_id
 _symmetry_equiv_pos_as_xyz
  1  'x, y, z'
loop_
 _atom_site_type_symbol
 _atom_site_label
 _atom_site_symmetry_multiplicity
 _atom_site_fract_x
 _atom_site_fract_y
 _atom_site_fract_z
 _atom_site_occupancy
  Li  Li0  1  0.00156023  0.05192011  0.97570664  1
  Li  Li1  1  0.06728409  0.73634279  0.13750869  1
  Li  Li2  1  0.12812943  0.09807149  0.73687176  1
  Li  Li3  1  0.23123738  0.56879598  0.63724624  1
  Li  Li4  1  0.26154909  0.86530687  0.92920415  1
  Li  Li5  1  0.36857384  0.77092556  0.41848201  1
  Li  Li6  1  0.42831245  0.36313623  0.75911885  1
  Li  Li7  1  0.49055354  0.52025771  0.44833597  1
  Li  Li8  1  0.64920651  0.22770988  0.56415483  1
  Li  Li9  1  0.76433239  0.44369599  0.37154842  1
  Li  Li10  1  0.73385033  0.13312300  0.05604886  1
  Li  Li11  1  0.85898959  0.93430854  0.26758156  1
  Mn  Mn12  1  0.02564580  0.25645462  0.48066531  1
  Mn  Mn13  1  0.97416410  0.75719714  0.53007993  1
  V  V14  1  0.24827255  0.24965024  0.25475337  1
  V  V15  1  0.24944578  0.46483418  0.03683055  1
  V  V16  1  0.46809399  0.02654344  0.24534984  1
  V  V17  1  0.53399023  0.95930948  0.74732661  1
  V  V18  1  0.75015141  0.53081733  0.96935740  1
  V  V19  1  0.75072436  0.74671759  0.74791180  1
  P  P20  1  0.05073070  0.66967997  0.85725369  1
  P  P21  1  0.14646102  0.95363389  0.32988524  1
  P  P22  1  0.17575127  0.55195817  0.35390276  1
  P  P23  1  0.32573489  0.14569567  0.95237550  1
  P  P24  1  0.36228743  0.16717449  0.54791915  1
  P  P25  1  0.44818468  0.64498853  0.83043608  1
  P  P26  1  0.54750168  0.34867427  0.17999767  1
  P  P27  1  0.64461930  0.81919617  0.44839498  1
  P  P28  1  0.67001879  0.84617635  0.04658000  1
  P  P29  1  0.83413244  0.45366003  0.65680858  1
  P  P30  1  0.85012693  0.04481154  0.67309011  1
  P  P31  1  0.95078142  0.32478968  0.14765187  1
  O  O32  1  0.03734069  0.61750107  0.40583493  1
  O  O33  1  0.05503722  0.90143570  0.22531355  1
  O  O34  1  0.11179500  0.32999662  0.12197173  1
  O  O35  1  0.12117516  0.11191412  0.32940357  1
  O  O36  1  0.08892329  0.69167694  0.70525694  1
  O  O37  1  0.11148596  0.89056626  0.47289381  1
  O  O38  1  0.09042887  0.78411184  0.94557905  1
  O  O39  1  0.11626139  0.53267326  0.90558418  1
  O  O40  1  0.17526355  0.39446393  0.37927198  1
  O  O41  1  0.19016102  0.58925966  0.19956926  1
  O  O42  1  0.21169196  0.19315088  0.58842229  1
  O  O43  1  0.20545864  0.06582383  0.91029573  1
  O  O44  1  0.33000665  0.12184485  0.11198376  1
  O  O45  1  0.29035732  0.59914958  0.43774414  1
  O  O46  1  0.30069078  0.91747135  0.29916427  1
  O  O47  1  0.31303991  0.30046536  0.91545659  1
  O  O48  1  0.38121119  0.16488174  0.38622649  1
  O  O49  1  0.38830360  0.37831944  0.17201635  1
  O  O50  1  0.41065737  0.02648835  0.60665386  1
  O  O51  1  0.38182524  0.59911616  0.96747198  1
  O  O52  1  0.40432175  0.55959288  0.71604892  1
  O  O53  1  0.45344309  0.27740681  0.59131659  1
  O  O54  1  0.41243354  0.80054246  0.80942336  1
  O  O55  1  0.45978659  0.08913086  0.88717072  1
  O  O56  1  0.52986940  0.88510970  0.10954243  1
  O  O57  1  0.57874492  0.19194419  0.17557667  1
  O  O58  1  0.59120885  0.41016174  0.30767363  1
  O  O59  1  0.55919688  0.70361654  0.41186240  1
  O  O60  1  0.61569516  0.41168699  0.04849280  1
  O  O61  1  0.59221265  0.95650547  0.38307108  1
  O  O62  1  0.60803388  0.62319509  0.83587608  1
  O  O63  1  0.62315288  0.82748905  0.61022410  1
  O  O64  1  0.69410045  0.07755381  0.70076741  1
  O  O65  1  0.70273062  0.68933465  0.07164262  1
  O  O66  1  0.72901546  0.39776949  0.56891741  1
  O  O67  1  0.66960547  0.87444160  0.88690942  1
  O  O68  1  0.77977055  0.93333420  0.09551194  1
  O  O69  1  0.79174862  0.43087489  0.81338878  1
  O  O70  1  0.79782088  0.80433052  0.41023867  1
  O  O71  1  0.82971106  0.61239113  0.62172599  1
  O  O72  1  0.88998526  0.45805100  0.07839119  1
  O  O73  1  0.90735324  0.19817162  0.08240579  1
  O  O74  1  0.88559571  0.11020453  0.53409587  1
  O  O75  1  0.91345969  0.33181702  0.29969813  1
  O  O76  1  0.87795296  0.88252351  0.66438753  1
  O  O77  1  0.93586092  0.08493394  0.78683355  1
  O  O78  1  0.88884702  0.66408654  0.87662909  1
  O  O79  1  0.97682706  0.39467492  0.63094995  1
