# generated using pymatgen
data_LiBi(PO3)4
_symmetry_space_group_name_H-M   'P 1'
_cell_length_a   7.47645996
_cell_length_b   9.00408413
_cell_length_c   8.38770822
_cell_angle_alpha   90.00000000
_cell_angle_beta   95.88260819
_cell_angle_gamma   90.00000000
_symmetry_Int_Tables_number   1
_chemical_formula_structural   LiBi(PO3)4
_chemical_formula_sum   'Li2 Bi2 P8 O24'
_cell_volume   561.67594037
_cell_formula_units_Z   2
loop_
 _symmetry_equiv_pos_site_id
 _symmetry_equiv_pos_as_xyz
  1  'x, y, z'
loop_
 _atom_site_type_symbol
 _atom_site_label
 _atom_site_symmetry_multiplicity
 _atom_site_fract_x
 _atom_site_fract_y
 _atom_site_fract_z
 _atom_site_occupancy
  Li  Li0  1  0.30415633  0.23306307  0.14402442  1
  Li  Li1  1  0.69584367  0.73306307  0.85597558  1
  Bi  Bi2  1  0.26099049  0.01117711  0.68624155  1
  Bi  Bi3  1  0.73900951  0.51117711  0.31375845  1
  P  P4  1  0.13679166  0.63133768  0.55574068  1
  P  P5  1  0.17966291  0.56850550  0.21786381  1
  P  P6  1  0.42756475  0.40372277  0.63259795  1
  P  P7  1  0.56584938  0.27478087  0.94468101  1
  P  P8  1  0.43415062  0.77478087  0.05531899  1
  P  P9  1  0.57243525  0.90372277  0.36740205  1
  P  P10  1  0.82033709  0.06850550  0.78213619  1
  P  P11  1  0.86320834  0.13133768  0.44425932  1
  O  O12  1  0.02096555  0.06869067  0.83088628  1
  O  O13  1  0.03659327  0.04555156  0.47167790  1
  O  O14  1  0.12878671  0.77914559  0.63563690  1
  O  O15  1  0.22344895  0.65285797  0.38839056  1
  O  O16  1  0.28479994  0.53406950  0.66311202  1
  O  O17  1  0.38133117  0.84613933  0.89709682  1
  O  O18  1  0.25957490  0.68796789  0.10277208  1
  O  O19  1  0.40171670  0.17601242  0.93902590  1
  O  O20  1  0.33304960  0.25968971  0.59658616  1
  O  O21  1  0.27852027  0.42496254  0.21986631  1
  O  O22  1  0.44218457  0.96122731  0.47680040  1
  O  O23  1  0.53651517  0.40382852  0.81108808  1
  O  O24  1  0.46348483  0.90382852  0.18891192  1
  O  O25  1  0.55781543  0.46122731  0.52319960  1
  O  O26  1  0.72147973  0.92496254  0.78013369  1
  O  O27  1  0.66695040  0.75968971  0.40341384  1
  O  O28  1  0.59828330  0.67601242  0.06097410  1
  O  O29  1  0.74042510  0.18796789  0.89722792  1
  O  O30  1  0.61866883  0.34613933  0.10290318  1
  O  O31  1  0.71520006  0.03406950  0.33688798  1
  O  O32  1  0.77655105  0.15285797  0.61160944  1
  O  O33  1  0.87121329  0.27914559  0.36436310  1
  O  O34  1  0.96340673  0.54555156  0.52832210  1
  O  O35  1  0.97903345  0.56869067  0.16911372  1
