# generated using pymatgen
data_Mn2CoO6
_symmetry_space_group_name_H-M   'P 1'
_cell_length_a   5.10087615
_cell_length_b   5.08779160
_cell_length_c   9.23360755
_cell_angle_alpha   90.00000000
_cell_angle_beta   90.00000000
_cell_angle_gamma   60.08481857
_symmetry_Int_Tables_number   1
_chemical_formula_structural   Mn2CoO6
_chemical_formula_sum   'Mn4 Co2 O12'
_cell_volume   207.70487470
_cell_formula_units_Z   2
loop_
 _symmetry_equiv_pos_site_id
 _symmetry_equiv_pos_as_xyz
  1  'x, y, z'
loop_
 _atom_site_type_symbol
 _atom_site_label
 _atom_site_symmetry_multiplicity
 _atom_site_fract_x
 _atom_site_fract_y
 _atom_site_fract_z
 _atom_site_occupancy
  Mn  Mn0  1  0.33355326  0.33322337  0.00000000  1
  Mn  Mn1  1  0.33355326  0.83322337  0.50000000  1
  Mn  Mn2  1  0.66644674  0.16677663  0.50000000  1
  Mn  Mn3  1  0.66644674  0.66677663  -0.00000000  1
  Co  Co4  1  0.00000000  -0.00000000  -0.00000000  1
  Co  Co5  1  0.00000000  0.50000000  0.50000000  1
  O  O6  1  0.00000000  0.16436796  0.60275555  1
  O  O7  1  -0.00000000  0.33563204  0.10275555  1
  O  O8  1  0.00000000  0.66436796  0.89724445  1
  O  O9  1  0.33746108  0.99938337  0.89615251  1
  O  O10  1  -0.00000000  0.83563204  0.39724445  1
  O  O11  1  0.33746108  0.16315555  0.39615251  1
  O  O12  1  0.33746108  0.49938337  0.60384749  1
  O  O13  1  0.33746108  0.66315555  0.10384749  1
  O  O14  1  0.66253892  0.00061663  0.10384749  1
  O  O15  1  0.66253892  0.33684445  0.89615251  1
  O  O16  1  0.66253892  0.50061663  0.39615251  1
  O  O17  1  0.66253892  0.83684445  0.60384749  1
