# generated using pymatgen
data_Li4Ti5Co3O16
_symmetry_space_group_name_H-M   'P 1'
_cell_length_a   5.89159468
_cell_length_b   5.88321537
_cell_length_c   9.59820534
_cell_angle_alpha   90.10818710
_cell_angle_beta   89.96605022
_cell_angle_gamma   120.25995809
_symmetry_Int_Tables_number   1
_chemical_formula_structural   Li4Ti5Co3O16
_chemical_formula_sum   'Li4 Ti5 Co3 O16'
_cell_volume   287.35837338
_cell_formula_units_Z   1
loop_
 _symmetry_equiv_pos_site_id
 _symmetry_equiv_pos_as_xyz
  1  'x, y, z'
loop_
 _atom_site_type_symbol
 _atom_site_label
 _atom_site_symmetry_multiplicity
 _atom_site_fract_x
 _atom_site_fract_y
 _atom_site_fract_z
 _atom_site_occupancy
  Li  Li0  1  0.33839169  0.67049588  0.89709760  1
  Li  Li1  1  0.98395170  0.99166936  0.99063948  1
  Li  Li2  1  0.99491578  0.99514302  0.49870716  1
  Li  Li3  1  0.66998559  0.33559769  0.39606982  1
  Ti  Ti4  1  0.34670900  0.17162751  0.72840936  1
  Ti  Ti5  1  0.17873586  0.83599168  0.21917051  1
  Ti  Ti6  1  0.34524385  0.66910654  0.50312195  1
  Ti  Ti7  1  0.17957105  0.34255598  0.21778714  1
  Ti  Ti8  1  0.68914919  0.34407063  0.98787623  1
  Co  Co9  1  0.65465769  0.82793074  0.20987894  1
  Co  Co10  1  0.83574078  0.64979103  0.71123933  1
  Co  Co11  1  0.83493338  0.18024134  0.70983340  1
  O  O12  1  0.18250470  0.83753642  0.59194105  1
  O  O13  1  0.03635571  0.51787932  0.33190870  1
  O  O14  1  0.32709288  0.66446926  0.10417113  1
  O  O15  1  0.98926233  0.99484456  0.30708144  1
  O  O16  1  0.00245073  0.99189065  0.80185620  1
  O  O17  1  0.17811624  0.34024451  0.59065644  1
  O  O18  1  0.48177630  0.96147228  0.33301123  1
  O  O19  1  0.48174663  0.52147406  0.33290135  1
  O  O20  1  0.32424914  0.16358813  0.10187984  1
  O  O21  1  0.66093283  0.82692153  0.59116134  1
  O  O22  1  0.50772590  0.47189768  0.84582393  1
  O  O23  1  0.50840101  0.03888195  0.84811558  1
  O  O24  1  0.65330418  0.33952538  0.60226808  1
  O  O25  1  0.82526302  0.66730586  0.10006520  1
  O  O26  1  0.96206926  0.48767508  0.85623585  1
  O  O27  1  0.82676360  0.16047295  0.09893172  1
