# generated using pymatgen
data_LiV3OF11
_symmetry_space_group_name_H-M   'P 1'
_cell_length_a   5.29036111
_cell_length_b   5.46802877
_cell_length_c   15.50222944
_cell_angle_alpha   80.35848250
_cell_angle_beta   90.10714073
_cell_angle_gamma   89.87154681
_symmetry_Int_Tables_number   1
_chemical_formula_structural   LiV3OF11
_chemical_formula_sum   'Li2 V6 O2 F22'
_cell_volume   442.10952912
_cell_formula_units_Z   2
loop_
 _symmetry_equiv_pos_site_id
 _symmetry_equiv_pos_as_xyz
  1  'x, y, z'
loop_
 _atom_site_type_symbol
 _atom_site_label
 _atom_site_symmetry_multiplicity
 _atom_site_fract_x
 _atom_site_fract_y
 _atom_site_fract_z
 _atom_site_occupancy
  Li  Li0  1  0.29134377  0.31440046  0.82093440  1
  Li  Li1  1  0.82330998  0.63569337  0.17570388  1
  V  V2  1  0.49489088  0.16857359  0.66171527  1
  V  V3  1  0.99700653  0.00176612  0.99713508  1
  V  V4  1  0.00318875  0.32727633  0.34018820  1
  V  V5  1  0.50276392  0.49739987  0.00861499  1
  V  V6  1  0.01768011  0.64306000  0.66590990  1
  V  V7  1  0.49853850  0.83437342  0.33647862  1
  O  O8  1  0.58925226  0.46860891  0.11202558  1
  O  O9  1  0.21887855  0.37364806  0.68846308  1
  F  F10  1  0.20017054  0.01799345  0.35757177  1
  F  F11  1  0.29075920  0.18487472  0.02256344  1
  F  F12  1  0.70073660  0.13707788  0.31267376  1
  F  F13  1  0.08853337  0.04480410  0.88362632  1
  F  F14  1  0.41529209  0.20774822  0.54974226  1
  F  F15  1  0.06856504  0.38704844  0.22101692  1
  F  F16  1  0.56949038  0.13343051  0.77939422  1
  F  F17  1  0.91017663  0.29773830  0.45092346  1
  F  F18  1  0.30340536  0.52535908  0.35746798  1
  F  F19  1  0.18806625  0.69837380  0.02298725  1
  F  F20  1  0.80294329  0.30099806  0.97504679  1
  F  F21  1  0.71404883  0.46169287  0.64234069  1
  F  F22  1  0.79635336  0.64265521  0.30646715  1
  F  F23  1  0.40831233  0.53473160  0.88781176  1
  F  F24  1  0.42589106  0.86720752  0.22195389  1
  F  F25  1  0.07450434  0.72291419  0.55212991  1
  F  F26  1  0.59110592  0.78942105  0.44671189  1
  F  F27  1  0.92001827  0.62760933  0.77784287  1
  F  F28  1  0.91096601  0.95516685  0.11265782  1
  F  F29  1  0.29553943  0.86426704  0.68860087  1
  F  F30  1  0.70468563  0.81564938  0.97409044  1
  F  F31  1  0.78461985  0.96497228  0.64611952  1
