# generated using pymatgen
data_Mn3VCu2(PO4)6
_symmetry_space_group_name_H-M   'P 1'
_cell_length_a   8.54036740
_cell_length_b   8.58319567
_cell_length_c   8.58319584
_cell_angle_alpha   59.99999671
_cell_angle_beta   59.83396918
_cell_angle_gamma   59.83396950
_symmetry_Int_Tables_number   1
_chemical_formula_structural   Mn3VCu2(PO4)6
_chemical_formula_sum   'Mn3 V1 Cu2 P6 O24'
_cell_volume   443.77734238
_cell_formula_units_Z   1
loop_
 _symmetry_equiv_pos_site_id
 _symmetry_equiv_pos_as_xyz
  1  'x, y, z'
loop_
 _atom_site_type_symbol
 _atom_site_label
 _atom_site_symmetry_multiplicity
 _atom_site_fract_x
 _atom_site_fract_y
 _atom_site_fract_z
 _atom_site_occupancy
  Mn  Mn0  1  0.07276402  0.64241233  0.64241233  1
  Mn  Mn1  1  0.42845490  0.85718137  0.85718137  1
  Mn  Mn2  1  0.92919854  0.35693382  0.35693382  1
  V  V3  1  0.57295913  0.14234729  0.14234729  1
  Cu  Cu4  1  0.99741744  0.00086085  0.00086085  1
  Cu  Cu5  1  0.50306409  0.49897864  0.49897864  1
  P  P6  1  0.25027387  0.24958091  0.54297865  1
  P  P7  1  0.25027387  0.95716557  0.24958091  1
  P  P8  1  0.25027387  0.54297865  0.95716557  1
  P  P9  1  0.74984073  0.45870194  0.04228644  1
  P  P10  1  0.74984073  0.04228644  0.74917088  1
  P  P11  1  0.74984073  0.74917088  0.45870194  1
  O  O12  1  0.06442951  0.11355204  0.31187964  1
  O  O13  1  0.06442951  0.51013982  0.11355204  1
  O  O14  1  0.06442951  0.31187964  0.51013982  1
  O  O15  1  0.23342294  0.08474968  0.73997947  1
  O  O16  1  0.43283186  0.18409609  0.38223829  1
  O  O17  1  0.27450067  0.41381785  0.55146520  1
  O  O18  1  0.23342294  0.94184791  0.08474968  1
  O  O19  1  0.27450067  0.76021527  0.41381785  1
  O  O20  1  0.56469335  0.61726877  0.00865346  1
  O  O21  1  0.27450067  0.55146520  0.76021527  1
  O  O22  1  0.76043789  0.26075564  0.06392420  1
  O  O23  1  0.56469335  0.00865346  0.80938442  1
  O  O24  1  0.43283186  0.00083376  0.18409609  1
  O  O25  1  0.23342294  0.73997947  0.94184791  1
  O  O26  1  0.73204991  0.44248553  0.24034347  1
  O  O27  1  0.43283186  0.38223829  0.00083376  1
  O  O28  1  0.73204991  0.24034347  0.58512109  1
  O  O29  1  0.76043789  0.06392420  0.91488227  1
  O  O30  1  0.73204991  0.58512109  0.44248553  1
  O  O31  1  0.56469335  0.80938442  0.61726877  1
  O  O32  1  0.76043789  0.91488227  0.26075564  1
  O  O33  1  0.93623357  0.69182354  0.48785241  1
  O  O34  1  0.93623357  0.48785241  0.88409147  1
  O  O35  1  0.93623357  0.88409147  0.69182354  1
