# generated using pymatgen
data_Fe4OF7
_symmetry_space_group_name_H-M   'P 1'
_cell_length_a   9.42563638
_cell_length_b   5.80422363
_cell_length_c   5.80868835
_cell_angle_alpha   71.26823255
_cell_angle_beta   88.49829485
_cell_angle_gamma   88.41327145
_symmetry_Int_Tables_number   1
_chemical_formula_structural   Fe4OF7
_chemical_formula_sum   'Fe8 O2 F14'
_cell_volume   300.78661533
_cell_formula_units_Z   2
loop_
 _symmetry_equiv_pos_site_id
 _symmetry_equiv_pos_as_xyz
  1  'x, y, z'
loop_
 _atom_site_type_symbol
 _atom_site_label
 _atom_site_symmetry_multiplicity
 _atom_site_fract_x
 _atom_site_fract_y
 _atom_site_fract_z
 _atom_site_occupancy
  Fe  Fe0  1  0.62563365  0.87048418  0.87090023  1
  Fe  Fe1  1  0.87940032  0.61098051  0.62840908  1
  Fe  Fe2  1  0.49735122  0.49161079  0.49017885  1
  Fe  Fe3  1  0.25091224  0.74849644  0.75391351  1
  Fe  Fe4  1  0.74057626  0.24472226  0.25151098  1
  Fe  Fe5  1  0.11797317  0.37195094  0.38887257  1
  Fe  Fe6  1  0.38814190  0.14039850  0.14085626  1
  Fe  Fe7  1  0.00179412  0.02800948  0.97637877  1
  O  O8  1  0.52178248  0.27319767  0.27463047  1
  O  O9  1  0.00143175  0.29581594  0.70560758  1
  F  F10  1  0.75197228  0.54897814  0.95196643  1
  F  F11  1  0.49059841  0.19588239  0.81295515  1
  F  F12  1  0.75470007  0.94318495  0.55299940  1
  F  F13  1  0.22436739  0.97974855  0.98591080  1
  F  F14  1  0.47418961  0.72202098  0.72244679  1
  F  F15  1  0.72256088  0.47830708  0.47384242  1
  F  F16  1  0.97705995  0.21447125  0.21826144  1
  F  F17  1  0.27403589  0.52864340  0.52316515  1
  F  F18  1  0.02589187  0.78352365  0.78768583  1
  F  F19  1  0.78178399  0.01573695  0.02202939  1
  F  F20  1  0.25374672  0.04381579  0.44061216  1
  F  F21  1  0.49083853  0.81373476  0.19477614  1
  F  F22  1  0.25164973  0.43713220  0.05109311  1
  F  F23  1  0.00160760  0.71915318  0.28099847  1
