# generated using pymatgen
data_Li3Mn4O8
_symmetry_space_group_name_H-M   'P 1'
_cell_length_a   8.35787168
_cell_length_b   8.88809983
_cell_length_c   10.20479277
_cell_angle_alpha   63.97691893
_cell_angle_beta   65.25983952
_cell_angle_gamma   89.78675431
_symmetry_Int_Tables_number   1
_chemical_formula_structural   Li3Mn4O8
_chemical_formula_sum   'Li12 Mn16 O32'
_cell_volume   603.47287068
_cell_formula_units_Z   4
loop_
 _symmetry_equiv_pos_site_id
 _symmetry_equiv_pos_as_xyz
  1  'x, y, z'
loop_
 _atom_site_type_symbol
 _atom_site_label
 _atom_site_symmetry_multiplicity
 _atom_site_fract_x
 _atom_site_fract_y
 _atom_site_fract_z
 _atom_site_occupancy
  Li  Li0  1  0.74938315  0.23685477  0.00055679  1
  Li  Li1  1  0.87620259  0.12961092  0.75085054  1
  Li  Li2  1  0.37438261  0.12260166  0.75072253  1
  Li  Li3  1  0.87536398  0.62548820  0.74925635  1
  Li  Li4  1  0.25056934  0.73720622  0.99907363  1
  Li  Li5  1  0.37431417  0.61767009  0.74801348  1
  Li  Li6  1  0.99697222  0.01058894  0.50349055  1
  Li  Li7  1  0.50313081  0.48937352  0.49626355  1
  Li  Li8  1  0.62404026  0.36743902  0.24852718  1
  Li  Li9  1  0.12526525  0.37504739  0.24970855  1
  Li  Li10  1  0.62428480  0.87196933  0.25124986  1
  Li  Li11  1  0.12596967  0.88108588  0.25156458  1
  Mn  Mn12  1  0.62501717  0.37447631  0.74949609  1
  Mn  Mn13  1  0.49970583  0.99948016  0.50094240  1
  Mn  Mn14  1  0.74987183  0.24977332  0.49974849  1
  Mn  Mn15  1  0.87523077  0.12481136  0.25027105  1
  Mn  Mn16  1  0.25013960  0.24964946  0.50004656  1
  Mn  Mn17  1  0.75013217  0.74958209  0.50012468  1
  Mn  Mn18  1  0.49923695  0.99868911  0.99970334  1
  Mn  Mn19  1  0.12484815  0.87490795  0.75000051  1
  Mn  Mn20  1  0.00019995  0.49904554  0.49911992  1
  Mn  Mn21  1  0.24986429  0.74970900  0.49982210  1
  Mn  Mn22  1  0.00140174  0.99727831  0.00150978  1
  Mn  Mn23  1  0.37522842  0.62453768  0.24963375  1
  Mn  Mn24  1  0.25010956  0.25038907  -0.00004346  1
  Mn  Mn25  1  0.50152485  0.49928314  0.99939747  1
  Mn  Mn26  1  0.75005936  0.75031461  0.00004591  1
  Mn  Mn27  1  0.99893982  0.49903759  0.99960505  1
  O  O28  1  0.49359023  0.26159326  0.98847934  1
  O  O29  1  0.62149612  0.15253257  0.75744177  1
  O  O30  1  0.99326300  0.76090547  0.98898288  1
  O  O31  1  0.85994702  0.37861450  0.73928054  1
  O  O32  1  0.74553935  0.01244612  0.48888383  1
  O  O33  1  0.24160560  0.47447592  0.99902555  1
  O  O34  1  0.12762049  0.09652643  0.74304605  1
  O  O35  1  0.38949537  0.36983689  0.76050930  1
  O  O36  1  0.74154948  0.97467177  0.99978169  1
  O  O37  1  0.62855850  0.59615948  0.74200715  1
  O  O38  1  0.49174439  0.22583061  0.49958185  1
  O  O39  1  0.88954545  0.86918993  0.76107635  1
  O  O40  1  0.75441044  0.48676016  0.51115057  1
  O  O41  1  0.63987713  0.11950371  0.26072041  1
  O  O42  1  0.99170264  0.72153382  0.49922601  1
  O  O43  1  0.87742579  0.34667884  0.24215069  1
  O  O44  1  0.12205623  0.65285262  0.75710676  1
  O  O45  1  0.00835118  0.27296048  0.50033577  1
  O  O46  1  0.35945643  0.88119827  0.74017651  1
  O  O47  1  0.24541794  0.51111042  0.48808271  1
  O  O48  1  0.11044983  0.13118154  0.23955812  1
  O  O49  1  0.50837377  0.77715975  0.50081952  1
  O  O50  1  0.37310941  0.40246067  0.25718077  1
  O  O51  1  0.25815639  0.02902006  0.00089771  1
  O  O52  1  0.61024465  0.63219216  0.23892978  1
  O  O53  1  0.87219929  0.90278600  0.25828237  1
  O  O54  1  0.75805343  0.52858740  0.00028569  1
  O  O55  1  0.25446661  0.98810890  0.51187157  1
  O  O56  1  0.14036338  0.61701002  0.25979098  1
  O  O57  1  0.00645892  0.23745471  0.01161315  1
  O  O58  1  0.37681948  0.84644194  0.24247062  1
  O  O59  1  0.50671273  0.73809999  0.01095675  1
