# generated using pymatgen
data_Li3Mn4O8
_symmetry_space_group_name_H-M   'P 1'
_cell_length_a   12.03866829
_cell_length_b   8.86301785
_cell_length_c   10.21905610
_cell_angle_alpha   64.05302999
_cell_angle_beta   30.32727116
_cell_angle_gamma   42.43759857
_symmetry_Int_Tables_number   1
_chemical_formula_structural   Li3Mn4O8
_chemical_formula_sum   'Li6 Mn8 O16'
_cell_volume   301.18810096
_cell_formula_units_Z   2
loop_
 _symmetry_equiv_pos_site_id
 _symmetry_equiv_pos_as_xyz
  1  'x, y, z'
loop_
 _atom_site_type_symbol
 _atom_site_label
 _atom_site_symmetry_multiplicity
 _atom_site_fract_x
 _atom_site_fract_y
 _atom_site_fract_z
 _atom_site_occupancy
  Li  Li0  1  0.49770825  0.99132472  0.50040319  1
  Li  Li1  1  0.24689473  0.00340433  0.50146533  1
  Li  Li2  1  0.24737743  0.50082504  0.50097394  1
  Li  Li3  1  0.99875161  0.00951992  0.49990702  1
  Li  Li4  1  0.74836933  0.99796890  0.49930748  1
  Li  Li5  1  0.74761634  0.50160179  0.50044225  1
  Mn  Mn6  1  0.74779541  0.00134327  0.00050724  1
  Mn  Mn7  1  0.99731371  0.50072026  0.50079611  1
  Mn  Mn8  1  0.49983282  0.00143378  0.99773779  1
  Mn  Mn9  1  0.24798329  0.00093119  0.00041317  1
  Mn  Mn10  1  0.49607085  0.50266880  0.00242799  1
  Mn  Mn11  1  0.99897960  0.50018795  0.99875435  1
  Mn  Mn12  1  0.99503198  0.00166639  0.00347337  1
  Mn  Mn13  1  0.49704441  0.50245885  0.50114560  1
  O  O14  1  0.01134628  0.75607273  0.97569777  1
  O  O15  1  0.75381906  0.77601791  0.00134600  1
  O  O16  1  0.27653679  0.24140674  0.46130296  1
  O  O17  1  0.51330113  0.75476831  0.97399972  1
  O  O18  1  0.51393713  0.71892745  0.48372918  1
  O  O19  1  0.74058072  0.22766734  0.00025970  1
  O  O20  1  0.21706834  0.76228242  0.54131330  1
  O  O21  1  0.01354739  0.71487481  0.48407847  1
  O  O22  1  0.48162699  0.24837015  0.02723375  1
  O  O23  1  0.71814647  0.75967814  0.54034407  1
  O  O24  1  0.24362597  0.22581774  0.99695438  1
  O  O25  1  0.98116744  0.28489636  0.51748164  1
  O  O26  1  0.77752058  0.24299022  0.46047986  1
  O  O27  1  0.25168179  0.77646224  0.00412649  1
  O  O28  1  0.48146163  0.28730732  0.51716370  1
  O  O29  1  0.98324654  0.24701393  0.02587220  1
