# generated using pymatgen
data_Li3VAs2O9
_symmetry_space_group_name_H-M   'P 1'
_cell_length_a   8.83467840
_cell_length_b   8.99593490
_cell_length_c   9.94658706
_cell_angle_alpha   89.99918865
_cell_angle_beta   89.99968960
_cell_angle_gamma   89.99959279
_symmetry_Int_Tables_number   1
_chemical_formula_structural   Li3VAs2O9
_chemical_formula_sum   'Li12 V4 As8 O36'
_cell_volume   790.51686038
_cell_formula_units_Z   4
loop_
 _symmetry_equiv_pos_site_id
 _symmetry_equiv_pos_as_xyz
  1  'x, y, z'
loop_
 _atom_site_type_symbol
 _atom_site_label
 _atom_site_symmetry_multiplicity
 _atom_site_fract_x
 _atom_site_fract_y
 _atom_site_fract_z
 _atom_site_occupancy
  Li  Li0  1  0.12186546  0.83540249  0.09322548  1
  Li  Li1  1  0.12184321  0.66459034  0.59322122  1
  Li  Li2  1  0.34398722  0.63159500  0.40816519  1
  Li  Li3  1  0.34400881  0.86837208  0.90814966  1
  Li  Li4  1  0.36580423  0.64883948  0.08335078  1
  Li  Li5  1  0.36580353  0.85115102  0.58334447  1
  Li  Li6  1  0.62186531  0.16457800  0.40677474  1
  Li  Li7  1  0.62185821  0.33541833  0.90676706  1
  Li  Li8  1  0.84400506  0.13159942  0.59184294  1
  Li  Li9  1  0.84399303  0.36838974  0.09183474  1
  Li  Li10  1  0.86581376  0.35113305  0.41665239  1
  Li  Li11  1  0.86581359  0.14884992  0.91664140  1
  V  V12  1  0.24776393  0.24777901  0.31820600  1
  V  V13  1  0.24775904  0.25224963  0.81819851  1
  V  V14  1  0.74772524  0.75226535  0.18186698  1
  V  V15  1  0.74774198  0.74782383  0.68175176  1
  As  As16  1  0.06367100  0.93907813  0.75698403  1
  As  As17  1  0.06361029  0.56093848  0.25699037  1
  As  As18  1  0.43704205  0.56412677  0.75180202  1
  As  As19  1  0.43702520  0.93588480  0.25182391  1
  As  As20  1  0.56363763  0.06094884  0.74300085  1
  As  As21  1  0.56365732  0.43908562  0.24302676  1
  As  As22  1  0.93704678  0.06411095  0.24819212  1
  As  As23  1  0.93703225  0.43587180  0.74816807  1
  O  O24  1  0.06841560  0.36481449  0.27148067  1
  O  O25  1  0.06842713  0.13519272  0.77147708  1
  O  O26  1  0.15241370  0.87677366  0.61920991  1
  O  O27  1  0.15242717  0.62322540  0.11920337  1
  O  O28  1  0.12000957  0.87144197  0.90550526  1
  O  O29  1  0.11996823  0.62854044  0.40549011  1
  O  O30  1  0.13507421  0.08094273  0.26678058  1
  O  O31  1  0.13505625  0.41905176  0.76677252  1
  O  O32  1  0.24325422  0.25073221  0.47973071  1
  O  O33  1  0.24326326  0.24926996  0.97972752  1
  O  O34  1  0.36662826  0.07652201  0.77306871  1
  O  O35  1  0.36664208  0.42350095  0.27310217  1
  O  O36  1  0.38705584  0.65444069  0.89240782  1
  O  O37  1  0.38706702  0.84554202  0.39238921  1
  O  O38  1  0.35222065  0.87661594  0.10885303  1
  O  O39  1  0.35223543  0.62339155  0.60887497  1
  O  O40  1  0.42810387  0.12947920  0.28050433  1
  O  O41  1  0.42809092  0.37052676  0.78048516  1
  O  O42  1  0.56842170  0.63520082  0.22851177  1
  O  O43  1  0.56841100  0.86482331  0.72857074  1
  O  O44  1  0.65242508  0.37676992  0.38078001  1
  O  O45  1  0.65242169  0.12324806  0.88080120  1
  O  O46  1  0.61999409  0.12852431  0.59450908  1
  O  O47  1  0.61998573  0.37145213  0.09448513  1
  O  O48  1  0.63506579  0.58093872  0.73323076  1
  O  O49  1  0.63504627  0.91906785  0.23321736  1
  O  O50  1  0.74326281  0.75080042  0.52044013  1
  O  O51  1  0.74322557  0.74929964  0.02012810  1
  O  O52  1  0.86660598  0.57652959  0.22688121  1
  O  O53  1  0.86664602  0.92350823  0.72695179  1
  O  O54  1  0.88706257  0.15445401  0.10759471  1
  O  O55  1  0.88705333  0.34554338  0.60760525  1
  O  O56  1  0.85223327  0.12336386  0.39112902  1
  O  O57  1  0.85222137  0.37660800  0.89113689  1
  O  O58  1  0.92809491  0.62946988  0.71949491  1
  O  O59  1  0.92809429  0.87051735  0.21949036  1
