# generated using pymatgen
data_Li2Fe(BO3)2
_symmetry_space_group_name_H-M   'P 1'
_cell_length_a   4.74508312
_cell_length_b   5.88705619
_cell_length_c   4.74508308
_cell_angle_alpha   113.76647372
_cell_angle_beta   60.00000531
_cell_angle_gamma   113.76647578
_symmetry_Int_Tables_number   1
_chemical_formula_structural   Li2Fe(BO3)2
_chemical_formula_sum   'Li2 Fe1 B2 O6'
_cell_volume   101.60626248
_cell_formula_units_Z   1
loop_
 _symmetry_equiv_pos_site_id
 _symmetry_equiv_pos_as_xyz
  1  'x, y, z'
loop_
 _atom_site_type_symbol
 _atom_site_label
 _atom_site_symmetry_multiplicity
 _atom_site_fract_x
 _atom_site_fract_y
 _atom_site_fract_z
 _atom_site_occupancy
  Li  Li0  1  0.19256808  0.57770423  0.19256808  1
  Li  Li1  1  0.80743192  0.42229577  0.80743192  1
  Fe  Fe2  1  -0.00000000  0.00000000  0.00000000  1
  B  B3  1  0.59013424  0.77040271  0.59013424  1
  B  B4  1  0.40986576  0.22959729  0.40986576  1
  O  O5  1  0.28296763  0.76323666  0.61743542  1
  O  O6  1  0.38256458  0.23676334  0.13716540  1
  O  O7  1  0.13716540  0.23676334  0.71703237  1
  O  O8  1  0.86283460  0.76323666  0.28296763  1
  O  O9  1  0.61743542  0.76323666  0.86283460  1
  O  O10  1  0.71703237  0.23676334  0.38256458  1
