# generated using pymatgen
data_Eu2CoO4
_symmetry_space_group_name_H-M   'P 1'
_cell_length_a   5.89878039
_cell_length_b   7.15007477
_cell_length_c   9.54274286
_cell_angle_alpha   90.00000000
_cell_angle_beta   97.11955872
_cell_angle_gamma   90.00000000
_symmetry_Int_Tables_number   1
_chemical_formula_structural   Eu2CoO4
_chemical_formula_sum   'Eu8 Co4 O16'
_cell_volume   399.37834280
_cell_formula_units_Z   4
loop_
 _symmetry_equiv_pos_site_id
 _symmetry_equiv_pos_as_xyz
  1  'x, y, z'
loop_
 _atom_site_type_symbol
 _atom_site_label
 _atom_site_symmetry_multiplicity
 _atom_site_fract_x
 _atom_site_fract_y
 _atom_site_fract_z
 _atom_site_occupancy
  Eu  Eu0  1  0.20885007  0.99308656  0.69773651  1
  Eu  Eu1  1  0.22949401  0.35492276  0.43144482  1
  Eu  Eu2  1  0.29114993  0.49308656  0.80226349  1
  Eu  Eu3  1  0.27050599  0.85492276  0.06855518  1
  Eu  Eu4  1  0.72949401  0.14507724  0.93144482  1
  Eu  Eu5  1  0.70885007  0.50691344  0.19773651  1
  Eu  Eu6  1  0.77050599  0.64507724  0.56855518  1
  Eu  Eu7  1  0.79114993  0.00691344  0.30226349  1
  Co  Co8  1  0.26897461  0.78518583  0.41555715  1
  Co  Co9  1  0.23102539  0.28518583  0.08444285  1
  Co  Co10  1  0.76897461  0.71481417  0.91555715  1
  Co  Co11  1  0.73102539  0.21481417  0.58444285  1
  O  O12  1  0.99436663  0.65492054  0.37132706  1
  O  O13  1  0.99763338  0.26588914  0.19826797  1
  O  O14  1  0.13251958  0.15347940  0.91554068  1
  O  O15  1  0.19620636  0.03013340  0.43562345  1
  O  O16  1  0.36748042  0.65347940  0.58445932  1
  O  O17  1  0.30379364  0.53013340  0.06437655  1
  O  O18  1  0.49436663  0.84507946  0.87132706  1
  O  O19  1  0.50236662  0.76588914  0.30173203  1
  O  O20  1  0.49763338  0.23411086  0.69826797  1
  O  O21  1  0.50563337  0.15492054  0.12867294  1
  O  O22  1  0.69620636  0.46986660  0.93562345  1
  O  O23  1  0.63251958  0.34652060  0.41554068  1
  O  O24  1  0.80379364  0.96986660  0.56437655  1
  O  O25  1  0.86748042  0.84652060  0.08445932  1
  O  O26  1  0.00236662  0.73411086  0.80173203  1
  O  O27  1  0.00563337  0.34507946  0.62867294  1
