# generated using pymatgen
data_Li2Mn3NiO8
_symmetry_space_group_name_H-M   'P 1'
_cell_length_a   8.27646845
_cell_length_b   8.29083898
_cell_length_c   8.31975199
_cell_angle_alpha   89.58818923
_cell_angle_beta   89.94962592
_cell_angle_gamma   89.75987175
_symmetry_Int_Tables_number   1
_chemical_formula_structural   Li2Mn3NiO8
_chemical_formula_sum   'Li8 Mn12 Ni4 O32'
_cell_volume   570.87199188
_cell_formula_units_Z   4
loop_
 _symmetry_equiv_pos_site_id
 _symmetry_equiv_pos_as_xyz
  1  'x, y, z'
loop_
 _atom_site_type_symbol
 _atom_site_label
 _atom_site_symmetry_multiplicity
 _atom_site_fract_x
 _atom_site_fract_y
 _atom_site_fract_z
 _atom_site_occupancy
  Li  Li0  1  0.12487461  0.87455725  0.37487440  1
  Li  Li1  1  0.25275205  0.75149129  0.74817576  1
  Li  Li2  1  0.24736634  0.24871493  0.24841821  1
  Li  Li3  1  0.37450109  0.12544741  0.87471884  1
  Li  Li4  1  0.62353885  0.62476441  0.62571876  1
  Li  Li5  1  0.75173040  0.74821682  0.25129538  1
  Li  Li6  1  0.74863232  0.25223291  0.75117391  1
  Li  Li7  1  0.87614526  0.37514524  0.12585025  1
  Mn  Mn8  1  0.12509600  0.62265089  0.12079732  1
  Mn  Mn9  1  0.12143558  0.37755961  0.87469125  1
  Mn  Mn10  1  0.12230151  0.12364134  0.62318413  1
  Mn  Mn11  1  0.37782231  0.87669909  0.12264844  1
  Mn  Mn12  1  0.37905392  0.62119103  0.37464548  1
  Mn  Mn13  1  0.37514972  0.37725505  0.62106377  1
  Mn  Mn14  1  0.62255537  0.87772446  0.87742757  1
  Mn  Mn15  1  0.62415091  0.12324595  0.12436412  1
  Mn  Mn16  1  0.62494536  0.37670273  0.37806413  1
  Mn  Mn17  1  0.87554462  0.62349446  0.87876059  1
  Mn  Mn18  1  0.87510539  0.87675059  0.62408740  1
  Mn  Mn19  1  0.87799075  0.12259911  0.37796878  1
  Ni  Ni20  1  0.99588306  0.50773421  0.49696369  1
  Ni  Ni21  1  0.50062608  0.49377523  0.99614951  1
  Ni  Ni22  1  0.49417340  0.99836672  0.50032964  1
  Ni  Ni23  1  0.00239397  0.00289980  0.00184118  1
  O  O24  1  0.10415522  0.12575552  0.39445776  1
  O  O25  1  0.10636553  0.89689241  0.62813896  1
  O  O26  1  0.11247732  0.61399895  0.88590661  1
  O  O27  1  0.12912725  0.39329695  0.10024516  1
  O  O28  1  0.12283858  0.14795404  0.85959476  1
  O  O29  1  0.13318023  0.36453027  0.63408170  1
  O  O30  1  0.14364109  0.61890602  0.34934801  1
  O  O31  1  0.14713320  0.86015549  0.12389664  1
  O  O32  1  0.35393479  0.14222610  0.62426490  1
  O  O33  1  0.35586913  0.37698236  0.84967307  1
  O  O34  1  0.36706538  0.63584473  0.13484434  1
  O  O35  1  0.37839001  0.84997426  0.35715022  1
  O  O36  1  0.37163920  0.60674964  0.60016163  1
  O  O37  1  0.38839228  0.38582516  0.38606206  1
  O  O38  1  0.39407259  0.10318084  0.12801451  1
  O  O39  1  0.39634192  0.87412245  0.89397384  1
  O  O40  1  0.60211653  0.37277002  0.60694574  1
  O  O41  1  0.60907275  0.60219191  0.37386158  1
  O  O42  1  0.61413320  0.88746447  0.11279233  1
  O  O43  1  0.62781217  0.10811542  0.89882499  1
  O  O44  1  0.62504766  0.35454317  0.14241195  1
  O  O45  1  0.63798059  0.13722849  0.36582663  1
  O  O46  1  0.63806099  0.87791448  0.64682026  1
  O  O47  1  0.64538566  0.64154135  0.88137679  1
  O  O48  1  0.85629965  0.35904991  0.37831605  1
  O  O49  1  0.86191154  0.12293489  0.14902240  1
  O  O50  1  0.86134724  0.86179580  0.86204688  1
  O  O51  1  0.87304924  0.64587351  0.64474254  1
  O  O52  1  0.87279398  0.89212497  0.39885973  1
  O  O53  1  0.88631996  0.11254513  0.61315331  1
  O  O54  1  0.89159264  0.39744199  0.87445766  1
  O  O55  1  0.89868259  0.62728377  0.10759051  1
