# generated using pymatgen
data_Li3MnV(PO4)3
_symmetry_space_group_name_H-M   'P 1'
_cell_length_a   8.66183330
_cell_length_b   8.72838747
_cell_length_c   8.71488295
_cell_angle_alpha   91.50580766
_cell_angle_beta   60.90945995
_cell_angle_gamma   61.39011892
_symmetry_Int_Tables_number   1
_chemical_formula_structural   Li3MnV(PO4)3
_chemical_formula_sum   'Li6 Mn2 V2 P6 O24'
_cell_volume   475.76378557
_cell_formula_units_Z   2
loop_
 _symmetry_equiv_pos_site_id
 _symmetry_equiv_pos_as_xyz
  1  'x, y, z'
loop_
 _atom_site_type_symbol
 _atom_site_label
 _atom_site_symmetry_multiplicity
 _atom_site_fract_x
 _atom_site_fract_y
 _atom_site_fract_z
 _atom_site_occupancy
  Li  Li0  1  0.62848425  0.70470478  0.11141148  1
  Li  Li1  1  0.38835399  0.67636507  0.64883417  1
  Li  Li2  1  0.62849197  0.20497931  0.26090797  1
  Li  Li3  1  0.98431428  0.74541189  0.63726525  1
  Li  Li4  1  0.98368581  0.24750638  0.37950689  1
  Li  Li5  1  0.38503719  0.17637672  0.96396588  1
  Mn  Mn6  1  0.21048029  0.85637487  0.14695779  1
  Mn  Mn7  1  0.80353899  0.63842280  0.35106286  1
  V  V8  1  0.20823751  0.36000897  0.64395700  1
  V  V9  1  0.79567221  0.14237598  0.84720950  1
  P  P10  1  0.28019414  0.95473488  0.47050790  1
  P  P11  1  0.28226777  0.45477254  0.24949552  1
  P  P12  1  0.99867563  0.25810243  0.04809973  1
  P  P13  1  0.72126813  0.53956233  0.75077593  1
  P  P14  1  0.99663326  0.75612680  0.95469796  1
  P  P15  1  0.72257838  0.03920666  0.52527156  1
  O  O16  1  0.31787747  0.91821313  0.27370736  1
  O  O17  1  0.09478236  0.94372580  0.62010685  1
  O  O18  1  0.23564633  0.64545186  0.25001417  1
  O  O19  1  0.09741294  0.43910698  0.28237625  1
  O  O20  1  0.48297060  0.79357217  0.44838641  1
  O  O21  1  0.16685399  0.10827434  0.07506531  1
  O  O22  1  0.48389822  0.29278448  0.06580104  1
  O  O23  1  0.12703015  0.80709426  0.99261330  1
  O  O24  1  0.87106094  0.69667202  0.10420632  1
  O  O25  1  0.32395447  0.41532852  0.40354189  1
  O  O26  1  0.17036342  0.60137144  0.75743015  1
  O  O27  1  0.78429073  0.83732491  0.47781297  1
  O  O28  1  0.23533292  0.14665104  0.51693168  1
  O  O29  1  0.82108941  0.42833498  0.23596226  1
  O  O30  1  0.66612501  0.58293928  0.60713034  1
  O  O31  1  0.12242618  0.30854980  0.88506388  1
  O  O32  1  0.87002655  0.19710083  0.02228427  1
  O  O33  1  0.53470524  0.68284448  0.94836249  1
  O  O34  1  0.82832431  0.92130823  0.93880521  1
  O  O35  1  0.53150150  0.18160564  0.52237523  1
  O  O36  1  0.91301354  0.55039861  0.70592518  1
  O  O37  1  0.78485308  0.33907097  0.73844244  1
  O  O38  1  0.90977718  0.05248941  0.38178821  1
  O  O39  1  0.67077165  0.08366741  0.72494140  1
