# generated using pymatgen
data_Li2TiFeO4
_symmetry_space_group_name_H-M   'P 1'
_cell_length_a   5.32228133
_cell_length_b   4.11232380
_cell_length_c   4.11140580
_cell_angle_alpha   90.42986972
_cell_angle_beta   67.09935248
_cell_angle_gamma   112.90874025
_symmetry_Int_Tables_number   1
_chemical_formula_structural   Li2TiFeO4
_chemical_formula_sum   'Li2 Ti1 Fe1 O4'
_cell_volume   75.24820404
_cell_formula_units_Z   1
loop_
 _symmetry_equiv_pos_site_id
 _symmetry_equiv_pos_as_xyz
  1  'x, y, z'
loop_
 _atom_site_type_symbol
 _atom_site_label
 _atom_site_symmetry_multiplicity
 _atom_site_fract_x
 _atom_site_fract_y
 _atom_site_fract_z
 _atom_site_occupancy
  Li  Li0  1  0.49989879  0.24990853  0.25001563  1
  Li  Li1  1  0.99976767  0.99989643  0.00013226  1
  Ti  Ti2  1  -0.00016344  0.50006870  0.50025959  1
  Fe  Fe3  1  0.50014226  0.75007220  0.74991031  1
  O  O4  1  0.56490675  0.28244545  0.71753079  1
  O  O5  1  0.00199735  0.00092018  0.49899280  1
  O  O6  1  0.43534227  0.71764872  0.28229456  1
  O  O7  1  -0.00189165  0.49903979  0.00086505  1
