# generated using pymatgen
data_Li4Ti2Co7O18
_symmetry_space_group_name_H-M   'P 1'
_cell_length_a   8.77486363
_cell_length_b   25.05858319
_cell_length_c   2.89461664
_cell_angle_alpha   89.92166382
_cell_angle_beta   90.00756798
_cell_angle_gamma   89.88514026
_symmetry_Int_Tables_number   1
_chemical_formula_structural   Li4Ti2Co7O18
_chemical_formula_sum   'Li8 Ti4 Co14 O36'
_cell_volume   636.48278150
_cell_formula_units_Z   2
loop_
 _symmetry_equiv_pos_site_id
 _symmetry_equiv_pos_as_xyz
  1  'x, y, z'
loop_
 _atom_site_type_symbol
 _atom_site_label
 _atom_site_symmetry_multiplicity
 _atom_site_fract_x
 _atom_site_fract_y
 _atom_site_fract_z
 _atom_site_occupancy
  Li  Li0  1  0.19424428  0.98673024  0.00014990  1
  Li  Li1  1  0.17274470  0.21010073  0.99992847  1
  Li  Li2  1  0.31612452  0.70811650  -0.00015130  1
  Li  Li3  1  0.30965078  0.48935957  0.00005365  1
  Li  Li4  1  0.69084958  0.50813491  0.99989239  1
  Li  Li5  1  0.68447599  0.29326118  0.00003369  1
  Li  Li6  1  0.82087241  0.79094370  0.00011189  1
  Li  Li7  1  0.80898982  0.01011762  0.99981989  1
  Ti  Ti8  1  0.99758277  0.10525252  -0.00006685  1
  Ti  Ti9  1  0.50024901  0.60759610  -0.00009872  1
  Ti  Ti10  1  0.49819293  0.39472358  0.00041835  1
  Ti  Ti11  1  0.00165677  0.89321316  0.00097726  1
  Co  Co12  1  -0.00020346  0.50042425  0.99998641  1
  Co  Co13  1  0.02147717  0.30737656  0.99997119  1
  Co  Co14  1  0.14267223  0.58892908  0.49987033  1
  Co  Co15  1  0.15172768  0.80282686  0.50598247  1
  Co  Co16  1  0.34824070  0.30304978  0.50014617  1
  Co  Co17  1  0.35952271  0.08698465  0.49991227  1
  Co  Co18  1  0.46849758  0.80742784  0.99865841  1
  Co  Co19  1  0.49972676  0.99986449  0.00004876  1
  Co  Co20  1  0.52712383  0.19231705  0.99992253  1
  Co  Co21  1  0.63952727  0.91236030  0.49993185  1
  Co  Co22  1  0.65181907  0.69671997  0.49969204  1
  Co  Co23  1  0.84480882  0.19551589  0.49979563  1
  Co  Co24  1  0.86409335  0.41275313  0.50006194  1
  Co  Co25  1  0.97871481  0.68948182  0.99896386  1
  O  O26  1  0.01457806  0.42507349  0.00013114  1
  O  O27  1  0.00653778  0.58070869  0.99991032  1
  O  O28  1  0.06243738  0.93817874  0.50011349  1
  O  O29  1  0.04056354  0.16351186  0.49994990  1
  O  O30  1  0.10106270  0.66192251  0.49946987  1
  O  O31  1  0.10957955  0.75705498  0.99228170  1
  O  O32  1  0.16012396  0.51410143  0.50020053  1
  O  O33  1  0.14381907  0.27940076  0.50014823  1
  O  O34  1  0.19974061  0.84970663  0.00809262  1
  O  O35  1  0.20590572  0.09101317  -0.00000996  1
  O  O36  1  0.28426234  0.59309643  -0.00001738  1
  O  O37  1  0.30390140  0.34976929  -0.00016103  1
  O  O38  1  0.35300775  0.77593335  0.49708910  1
  O  O39  1  0.34147297  0.00830146  0.50026664  1
  O  O40  1  0.38917597  0.25606487  0.00029778  1
  O  O41  1  0.42099612  0.15983515  0.49984747  1
  O  O42  1  0.45523554  0.66448860  0.49996926  1
  O  O43  1  0.43525673  0.43956927  0.49986576  1
  O  O44  1  0.51567628  0.07016115  0.99987176  1
  O  O45  1  0.48548077  0.92860014  -0.00001821  1
  O  O46  1  0.55202418  0.56150487  0.50040839  1
  O  O47  1  0.54245271  0.33676673  0.50016775  1
  O  O48  1  0.58008874  0.83983757  0.50016613  1
  O  O49  1  0.61698007  0.74357499  -0.00014032  1
  O  O50  1  0.65923435  0.99003442  0.49974109  1
  O  O51  1  0.64440702  0.22345041  0.49976895  1
  O  O52  1  0.69406374  0.64869472  0.00006753  1
  O  O53  1  0.70504038  0.41281221  0.00000812  1
  O  O54  1  0.79349735  0.90814582  0.00020065  1
  O  O55  1  0.79688749  0.14861860  -0.00010331  1
  O  O56  1  0.85655405  0.71775983  0.49958020  1
  O  O57  1  0.84644136  0.49611143  0.49982419  1
  O  O58  1  0.88992204  0.24166647  0.00008169  1
  O  O59  1  0.90546819  0.33569402  0.49989342  1
  O  O60  1  0.95632612  0.83518514  0.49866260  1
  O  O61  1  0.93841687  0.06006633  0.50035943  1
