# generated using pymatgen
data_Li19Cu4(HO2)8
_symmetry_space_group_name_H-M   'P 1'
_cell_length_a   5.49808476
_cell_length_b   7.44292733
_cell_length_c   11.00248017
_cell_angle_alpha   90.36539952
_cell_angle_beta   89.50661475
_cell_angle_gamma   90.13406683
_symmetry_Int_Tables_number   1
_chemical_formula_structural   Li19Cu4(HO2)8
_chemical_formula_sum   'Li19 Cu4 H8 O16'
_cell_volume   450.21476813
_cell_formula_units_Z   1
loop_
 _symmetry_equiv_pos_site_id
 _symmetry_equiv_pos_as_xyz
  1  'x, y, z'
loop_
 _atom_site_type_symbol
 _atom_site_label
 _atom_site_symmetry_multiplicity
 _atom_site_fract_x
 _atom_site_fract_y
 _atom_site_fract_z
 _atom_site_occupancy
  Li  Li0  1  0.05995191  0.74857965  0.04872431  1
  Li  Li1  1  0.06131703  0.24096484  0.21979844  1
  Li  Li2  1  0.05903224  0.23485081  0.72595811  1
  Li  Li3  1  0.20433333  0.49391439  0.84543255  1
  Li  Li4  1  0.22396751  0.00553046  0.84796783  1
  Li  Li5  1  0.28633745  0.99082422  0.34769071  1
  Li  Li6  1  0.28368403  0.50818103  0.34628334  1
  Li  Li7  1  0.48577968  0.74709139  0.24405835  1
  Li  Li8  1  0.44279673  0.73301754  0.72053684  1
  Li  Li9  1  0.45203595  0.25113997  0.54833969  1
  Li  Li10  1  0.55493997  0.25847349  0.77436234  1
  Li  Li11  1  0.57410704  0.25005394  0.28380447  1
  Li  Li12  1  0.71176392  0.00292125  0.65817416  1
  Li  Li13  1  0.73356545  0.49459207  0.65952818  1
  Li  Li14  1  0.78784501  0.49983057  0.14995776  1
  Li  Li15  1  0.78255868  0.99613944  0.14875477  1
  Li  Li16  1  0.94102400  0.24988421  0.95098433  1
  Li  Li17  1  0.93746746  0.76558613  0.79428049  1
  Li  Li18  1  0.96431104  0.75001776  0.26163070  1
  Cu  Cu19  1  -0.00008485  0.25050900  0.48241916  1
  Cu  Cu20  1  0.50215153  0.75031904  0.98042296  1
  Cu  Cu21  1  0.49323414  0.24879970  0.01857812  1
  Cu  Cu22  1  0.98316635  0.74972622  0.52160029  1
  H  H23  1  0.25905558  0.48882407  0.11402295  1
  H  H24  1  0.25991638  0.00580531  0.11421098  1
  H  H25  1  0.25898153  0.97863086  0.61151909  1
  H  H26  1  0.25836213  0.51049266  0.61046651  1
  H  H27  1  0.72757581  0.97258362  0.38804967  1
  H  H28  1  0.73683093  0.99191783  0.89041561  1
  H  H29  1  0.72687051  0.52713969  0.38822208  1
  H  H30  1  0.74084022  0.51780645  0.89218150  1
  O  O31  1  0.14190331  0.96617701  0.17534613  1
  O  O32  1  0.14603225  0.53840886  0.17420418  1
  O  O33  1  0.18725983  0.75021115  0.39755466  1
  O  O34  1  0.25531981  0.25025203  0.37850582  1
  O  O35  1  0.24393116  0.74981385  0.87865899  1
  O  O36  1  0.27566598  0.25126086  0.89812962  1
  O  O37  1  0.35685127  0.46509666  0.67716120  1
  O  O38  1  0.34488572  0.04381434  0.67535510  1
  O  O39  1  0.64219900  0.97940724  0.31108143  1
  O  O40  1  0.64217986  0.52053114  0.31103217  1
  O  O41  1  0.72617162  0.74762495  0.09690512  1
  O  O42  1  0.75843606  0.24800621  0.11491763  1
  O  O43  1  0.76798153  0.74934552  0.64395623  1
  O  O44  1  0.78312443  0.24783178  0.60499332  1
  O  O45  1  0.84964976  0.03847158  0.82850779  1
  O  O46  1  0.83988176  0.45423623  0.83143232  1
