# generated using pymatgen
data_Ca3CoO6
_symmetry_space_group_name_H-M   'P 1'
_cell_length_a   6.38565360
_cell_length_b   6.38565380
_cell_length_c   6.38565359
_cell_angle_alpha   88.56242103
_cell_angle_beta   88.56242186
_cell_angle_gamma   88.56242042
_symmetry_Int_Tables_number   1
_chemical_formula_structural   Ca3CoO6
_chemical_formula_sum   'Ca6 Co2 O12'
_cell_volume   260.14324078
_cell_formula_units_Z   2
loop_
 _symmetry_equiv_pos_site_id
 _symmetry_equiv_pos_as_xyz
  1  'x, y, z'
loop_
 _atom_site_type_symbol
 _atom_site_label
 _atom_site_symmetry_multiplicity
 _atom_site_fract_x
 _atom_site_fract_y
 _atom_site_fract_z
 _atom_site_occupancy
  Ca  Ca0  1  0.10497006  0.75000000  0.39502994  1
  Ca  Ca1  1  0.75000000  0.39502994  0.10497006  1
  Ca  Ca2  1  0.60497006  0.89502994  0.25000000  1
  Ca  Ca3  1  0.89502994  0.25000000  0.60497006  1
  Ca  Ca4  1  0.25000000  0.60497006  0.89502994  1
  Ca  Ca5  1  0.39502994  0.10497006  0.75000000  1
  Co  Co6  1  0.00000000  -0.00000000  -0.00000000  1
  Co  Co7  1  0.50000000  0.50000000  0.50000000  1
  O  O8  1  0.77752830  0.57523331  0.43418612  1
  O  O9  1  0.72247170  0.06581388  0.92476669  1
  O  O10  1  0.57523331  0.43418612  0.77752830  1
  O  O11  1  0.56581388  0.22247170  0.42476669  1
  O  O12  1  0.93418612  0.07523331  0.27752830  1
  O  O13  1  0.42476669  0.56581388  0.22247170  1
  O  O14  1  0.43418612  0.77752830  0.57523331  1
  O  O15  1  0.92476669  0.72247170  0.06581388  1
  O  O16  1  0.07523331  0.27752830  0.93418612  1
  O  O17  1  0.27752830  0.93418612  0.07523331  1
  O  O18  1  0.06581388  0.92476669  0.72247170  1
  O  O19  1  0.22247170  0.42476669  0.56581388  1
