# generated using pymatgen
data_Li2NbCo3O8
_symmetry_space_group_name_H-M   'P 1'
_cell_length_a   6.01203270
_cell_length_b   6.01203209
_cell_length_c   6.05189768
_cell_angle_alpha   60.21767010
_cell_angle_beta   119.78232803
_cell_angle_gamma   119.99999314
_symmetry_Int_Tables_number   1
_chemical_formula_structural   Li2NbCo3O8
_chemical_formula_sum   'Li2 Nb1 Co3 O8'
_cell_volume   155.18162249
_cell_formula_units_Z   1
loop_
 _symmetry_equiv_pos_site_id
 _symmetry_equiv_pos_as_xyz
  1  'x, y, z'
loop_
 _atom_site_type_symbol
 _atom_site_label
 _atom_site_symmetry_multiplicity
 _atom_site_fract_x
 _atom_site_fract_y
 _atom_site_fract_z
 _atom_site_occupancy
  Li  Li0  1  0.87525185  0.12474815  0.62575656  1
  Li  Li1  1  0.12474815  0.87525185  0.37424344  1
  Nb  Nb2  1  0.50000000  0.50000000  0.50000000  1
  Co  Co3  1  0.50000000  0.50000000  0.00000000  1
  Co  Co4  1  0.50000000  -0.00000000  0.00000000  1
  Co  Co5  1  -0.00000000  0.50000000  0.00000000  1
  O  O6  1  0.73733966  0.71987883  0.75480048  1
  O  O7  1  0.73733966  0.26266035  0.75480048  1
  O  O8  1  0.26696373  0.73303627  0.80089120  1
  O  O9  1  0.28012117  0.26266034  0.75480048  1
  O  O10  1  0.71987883  0.73733966  0.24519952  1
  O  O11  1  0.73303627  0.26696373  0.19910880  1
  O  O12  1  0.26266034  0.73733965  0.24519952  1
  O  O13  1  0.26266034  0.28012117  0.24519952  1
