# generated using pymatgen
data_Co2OF3
_symmetry_space_group_name_H-M   'P 1'
_cell_length_a   4.67680922
_cell_length_b   4.67680922
_cell_length_c   15.90124174
_cell_angle_alpha   90.00000000
_cell_angle_beta   90.00000000
_cell_angle_gamma   93.40982982
_symmetry_Int_Tables_number   1
_chemical_formula_structural   Co2OF3
_chemical_formula_sum   'Co10 O5 F15'
_cell_volume   347.18488427
_cell_formula_units_Z   5
loop_
 _symmetry_equiv_pos_site_id
 _symmetry_equiv_pos_as_xyz
  1  'x, y, z'
loop_
 _atom_site_type_symbol
 _atom_site_label
 _atom_site_symmetry_multiplicity
 _atom_site_fract_x
 _atom_site_fract_y
 _atom_site_fract_z
 _atom_site_occupancy
  Co  Co0  1  0.97598273  0.97598273  0.99984495  1
  Co  Co1  1  0.97598273  0.97598273  0.20015505  1
  Co  Co2  1  0.02457637  0.02457637  0.39986693  1
  Co  Co3  1  0.01768789  0.01768789  0.60000000  1
  Co  Co4  1  0.02457637  0.02457637  0.80013307  1
  Co  Co5  1  0.52006536  0.52006536  0.10000000  1
  Co  Co6  1  0.48069715  0.48069715  0.49989144  1
  Co  Co7  1  0.50006757  0.50006757  0.30001071  1
  Co  Co8  1  0.50006757  0.50006757  0.89998929  1
  Co  Co9  1  0.48069715  0.48069715  0.70010856  1
  O  O10  1  0.29649365  0.29649365  0.60000000  1
  O  O11  1  0.30213126  0.30213126  0.80215049  1
  O  O12  1  0.30213126  0.30213126  0.39784951  1
  O  O13  1  0.69826569  0.69826569  0.99788124  1
  O  O14  1  0.69826569  0.69826569  0.20211876  1
  F  F15  1  0.19514128  0.80600595  0.10000000  1
  F  F16  1  0.19296416  0.80363469  0.49981474  1
  F  F17  1  0.19438230  0.80606447  0.30004556  1
  F  F18  1  0.19296416  0.80363469  0.70018526  1
  F  F19  1  0.19438230  0.80606447  0.89995444  1
  F  F20  1  0.28896918  0.28896918  0.00162311  1
  F  F21  1  0.28896918  0.28896918  0.19837689  1
  F  F22  1  0.71134926  0.71134926  0.40170284  1
  F  F23  1  0.70643320  0.70643320  0.60000000  1
  F  F24  1  0.71134926  0.71134926  0.79829716  1
  F  F25  1  0.80600595  0.19514128  0.10000000  1
  F  F26  1  0.80363469  0.19296416  0.49981474  1
  F  F27  1  0.80606447  0.19438230  0.30004556  1
  F  F28  1  0.80606447  0.19438230  0.89995444  1
  F  F29  1  0.80363469  0.19296416  0.70018526  1
