# generated using pymatgen
data_Ca3Fe5Sn3O16
_symmetry_space_group_name_H-M   'P 1'
_cell_length_a   9.43492899
_cell_length_b   10.97230303
_cell_length_c   3.13571609
_cell_angle_alpha   90.00000000
_cell_angle_beta   90.00000000
_cell_angle_gamma   89.88353898
_symmetry_Int_Tables_number   1
_chemical_formula_structural   Ca3Fe5Sn3O16
_chemical_formula_sum   'Ca3 Fe5 Sn3 O16'
_cell_volume   324.61775249
_cell_formula_units_Z   1
loop_
 _symmetry_equiv_pos_site_id
 _symmetry_equiv_pos_as_xyz
  1  'x, y, z'
loop_
 _atom_site_type_symbol
 _atom_site_label
 _atom_site_symmetry_multiplicity
 _atom_site_fract_x
 _atom_site_fract_y
 _atom_site_fract_z
 _atom_site_occupancy
  Ca  Ca0  1  0.25838436  0.85384741  0.25000000  1
  Ca  Ca1  1  0.74015802  0.14941231  0.75000000  1
  Ca  Ca2  1  0.75229633  0.65874742  0.25000000  1
  Fe  Fe3  1  0.42599513  0.10322970  0.25000000  1
  Fe  Fe4  1  0.43604758  0.62030886  0.25000000  1
  Fe  Fe5  1  0.58406407  0.89386492  0.75000000  1
  Fe  Fe6  1  0.91959304  0.39392002  0.25000000  1
  Fe  Fe7  1  0.93105310  0.88681219  0.25000000  1
  Sn  Sn8  1  0.07404797  0.11824752  0.75000000  1
  Sn  Sn9  1  0.09046527  0.59773099  0.75000000  1
  Sn  Sn10  1  0.54944478  0.38990677  0.75000000  1
  O  O11  1  0.02598449  0.71658713  0.25000000  1
  O  O12  1  0.08486510  0.92833690  0.75000000  1
  O  O13  1  0.11225090  0.47697780  0.25000000  1
  O  O14  1  0.21186102  0.14442323  0.25000000  1
  O  O15  1  0.29108504  0.67542587  0.75000000  1
  O  O16  1  0.38713575  0.97861453  0.75000000  1
  O  O17  1  0.42052848  0.43500386  0.25000000  1
  O  O18  1  0.49088203  0.20749621  0.75000000  1
  O  O19  1  0.52478988  0.78838220  0.25000000  1
  O  O20  1  0.58908498  0.57771353  0.75000000  1
  O  O21  1  0.62261529  0.02255904  0.25000000  1
  O  O22  1  0.70331071  0.33726974  0.25000000  1
  O  O23  1  0.78969431  0.83308410  0.75000000  1
  O  O24  1  0.88042910  0.52132290  0.75000000  1
  O  O25  1  0.91909155  0.07645477  0.25000000  1
  O  O26  1  0.95903971  0.28151908  0.75000000  1
