# generated using pymatgen
data_NpNO5
_symmetry_space_group_name_H-M   'P 1'
_cell_length_a   9.70355688
_cell_length_b   7.43607057
_cell_length_c   8.87805068
_cell_angle_alpha   90.00000000
_cell_angle_beta   90.00000000
_cell_angle_gamma   128.52800635
_symmetry_Int_Tables_number   1
_chemical_formula_structural   NpNO5
_chemical_formula_sum   'Np4 N4 O20'
_cell_volume   501.14973457
_cell_formula_units_Z   4
loop_
 _symmetry_equiv_pos_site_id
 _symmetry_equiv_pos_as_xyz
  1  'x, y, z'
loop_
 _atom_site_type_symbol
 _atom_site_label
 _atom_site_symmetry_multiplicity
 _atom_site_fract_x
 _atom_site_fract_y
 _atom_site_fract_z
 _atom_site_occupancy
  Np  Np0  1  0.60365785  0.95414383  0.49898408  1
  Np  Np1  1  0.39634215  0.04585617  0.99898408  1
  Np  Np2  1  0.61683104  0.45930929  0.70941588  1
  Np  Np3  1  0.38316896  0.54069071  0.20941588  1
  N  N4  1  0.79711175  0.90899491  0.94002445  1
  N  N5  1  0.20288825  0.09100509  0.44002445  1
  N  N6  1  0.21279025  0.60925991  0.78244819  1
  N  N7  1  0.78720975  0.39074009  0.28244819  1
  O  O8  1  0.33161061  0.31963811  0.39694406  1
  O  O9  1  0.66838939  0.68036189  0.89694406  1
  O  O10  1  0.83219047  0.15246314  0.54501136  1
  O  O11  1  0.16780953  0.84753686  0.04501136  1
  O  O12  1  0.58204445  0.21013032  0.56576958  1
  O  O13  1  0.41795555  0.78986968  0.06576958  1
  O  O14  1  0.58667533  0.69648482  0.59458745  1
  O  O15  1  0.41332467  0.30351518  0.09458745  1
  O  O16  1  0.84334896  0.65411506  0.65734470  1
  O  O17  1  0.15665104  0.34588494  0.15734470  1
  O  O18  1  0.34276605  0.81512596  0.74681436  1
  O  O19  1  0.65723395  0.18487404  0.24681436  1
  O  O20  1  0.38816027  0.24691417  0.77551973  1
  O  O21  1  0.61183973  0.75308583  0.27551973  1
  O  O22  1  0.79858253  0.04714262  0.87057564  1
  O  O23  1  0.20141747  0.95285738  0.37057564  1
  O  O24  1  0.62080389  0.24450393  0.91702320  1
  O  O25  1  0.37919611  0.75549607  0.41702320  1
  O  O26  1  0.19629092  0.44116822  0.74553733  1
  O  O27  1  0.80370908  0.55883178  0.24553733  1
