# generated using pymatgen
data_Fe2OF2
_symmetry_space_group_name_H-M   'P 1'
_cell_length_a   5.36087697
_cell_length_b   5.48566902
_cell_length_c   14.27973967
_cell_angle_alpha   90.01594603
_cell_angle_beta   90.00000000
_cell_angle_gamma   60.74971183
_symmetry_Int_Tables_number   1
_chemical_formula_structural   Fe2OF2
_chemical_formula_sum   'Fe12 O6 F12'
_cell_volume   366.39364641
_cell_formula_units_Z   6
loop_
 _symmetry_equiv_pos_site_id
 _symmetry_equiv_pos_as_xyz
  1  'x, y, z'
loop_
 _atom_site_type_symbol
 _atom_site_label
 _atom_site_symmetry_multiplicity
 _atom_site_fract_x
 _atom_site_fract_y
 _atom_site_fract_z
 _atom_site_occupancy
  Fe  Fe0  1  0.99822756  0.98744028  0.64705203  1
  Fe  Fe1  1  0.01433216  0.98744028  0.14705203  1
  Fe  Fe2  1  0.63422817  0.71641650  0.81201512  1
  Fe  Fe3  1  0.65086473  0.70319848  0.52210886  1
  Fe  Fe4  1  0.64935633  0.71641650  0.31201512  1
  Fe  Fe5  1  0.64593679  0.70319848  0.02210886  1
  Fe  Fe6  1  0.35406321  0.29680152  0.97789114  1
  Fe  Fe7  1  0.35064367  0.28358350  0.68798488  1
  Fe  Fe8  1  0.34913527  0.29680152  0.47789114  1
  Fe  Fe9  1  0.36577183  0.28358350  0.18798488  1
  Fe  Fe10  1  0.98566784  0.01255972  0.85294797  1
  Fe  Fe11  1  0.00177244  0.01255972  0.35294797  1
  O  O12  1  0.67815280  0.97028416  0.91499561  1
  O  O13  1  0.35156304  0.97028416  0.41499561  1
  O  O14  1  0.64843696  0.02971584  0.58500439  1
  O  O15  1  0.32184720  0.02971584  0.08500439  1
  O  O16  1  0.26711196  -0.00000000  0.75000000  1
  O  O17  1  0.73288804  -0.00000000  0.25000000  1
  F  F18  1  0.01701432  0.66150689  0.74943631  1
  F  F19  1  0.32147879  0.66150689  0.24943631  1
  F  F20  1  0.35681134  0.65859293  0.91833036  1
  F  F21  1  0.98459573  0.65859293  0.41833036  1
  F  F22  1  0.33721575  0.61164936  0.58252061  1
  F  F23  1  0.05113589  0.61164936  0.08252061  1
  F  F24  1  0.94886411  0.38835064  0.91747939  1
  F  F25  1  0.66278425  0.38835064  0.41747939  1
  F  F26  1  0.01540427  0.34140707  0.58166964  1
  F  F27  1  0.64318866  0.34140707  0.08166964  1
  F  F28  1  0.67852121  0.33849311  0.75056369  1
  F  F29  1  0.98298568  0.33849311  0.25056369  1
