# generated using pymatgen
data_Ag2Se
_symmetry_space_group_name_H-M   'P 1'
_cell_length_a   4.89078394
_cell_length_b   6.67292170
_cell_length_c   11.13631391
_cell_angle_alpha   90.00000000
_cell_angle_beta   90.00000000
_cell_angle_gamma   90.00000000
_symmetry_Int_Tables_number   1
_chemical_formula_structural   Ag2Se
_chemical_formula_sum   'Ag8 Se4'
_cell_volume   363.44271711
_cell_formula_units_Z   4
loop_
 _symmetry_equiv_pos_site_id
 _symmetry_equiv_pos_as_xyz
  1  'x, y, z'
loop_
 _atom_site_type_symbol
 _atom_site_label
 _atom_site_symmetry_multiplicity
 _atom_site_fract_x
 _atom_site_fract_y
 _atom_site_fract_z
 _atom_site_occupancy
  Ag  Ag0  1  0.54635339  0.02826209  0.14824511  1
  Ag  Ag1  1  0.04635339  0.47173791  0.85175489  1
  Ag  Ag2  1  0.45364661  0.52826209  0.35175489  1
  Ag  Ag3  1  0.95364661  0.97173791  0.64824511  1
  Ag  Ag4  1  0.51706147  0.69320871  0.74926591  1
  Ag  Ag5  1  0.01706147  0.80679129  0.25073409  1
  Ag  Ag6  1  0.48293853  0.19320871  0.75073409  1
  Ag  Ag7  1  0.98293853  0.30679129  0.24926591  1
  Se  Se8  1  0.44979171  0.94316132  0.58151832  1
  Se  Se9  1  0.94979171  0.55683868  0.41848168  1
  Se  Se10  1  0.55020829  0.44316132  0.91848168  1
  Se  Se11  1  0.05020829  0.05683868  0.08151832  1
