# generated using pymatgen
data_KSe3
_symmetry_space_group_name_H-M   'P 1'
_cell_length_a   9.60382294
_cell_length_b   9.60382294
_cell_length_c   8.12006701
_cell_angle_alpha   42.12712865
_cell_angle_beta   137.87287135
_cell_angle_gamma   140.50265909
_symmetry_Int_Tables_number   1
_chemical_formula_structural   KSe3
_chemical_formula_sum   'K2 Se6'
_cell_volume   293.27864592
_cell_formula_units_Z   2
loop_
 _symmetry_equiv_pos_site_id
 _symmetry_equiv_pos_as_xyz
  1  'x, y, z'
loop_
 _atom_site_type_symbol
 _atom_site_label
 _atom_site_symmetry_multiplicity
 _atom_site_fract_x
 _atom_site_fract_y
 _atom_site_fract_z
 _atom_site_occupancy
  K  K0  1  0.91041752  0.12425521  0.51848035  1
  K  K1  1  0.12425521  0.91041752  0.48151965  1
  Se  Se2  1  0.98141743  0.35602394  0.98760105  1
  Se  Se3  1  0.35602394  0.98141743  0.01239895  1
  Se  Se4  1  0.71305981  0.14433012  0.72514137  1
  Se  Se5  1  0.14433012  0.71305981  0.27485863  1
  Se  Se6  1  0.72250869  0.58598728  0.00246386  1
  Se  Se7  1  0.58598728  0.72250869  0.99753614  1
