# generated using pymatgen
data_Li2MgCo3O8
_symmetry_space_group_name_H-M   'P 1'
_cell_length_a   5.73256368
_cell_length_b   5.67313902
_cell_length_c   5.90237702
_cell_angle_alpha   61.90206878
_cell_angle_beta   90.00000443
_cell_angle_gamma   120.34711379
_symmetry_Int_Tables_number   1
_chemical_formula_structural   Li2MgCo3O8
_chemical_formula_sum   'Li2 Mg1 Co3 O8'
_cell_volume   138.80783525
_cell_formula_units_Z   1
loop_
 _symmetry_equiv_pos_site_id
 _symmetry_equiv_pos_as_xyz
  1  'x, y, z'
loop_
 _atom_site_type_symbol
 _atom_site_label
 _atom_site_symmetry_multiplicity
 _atom_site_fract_x
 _atom_site_fract_y
 _atom_site_fract_z
 _atom_site_occupancy
  Li  Li0  1  0.50000000  0.50000000  0.50000000  1
  Li  Li1  1  -0.00000000  0.50000000  0.50000000  1
  Mg  Mg2  1  -0.00000000  -0.00000000  0.00000000  1
  Co  Co3  1  0.50000000  -0.00000000  0.00000000  1
  Co  Co4  1  0.50000000  0.50000000  0.00000000  1
  Co  Co5  1  -0.00000000  0.50000000  0.00000000  1
  O  O6  1  0.73583332  0.47166663  0.79772395  1
  O  O7  1  0.71197432  0.96034779  0.79790650  1
  O  O8  1  0.24136071  0.48272142  0.78687093  1
  O  O9  1  0.24837247  0.96034779  0.79790650  1
  O  O10  1  0.75162753  0.03965221  0.20209350  1
  O  O11  1  0.75863929  0.51727858  0.21312907  1
  O  O12  1  0.28802568  0.03965221  0.20209350  1
  O  O13  1  0.26416668  0.52833337  0.20227605  1
