# generated using pymatgen
data_Mg16Al12Sn
_symmetry_space_group_name_H-M   'P 1'
_cell_length_a   9.13977564
_cell_length_b   9.13977648
_cell_length_c   9.13977564
_cell_angle_alpha   109.47122316
_cell_angle_beta   109.47121386
_cell_angle_gamma   109.47122316
_symmetry_Int_Tables_number   1
_chemical_formula_structural   Mg16Al12Sn
_chemical_formula_sum   'Mg16 Al12 Sn1'
_cell_volume   587.73934342
_cell_formula_units_Z   1
loop_
 _symmetry_equiv_pos_site_id
 _symmetry_equiv_pos_as_xyz
  1  'x, y, z'
loop_
 _atom_site_type_symbol
 _atom_site_label
 _atom_site_symmetry_multiplicity
 _atom_site_fract_x
 _atom_site_fract_y
 _atom_site_fract_z
 _atom_site_occupancy
  Mg  Mg0  1  0.60006380  0.31500332  0.00000000  1
  Mg  Mg1  1  0.31500332  0.60006380  1.00000000  1
  Mg  Mg2  1  0.00000000  0.34594040  0.00000000  1
  Mg  Mg3  1  0.34594140  0.00000000  0.00000100  1
  Mg  Mg4  1  0.68499668  0.68499668  0.28506048  1
  Mg  Mg5  1  1.00000000  0.60006380  0.31500332  1
  Mg  Mg6  1  0.60006380  0.00000000  0.31500332  1
  Mg  Mg7  1  0.00000100  0.00000000  0.34594140  1
  Mg  Mg8  1  0.39993720  0.71494052  0.39993720  1
  Mg  Mg9  1  0.71494052  0.39993720  0.39993720  1
  Mg  Mg10  1  0.00000000  0.31500332  0.60006380  1
  Mg  Mg11  1  0.31500332  0.00000000  0.60006380  1
  Mg  Mg12  1  0.65405760  0.65405760  0.65405760  1
  Mg  Mg13  1  0.28506048  0.68499668  0.68499668  1
  Mg  Mg14  1  0.68499668  0.28506048  0.68499668  1
  Mg  Mg15  1  0.39993720  0.39993720  0.71494052  1
  Al  Al16  1  0.62925137  0.81279453  0.00000000  1
  Al  Al17  1  0.81279353  0.62925137  0.00000000  1
  Al  Al18  1  0.37074963  0.37074963  0.18354316  1
  Al  Al19  1  0.81645584  0.18720647  0.18720547  1
  Al  Al20  1  0.18720547  0.81645584  0.18720547  1
  Al  Al21  1  0.18354316  0.37074963  0.37074963  1
  Al  Al22  1  0.37074963  0.18354216  0.37074963  1
  Al  Al23  1  0.00000000  0.81279453  0.62925137  1
  Al  Al24  1  0.81279353  1.00000000  0.62925137  1
  Al  Al25  1  0.62925137  1.00000000  0.81279353  1
  Al  Al26  1  0.00000000  0.62925137  0.81279353  1
  Al  Al27  1  0.18720547  0.18720647  0.81645584  1
  Sn  Sn28  1  0.00000000  0.00000000  0.00000000  1
