# generated using pymatgen
data_Nd3Cd
_symmetry_space_group_name_H-M   'P 1'
_cell_length_a   7.16266607
_cell_length_b   7.16147956
_cell_length_c   5.61713324
_cell_angle_alpha   89.99903425
_cell_angle_beta   89.97666991
_cell_angle_gamma   120.00624473
_symmetry_Int_Tables_number   1
_chemical_formula_structural   Nd3Cd
_chemical_formula_sum   'Nd6 Cd2'
_cell_volume   249.51429774
_cell_formula_units_Z   2
loop_
 _symmetry_equiv_pos_site_id
 _symmetry_equiv_pos_as_xyz
  1  'x, y, z'
loop_
 _atom_site_type_symbol
 _atom_site_label
 _atom_site_symmetry_multiplicity
 _atom_site_fract_x
 _atom_site_fract_y
 _atom_site_fract_z
 _atom_site_occupancy
  Nd  Nd0  1  0.17406357  0.34816762  0.25001161  1
  Nd  Nd1  1  0.65187756  0.82596092  0.24997345  1
  Nd  Nd2  1  0.17406399  0.82594010  0.25000341  1
  Nd  Nd3  1  0.82591791  0.65178382  0.74998585  1
  Nd  Nd4  1  0.34823195  0.17406125  0.75003132  1
  Nd  Nd5  1  0.82583888  0.17410688  0.74999437  1
  Cd  Cd6  1  0.33333808  0.66666906  0.75001421  1
  Cd  Cd7  1  0.66666607  0.33330835  0.24998579  1
