# generated using pymatgen
data_Mg16Al12Ge
_symmetry_space_group_name_H-M   'P 1'
_cell_length_a   9.16098550
_cell_length_b   9.09015582
_cell_length_c   9.09015686
_cell_angle_alpha   109.31284421
_cell_angle_beta   109.62914344
_cell_angle_gamma   109.62913127
_symmetry_Int_Tables_number   1
_chemical_formula_structural   Mg16Al12Ge
_chemical_formula_sum   'Mg16 Al12 Ge1'
_cell_volume   581.58459317
_cell_formula_units_Z   1
loop_
 _symmetry_equiv_pos_site_id
 _symmetry_equiv_pos_as_xyz
  1  'x, y, z'
loop_
 _atom_site_type_symbol
 _atom_site_label
 _atom_site_symmetry_multiplicity
 _atom_site_fract_x
 _atom_site_fract_y
 _atom_site_fract_z
 _atom_site_occupancy
  Mg  Mg0  1  0.59100026  0.29685923  0.99999900  1
  Mg  Mg1  1  0.31685569  0.60008625  0.99999900  1
  Mg  Mg2  1  0.00196747  0.34784344  0.00000000  1
  Mg  Mg3  1  0.99743655  0.00000100  0.00000100  1
  Mg  Mg4  1  0.68320357  0.68163878  0.27913757  1
  Mg  Mg5  1  0.59100126  0.00000000  0.29685823  1
  Mg  Mg6  1  0.00156479  0.59749880  0.31836122  1
  Mg  Mg7  1  0.00196747  1.00000000  0.34784344  1
  Mg  Mg8  1  0.71677144  0.39991375  0.39991475  1
  Mg  Mg9  1  0.40406700  0.72086243  0.40250220  1
  Mg  Mg10  1  0.00156479  0.31836022  0.59749780  1
  Mg  Mg11  1  0.31685769  0.99999900  0.60008525  1
  Mg  Mg12  1  0.65412303  0.65215656  0.65215556  1
  Mg  Mg13  1  0.68320357  0.27913657  0.68163878  1
  Mg  Mg14  1  0.29414303  0.70314077  0.70314177  1
  Mg  Mg15  1  0.40406700  0.40250220  0.72086343  1
  Al  Al16  1  0.64181092  0.81199326  0.99999900  1
  Al  Al17  1  0.81433333  0.62421031  0.00000100  1
  Al  Al18  1  0.36836038  0.37102501  0.18454353  1
  Al  Al19  1  0.18381584  0.81545547  0.18648047  1
  Al  Al20  1  0.82981566  0.18800474  0.18800474  1
  Al  Al21  1  0.36836038  0.18454353  0.37102501  1
  Al  Al22  1  0.19012301  0.37579169  0.37579069  1
  Al  Al23  1  0.81433333  0.00000100  0.62421031  1
  Al  Al24  1  0.99733537  0.81351853  0.62897599  1
  Al  Al25  1  0.64181092  0.99999900  0.81199426  1
  Al  Al26  1  0.99733537  0.62897599  0.81351953  1
  Al  Al27  1  0.18381684  0.18648047  0.81545547  1
  Ge  Ge28  1  0.30895004  0.99999900  1.00000000  1
