# generated using pymatgen
data_Mg16Al12Bi
_symmetry_space_group_name_H-M   'P 1'
_cell_length_a   9.33081929
_cell_length_b   9.13389073
_cell_length_c   9.13389153
_cell_angle_alpha   109.03035965
_cell_angle_beta   109.90856484
_cell_angle_gamma   109.90856013
_symmetry_Int_Tables_number   1
_chemical_formula_structural   Mg16Al12Bi
_chemical_formula_sum   'Mg16 Al12 Bi1'
_cell_volume   595.98726521
_cell_formula_units_Z   1
loop_
 _symmetry_equiv_pos_site_id
 _symmetry_equiv_pos_as_xyz
  1  'x, y, z'
loop_
 _atom_site_type_symbol
 _atom_site_label
 _atom_site_symmetry_multiplicity
 _atom_site_fract_x
 _atom_site_fract_y
 _atom_site_fract_z
 _atom_site_occupancy
  Mg  Mg0  1  0.31570150  0.60298426  -0.00000000  1
  Mg  Mg1  1  0.60684166  0.31598485  -0.00000000  1
  Mg  Mg2  1  0.99637087  -0.00000000  0.00000000  1
  Mg  Mg3  1  0.00049086  0.34757436  0.00000000  1
  Mg  Mg4  1  0.68152144  0.68322270  0.27968198  1
  Mg  Mg5  1  0.60684066  0.99999900  0.31598585  1
  Mg  Mg6  1  0.99829874  0.59645828  0.31677830  1
  Mg  Mg7  1  0.00049086  0.00000100  0.34757436  1
  Mg  Mg8  1  0.71271824  0.39701574  0.39701574  1
  Mg  Mg9  1  0.40184046  0.72031902  0.40354172  1
  Mg  Mg10  1  0.99829874  0.31677730  0.59645828  1
  Mg  Mg11  1  0.31570150  0.00000000  0.60298426  1
  Mg  Mg12  1  0.65291550  0.65242464  0.65242564  1
  Mg  Mg13  1  0.68152144  0.27968198  0.68322370  1
  Mg  Mg14  1  0.29085481  0.68401315  0.68401415  1
  Mg  Mg15  1  0.40184046  0.40354172  0.72031902  1
  Al  Al16  1  0.81749260  0.63388196  -0.00000000  1
  Al  Al17  1  0.63802458  0.81229141  0.00000100  1
  Al  Al18  1  0.36742868  0.37688757  0.18713906  1
  Al  Al19  1  0.82573317  0.18770959  0.18770959  1
  Al  Al20  1  0.18028862  0.81285994  0.18974751  1
  Al  Al21  1  0.18360964  0.36612004  0.36612004  1
  Al  Al22  1  0.36742868  0.18713806  0.37688857  1
  Al  Al23  1  0.99054211  0.81025249  0.62311343  1
  Al  Al24  1  0.81749160  0.00000100  0.63388196  1
  Al  Al25  1  0.99054111  0.62311443  0.81025249  1
  Al  Al26  1  0.63802458  0.00000100  0.81229141  1
  Al  Al27  1  0.18028962  0.18974751  0.81285994  1
  Bi  Bi28  1  0.34085726  0.99999900  1.00000000  1
