# generated using pymatgen
data_PaSb3
_symmetry_space_group_name_H-M   'P 1'
_cell_length_a   6.36661313
_cell_length_b   6.36661304
_cell_length_c   5.99448159
_cell_angle_alpha   90.00000000
_cell_angle_beta   90.00000000
_cell_angle_gamma   120.00000040
_symmetry_Int_Tables_number   1
_chemical_formula_structural   PaSb3
_chemical_formula_sum   'Pa2 Sb6'
_cell_volume   210.42589158
_cell_formula_units_Z   2
loop_
 _symmetry_equiv_pos_site_id
 _symmetry_equiv_pos_as_xyz
  1  'x, y, z'
loop_
 _atom_site_type_symbol
 _atom_site_label
 _atom_site_symmetry_multiplicity
 _atom_site_fract_x
 _atom_site_fract_y
 _atom_site_fract_z
 _atom_site_occupancy
  Pa  Pa0  1  0.66666500  0.33333200  0.25000100  1
  Pa  Pa1  1  0.33333400  0.66666800  0.74999900  1
  Sb  Sb2  1  0.82867541  0.17132259  0.74999900  1
  Sb  Sb3  1  0.34264719  0.17132259  0.74999900  1
  Sb  Sb4  1  0.82867541  0.65735281  0.74999900  1
  Sb  Sb5  1  0.17132359  0.82867641  0.25000100  1
  Sb  Sb6  1  0.65735281  0.82867641  0.25000100  1
  Sb  Sb7  1  0.17132459  0.34264819  0.25000100  1
