# generated using pymatgen
data_Tc3Ge
_symmetry_space_group_name_H-M   'P 1'
_cell_length_a   5.47436435
_cell_length_b   5.47375671
_cell_length_c   4.47865384
_cell_angle_alpha   90.00176920
_cell_angle_beta   89.99846019
_cell_angle_gamma   120.01948476
_symmetry_Int_Tables_number   1
_chemical_formula_structural   Tc3Ge
_chemical_formula_sum   'Tc6 Ge2'
_cell_volume   116.20157501
_cell_formula_units_Z   2
loop_
 _symmetry_equiv_pos_site_id
 _symmetry_equiv_pos_as_xyz
  1  'x, y, z'
loop_
 _atom_site_type_symbol
 _atom_site_label
 _atom_site_symmetry_multiplicity
 _atom_site_fract_x
 _atom_site_fract_y
 _atom_site_fract_z
 _atom_site_occupancy
  Tc  Tc0  1  0.16964244  0.33931377  0.24999897  1
  Tc  Tc1  1  0.66071330  0.83037002  0.24999860  1
  Tc  Tc2  1  0.16963741  0.83036188  0.25000454  1
  Tc  Tc3  1  0.83036274  0.66068073  0.74999983  1
  Tc  Tc4  1  0.33929957  0.16962379  0.75000049  1
  Tc  Tc5  1  0.83035977  0.16963584  0.74999458  1
  Ge  Ge6  1  0.33332471  0.66667938  0.74999979  1
  Ge  Ge7  1  0.66666005  0.33332860  0.24999919  1
