# generated using pymatgen
data_Y3Th
_symmetry_space_group_name_H-M   'P 1'
_cell_length_a   6.17372268
_cell_length_b   6.17372268
_cell_length_c   6.17372268
_cell_angle_alpha   131.17497234
_cell_angle_beta   131.17497234
_cell_angle_gamma   71.53523178
_symmetry_Int_Tables_number   1
_chemical_formula_structural   Y3Th
_chemical_formula_sum   'Y3 Th1'
_cell_volume   130.45811234
_cell_formula_units_Z   1
loop_
 _symmetry_equiv_pos_site_id
 _symmetry_equiv_pos_as_xyz
  1  'x, y, z'
loop_
 _atom_site_type_symbol
 _atom_site_label
 _atom_site_symmetry_multiplicity
 _atom_site_fract_x
 _atom_site_fract_y
 _atom_site_fract_z
 _atom_site_occupancy
  Y  Y0  1  0.74999900  0.25000000  0.49999900  1
  Y  Y1  1  0.25000000  0.74999900  0.49999900  1
  Y  Y2  1  0.50000000  0.50000000  -0.00000000  1
  Th  Th3  1  -0.00000000  0.00000000  -0.00000000  1
