# generated using pymatgen
data_Fe5(O4F)2
_symmetry_space_group_name_H-M   'P 1'
_cell_length_a   4.62578925
_cell_length_b   7.60501015
_cell_length_c   9.72530681
_cell_angle_alpha   109.71341775
_cell_angle_beta   93.07249655
_cell_angle_gamma   87.88088148
_symmetry_Int_Tables_number   1
_chemical_formula_structural   Fe5(O4F)2
_chemical_formula_sum   'Fe10 O16 F4'
_cell_volume   321.54869328
_cell_formula_units_Z   2
loop_
 _symmetry_equiv_pos_site_id
 _symmetry_equiv_pos_as_xyz
  1  'x, y, z'
loop_
 _atom_site_type_symbol
 _atom_site_label
 _atom_site_symmetry_multiplicity
 _atom_site_fract_x
 _atom_site_fract_y
 _atom_site_fract_z
 _atom_site_occupancy
  Fe  Fe0  1  0.52275750  0.30347495  0.89118320  1
  Fe  Fe1  1  0.49534216  0.10108228  0.30331198  1
  Fe  Fe2  1  0.47323728  0.89365479  0.71079140  1
  Fe  Fe3  1  0.51328228  0.70174600  0.09365190  1
  Fe  Fe4  1  0.52067231  0.50602061  0.49212921  1
  Fe  Fe5  1  0.98902172  0.60379971  0.80444337  1
  Fe  Fe6  1  0.00748413  0.20347822  0.59698233  1
  Fe  Fe7  1  0.00213807  0.80150382  0.40102509  1
  Fe  Fe8  1  0.97750019  0.39006267  0.20835200  1
  Fe  Fe9  1  0.98802258  0.99233430  0.00293499  1
  O  O10  1  0.79761709  0.75907591  0.97735012  1
  O  O11  1  0.80950820  0.56831898  0.37746334  1
  O  O12  1  0.82436233  0.36282030  0.76925944  1
  O  O13  1  0.80765972  0.15235182  0.17453983  1
  O  O14  1  0.69227010  0.06396014  0.87866532  1
  O  O15  1  0.69448032  0.66269059  0.67618227  1
  O  O16  1  0.69314638  0.46022998  0.07677519  1
  O  O17  1  0.69060386  0.85771203  0.27827334  1
  O  O18  1  0.70233800  0.26449565  0.47576045  1
  O  O19  1  0.30817041  0.14067173  0.72276114  1
  O  O20  1  0.30525828  0.74024774  0.52301037  1
  O  O21  1  0.31076210  0.34099950  0.32156343  1
  O  O22  1  0.29982386  0.93628173  0.12543544  1
  O  O23  1  0.31064860  0.53640416  0.91927978  1
  O  O24  1  0.18570195  0.03855809  0.42820272  1
  O  O25  1  0.18029492  0.83771726  0.82883683  1
  F  F26  1  0.79984857  0.96288523  0.58278882  1
  F  F27  1  0.20971520  0.44379633  0.61685817  1
  F  F28  1  0.19509198  0.24024089  0.02375184  1
  F  F29  1  0.19324088  0.63338458  0.21843667  1
