# generated using pymatgen
data_Pr(BrO2)3
_symmetry_space_group_name_H-M   'P 1'
_cell_length_a   6.41471483
_cell_length_b   6.18766423
_cell_length_c   11.14313437
_cell_angle_alpha   76.17384714
_cell_angle_beta   90.00000000
_cell_angle_gamma   90.00000000
_symmetry_Int_Tables_number   1
_chemical_formula_structural   Pr(BrO2)3
_chemical_formula_sum   'Pr2 Br6 O12'
_cell_volume   429.47907214
_cell_formula_units_Z   2
loop_
 _symmetry_equiv_pos_site_id
 _symmetry_equiv_pos_as_xyz
  1  'x, y, z'
loop_
 _atom_site_type_symbol
 _atom_site_label
 _atom_site_symmetry_multiplicity
 _atom_site_fract_x
 _atom_site_fract_y
 _atom_site_fract_z
 _atom_site_occupancy
  Pr  Pr0  1  0.68438435  0.75000000  0.75000000  1
  Pr  Pr1  1  0.31561565  0.25000000  0.25000000  1
  Br  Br2  1  0.07779044  0.25000000  0.75000000  1
  Br  Br3  1  0.92220956  0.75000000  0.25000000  1
  Br  Br4  1  0.19721260  0.76701896  0.55232426  1
  Br  Br5  1  0.80278740  0.23298104  0.44767574  1
  Br  Br6  1  0.19721260  0.73298104  0.94767574  1
  Br  Br7  1  0.80278740  0.26701896  0.05232426  1
  O  O8  1  0.91725575  0.48189221  0.69534258  1
  O  O9  1  0.08274425  0.51810779  0.30465742  1
  O  O10  1  0.91725575  0.01810779  0.80465742  1
  O  O11  1  0.08274425  0.98189221  0.19534258  1
  O  O12  1  0.72813666  0.98528060  0.55005885  1
  O  O13  1  0.27186334  0.01471940  0.44994115  1
  O  O14  1  0.72813666  0.51471940  0.94994115  1
  O  O15  1  0.27186334  0.48528060  0.05005885  1
  O  O16  1  0.41319280  0.63112988  0.63589093  1
  O  O17  1  0.58680720  0.36887012  0.36410907  1
  O  O18  1  0.41319280  0.86887012  0.86410907  1
  O  O19  1  0.58680720  0.13112988  0.13589093  1
