# generated using pymatgen
data_SrEu3
_symmetry_space_group_name_H-M   'P 1'
_cell_length_a   8.04411714
_cell_length_b   8.04411687
_cell_length_c   6.55687371
_cell_angle_alpha   90.00000000
_cell_angle_beta   90.00000000
_cell_angle_gamma   120.00001170
_symmetry_Int_Tables_number   1
_chemical_formula_structural   SrEu3
_chemical_formula_sum   'Sr2 Eu6'
_cell_volume   367.43807495
_cell_formula_units_Z   2
loop_
 _symmetry_equiv_pos_site_id
 _symmetry_equiv_pos_as_xyz
  1  'x, y, z'
loop_
 _atom_site_type_symbol
 _atom_site_label
 _atom_site_symmetry_multiplicity
 _atom_site_fract_x
 _atom_site_fract_y
 _atom_site_fract_z
 _atom_site_occupancy
  Sr  Sr0  1  0.33333300  0.66666700  0.75000000  1
  Sr  Sr1  1  0.66666600  0.33333300  0.24999900  1
  Eu  Eu2  1  0.16454076  0.32908253  0.24999900  1
  Eu  Eu3  1  0.67091847  0.83546024  0.24999900  1
  Eu  Eu4  1  0.16454076  0.83546024  0.24999900  1
  Eu  Eu5  1  0.83545824  0.67091747  0.75000000  1
  Eu  Eu6  1  0.32908153  0.16454076  0.75000000  1
  Eu  Eu7  1  0.83545924  0.16454076  0.75000000  1
