# generated using pymatgen
data_RbPrNb2O7
_symmetry_space_group_name_H-M   'P 1'
_cell_length_a   5.54589986
_cell_length_b   5.57284320
_cell_length_c   11.91057755
_cell_angle_alpha   103.52944990
_cell_angle_beta   103.46280658
_cell_angle_gamma   90.00000000
_symmetry_Int_Tables_number   1
_chemical_formula_structural   RbPrNb2O7
_chemical_formula_sum   'Rb2 Pr2 Nb4 O14'
_cell_volume   347.48568184
_cell_formula_units_Z   2
loop_
 _symmetry_equiv_pos_site_id
 _symmetry_equiv_pos_as_xyz
  1  'x, y, z'
loop_
 _atom_site_type_symbol
 _atom_site_label
 _atom_site_symmetry_multiplicity
 _atom_site_fract_x
 _atom_site_fract_y
 _atom_site_fract_z
 _atom_site_occupancy
  Rb  Rb0  1  0.50000000  0.50000000  0.00000000  1
  Rb  Rb1  1  0.00000000  0.00000000  0.00000000  1
  Pr  Pr2  1  0.75000000  0.77099194  0.50000000  1
  Pr  Pr3  1  0.25000000  0.22900806  0.50000000  1
  Nb  Nb4  1  0.14730446  0.64518255  0.29460892  1
  Nb  Nb5  1  0.85269554  0.35481745  0.70539108  1
  Nb  Nb6  1  0.64730446  0.14942637  0.29460892  1
  Nb  Nb7  1  0.35269554  0.85057363  0.70539108  1
  O  O8  1  0.25000000  0.77589857  0.50000000  1
  O  O9  1  0.75000000  0.22410143  0.50000000  1
  O  O10  1  0.06700962  0.57074713  0.13401924  1
  O  O11  1  0.93299038  0.42925287  0.86598076  1
  O  O12  1  0.56700962  0.06327211  0.13401924  1
  O  O13  1  0.43299038  0.93672789  0.86598076  1
  O  O14  1  0.41846302  0.41846302  0.33692603  1
  O  O15  1  0.08153698  0.58153698  0.66307397  1
  O  O16  1  0.91846302  0.41846302  0.33692603  1
  O  O17  1  0.58153698  0.58153698  0.66307397  1
  O  O18  1  0.91601024  0.91601024  0.33202049  1
  O  O19  1  0.58398976  0.08398976  0.66797951  1
  O  O20  1  0.41601024  0.91601024  0.33202049  1
  O  O21  1  0.08398976  0.08398976  0.66797951  1
