# generated using pymatgen
data_LiCO2
_symmetry_space_group_name_H-M   'P 1'
_cell_length_a   3.57190941
_cell_length_b   5.19987117
_cell_length_c   9.13234700
_cell_angle_alpha   90.00000000
_cell_angle_beta   94.63909064
_cell_angle_gamma   90.00000000
_symmetry_Int_Tables_number   1
_chemical_formula_structural   LiCO2
_chemical_formula_sum   'Li4 C4 O8'
_cell_volume   169.06367671
_cell_formula_units_Z   4
loop_
 _symmetry_equiv_pos_site_id
 _symmetry_equiv_pos_as_xyz
  1  'x, y, z'
loop_
 _atom_site_type_symbol
 _atom_site_label
 _atom_site_symmetry_multiplicity
 _atom_site_fract_x
 _atom_site_fract_y
 _atom_site_fract_z
 _atom_site_occupancy
  Li  Li0  1  0.54778752  0.48700858  0.20904363  1
  Li  Li1  1  0.04778752  0.01299142  0.70904363  1
  Li  Li2  1  0.45221248  0.51299142  0.79095637  1
  Li  Li3  1  0.95221248  0.98700858  0.29095637  1
  C  C4  1  0.39302055  0.63147910  0.49285314  1
  C  C5  1  0.89302055  0.86852090  0.99285314  1
  C  C6  1  0.60697945  0.36852090  0.50714686  1
  C  C7  1  0.10697945  0.13147910  0.00714686  1
  O  O8  1  0.35973426  0.73380588  0.36639087  1
  O  O9  1  0.85973426  0.76619412  0.86639087  1
  O  O10  1  0.64026574  0.26619412  0.63360913  1
  O  O11  1  0.14026574  0.23380588  0.13360913  1
  O  O12  1  0.26920279  0.71898109  0.60869879  1
  O  O13  1  0.76920279  0.78101891  0.10869879  1
  O  O14  1  0.73079721  0.28101891  0.39130121  1
  O  O15  1  0.23079721  0.21898109  0.89130121  1
