# generated using pymatgen
data_Cu5(PO6)2
_symmetry_space_group_name_H-M   'P 1'
_cell_length_a   4.57176237
_cell_length_b   5.74383406
_cell_length_c   8.42696675
_cell_angle_alpha   103.92673980
_cell_angle_beta   89.60107670
_cell_angle_gamma   95.47376107
_symmetry_Int_Tables_number   1
_chemical_formula_structural   Cu5(PO6)2
_chemical_formula_sum   'Cu5 P2 O12'
_cell_volume   213.77384129
_cell_formula_units_Z   1
loop_
 _symmetry_equiv_pos_site_id
 _symmetry_equiv_pos_as_xyz
  1  'x, y, z'
loop_
 _atom_site_type_symbol
 _atom_site_label
 _atom_site_symmetry_multiplicity
 _atom_site_fract_x
 _atom_site_fract_y
 _atom_site_fract_z
 _atom_site_occupancy
  Cu  Cu0  1  0.00000000  0.50000000  0.50000000  1
  Cu  Cu1  1  0.00000000  -0.00000000  0.00000000  1
  Cu  Cu2  1  0.00000000  0.50000000  0.00000000  1
  Cu  Cu3  1  0.94743906  0.04187637  0.66968730  1
  Cu  Cu4  1  0.05256094  0.95812363  0.33031270  1
  P  P5  1  0.49350784  0.65668268  0.77025020  1
  P  P6  1  0.50649216  0.34331732  0.22974980  1
  O  O7  1  0.30519082  0.68843014  0.92779280  1
  O  O8  1  0.69480918  0.31156986  0.07220720  1
  O  O9  1  0.30379798  0.69745760  0.63006708  1
  O  O10  1  0.69620202  0.30254240  0.36993292  1
  O  O11  1  0.71099276  0.90121975  0.81566720  1
  O  O12  1  0.28900724  0.09878025  0.18433280  1
  O  O13  1  0.32543259  0.55515483  0.26598446  1
  O  O14  1  0.67456741  0.44484517  0.73401554  1
  O  O15  1  0.85765221  0.80219078  0.47627339  1
  O  O16  1  0.14234779  0.19780922  0.52372661  1
  O  O17  1  0.87365681  0.78435419  0.12688598  1
  O  O18  1  0.12634319  0.21564581  0.87311402  1
