# generated using pymatgen
data_Ce2Fe17H3
_symmetry_space_group_name_H-M   'P 1'
_cell_length_a   6.43642962
_cell_length_b   6.43642962
_cell_length_c   6.43642983
_cell_angle_alpha   83.88173839
_cell_angle_beta   83.88173839
_cell_angle_gamma   83.88173428
_symmetry_Int_Tables_number   1
_chemical_formula_structural   Ce2Fe17H3
_chemical_formula_sum   'Ce2 Fe17 H3'
_cell_volume   262.39144502
_cell_formula_units_Z   1
loop_
 _symmetry_equiv_pos_site_id
 _symmetry_equiv_pos_as_xyz
  1  'x, y, z'
loop_
 _atom_site_type_symbol
 _atom_site_label
 _atom_site_symmetry_multiplicity
 _atom_site_fract_x
 _atom_site_fract_y
 _atom_site_fract_z
 _atom_site_occupancy
  Ce  Ce0  1  0.65887518  0.65887518  0.65887518  1
  Ce  Ce1  1  0.34112482  0.34112482  0.34112482  1
  Fe  Fe2  1  0.00000000  -0.00000000  0.50000000  1
  Fe  Fe3  1  0.00000000  0.50000000  0.00000000  1
  Fe  Fe4  1  0.50000000  -0.00000000  0.00000000  1
  Fe  Fe5  1  0.28337827  0.71662173  -0.00000000  1
  Fe  Fe6  1  0.71662173  0.00000000  0.28337827  1
  Fe  Fe7  1  1.00000000  0.28337827  0.71662173  1
  Fe  Fe8  1  0.28337827  1.00000000  0.71662173  1
  Fe  Fe9  1  0.00000000  0.71662173  0.28337827  1
  Fe  Fe10  1  0.71662173  0.28337827  0.00000000  1
  Fe  Fe11  1  0.34342218  0.34342218  0.84694084  1
  Fe  Fe12  1  0.34342218  0.84694084  0.34342218  1
  Fe  Fe13  1  0.84694084  0.34342218  0.34342218  1
  Fe  Fe14  1  0.65657782  0.65657782  0.15305916  1
  Fe  Fe15  1  0.65657782  0.15305916  0.65657782  1
  Fe  Fe16  1  0.15305916  0.65657782  0.65657782  1
  Fe  Fe17  1  0.90413887  0.90413887  0.90413887  1
  Fe  Fe18  1  0.09586113  0.09586113  0.09586113  1
  H  H19  1  0.50000000  0.50000000  0.00000000  1
  H  H20  1  0.50000000  -0.00000000  0.50000000  1
  H  H21  1  0.00000000  0.50000000  0.50000000  1
