# generated using pymatgen
data_Y3AlFeS7
_symmetry_space_group_name_H-M   'P 1'
_cell_length_a   6.19601581
_cell_length_b   9.51683380
_cell_length_c   9.51715166
_cell_angle_alpha   119.98940462
_cell_angle_beta   90.00000000
_cell_angle_gamma   90.00000000
_symmetry_Int_Tables_number   1
_chemical_formula_structural   Y3AlFeS7
_chemical_formula_sum   'Y6 Al2 Fe2 S14'
_cell_volume   486.05899210
_cell_formula_units_Z   2
loop_
 _symmetry_equiv_pos_site_id
 _symmetry_equiv_pos_as_xyz
  1  'x, y, z'
loop_
 _atom_site_type_symbol
 _atom_site_label
 _atom_site_symmetry_multiplicity
 _atom_site_fract_x
 _atom_site_fract_y
 _atom_site_fract_z
 _atom_site_occupancy
  Y  Y0  1  0.27721069  0.22142254  0.37405282  1
  Y  Y1  1  0.27714217  0.62636547  0.84787964  1
  Y  Y2  1  0.27705562  0.15259902  0.77874939  1
  Y  Y3  1  0.77721069  0.77857746  0.62594718  1
  Y  Y4  1  0.77714217  0.37363453  0.15212036  1
  Y  Y5  1  0.77705562  0.84740098  0.22125061  1
  Al  Al6  1  0.84977347  0.33357366  0.66669434  1
  Al  Al7  1  0.34977347  0.66642634  0.33330566  1
  Fe  Fe8  1  0.42906401  0.00010745  0.99977955  1
  Fe  Fe9  1  0.92906401  -0.00010745  0.00022045  1
  S  S10  1  0.67454122  0.12326980  0.21470531  1
  S  S11  1  0.67482491  0.78487998  0.90814963  1
  S  S12  1  0.67521724  0.09179605  0.87588910  1
  S  S13  1  0.17454122  0.87673020  0.78529469  1
  S  S14  1  0.17482491  0.21512002  0.09185037  1
  S  S15  1  0.17521724  0.90820395  0.12411090  1
  S  S16  1  0.00398268  0.08874139  0.51845868  1
  S  S17  1  0.00431258  0.48171121  0.57021100  1
  S  S18  1  0.00411547  0.43015330  0.91156456  1
  S  S19  1  0.50398268  0.91125861  0.48154132  1
  S  S20  1  0.50431258  0.51828879  0.42978900  1
  S  S21  1  0.50411547  0.56984670  0.08843544  1
  S  S22  1  0.48875994  0.33347836  0.66683821  1
  S  S23  1  0.98875994  0.66652164  0.33316179  1
