# generated using pymatgen
data_RbSeO4
_symmetry_space_group_name_H-M   'P 1'
_cell_length_a   4.52163037
_cell_length_b   7.81421279
_cell_length_c   10.95571583
_cell_angle_alpha   110.89320549
_cell_angle_beta   101.60030479
_cell_angle_gamma   90.00000000
_symmetry_Int_Tables_number   1
_chemical_formula_structural   RbSeO4
_chemical_formula_sum   'Rb3 Se3 O12'
_cell_volume   353.16897727
_cell_formula_units_Z   3
loop_
 _symmetry_equiv_pos_site_id
 _symmetry_equiv_pos_as_xyz
  1  'x, y, z'
loop_
 _atom_site_type_symbol
 _atom_site_label
 _atom_site_symmetry_multiplicity
 _atom_site_fract_x
 _atom_site_fract_y
 _atom_site_fract_z
 _atom_site_occupancy
  Rb  Rb0  1  -0.00000000  0.50068015  0.00000000  1
  Rb  Rb1  1  0.41472830  0.91126600  0.67096032  1
  Rb  Rb2  1  0.58527170  0.24030568  0.32903968  1
  Se  Se3  1  -0.00000000  0.00252770  0.00000000  1
  Se  Se4  1  0.29089973  0.41015809  0.66954522  1
  Se  Se5  1  0.70910027  0.74061287  0.33045478  1
  O  O6  1  0.03964522  0.05586822  0.87055301  1
  O  O7  1  0.96035478  0.18531520  0.12944699  1
  O  O8  1  0.69641711  0.84206520  0.94584158  1
  O  O9  1  0.30358289  0.89622362  0.05415842  1
  O  O10  1  0.05666792  0.57400588  0.73634506  1
  O  O11  1  0.94333208  0.83766082  0.26365494  1
  O  O12  1  0.46673662  0.34223091  0.79031255  1
  O  O13  1  0.53326338  0.55191836  0.20968745  1
  O  O14  1  0.54174563  0.51096686  0.61272484  1
  O  O15  1  0.45825437  0.89824202  0.38727516  1
  O  O16  1  0.10036014  0.23907925  0.53780609  1
  O  O17  1  0.89963986  0.70127316  0.46219391  1
