# generated using pymatgen
data_Na2UI4O15
_symmetry_space_group_name_H-M   'P 1'
_cell_length_a   7.09855442
_cell_length_b   7.09855442
_cell_length_c   7.75797524
_cell_angle_alpha   88.71774071
_cell_angle_beta   88.71774071
_cell_angle_gamma   72.79369393
_symmetry_Int_Tables_number   1
_chemical_formula_structural   Na2UI4O15
_chemical_formula_sum   'Na2 U1 I4 O15'
_cell_volume   373.28063950
_cell_formula_units_Z   1
loop_
 _symmetry_equiv_pos_site_id
 _symmetry_equiv_pos_as_xyz
  1  'x, y, z'
loop_
 _atom_site_type_symbol
 _atom_site_label
 _atom_site_symmetry_multiplicity
 _atom_site_fract_x
 _atom_site_fract_y
 _atom_site_fract_z
 _atom_site_occupancy
  Na  Na0  1  0.82541343  0.17458657  -0.00000000  1
  Na  Na1  1  0.36120293  0.63879707  -0.00000000  1
  U  U2  1  0.35847278  0.64152722  0.50000000  1
  I  I3  1  0.83668562  0.65534581  0.21829858  1
  I  I4  1  0.34465419  0.16331438  0.78170142  1
  I  I5  1  0.86127876  0.69906843  0.76516539  1
  I  I6  1  0.30093157  0.13872124  0.23483461  1
  O  O7  1  0.69916901  0.59970948  0.42561559  1
  O  O8  1  0.40029052  0.30083099  0.57438441  1
  O  O9  1  0.70471268  0.91744066  0.20844647  1
  O  O10  1  0.08255934  0.29528732  0.79155353  1
  O  O11  1  0.70584946  0.55705543  0.05899698  1
  O  O12  1  0.44294457  0.29415054  0.94100302  1
  O  O13  1  0.72177211  0.95850518  0.76247651  1
  O  O14  1  0.04149482  0.27822789  0.23752349  1
  O  O15  1  0.03726093  0.70190258  0.58425213  1
  O  O16  1  0.29809742  0.96273907  0.41574787  1
  O  O17  1  0.01645467  0.71416291  0.94823834  1
  O  O18  1  0.28583709  0.98354533  0.05176166  1
  O  O19  1  0.61505769  0.38494231  0.50000000  1
  O  O20  1  0.41912874  0.71126831  0.71661380  1
  O  O21  1  0.28873169  0.58087126  0.28338620  1
