# generated using pymatgen
data_CoB4O7
_symmetry_space_group_name_H-M   'P 1'
_cell_length_a   5.21048446
_cell_length_b   6.37040179
_cell_length_c   6.37040179
_cell_angle_alpha   118.33670221
_cell_angle_beta   90.00000000
_cell_angle_gamma   90.00000000
_symmetry_Int_Tables_number   1
_chemical_formula_structural   CoB4O7
_chemical_formula_sum   'Co2 B8 O14'
_cell_volume   186.11442524
_cell_formula_units_Z   2
loop_
 _symmetry_equiv_pos_site_id
 _symmetry_equiv_pos_as_xyz
  1  'x, y, z'
loop_
 _atom_site_type_symbol
 _atom_site_label
 _atom_site_symmetry_multiplicity
 _atom_site_fract_x
 _atom_site_fract_y
 _atom_site_fract_z
 _atom_site_occupancy
  Co  Co0  1  0.25000000  0.24222966  0.24222966  1
  Co  Co1  1  0.75000000  0.75777034  0.75777034  1
  B  B2  1  0.50000000  0.29702664  0.70297336  1
  B  B3  1  0.00000000  0.29702664  0.70297336  1
  B  B4  1  0.50000000  0.70297336  0.29702664  1
  B  B5  1  0.00000000  0.70297336  0.29702664  1
  B  B6  1  0.75000000  0.07475796  0.30864580  1
  B  B7  1  0.25000000  0.69135420  0.92524204  1
  B  B8  1  0.25000000  0.92524204  0.69135420  1
  B  B9  1  0.75000000  0.30864580  0.07475796  1
  O  O10  1  0.25000000  0.92146448  0.92146448  1
  O  O11  1  0.75000000  0.07853552  0.07853552  1
  O  O12  1  0.25000000  0.19597222  0.75522120  1
  O  O13  1  0.75000000  0.24477880  0.80402778  1
  O  O14  1  0.75000000  0.80402778  0.24477880  1
  O  O15  1  0.25000000  0.75522120  0.19597222  1
  O  O16  1  0.52284412  0.18862502  0.44561798  1
  O  O17  1  0.47715588  0.55438202  0.81137498  1
  O  O18  1  0.97715588  0.18862502  0.44561798  1
  O  O19  1  0.02284412  0.55438202  0.81137498  1
  O  O20  1  0.47715588  0.81137498  0.55438202  1
  O  O21  1  0.52284412  0.44561798  0.18862502  1
  O  O22  1  0.02284412  0.81137498  0.55438202  1
  O  O23  1  0.97715588  0.44561798  0.18862502  1
