# generated using pymatgen
data_TmMoC2
_symmetry_space_group_name_H-M   'P 1'
_cell_length_a   3.34414602
_cell_length_b   5.66623194
_cell_length_c   10.73944354
_cell_angle_alpha   90.00000000
_cell_angle_beta   90.00000000
_cell_angle_gamma   90.00000000
_symmetry_Int_Tables_number   1
_chemical_formula_structural   TmMoC2
_chemical_formula_sum   'Tm4 Mo4 C8'
_cell_volume   203.49856888
_cell_formula_units_Z   4
loop_
 _symmetry_equiv_pos_site_id
 _symmetry_equiv_pos_as_xyz
  1  'x, y, z'
loop_
 _atom_site_type_symbol
 _atom_site_label
 _atom_site_symmetry_multiplicity
 _atom_site_fract_x
 _atom_site_fract_y
 _atom_site_fract_z
 _atom_site_occupancy
  Tm  Tm0  1  0.75000000  0.41453198  0.63700457  1
  Tm  Tm1  1  0.75000000  0.91453198  0.86299543  1
  Tm  Tm2  1  0.25000000  0.58546802  0.36299543  1
  Tm  Tm3  1  0.25000000  0.08546802  0.13700457  1
  Mo  Mo4  1  0.75000000  0.09957973  0.39062340  1
  Mo  Mo5  1  0.75000000  0.59957973  0.10937660  1
  Mo  Mo6  1  0.25000000  0.90042027  0.60937660  1
  Mo  Mo7  1  0.25000000  0.40042027  0.89062340  1
  C  C8  1  0.75000000  0.34121549  0.25304043  1
  C  C9  1  0.75000000  0.84121549  0.24695957  1
  C  C10  1  0.25000000  0.65878451  0.74695957  1
  C  C11  1  0.25000000  0.15878451  0.75304043  1
  C  C12  1  0.75000000  0.77023488  0.51283506  1
  C  C13  1  0.75000000  0.27023488  0.98716494  1
  C  C14  1  0.25000000  0.22976512  0.48716494  1
  C  C15  1  0.25000000  0.72976512  0.01283506  1
