# generated using pymatgen
data_Th6Mn23H16
_symmetry_space_group_name_H-M   'P 1'
_cell_length_a   8.88920127
_cell_length_b   8.88920127
_cell_length_c   12.82242841
_cell_angle_alpha   90.00000000
_cell_angle_beta   90.00000000
_cell_angle_gamma   90.00000000
_symmetry_Int_Tables_number   1
_chemical_formula_structural   Th6Mn23H16
_chemical_formula_sum   'Th12 Mn46 H32'
_cell_volume   1013.20135584
_cell_formula_units_Z   2
loop_
 _symmetry_equiv_pos_site_id
 _symmetry_equiv_pos_as_xyz
  1  'x, y, z'
loop_
 _atom_site_type_symbol
 _atom_site_label
 _atom_site_symmetry_multiplicity
 _atom_site_fract_x
 _atom_site_fract_y
 _atom_site_fract_z
 _atom_site_occupancy
  Th  Th0  1  0.50000000  0.50000000  0.28921678  1
  Th  Th1  1  0.00000000  0.00000000  0.78921678  1
  Th  Th2  1  0.50000000  0.50000000  0.71078322  1
  Th  Th3  1  0.00000000  0.00000000  0.21078322  1
  Th  Th4  1  0.27362031  0.72637969  0.50000000  1
  Th  Th5  1  0.72637969  0.27362031  0.50000000  1
  Th  Th6  1  0.22637969  0.22637969  -0.00000000  1
  Th  Th7  1  0.77362031  0.77362031  -0.00000000  1
  Th  Th8  1  0.71305330  0.71305330  0.50000000  1
  Th  Th9  1  0.28694670  0.28694670  0.50000000  1
  Th  Th10  1  0.78694670  0.21305330  -0.00000000  1
  Th  Th11  1  0.21305330  0.78694670  -0.00000000  1
  Mn  Mn12  1  0.50000000  0.50000000  -0.00000000  1
  Mn  Mn13  1  0.00000000  0.00000000  0.50000000  1
  Mn  Mn14  1  0.00000000  0.50000000  0.50000000  1
  Mn  Mn15  1  0.50000000  0.00000000  -0.00000000  1
  Mn  Mn16  1  0.50000000  0.00000000  0.50000000  1
  Mn  Mn17  1  0.00000000  0.50000000  -0.00000000  1
  Mn  Mn18  1  0.24708652  0.75291348  0.74837478  1
  Mn  Mn19  1  0.75291348  0.24708652  0.74837478  1
  Mn  Mn20  1  0.25291348  0.25291348  0.24837478  1
  Mn  Mn21  1  0.74708652  0.74708652  0.24837478  1
  Mn  Mn22  1  0.75291348  0.24708652  0.25162522  1
  Mn  Mn23  1  0.24708652  0.75291348  0.25162522  1
  Mn  Mn24  1  0.74708652  0.74708652  0.75162522  1
  Mn  Mn25  1  0.25291348  0.25291348  0.75162522  1
  Mn  Mn26  1  0.13660098  0.50430822  0.31929991  1
  Mn  Mn27  1  0.86339902  0.49569178  0.31929991  1
  Mn  Mn28  1  0.36339902  0.00430822  0.81929991  1
  Mn  Mn29  1  0.63660098  0.99569178  0.81929991  1
  Mn  Mn30  1  0.86339902  0.49569178  0.68070009  1
  Mn  Mn31  1  0.13660098  0.50430822  0.68070009  1
  Mn  Mn32  1  0.63660098  0.99569178  0.18070009  1
  Mn  Mn33  1  0.36339902  0.00430822  0.18070009  1
  Mn  Mn34  1  0.50430822  0.13660098  0.31929991  1
  Mn  Mn35  1  0.49569178  0.86339902  0.31929991  1
  Mn  Mn36  1  0.00430822  0.36339902  0.81929991  1
  Mn  Mn37  1  0.99569178  0.63660098  0.81929991  1
  Mn  Mn38  1  0.49569178  0.86339902  0.68070009  1
  Mn  Mn39  1  0.50430822  0.13660098  0.68070009  1
  Mn  Mn40  1  0.99569178  0.63660098  0.18070009  1
  Mn  Mn41  1  0.00430822  0.36339902  0.18070009  1
  Mn  Mn42  1  0.24543781  0.52199616  0.13963019  1
  Mn  Mn43  1  0.75456219  0.47800384  0.13963019  1
  Mn  Mn44  1  0.25456219  0.02199616  0.63963019  1
  Mn  Mn45  1  0.74543781  0.97800384  0.63963019  1
  Mn  Mn46  1  0.75456219  0.47800384  0.86036981  1
  Mn  Mn47  1  0.24543781  0.52199616  0.86036981  1
  Mn  Mn48  1  0.74543781  0.97800384  0.36036981  1
  Mn  Mn49  1  0.25456219  0.02199616  0.36036981  1
  Mn  Mn50  1  0.52199616  0.24543781  0.13963019  1
  Mn  Mn51  1  0.47800384  0.75456219  0.13963019  1
  Mn  Mn52  1  0.02199616  0.25456219  0.63963019  1
  Mn  Mn53  1  0.97800384  0.74543781  0.63963019  1
  Mn  Mn54  1  0.47800384  0.75456219  0.86036981  1
  Mn  Mn55  1  0.52199616  0.24543781  0.86036981  1
  Mn  Mn56  1  0.97800384  0.74543781  0.36036981  1
  Mn  Mn57  1  0.02199616  0.25456219  0.36036981  1
  H  H58  1  0.99745222  0.74048864  0.50000000  1
  H  H59  1  0.00254778  0.25951136  0.50000000  1
  H  H60  1  0.50254778  0.24048864  -0.00000000  1
  H  H61  1  0.49745222  0.75951136  -0.00000000  1
  H  H62  1  0.74048864  0.99745222  0.50000000  1
  H  H63  1  0.25951136  0.00254778  0.50000000  1
  H  H64  1  0.24048864  0.50254778  -0.00000000  1
  H  H65  1  0.75951136  0.49745222  -0.00000000  1
  H  H66  1  0.14669465  0.85330535  0.35178630  1
  H  H67  1  0.85330535  0.14669465  0.35178630  1
  H  H68  1  0.35330535  0.35330535  0.85178630  1
  H  H69  1  0.64669465  0.64669465  0.85178630  1
  H  H70  1  0.85330535  0.14669465  0.64821370  1
  H  H71  1  0.14669465  0.85330535  0.64821370  1
  H  H72  1  0.64669465  0.64669465  0.14821370  1
  H  H73  1  0.35330535  0.35330535  0.14821370  1
  H  H74  1  0.28753273  0.50768723  0.39895718  1
  H  H75  1  0.71246727  0.49231277  0.39895718  1
  H  H76  1  0.21246727  0.00768723  0.89895718  1
  H  H77  1  0.78753273  0.99231277  0.89895718  1
  H  H78  1  0.71246727  0.49231277  0.60104282  1
  H  H79  1  0.28753273  0.50768723  0.60104282  1
  H  H80  1  0.78753273  0.99231277  0.10104282  1
  H  H81  1  0.21246727  0.00768723  0.10104282  1
  H  H82  1  0.50768723  0.28753273  0.39895718  1
  H  H83  1  0.49231277  0.71246727  0.39895718  1
  H  H84  1  0.00768723  0.21246727  0.89895718  1
  H  H85  1  0.99231277  0.78753273  0.89895718  1
  H  H86  1  0.49231277  0.71246727  0.60104282  1
  H  H87  1  0.50768723  0.28753273  0.60104282  1
  H  H88  1  0.99231277  0.78753273  0.10104282  1
  H  H89  1  0.00768723  0.21246727  0.10104282  1
