# generated using pymatgen
data_Li3Cr2(GeO4)3
_symmetry_space_group_name_H-M   'P 1'
_cell_length_a   10.43739800
_cell_length_b   10.43739771
_cell_length_c   10.43739831
_cell_angle_alpha   109.47122006
_cell_angle_beta   109.47121948
_cell_angle_gamma   109.47121987
_symmetry_Int_Tables_number   1
_chemical_formula_structural   Li3Cr2(GeO4)3
_chemical_formula_sum   'Li12 Cr8 Ge12 O48'
_cell_volume   875.29582412
_cell_formula_units_Z   4
loop_
 _symmetry_equiv_pos_site_id
 _symmetry_equiv_pos_as_xyz
  1  'x, y, z'
loop_
 _atom_site_type_symbol
 _atom_site_label
 _atom_site_symmetry_multiplicity
 _atom_site_fract_x
 _atom_site_fract_y
 _atom_site_fract_z
 _atom_site_occupancy
  Li  Li0  1  0.62500000  0.25000000  0.87500000  1
  Li  Li1  1  0.87500000  0.75000000  0.62500000  1
  Li  Li2  1  0.75000000  0.62500000  0.87500000  1
  Li  Li3  1  0.25000000  0.87500000  0.62500000  1
  Li  Li4  1  0.87500000  0.62500000  0.25000000  1
  Li  Li5  1  0.62500000  0.87500000  0.75000000  1
  Li  Li6  1  0.37500000  0.75000000  0.12500000  1
  Li  Li7  1  0.12500000  0.25000000  0.37500000  1
  Li  Li8  1  0.25000000  0.37500000  0.12500000  1
  Li  Li9  1  0.75000000  0.12500000  0.37500000  1
  Li  Li10  1  0.12500000  0.37500000  0.75000000  1
  Li  Li11  1  0.37500000  0.12500000  0.25000000  1
  Cr  Cr12  1  0.50000000  0.50000000  0.50000000  1
  Cr  Cr13  1  0.50000000  0.50000000  0.00000000  1
  Cr  Cr14  1  0.50000000  0.00000000  0.50000000  1
  Cr  Cr15  1  0.00000000  0.50000000  0.50000000  1
  Cr  Cr16  1  0.50000000  0.00000000  0.00000000  1
  Cr  Cr17  1  0.00000000  0.00000000  0.50000000  1
  Cr  Cr18  1  0.00000000  0.50000000  0.00000000  1
  Cr  Cr19  1  0.00000000  0.00000000  0.00000000  1
  Ge  Ge20  1  0.87500000  0.12500000  0.75000000  1
  Ge  Ge21  1  0.12500000  0.87500000  0.25000000  1
  Ge  Ge22  1  0.25000000  0.62500000  0.37500000  1
  Ge  Ge23  1  0.12500000  0.75000000  0.87500000  1
  Ge  Ge24  1  0.75000000  0.87500000  0.12500000  1
  Ge  Ge25  1  0.37500000  0.25000000  0.62500000  1
  Ge  Ge26  1  0.62500000  0.75000000  0.37500000  1
  Ge  Ge27  1  0.87500000  0.25000000  0.12500000  1
  Ge  Ge28  1  0.25000000  0.12500000  0.87500000  1
  Ge  Ge29  1  0.75000000  0.37500000  0.62500000  1
  Ge  Ge30  1  0.37500000  0.62500000  0.75000000  1
  Ge  Ge31  1  0.62500000  0.37500000  0.25000000  1
  O  O32  1  0.80140243  0.41841547  0.82033464  1
  O  O33  1  0.08158453  0.88298697  0.40191917  1
  O  O34  1  0.67966536  0.09808083  0.98106680  1
  O  O35  1  0.69859757  0.51893320  0.61701303  1
  O  O36  1  0.69859757  0.67966536  0.08158453  1
  O  O37  1  0.51893320  0.61701303  0.69859757  1
  O  O38  1  0.09808083  0.61701303  0.41841547  1
  O  O39  1  0.61701303  0.69859757  0.51893320  1
  O  O40  1  0.40191917  0.82033464  0.51893320  1
  O  O41  1  0.88298697  0.98106680  0.80140243  1
  O  O42  1  0.98106680  0.80140243  0.88298697  1
  O  O43  1  0.08158453  0.69859757  0.67966536  1
  O  O44  1  0.61701303  0.41841547  0.09808083  1
  O  O45  1  0.51893320  0.40191917  0.82033464  1
  O  O46  1  0.67966536  0.08158453  0.69859757  1
  O  O47  1  0.41841547  0.09808083  0.61701303  1
  O  O48  1  0.82033464  0.51893320  0.40191917  1
  O  O49  1  0.40191917  0.08158453  0.88298697  1
  O  O50  1  0.09808083  0.98106680  0.67966536  1
  O  O51  1  0.59808083  0.17966536  0.48106680  1
  O  O52  1  0.98106680  0.67966536  0.09808083  1
  O  O53  1  0.82033464  0.80140243  0.41841547  1
  O  O54  1  0.88298697  0.40191917  0.08158453  1
  O  O55  1  0.80140243  0.88298697  0.98106680  1
  O  O56  1  0.19859757  0.58158453  0.17966536  1
  O  O57  1  0.91841547  0.11701303  0.59808083  1
  O  O58  1  0.32033464  0.90191917  0.01893320  1
  O  O59  1  0.30140243  0.48106680  0.38298697  1
  O  O60  1  0.30140243  0.32033464  0.91841547  1
  O  O61  1  0.48106680  0.38298697  0.30140243  1
  O  O62  1  0.90191917  0.38298697  0.58158453  1
  O  O63  1  0.38298697  0.30140243  0.48106680  1
  O  O64  1  0.19859757  0.11701303  0.01893320  1
  O  O65  1  0.11701303  0.59808083  0.91841547  1
  O  O66  1  0.17966536  0.19859757  0.58158453  1
  O  O67  1  0.58158453  0.17966536  0.19859757  1
  O  O68  1  0.01893320  0.32033464  0.90191917  1
  O  O69  1  0.90191917  0.01893320  0.32033464  1
  O  O70  1  0.59808083  0.91841547  0.11701303  1
  O  O71  1  0.17966536  0.48106680  0.59808083  1
  O  O72  1  0.58158453  0.90191917  0.38298697  1
  O  O73  1  0.32033464  0.91841547  0.30140243  1
  O  O74  1  0.48106680  0.59808083  0.17966536  1
  O  O75  1  0.38298697  0.58158453  0.90191917  1
  O  O76  1  0.91841547  0.30140243  0.32033464  1
  O  O77  1  0.01893320  0.19859757  0.11701303  1
  O  O78  1  0.11701303  0.01893320  0.19859757  1
  O  O79  1  0.41841547  0.82033464  0.80140243  1
