# generated using pymatgen
data_Sm3GaCoSe7
_symmetry_space_group_name_H-M   'P 1'
_cell_length_a   6.46174177
_cell_length_b   10.16990825
_cell_length_c   10.17029287
_cell_angle_alpha   120.00076953
_cell_angle_beta   90.00000000
_cell_angle_gamma   90.00000000
_symmetry_Int_Tables_number   1
_chemical_formula_structural   Sm3GaCoSe7
_chemical_formula_sum   'Sm6 Ga2 Co2 Se14'
_cell_volume   578.79844612
_cell_formula_units_Z   2
loop_
 _symmetry_equiv_pos_site_id
 _symmetry_equiv_pos_as_xyz
  1  'x, y, z'
loop_
 _atom_site_type_symbol
 _atom_site_label
 _atom_site_symmetry_multiplicity
 _atom_site_fract_x
 _atom_site_fract_y
 _atom_site_fract_z
 _atom_site_occupancy
  Sm  Sm0  1  0.17810941  0.84202157  0.21493777  1
  Sm  Sm1  1  0.17810355  0.78505302  0.62711010  1
  Sm  Sm2  1  0.17809785  0.37292514  0.15795409  1
  Sm  Sm3  1  0.67810941  0.15797843  0.78506223  1
  Sm  Sm4  1  0.67810355  0.21494698  0.37288990  1
  Sm  Sm5  1  0.67809785  0.62707486  0.84204591  1
  Ga  Ga6  1  0.09929302  0.33335841  0.66668827  1
  Ga  Ga7  1  0.59929302  0.66664159  0.33331173  1
  Co  Co8  1  0.50309136  -0.00000530  0.99997590  1
  Co  Co9  1  0.00309136  0.00000530  0.00002410  1
  Se  Se10  1  0.45008574  0.56304950  0.08314077  1
  Se  Se11  1  0.45010815  0.91683203  0.47992252  1
  Se  Se12  1  0.45009609  0.52006985  0.43693056  1
  Se  Se13  1  0.95008574  0.43695050  0.91685923  1
  Se  Se14  1  0.95010815  0.08316797  0.52007748  1
  Se  Se15  1  0.95009609  0.47993015  0.56306944  1
  Se  Se16  1  0.47044329  0.33331309  0.66662823  1
  Se  Se17  1  0.97044329  0.66668691  0.33337177  1
  Se  Se18  1  0.25916041  0.12788092  0.22460960  1
  Se  Se19  1  0.25916185  0.77519736  0.90318199  1
  Se  Se20  1  0.25914926  0.09681475  0.87202054  1
  Se  Se21  1  0.75916041  0.87211908  0.77539040  1
  Se  Se22  1  0.75916185  0.22480264  0.09681801  1
  Se  Se23  1  0.75914926  0.90318525  0.12797946  1
