# generated using pymatgen
data_Al5Re24
_symmetry_space_group_name_H-M   'P 1'
_cell_length_a   8.33849829
_cell_length_b   8.33849829
_cell_length_c   8.33849829
_cell_angle_alpha   109.47122063
_cell_angle_beta   109.47122063
_cell_angle_gamma   109.47122063
_symmetry_Int_Tables_number   1
_chemical_formula_structural   Al5Re24
_chemical_formula_sum   'Al5 Re24'
_cell_volume   446.31516197
_cell_formula_units_Z   1
loop_
 _symmetry_equiv_pos_site_id
 _symmetry_equiv_pos_as_xyz
  1  'x, y, z'
loop_
 _atom_site_type_symbol
 _atom_site_label
 _atom_site_symmetry_multiplicity
 _atom_site_fract_x
 _atom_site_fract_y
 _atom_site_fract_z
 _atom_site_occupancy
  Al  Al0  1  0.00000000  -0.00000000  -0.00000000  1
  Al  Al1  1  0.64061136  0.00000000  0.00000000  1
  Al  Al2  1  -0.00000000  0.64061136  -0.00000000  1
  Al  Al3  1  -0.00000000  0.00000000  0.64061136  1
  Al  Al4  1  0.35938864  0.35938864  0.35938864  1
  Re  Re5  1  0.39840306  0.68121768  -0.00000000  1
  Re  Re6  1  0.71718538  0.31878232  0.31878232  1
  Re  Re7  1  0.39840306  0.00000000  0.68121768  1
  Re  Re8  1  0.68121768  0.39840306  -0.00000000  1
  Re  Re9  1  0.00000000  0.39840306  0.68121768  1
  Re  Re10  1  0.31878232  0.71718538  0.31878232  1
  Re  Re11  1  0.31878232  0.31878232  0.71718538  1
  Re  Re12  1  -0.00000000  0.68121768  0.39840306  1
  Re  Re13  1  0.68121768  0.00000000  0.39840306  1
  Re  Re14  1  0.60159694  0.60159694  0.28281462  1
  Re  Re15  1  0.28281462  0.60159694  0.60159694  1
  Re  Re16  1  0.60159694  0.28281462  0.60159694  1
  Re  Re17  1  0.37553300  0.19199186  -0.00000000  1
  Re  Re18  1  0.18354113  0.80800814  0.80800814  1
  Re  Re19  1  0.37553300  0.00000000  0.19199186  1
  Re  Re20  1  0.19199186  0.37553300  0.00000000  1
  Re  Re21  1  0.00000000  0.37553300  0.19199186  1
  Re  Re22  1  0.80800814  0.18354113  0.80800814  1
  Re  Re23  1  0.80800814  0.80800814  0.18354113  1
  Re  Re24  1  0.00000000  0.19199186  0.37553300  1
  Re  Re25  1  0.19199186  0.00000000  0.37553300  1
  Re  Re26  1  0.62446700  0.62446700  0.81645887  1
  Re  Re27  1  0.81645887  0.62446700  0.62446700  1
  Re  Re28  1  0.62446700  0.81645887  0.62446700  1
