# generated using pymatgen
data_La3BeAlS7
_symmetry_space_group_name_H-M   'P 1'
_cell_length_a   5.93516687
_cell_length_b   10.21686361
_cell_length_c   10.21681144
_cell_angle_alpha   120.00005136
_cell_angle_beta   90.00000000
_cell_angle_gamma   90.00000000
_symmetry_Int_Tables_number   1
_chemical_formula_structural   La3BeAlS7
_chemical_formula_sum   'La6 Be2 Al2 S14'
_cell_volume   536.53284638
_cell_formula_units_Z   2
loop_
 _symmetry_equiv_pos_site_id
 _symmetry_equiv_pos_as_xyz
  1  'x, y, z'
loop_
 _atom_site_type_symbol
 _atom_site_label
 _atom_site_symmetry_multiplicity
 _atom_site_fract_x
 _atom_site_fract_y
 _atom_site_fract_z
 _atom_site_occupancy
  La  La0  1  0.25041579  0.25311384  0.39073511  1
  La  La1  1  0.25040824  0.60927326  0.86238424  1
  La  La2  1  0.25041923  0.13762354  0.74689268  1
  La  La3  1  0.75041579  0.74688616  0.60926489  1
  La  La4  1  0.75040824  0.39072674  0.13761576  1
  La  La5  1  0.75041923  0.86237646  0.25310732  1
  Be  Be6  1  0.83767223  0.33335204  0.66667587  1
  Be  Be7  1  0.33767223  0.66664796  0.33332413  1
  Al  Al8  1  0.48983535  0.00000026  0.99999927  1
  Al  Al9  1  0.98983535  0.99999974  0.00000073  1
  S  S10  1  0.73355740  0.14120844  0.21687640  1
  S  S11  1  0.73355934  0.78312154  0.92433552  1
  S  S12  1  0.73355734  0.07566157  0.85878310  1
  S  S13  1  0.23355740  0.85879156  0.78312360  1
  S  S14  1  0.23355934  0.21687846  0.07566448  1
  S  S15  1  0.23355734  0.92433843  0.14121690  1
  S  S16  1  0.96581874  0.11302508  0.51974592  1
  S  S17  1  0.96582705  0.48026785  0.59327678  1
  S  S18  1  0.96582786  0.40673073  0.88699031  1
  S  S19  1  0.46581874  0.88697492  0.48025408  1
  S  S20  1  0.46582705  0.51973215  0.40672322  1
  S  S21  1  0.46582786  0.59326927  0.11300969  1
  S  S22  1  0.48410141  0.33335147  0.66667685  1
  S  S23  1  0.98410141  0.66664853  0.33332315  1
