# generated using pymatgen
data_Fe3(PO5)2
_symmetry_space_group_name_H-M   'P 1'
_cell_length_a   7.55187701
_cell_length_b   7.48049152
_cell_length_c   7.40744845
_cell_angle_alpha   90.00000000
_cell_angle_beta   90.00000000
_cell_angle_gamma   121.11964436
_symmetry_Int_Tables_number   1
_chemical_formula_structural   Fe3(PO5)2
_chemical_formula_sum   'Fe6 P4 O20'
_cell_volume   358.23917271
_cell_formula_units_Z   2
loop_
 _symmetry_equiv_pos_site_id
 _symmetry_equiv_pos_as_xyz
  1  'x, y, z'
loop_
 _atom_site_type_symbol
 _atom_site_label
 _atom_site_symmetry_multiplicity
 _atom_site_fract_x
 _atom_site_fract_y
 _atom_site_fract_z
 _atom_site_occupancy
  Fe  Fe0  1  0.50000000  0.50000000  0.50000000  1
  Fe  Fe1  1  -0.00000000  -0.00000000  -0.00000000  1
  Fe  Fe2  1  0.22223433  0.48626248  0.22522084  1
  Fe  Fe3  1  0.27776567  0.01373752  0.72522084  1
  Fe  Fe4  1  0.77776567  0.51373752  0.77477916  1
  Fe  Fe5  1  0.72223433  0.98626248  0.27477916  1
  P  P6  1  0.99807028  0.74596428  0.37268077  1
  P  P7  1  0.50192972  0.75403572  0.87268077  1
  P  P8  1  0.00192972  0.25403572  0.62731923  1
  P  P9  1  0.49807028  0.24596428  0.12731923  1
  O  O10  1  0.80845279  0.60853005  0.49856839  1
  O  O11  1  0.69154721  0.89146995  0.99856839  1
  O  O12  1  0.19154721  0.39146995  0.50143161  1
  O  O13  1  0.30845279  0.10853005  0.00143161  1
  O  O14  1  0.17645516  0.90958766  0.48690170  1
  O  O15  1  0.32354484  0.59041234  0.98690170  1
  O  O16  1  0.82354484  0.09041234  0.51309830  1
  O  O17  1  0.67645516  0.40958766  0.01309830  1
  O  O18  1  0.41790349  0.34929153  0.26097889  1
  O  O19  1  0.08209651  0.15070847  0.76097889  1
  O  O20  1  0.58209651  0.65070847  0.73902111  1
  O  O21  1  0.91790349  0.84929153  0.23902111  1
  O  O22  1  0.55854365  0.11172633  0.23425992  1
  O  O23  1  0.94145635  0.38827367  0.73425992  1
  O  O24  1  0.44145635  0.88827367  0.76574008  1
  O  O25  1  0.05854365  0.61172633  0.26574008  1
  O  O26  1  0.49727304  0.70821895  0.35548402  1
  O  O27  1  0.00272696  0.79178105  0.85548402  1
  O  O28  1  0.50272696  0.29178105  0.64451598  1
  O  O29  1  0.99727304  0.20821895  0.14451598  1
