# generated using pymatgen
data_Nd2Mn3Cu9As7
_symmetry_space_group_name_H-M   'P 1'
_cell_length_a   3.98839403
_cell_length_b   9.90142200
_cell_length_c   9.90123118
_cell_angle_alpha   120.00644840
_cell_angle_beta   90.00000000
_cell_angle_gamma   90.00000000
_symmetry_Int_Tables_number   1
_chemical_formula_structural   Nd2Mn3Cu9As7
_chemical_formula_sum   'Nd2 Mn3 Cu9 As7'
_cell_volume   338.60022118
_cell_formula_units_Z   1
loop_
 _symmetry_equiv_pos_site_id
 _symmetry_equiv_pos_as_xyz
  1  'x, y, z'
loop_
 _atom_site_type_symbol
 _atom_site_label
 _atom_site_symmetry_multiplicity
 _atom_site_fract_x
 _atom_site_fract_y
 _atom_site_fract_z
 _atom_site_occupancy
  Nd  Nd0  1  -0.00000000  0.66663407  0.33328202  1
  Nd  Nd1  1  0.50000000  0.33339862  0.66671928  1
  Mn  Mn2  1  0.50000000  0.12444411  0.90351518  1
  Mn  Mn3  1  0.50000000  0.09665243  0.22094549  1
  Mn  Mn4  1  0.50000000  0.77889290  0.87562204  1
  Cu  Cu5  1  0.00000000  0.37674364  0.95309672  1
  Cu  Cu6  1  -0.00000000  0.04690814  0.42365706  1
  Cu  Cu7  1  0.00000000  0.57635598  0.62325188  1
  Cu  Cu8  1  -0.00000000  0.88014576  0.71687187  1
  Cu  Cu9  1  -0.00000000  0.28312755  0.16326567  1
  Cu  Cu10  1  0.00000000  0.83673011  0.11984343  1
  Cu  Cu11  1  0.50000000  0.95726773  0.57497423  1
  Cu  Cu12  1  0.50000000  0.42505651  0.38232782  1
  Cu  Cu13  1  0.50000000  0.61766556  0.04273260  1
  As  As14  1  0.00000000  0.12401998  0.70667463  1
  As  As15  1  0.00000000  0.29327916  0.41732135  1
  As  As16  1  -0.00000000  0.58267613  0.87598029  1
  As  As17  1  0.50000000  0.70697095  0.58599079  1
  As  As18  1  0.50000000  0.41391308  0.12090692  1
  As  As19  1  0.50000000  0.87906931  0.29302070  1
  As  As20  1  -0.00000000  0.00004827  0.00000003  1
