# generated using pymatgen
data_CeMoO4F
_symmetry_space_group_name_H-M   'P 1'
_cell_length_a   6.62164379
_cell_length_b   7.04458138
_cell_length_c   9.51975176
_cell_angle_alpha   106.12951128
_cell_angle_beta   90.00000000
_cell_angle_gamma   90.00000000
_symmetry_Int_Tables_number   1
_chemical_formula_structural   CeMoO4F
_chemical_formula_sum   'Ce4 Mo4 O16 F4'
_cell_volume   426.58499253
_cell_formula_units_Z   4
loop_
 _symmetry_equiv_pos_site_id
 _symmetry_equiv_pos_as_xyz
  1  'x, y, z'
loop_
 _atom_site_type_symbol
 _atom_site_label
 _atom_site_symmetry_multiplicity
 _atom_site_fract_x
 _atom_site_fract_y
 _atom_site_fract_z
 _atom_site_occupancy
  Ce  Ce0  1  0.36929928  0.77347830  0.57654342  1
  Ce  Ce1  1  0.13070072  0.27347830  0.07654342  1
  Ce  Ce2  1  0.63070072  0.22652170  0.42345658  1
  Ce  Ce3  1  0.86929928  0.72652170  0.92345658  1
  Mo  Mo4  1  0.36382579  0.83116710  0.16527741  1
  Mo  Mo5  1  0.13617421  0.33116710  0.66527741  1
  Mo  Mo6  1  0.63617421  0.16883290  0.83472259  1
  Mo  Mo7  1  0.86382579  0.66883290  0.33472259  1
  O  O8  1  0.33743331  0.57261631  0.12755901  1
  O  O9  1  0.16256669  0.07261631  0.62755901  1
  O  O10  1  0.66256669  0.42738369  0.87244099  1
  O  O11  1  0.83743331  0.92738369  0.37244099  1
  O  O12  1  0.09941541  0.62739803  0.41305263  1
  O  O13  1  0.40058459  0.12739803  0.91305263  1
  O  O14  1  0.90058459  0.37260197  0.58694737  1
  O  O15  1  0.59941541  0.87260197  0.08694737  1
  O  O16  1  0.39218259  0.92486808  0.36390717  1
  O  O17  1  0.10781741  0.42486808  0.86390717  1
  O  O18  1  0.60781741  0.07513192  0.63609283  1
  O  O19  1  0.89218259  0.57513192  0.13609283  1
  O  O20  1  0.14127031  0.91640041  0.08084599  1
  O  O21  1  0.35872969  0.41640041  0.58084599  1
  O  O22  1  0.85872969  0.08359959  0.91915401  1
  O  O23  1  0.64127031  0.58359959  0.41915401  1
  F  F24  1  0.11666819  0.72706625  0.74038404  1
  F  F25  1  0.38333181  0.22706625  0.24038404  1
  F  F26  1  0.88333181  0.27293375  0.25961596  1
  F  F27  1  0.61666819  0.77293375  0.75961596  1
