# generated using pymatgen
data_Th(NF2)4
_symmetry_space_group_name_H-M   'P 1'
_cell_length_a   9.39914346
_cell_length_b   7.39514749
_cell_length_c   8.73230025
_cell_angle_alpha   82.17479657
_cell_angle_beta   73.42825615
_cell_angle_gamma   93.90120344
_symmetry_Int_Tables_number   1
_chemical_formula_structural   Th(NF2)4
_chemical_formula_sum   'Th2 N8 F16'
_cell_volume   572.67472954
_cell_formula_units_Z   2
loop_
 _symmetry_equiv_pos_site_id
 _symmetry_equiv_pos_as_xyz
  1  'x, y, z'
loop_
 _atom_site_type_symbol
 _atom_site_label
 _atom_site_symmetry_multiplicity
 _atom_site_fract_x
 _atom_site_fract_y
 _atom_site_fract_z
 _atom_site_occupancy
  Th  Th0  1  0.08964969  0.76350540  0.95479586  1
  Th  Th1  1  0.91035031  0.23649460  0.04520414  1
  N  N2  1  0.67560613  0.28299569  0.63212446  1
  N  N3  1  0.32439387  0.71700431  0.36787554  1
  N  N4  1  0.82178599  0.83664798  0.49411731  1
  N  N5  1  0.17821401  0.16335202  0.50588269  1
  N  N6  1  0.46139667  0.54509174  0.79105114  1
  N  N7  1  0.53860333  0.45490826  0.20894886  1
  N  N8  1  0.58944897  0.16206830  0.68269395  1
  N  N9  1  0.41055103  0.83793170  0.31730605  1
  F  F10  1  0.94638053  0.75011781  0.42753645  1
  F  F11  1  0.05361947  0.24988219  0.57246355  1
  F  F12  1  0.67217641  0.55470621  0.20484281  1
  F  F13  1  0.32782359  0.44529379  0.79515719  1
  F  F14  1  0.82468378  0.83993005  0.65091436  1
  F  F15  1  0.17531622  0.16006995  0.34908564  1
  F  F16  1  0.88020263  0.90234442  0.08038194  1
  F  F17  1  0.11979737  0.09765558  0.91961806  1
  F  F18  1  0.28352153  0.78107934  0.02882370  1
  F  F19  1  0.71647847  0.21892066  0.97117630  1
  F  F20  1  0.81370367  0.19535977  0.29756336  1
  F  F21  1  0.18629633  0.80464023  0.70243664  1
  F  F22  1  0.93805411  0.53320725  0.89055004  1
  F  F23  1  0.06194589  0.46679275  0.10944996  1
  F  F24  1  0.51020697  0.64163218  0.63665717  1
  F  F25  1  0.48979303  0.35836782  0.36334283  1
