# generated using pymatgen
data_Ba3V2H12(C5O14)2
_symmetry_space_group_name_H-M   'P 1'
_cell_length_a   9.34804829
_cell_length_b   9.34804829
_cell_length_c   18.29047221
_cell_angle_alpha   94.80955622
_cell_angle_beta   94.80955622
_cell_angle_gamma   111.67507845
_symmetry_Int_Tables_number   1
_chemical_formula_structural   Ba3V2H12(C5O14)2
_chemical_formula_sum   'Ba6 V4 H24 C20 O56'
_cell_volume   1468.66871432
_cell_formula_units_Z   2
loop_
 _symmetry_equiv_pos_site_id
 _symmetry_equiv_pos_as_xyz
  1  'x, y, z'
loop_
 _atom_site_type_symbol
 _atom_site_label
 _atom_site_symmetry_multiplicity
 _atom_site_fract_x
 _atom_site_fract_y
 _atom_site_fract_z
 _atom_site_occupancy
  Ba  Ba0  1  0.21718192  0.78281808  0.25000000  1
  Ba  Ba1  1  0.78281808  0.21718192  0.75000000  1
  Ba  Ba2  1  0.85075514  0.78174891  0.05254639  1
  Ba  Ba3  1  0.21825109  0.14924486  0.44745361  1
  Ba  Ba4  1  0.14924486  0.21825109  0.94745361  1
  Ba  Ba5  1  0.78174891  0.85075514  0.55254639  1
  V  V6  1  0.20594804  0.40514906  0.15639973  1
  V  V7  1  0.59485094  0.79405196  0.34360027  1
  V  V8  1  0.79405196  0.59485094  0.84360027  1
  V  V9  1  0.40514906  0.20594804  0.65639973  1
  H  H10  1  0.80563799  0.12287416  0.04016527  1
  H  H11  1  0.87712584  0.19436201  0.45983473  1
  H  H12  1  0.19436201  0.87712584  0.95983473  1
  H  H13  1  0.12287416  0.80563799  0.54016527  1
  H  H14  1  0.73893482  0.04019638  0.96017475  1
  H  H15  1  0.95980362  0.26106518  0.53982525  1
  H  H16  1  0.26106518  0.95980362  0.03982525  1
  H  H17  1  0.04019638  0.73893482  0.46017475  1
  H  H18  1  0.09436558  0.52783778  0.38629909  1
  H  H19  1  0.47216222  0.90563442  0.11370091  1
  H  H20  1  0.90563442  0.47216222  0.61370091  1
  H  H21  1  0.52783778  0.09436558  0.88629909  1
  H  H22  1  0.92135744  0.50256126  0.37447426  1
  H  H23  1  0.49743874  0.07864256  0.12552574  1
  H  H24  1  0.07864256  0.49743874  0.62552574  1
  H  H25  1  0.50256126  0.92135744  0.87447426  1
  H  H26  1  0.69392990  0.33031878  0.08803544  1
  H  H27  1  0.66968122  0.30607010  0.41196456  1
  H  H28  1  0.30607010  0.66968122  0.91196456  1
  H  H29  1  0.33031878  0.69392990  0.58803544  1
  H  H30  1  0.80792146  0.31194290  0.14974632  1
  H  H31  1  0.68805710  0.19207854  0.35025368  1
  H  H32  1  0.19207854  0.68805710  0.85025368  1
  H  H33  1  0.31194290  0.80792146  0.64974632  1
  C  C34  1  0.48544590  0.64176936  0.12089990  1
  C  C35  1  0.35823064  0.51455410  0.37910010  1
  C  C36  1  0.51455410  0.35823064  0.87910010  1
  C  C37  1  0.64176936  0.48544590  0.62089990  1
  C  C38  1  0.49944934  0.48867576  0.08917520  1
  C  C39  1  0.51132424  0.50055066  0.41082480  1
  C  C40  1  0.50055066  0.51132424  0.91082480  1
  C  C41  1  0.48867576  0.49944934  0.58917520  1
  C  C42  1  0.90731572  0.85459139  0.32904565  1
  C  C43  1  0.14540861  0.09268428  0.17095435  1
  C  C44  1  0.09268428  0.14540861  0.67095435  1
  C  C45  1  0.85459139  0.90731572  0.82904565  1
  C  C46  1  0.81290909  0.72545919  0.26498625  1
  C  C47  1  0.27454081  0.18709091  0.23501375  1
  C  C48  1  0.18709091  0.27454081  0.73501375  1
  C  C49  1  0.72545919  0.81290909  0.76498625  1
  C  C50  1  0.04303583  0.51709256  0.04012387  1
  C  C51  1  0.48290744  0.95696417  0.45987613  1
  C  C52  1  0.95696417  0.48290744  0.95987613  1
  C  C53  1  0.51709256  0.04303583  0.54012387  1
  O  O54  1  0.36877808  0.62321975  0.15718029  1
  O  O55  1  0.37678025  0.63122192  0.34281971  1
  O  O56  1  0.63122192  0.37678025  0.84281971  1
  O  O57  1  0.62321975  0.36877808  0.65718029  1
  O  O58  1  0.57890340  0.77046727  0.10805338  1
  O  O59  1  0.22953273  0.42109660  0.39194662  1
  O  O60  1  0.42109660  0.22953273  0.89194662  1
  O  O61  1  0.77046727  0.57890340  0.60805338  1
  O  O62  1  0.37531674  0.36810171  0.08731698  1
  O  O63  1  0.63189829  0.62468326  0.41268302  1
  O  O64  1  0.62468326  0.63189829  0.91268302  1
  O  O65  1  0.36810171  0.37531674  0.58731698  1
  O  O66  1  0.62416210  0.49235101  0.06699178  1
  O  O67  1  0.50764899  0.37583790  0.43300822  1
  O  O68  1  0.37583790  0.50764899  0.93300822  1
  O  O69  1  0.49235101  0.62416210  0.56699178  1
  O  O70  1  0.05159914  0.90873668  0.33611241  1
  O  O71  1  0.09126332  0.94840086  0.16388759  1
  O  O72  1  0.94840086  0.09126332  0.66388759  1
  O  O73  1  0.90873668  0.05159914  0.83611241  1
  O  O74  1  0.82632635  0.90201201  0.37199426  1
  O  O75  1  0.09798799  0.17367365  0.12800574  1
  O  O76  1  0.17367365  0.09798799  0.62800574  1
  O  O77  1  0.90201201  0.82632635  0.87199426  1
  O  O78  1  0.88141127  0.68281685  0.21778028  1
  O  O79  1  0.31718315  0.11858873  0.28221972  1
  O  O80  1  0.11858873  0.31718315  0.78221972  1
  O  O81  1  0.68281685  0.88141127  0.71778028  1
  O  O82  1  0.66477327  0.67517794  0.26641841  1
  O  O83  1  0.32482206  0.33522673  0.23358159  1
  O  O84  1  0.33522673  0.32482206  0.73358159  1
  O  O85  1  0.67517794  0.66477327  0.76641841  1
  O  O86  1  0.10789938  0.42070791  0.05459808  1
  O  O87  1  0.57929209  0.89210062  0.44540192  1
  O  O88  1  0.89210062  0.57929209  0.94540192  1
  O  O89  1  0.42070791  0.10789938  0.55459808  1
  O  O90  1  0.04393685  0.62818882  0.08279899  1
  O  O91  1  0.37181118  0.95606315  0.41720101  1
  O  O92  1  0.95606315  0.37181118  0.91720101  1
  O  O93  1  0.62818882  0.04393685  0.58279899  1
  O  O94  1  0.09505170  0.46210689  0.20807366  1
  O  O95  1  0.53789311  0.90494830  0.29192634  1
  O  O96  1  0.90494830  0.53789311  0.79192634  1
  O  O97  1  0.46210689  0.09505170  0.70807366  1
  O  O98  1  0.81987964  0.05070031  0.00145811  1
  O  O99  1  0.94929969  0.18012036  0.49854189  1
  O  O100  1  0.18012036  0.94929969  0.99854189  1
  O  O101  1  0.05070031  0.81987964  0.50145811  1
  O  O102  1  0.02469311  0.58575351  0.38282508  1
  O  O103  1  0.41424649  0.97530689  0.11717492  1
  O  O104  1  0.97530689  0.41424649  0.61717492  1
  O  O105  1  0.58575351  0.02469311  0.88282508  1
  O  O106  1  0.73279176  0.25364373  0.10698358  1
  O  O107  1  0.74635627  0.26720824  0.39301642  1
  O  O108  1  0.26720824  0.74635627  0.89301642  1
  O  O109  1  0.25364373  0.73279176  0.60698358  1
