# generated using pymatgen
data_TiCoO3
_symmetry_space_group_name_H-M   'P 1'
_cell_length_a   11.60702294
_cell_length_b   5.83589950
_cell_length_c   5.54927562
_cell_angle_alpha   117.68609014
_cell_angle_beta   138.46539638
_cell_angle_gamma   43.43632849
_symmetry_Int_Tables_number   1
_chemical_formula_structural   TiCoO3
_chemical_formula_sum   'Ti2 Co2 O6'
_cell_volume   168.77988703
_cell_formula_units_Z   2
loop_
 _symmetry_equiv_pos_site_id
 _symmetry_equiv_pos_as_xyz
  1  'x, y, z'
loop_
 _atom_site_type_symbol
 _atom_site_label
 _atom_site_symmetry_multiplicity
 _atom_site_fract_x
 _atom_site_fract_y
 _atom_site_fract_z
 _atom_site_occupancy
  Ti  Ti0  1  0.64102963  0.05485241  0.13488896  1
  Ti  Ti1  1  0.35897037  0.94514759  0.86511104  1
  Co  Co2  1  0.18495727  0.79522758  0.02173898  1
  Co  Co3  1  0.81504273  0.20477242  0.97826102  1
  O  O4  1  0.85589705  0.02879237  0.62298016  1
  O  O5  1  0.64592933  0.13153781  0.87369639  1
  O  O6  1  0.34827000  0.31768499  0.95962841  1
  O  O7  1  0.14410295  0.97120763  0.37701984  1
  O  O8  1  0.35407067  0.86846219  0.12630361  1
  O  O9  1  0.65173000  0.68231501  0.04037159  1
