# generated using pymatgen
data_H8C5
_symmetry_space_group_name_H-M   'P 1'
_cell_length_a   6.85401162
_cell_length_b   6.85401162
_cell_length_c   9.35084188
_cell_angle_alpha   90.00000000
_cell_angle_beta   90.00000000
_cell_angle_gamma   90.00000000
_symmetry_Int_Tables_number   1
_chemical_formula_structural   H8C5
_chemical_formula_sum   'H32 C20'
_cell_volume   439.27894333
_cell_formula_units_Z   4
loop_
 _symmetry_equiv_pos_site_id
 _symmetry_equiv_pos_as_xyz
  1  'x, y, z'
loop_
 _atom_site_type_symbol
 _atom_site_label
 _atom_site_symmetry_multiplicity
 _atom_site_fract_x
 _atom_site_fract_y
 _atom_site_fract_z
 _atom_site_occupancy
  H  H0  1  0.81077976  0.44792114  0.66352882  1
  H  H1  1  0.31077976  0.05207886  0.83647118  1
  H  H2  1  0.18922024  0.55207886  0.66352882  1
  H  H3  1  0.68922024  0.94792114  0.83647118  1
  H  H4  1  0.44792114  0.18922024  0.33647118  1
  H  H5  1  0.05207886  0.68922024  0.16352882  1
  H  H6  1  0.55207886  0.81077976  0.33647118  1
  H  H7  1  0.94792114  0.31077976  0.16352882  1
  H  H8  1  0.51976035  0.62709224  0.76233602  1
  H  H9  1  0.01976035  0.87290776  0.73766398  1
  H  H10  1  0.48023965  0.37290776  0.76233602  1
  H  H11  1  0.98023965  0.12709224  0.73766398  1
  H  H12  1  0.62709224  0.48023965  0.23766398  1
  H  H13  1  0.87290776  0.98023965  0.26233602  1
  H  H14  1  0.37290776  0.51976035  0.23766398  1
  H  H15  1  0.12709224  0.01976035  0.26233602  1
  H  H16  1  0.73335043  0.78076597  0.56702614  1
  H  H17  1  0.23335043  0.71923403  0.93297386  1
  H  H18  1  0.26664957  0.21923403  0.56702614  1
  H  H19  1  0.76664957  0.28076597  0.93297386  1
  H  H20  1  0.78076597  0.26664957  0.43297386  1
  H  H21  1  0.71923403  0.76664957  0.06702614  1
  H  H22  1  0.21923403  0.73335043  0.43297386  1
  H  H23  1  0.28076597  0.23335043  0.06702614  1
  H  H24  1  0.84314417  0.63103679  0.43503133  1
  H  H25  1  0.34314417  0.86896321  0.06496867  1
  H  H26  1  0.15685583  0.36896321  0.43503133  1
  H  H27  1  0.65685583  0.13103679  0.06496867  1
  H  H28  1  0.63103679  0.15685583  0.56496867  1
  H  H29  1  0.86896321  0.65685583  0.93503133  1
  H  H30  1  0.36896321  0.84314417  0.56496867  1
  H  H31  1  0.13103679  0.34314417  0.93503133  1
  C  C32  1  0.68048704  0.46984303  0.59595096  1
  C  C33  1  0.18048704  0.03015697  0.90404904  1
  C  C34  1  0.31951296  0.53015697  0.59595096  1
  C  C35  1  0.81951296  0.96984303  0.90404904  1
  C  C36  1  0.46984303  0.31951296  0.40404904  1
  C  C37  1  0.03015697  0.81951296  0.09595096  1
  C  C38  1  0.53015697  0.68048704  0.40404904  1
  C  C39  1  0.96984303  0.18048704  0.09595096  1
  C  C40  1  0.71036870  0.65031204  0.50043535  1
  C  C41  1  0.21036870  0.84968796  0.99956465  1
  C  C42  1  0.28963130  0.34968796  0.50043535  1
  C  C43  1  0.78963130  0.15031204  0.99956465  1
  C  C44  1  0.65031204  0.28963130  0.49956465  1
  C  C45  1  0.84968796  0.78963130  0.00043535  1
  C  C46  1  0.34968796  0.71036870  0.49956465  1
  C  C47  1  0.15031204  0.21036870  0.00043535  1
  C  C48  1  0.50000000  0.50000000  0.69128897  1
  C  C49  1  -0.00000000  0.00000000  0.80871103  1
  C  C50  1  0.50000000  0.50000000  0.30871103  1
  C  C51  1  0.00000000  0.00000000  0.19128897  1
