# generated using pymatgen
data_Bi3(AsO5)2
_symmetry_space_group_name_H-M   'P 1'
_cell_length_a   7.05289491
_cell_length_b   7.36888087
_cell_length_c   9.55780426
_cell_angle_alpha   69.62615335
_cell_angle_beta   73.21183987
_cell_angle_gamma   91.90552625
_symmetry_Int_Tables_number   1
_chemical_formula_structural   Bi3(AsO5)2
_chemical_formula_sum   'Bi6 As4 O20'
_cell_volume   440.83266170
_cell_formula_units_Z   2
loop_
 _symmetry_equiv_pos_site_id
 _symmetry_equiv_pos_as_xyz
  1  'x, y, z'
loop_
 _atom_site_type_symbol
 _atom_site_label
 _atom_site_symmetry_multiplicity
 _atom_site_fract_x
 _atom_site_fract_y
 _atom_site_fract_z
 _atom_site_occupancy
  Bi  Bi0  1  0.77218469  0.40997874  0.47781111  1
  Bi  Bi1  1  0.22781531  0.59002126  0.52218889  1
  Bi  Bi2  1  0.73210674  0.75748439  0.69978904  1
  Bi  Bi3  1  0.26789326  0.24251561  0.30021096  1
  Bi  Bi4  1  0.79415584  0.16601637  0.92442436  1
  Bi  Bi5  1  0.20584416  0.83398363  0.07557564  1
  As  As6  1  0.77272695  0.02070872  0.30311847  1
  As  As7  1  0.22727305  0.97929128  0.69688153  1
  As  As8  1  0.30695325  0.37353365  0.90447689  1
  As  As9  1  0.69304675  0.62646635  0.09552311  1
  O  O10  1  0.89784217  0.53001914  0.62822669  1
  O  O11  1  0.10215783  0.46998086  0.37177331  1
  O  O12  1  0.79995503  0.16623122  0.68616770  1
  O  O13  1  0.20004497  0.83376878  0.31383230  1
  O  O14  1  0.95594259  0.03332751  0.13127838  1
  O  O15  1  0.04405741  0.96667249  0.86872162  1
  O  O16  1  0.68429730  0.79192118  0.45025322  1
  O  O17  1  0.31570270  0.20807882  0.54974678  1
  O  O18  1  0.87766791  0.15570935  0.38515042  1
  O  O19  1  0.12233209  0.84429065  0.61484958  1
  O  O20  1  0.58918348  0.11548549  0.22787149  1
  O  O21  1  0.41081652  0.88451451  0.77212851  1
  O  O22  1  0.49902530  0.51629313  0.73551552  1
  O  O23  1  0.50097470  0.48370687  0.26448448  1
  O  O24  1  0.26212156  0.46261291  0.05412352  1
  O  O25  1  0.73787844  0.53738709  0.94587648  1
  O  O26  1  0.38984850  0.15065705  0.97632871  1
  O  O27  1  0.61015150  0.84934295  0.02367129  1
  O  O28  1  0.11509704  0.37160397  0.82863881  1
  O  O29  1  0.88490296  0.62839603  0.17136119  1
