# generated using pymatgen
data_NdCO4
_symmetry_space_group_name_H-M   'P 1'
_cell_length_a   9.89108923
_cell_length_b   12.54192012
_cell_length_c   12.54151805
_cell_angle_alpha   120.00066187
_cell_angle_beta   90.00000000
_cell_angle_gamma   90.00000000
_symmetry_Int_Tables_number   1
_chemical_formula_structural   NdCO4
_chemical_formula_sum   'Nd18 C18 O72'
_cell_volume   1347.36726895
_cell_formula_units_Z   18
loop_
 _symmetry_equiv_pos_site_id
 _symmetry_equiv_pos_as_xyz
  1  'x, y, z'
loop_
 _atom_site_type_symbol
 _atom_site_label
 _atom_site_symmetry_multiplicity
 _atom_site_fract_x
 _atom_site_fract_y
 _atom_site_fract_z
 _atom_site_occupancy
  Nd  Nd0  1  0.24022708  0.88229219  0.77045287  1
  Nd  Nd1  1  0.24023955  0.22951471  0.11184171  1
  Nd  Nd2  1  0.24023111  0.88816672  0.11769991  1
  Nd  Nd3  1  0.75977292  0.88229219  0.77045287  1
  Nd  Nd4  1  0.75976045  0.22951471  0.11184171  1
  Nd  Nd5  1  0.75976889  0.88816672  0.11769991  1
  Nd  Nd6  1  0.25627036  0.21499089  0.43797448  1
  Nd  Nd7  1  0.25625780  0.56206442  0.77702911  1
  Nd  Nd8  1  0.25626650  0.22296543  0.78502542  1
  Nd  Nd9  1  0.74372964  0.21499089  0.43797448  1
  Nd  Nd10  1  0.74374220  0.56206442  0.77702911  1
  Nd  Nd11  1  0.74373350  0.22296543  0.78502542  1
  Nd  Nd12  1  0.25664917  0.89664534  0.45467194  1
  Nd  Nd13  1  0.25664737  0.54533070  0.44192876  1
  Nd  Nd14  1  0.25664234  0.55803928  0.10337008  1
  Nd  Nd15  1  0.74335083  0.89664534  0.45467194  1
  Nd  Nd16  1  0.74335263  0.54533070  0.44192876  1
  Nd  Nd17  1  0.74335766  0.55803928  0.10337008  1
  C  C18  1  0.00000000  0.35427016  0.49141246  1
  C  C19  1  -0.00000000  0.50857745  0.86286333  1
  C  C20  1  -0.00000000  0.13715732  0.64570168  1
  C  C21  1  0.00000000  0.79767144  0.88699199  1
  C  C22  1  -0.00000000  0.11299806  0.91066960  1
  C  C23  1  -0.00000000  0.08928572  0.20227598  1
  C  C24  1  0.00000000  0.83777152  0.53305107  1
  C  C25  1  -0.00000000  0.46690165  0.30468001  1
  C  C26  1  0.00000000  0.69530478  0.16222914  1
  C  C27  1  0.50000000  0.12997395  0.57807710  1
  C  C28  1  0.50000000  0.42192706  0.55191885  1
  C  C29  1  0.50000000  0.44807102  0.87001795  1
  C  C30  1  0.50000000  0.76147273  0.22426783  1
  C  C31  1  0.50000000  0.77575024  0.53719971  1
  C  C32  1  0.50000000  0.46281686  0.23860501  1
  C  C33  1  0.50000000  0.79738673  0.81902589  1
  C  C34  1  0.50000000  0.18100679  0.97837952  1
  C  C35  1  0.50000000  0.02162931  0.20263155  1
  O  O36  1  -0.00000000  0.24767774  0.48659745  1
  O  O37  1  0.00000000  0.51334424  0.76105835  1
  O  O38  1  0.00000000  0.23895840  0.75228486  1
  O  O39  1  0.11487797  0.40325348  0.49226694  1
  O  O40  1  0.11487862  0.50775291  0.91101094  1
  O  O41  1  0.11487707  0.08901446  0.59673154  1
  O  O42  1  0.88512203  0.40325348  0.49226694  1
  O  O43  1  0.88512138  0.50775291  0.91101094  1
  O  O44  1  0.88512293  0.08901446  0.59673154  1
  O  O45  1  0.00000000  0.86046207  0.83013026  1
  O  O46  1  0.00000000  0.16990781  0.03032514  1
  O  O47  1  0.00000000  0.96964473  0.13953192  1
  O  O48  1  0.11458740  0.08559633  0.85313277  1
  O  O49  1  0.11459020  0.14682377  0.23241590  1
  O  O50  1  0.11458906  0.76752161  0.91437272  1
  O  O51  1  0.88541260  0.08559633  0.85313277  1
  O  O52  1  0.88540980  0.14682377  0.23241590  1
  O  O53  1  0.88541094  0.76752161  0.91437272  1
  O  O54  1  -0.00000000  0.84084601  0.43122770  1
  O  O55  1  0.00000000  0.56870183  0.40957391  1
  O  O56  1  -0.00000000  0.59041587  0.15918403  1
  O  O57  1  0.11424148  0.83830494  0.58295731  1
  O  O58  1  0.11424725  0.41700444  0.25529562  1
  O  O59  1  0.11424154  0.74466014  0.16168160  1
  O  O60  1  0.88575852  0.83830494  0.58295731  1
  O  O61  1  0.88575275  0.41700444  0.25529562  1
  O  O62  1  0.88575846  0.74466014  0.16168160  1
  O  O63  1  0.50000000  0.30296740  0.49936064  1
  O  O64  1  0.50000000  0.50058280  0.80360338  1
  O  O65  1  0.50000000  0.19640777  0.69701995  1
  O  O66  1  0.38613292  0.09686261  0.51928538  1
  O  O67  1  0.38612806  0.48069673  0.57760082  1
  O  O68  1  0.38612845  0.42238812  0.90313541  1
  O  O69  1  0.61386708  0.09686261  0.51928538  1
  O  O70  1  0.61387194  0.48069673  0.57760082  1
  O  O71  1  0.61387155  0.42238812  0.90313541  1
  O  O72  1  0.50000000  0.83918911  0.48079862  1
  O  O73  1  0.50000000  0.51918998  0.35843863  1
  O  O74  1  0.50000000  0.64163389  0.16081350  1
  O  O75  1  0.38551223  0.81918589  0.25485220  1
  O  O76  1  0.38551058  0.74517440  0.56433453  1
  O  O77  1  0.38550491  0.43569428  0.18089427  1
  O  O78  1  0.61448777  0.81918589  0.25485220  1
  O  O79  1  0.61448942  0.74517440  0.56433453  1
  O  O80  1  0.61449509  0.43569428  0.18089427  1
  O  O81  1  0.50000000  0.90035212  0.81727889  1
  O  O82  1  0.50000000  0.18284435  0.08312592  1
  O  O83  1  0.50000000  0.91690365  0.09969895  1
  O  O84  1  0.38593868  0.74783533  0.81878311  1
  O  O85  1  0.38593995  0.18120188  0.92903209  1
  O  O86  1  0.38593591  0.07096269  0.25218055  1
  O  O87  1  0.61406132  0.74783533  0.81878311  1
  O  O88  1  0.61406005  0.18120188  0.92903209  1
  O  O89  1  0.61406409  0.07096269  0.25218055  1
  O  O90  1  0.26049666  0.99999748  0.99998845  1
  O  O91  1  0.73950334  0.99999748  0.99998845  1
  O  O92  1  0.24613972  0.33334911  0.66668138  1
  O  O93  1  0.75386028  0.33334911  0.66668138  1
  O  O94  1  0.24177721  0.66670885  0.33331977  1
  O  O95  1  0.75822279  0.66670885  0.33331977  1
  O  O96  1  0.30833076  0.32186294  0.32573972  1
  O  O97  1  0.30843935  0.67429531  0.99615068  1
  O  O98  1  0.30843722  0.00385293  0.67815209  1
  O  O99  1  0.69166924  0.32186294  0.32573972  1
  O  O100  1  0.69156065  0.67429531  0.99615068  1
  O  O101  1  0.69156278  0.00385293  0.67815209  1
  O  O102  1  0.19366362  0.99736655  0.34033358  1
  O  O103  1  0.19365235  0.65966003  0.65698467  1
  O  O104  1  0.19367864  0.34296183  0.00266628  1
  O  O105  1  0.80633638  0.99736655  0.34033358  1
  O  O106  1  0.80634765  0.65966003  0.65698467  1
  O  O107  1  0.80632136  0.34296183  0.00266628  1
