# generated using pymatgen
data_CoH2PbN3O8
_symmetry_space_group_name_H-M   'P 1'
_cell_length_a   7.37115498
_cell_length_b   8.74864755
_cell_length_c   12.92176301
_cell_angle_alpha   78.09300624
_cell_angle_beta   73.42785134
_cell_angle_gamma   65.08495526
_symmetry_Int_Tables_number   1
_chemical_formula_structural   CoH2PbN3O8
_chemical_formula_sum   'Co4 H8 Pb4 N12 O32'
_cell_volume   720.78208570
_cell_formula_units_Z   4
loop_
 _symmetry_equiv_pos_site_id
 _symmetry_equiv_pos_as_xyz
  1  'x, y, z'
loop_
 _atom_site_type_symbol
 _atom_site_label
 _atom_site_symmetry_multiplicity
 _atom_site_fract_x
 _atom_site_fract_y
 _atom_site_fract_z
 _atom_site_occupancy
  Co  Co0  1  0.59335415  0.05648516  0.75166337  1
  Co  Co1  1  0.40150268  0.44351484  0.74833663  1
  Co  Co2  1  0.40664585  0.94351484  0.24833663  1
  Co  Co3  1  0.59849732  0.55648516  0.25166337  1
  H  H4  1  0.47960201  0.27611100  0.59005219  1
  H  H5  1  0.34576520  0.22388900  0.90994781  1
  H  H6  1  0.52039799  0.72388900  0.40994781  1
  H  H7  1  0.65423480  0.77611100  0.09005219  1
  H  H8  1  0.97207375  0.96985832  0.73754046  1
  H  H9  1  0.67947254  0.53014168  0.76245954  1
  H  H10  1  0.02792625  0.03014168  0.26245954  1
  H  H11  1  0.32052746  0.46985832  0.23754046  1
  Pb  Pb12  1  0.88903195  0.27533143  0.58815513  1
  Pb  Pb13  1  0.75251851  0.22466857  0.91184487  1
  Pb  Pb14  1  0.11096805  0.72466857  0.41184487  1
  Pb  Pb15  1  0.24748149  0.77533143  0.08815513  1
  N  N16  1  0.73416916  0.90671607  0.64056619  1
  N  N17  1  0.28145142  0.59328393  0.85943381  1
  N  N18  1  0.26583084  0.09328393  0.35943381  1
  N  N19  1  0.71854858  0.40671607  0.14056619  1
  N  N20  1  0.63698845  0.88355618  0.87091434  1
  N  N21  1  0.39145898  0.61644382  0.62908566  1
  N  N22  1  0.36301155  0.11644382  0.12908566  1
  N  N23  1  0.60854102  0.38355618  0.37091434  1
  N  N24  1  0.33262074  0.05512044  0.75379490  1
  N  N25  1  0.14153607  0.44487956  0.74620510  1
  N  N26  1  0.66737926  0.94487956  0.24620510  1
  N  N27  1  0.85846393  0.55512044  0.25379490  1
  O  O28  1  0.54727547  0.26409273  0.64857194  1
  O  O29  1  0.45994014  0.23590727  0.85142806  1
  O  O30  1  0.45272453  0.73590727  0.35142806  1
  O  O31  1  0.54005986  0.76409273  0.14857194  1
  O  O32  1  0.85273519  0.07737910  0.74338893  1
  O  O33  1  0.67350321  0.42262090  0.75661107  1
  O  O34  1  0.14726481  0.92262090  0.25661107  1
  O  O35  1  0.32649679  0.57737910  0.24338893  1
  O  O36  1  0.82898477  0.96615686  0.55663894  1
  O  O37  1  0.35178057  0.53384314  0.94336106  1
  O  O38  1  0.17101523  0.03384314  0.44336106  1
  O  O39  1  0.64821943  0.46615686  0.05663894  1
  O  O40  1  0.73463755  0.76406663  0.64761320  1
  O  O41  1  0.14631738  0.73593337  0.85238680  1
  O  O42  1  0.26536245  0.23593337  0.35238680  1
  O  O43  1  0.85368262  0.26406663  0.14761320  1
  O  O44  1  0.57815349  0.76588252  0.88524358  1
  O  O45  1  0.22927959  0.73411748  0.61475642  1
  O  O46  1  0.42184651  0.23411748  0.11475642  1
  O  O47  1  0.77072041  0.26588252  0.38524358  1
  O  O48  1  0.71334991  0.90288187  0.94021137  1
  O  O49  1  0.55644315  0.59711813  0.55978863  1
  O  O50  1  0.28665009  0.09711813  0.05978863  1
  O  O51  1  0.44355685  0.40288187  0.44021137  1
  O  O52  1  0.20446231  0.06182372  0.84189650  1
  O  O53  1  0.10818253  0.43817628  0.65810350  1
  O  O54  1  0.79553769  0.93817628  0.15810350  1
  O  O55  1  0.89181747  0.56182372  0.34189650  1
  O  O56  1  0.29166087  0.05990093  0.66601547  1
  O  O57  1  0.01757727  0.44009907  0.83398453  1
  O  O58  1  0.70833913  0.94009907  0.33398453  1
  O  O59  1  0.98242273  0.55990093  0.16601547  1
