# generated using pymatgen
data_NaCoPH10CO10
_symmetry_space_group_name_H-M   'P 1'
_cell_length_a   8.36695532
_cell_length_b   9.96032371
_cell_length_c   11.89020890
_cell_angle_alpha   90.00000000
_cell_angle_beta   90.00000000
_cell_angle_gamma   106.80202258
_symmetry_Int_Tables_number   1
_chemical_formula_structural   NaCoPH10CO10
_chemical_formula_sum   'Na4 Co4 P4 H40 C4 O40'
_cell_volume   948.59900130
_cell_formula_units_Z   4
loop_
 _symmetry_equiv_pos_site_id
 _symmetry_equiv_pos_as_xyz
  1  'x, y, z'
loop_
 _atom_site_type_symbol
 _atom_site_label
 _atom_site_symmetry_multiplicity
 _atom_site_fract_x
 _atom_site_fract_y
 _atom_site_fract_z
 _atom_site_occupancy
  Na  Na0  1  0.50906106  0.54197803  0.13210522  1
  Na  Na1  1  0.49093894  0.95802197  0.63210522  1
  Na  Na2  1  0.49093894  0.45802197  0.86789478  1
  Na  Na3  1  0.50906106  0.04197803  0.36789478  1
  Co  Co4  1  0.92031506  0.80725355  0.14415008  1
  Co  Co5  1  0.07968494  0.69274645  0.64415008  1
  Co  Co6  1  0.07968494  0.19274645  0.85584992  1
  Co  Co7  1  0.92031506  0.30725355  0.35584992  1
  P  P8  1  0.00576397  0.84155939  0.88625157  1
  P  P9  1  0.99423603  0.65844061  0.38625157  1
  P  P10  1  0.99423603  0.15844061  0.11374843  1
  P  P11  1  0.00576397  0.34155939  0.61374843  1
  H  H12  1  0.87437876  0.53331614  0.18414489  1
  H  H13  1  0.12562124  0.96668386  0.68414489  1
  H  H14  1  0.12562124  0.46668386  0.81585511  1
  H  H15  1  0.87437876  0.03331614  0.31585511  1
  H  H16  1  0.83341147  0.53361525  0.04823782  1
  H  H17  1  0.16658853  0.96638475  0.54823782  1
  H  H18  1  0.16658853  0.46638475  0.95176218  1
  H  H19  1  0.83341147  0.03361525  0.45176218  1
  H  H20  1  0.67721866  0.73325521  0.29391000  1
  H  H21  1  0.32278134  0.76674479  0.79391000  1
  H  H22  1  0.32278134  0.26674479  0.70609000  1
  H  H23  1  0.67721866  0.23325521  0.20609000  1
  H  H24  1  0.60382900  0.82851595  0.20901297  1
  H  H25  1  0.39617100  0.67148405  0.70901297  1
  H  H26  1  0.39617100  0.17148405  0.79098703  1
  H  H27  1  0.60382900  0.32851595  0.29098703  1
  H  H28  1  0.13871434  0.44350660  0.14265166  1
  H  H29  1  0.86128566  0.05649340  0.64265166  1
  H  H30  1  0.86128566  0.55649340  0.85734834  1
  H  H31  1  0.13871434  0.94350660  0.35734834  1
  H  H32  1  0.17988560  0.60682722  0.11751889  1
  H  H33  1  0.82011440  0.89317278  0.61751889  1
  H  H34  1  0.82011440  0.39317278  0.88248111  1
  H  H35  1  0.17988560  0.10682722  0.38248111  1
  H  H36  1  0.53101005  0.26500851  0.04079788  1
  H  H37  1  0.46898995  0.23499149  0.54079788  1
  H  H38  1  0.46898995  0.73499149  0.95920212  1
  H  H39  1  0.53101005  0.76500851  0.45920212  1
  H  H40  1  0.34224807  0.26762871  0.04128221  1
  H  H41  1  0.65775193  0.23237129  0.54128221  1
  H  H42  1  0.65775193  0.73237129  0.95871779  1
  H  H43  1  0.34224807  0.76762871  0.45871779  1
  H  H44  1  0.53638394  0.50376487  0.36568428  1
  H  H45  1  0.46361606  0.99623513  0.86568428  1
  H  H46  1  0.46361606  0.49623513  0.63431572  1
  H  H47  1  0.53638394  0.00376487  0.13431572  1
  H  H48  1  0.36551138  0.38626036  0.34490345  1
  H  H49  1  0.63448862  0.11373964  0.84490345  1
  H  H50  1  0.63448862  0.61373964  0.65509655  1
  H  H51  1  0.36551138  0.88626036  0.15509655  1
  C  C52  1  0.19016461  0.83681557  0.97460407  1
  C  C53  1  0.80983539  0.66318443  0.47460407  1
  C  C54  1  0.80983539  0.16318443  0.02539593  1
  C  C55  1  0.19016461  0.33681557  0.52539593  1
  O  O56  1  0.86408168  0.81979631  0.97298031  1
  O  O57  1  0.13591832  0.68020369  0.47298031  1
  O  O58  1  0.13591832  0.18020369  0.02701969  1
  O  O59  1  0.86408168  0.31979631  0.52701969  1
  O  O60  1  0.98162951  0.71721093  0.80411143  1
  O  O61  1  0.01837049  0.78278907  0.30411143  1
  O  O62  1  0.01837049  0.28278907  0.19588857  1
  O  O63  1  0.98162951  0.21721093  0.69588857  1
  O  O64  1  0.04709327  0.98127147  0.82199945  1
  O  O65  1  0.95290673  0.51872853  0.32199945  1
  O  O66  1  0.95290673  0.01872853  0.17800055  1
  O  O67  1  0.04709327  0.48127147  0.67800055  1
  O  O68  1  0.16830352  0.82385391  0.08108591  1
  O  O69  1  0.83169648  0.67614609  0.58108591  1
  O  O70  1  0.83169648  0.17614609  0.91891409  1
  O  O71  1  0.16830352  0.32385391  0.41891409  1
  O  O72  1  0.32732853  0.84014269  0.92675672  1
  O  O73  1  0.67267147  0.65985731  0.42675672  1
  O  O74  1  0.67267147  0.15985731  0.07324328  1
  O  O75  1  0.32732853  0.34014269  0.57324328  1
  O  O76  1  0.82866363  0.57851039  0.12232691  1
  O  O77  1  0.17133637  0.92148961  0.62232691  1
  O  O78  1  0.17133637  0.42148961  0.87767309  1
  O  O79  1  0.82866363  0.07851039  0.37767309  1
  O  O80  1  0.67144823  0.76054806  0.21386410  1
  O  O81  1  0.32855177  0.73945194  0.71386410  1
  O  O82  1  0.32855177  0.23945194  0.78613590  1
  O  O83  1  0.67144823  0.26054806  0.28613590  1
  O  O84  1  0.21109446  0.52267429  0.09745253  1
  O  O85  1  0.78890554  0.97732571  0.59745253  1
  O  O86  1  0.78890554  0.47732571  0.90254747  1
  O  O87  1  0.21109446  0.02267429  0.40254747  1
  O  O88  1  0.45989839  0.32832530  0.03844457  1
  O  O89  1  0.54010161  0.17167470  0.53844457  1
  O  O90  1  0.54010161  0.67167470  0.96155543  1
  O  O91  1  0.45989839  0.82832530  0.46155543  1
  O  O92  1  0.47681670  0.43127078  0.31151929  1
  O  O93  1  0.52318330  0.06872922  0.81151929  1
  O  O94  1  0.52318330  0.56872922  0.68848071  1
  O  O95  1  0.47681670  0.93127078  0.18848071  1
