# generated using pymatgen
data_Si10(H3C)19
_symmetry_space_group_name_H-M   'P 1'
_cell_length_a   10.37661903
_cell_length_b   14.22913807
_cell_length_c   15.99254527
_cell_angle_alpha   106.20883359
_cell_angle_beta   99.51982693
_cell_angle_gamma   110.88977024
_symmetry_Int_Tables_number   1
_chemical_formula_structural   Si10(H3C)19
_chemical_formula_sum   'Si20 H114 C38'
_cell_volume   2023.93100081
_cell_formula_units_Z   2
loop_
 _symmetry_equiv_pos_site_id
 _symmetry_equiv_pos_as_xyz
  1  'x, y, z'
loop_
 _atom_site_type_symbol
 _atom_site_label
 _atom_site_symmetry_multiplicity
 _atom_site_fract_x
 _atom_site_fract_y
 _atom_site_fract_z
 _atom_site_occupancy
  Si  Si0  1  0.62118800  0.39513183  0.69936208  1
  Si  Si1  1  0.37881200  0.60486817  0.30063792  1
  Si  Si2  1  0.87734546  0.49241269  0.72953915  1
  Si  Si3  1  0.12265454  0.50758731  0.27046085  1
  Si  Si4  1  0.95263791  0.66772227  0.72176125  1
  Si  Si5  1  0.04736209  0.33227773  0.27823875  1
  Si  Si6  1  0.88395138  0.78047415  0.82444081  1
  Si  Si7  1  0.11604862  0.21952585  0.17555919  1
  Si  Si8  1  0.63771494  0.69018007  0.80774835  1
  Si  Si9  1  0.36228506  0.30981993  0.19225165  1
  Si  Si10  1  0.56610520  0.51401865  0.81359630  1
  Si  Si11  1  0.43389480  0.48598135  0.18640370  1
  Si  Si12  1  0.52716846  0.19985823  0.67436095  1
  Si  Si13  1  0.47283154  0.80014177  0.32563905  1
  Si  Si14  1  0.50447652  0.09032148  0.51790207  1
  Si  Si15  1  0.49552348  0.90967852  0.48209793  1
  Si  Si16  1  0.66531131  0.17174877  0.79274910  1
  Si  Si17  1  0.33468869  0.82825123  0.20725090  1
  Si  Si18  1  0.28581915  0.14439530  0.68722506  1
  Si  Si19  1  0.71418085  0.85560470  0.31277494  1
  H  H20  1  0.56280138  0.36227683  0.53100600  1
  H  H21  1  0.43719862  0.63772317  0.46899400  1
  H  H22  1  0.41457866  0.36610717  0.57187908  1
  H  H23  1  0.58542134  0.63389283  0.42812092  1
  H  H24  1  0.56675552  0.48810707  0.59380062  1
  H  H25  1  0.43324448  0.51189293  0.40619938  1
  H  H26  1  0.94016889  0.34263661  0.65371912  1
  H  H27  1  0.05983111  0.65736339  0.34628088  1
  H  H28  1  0.90073425  0.40228468  0.57456852  1
  H  H29  1  0.09926575  0.59771532  0.42543148  1
  H  H30  1  0.06855582  0.46945412  0.66173129  1
  H  H31  1  0.93144418  0.53054588  0.33826871  1
  H  H32  1  0.10006846  0.55283959  0.85662529  1
  H  H33  1  0.89993154  0.44716041  0.14337471  1
  H  H34  1  0.95871930  0.56238098  0.90250468  1
  H  H35  1  0.04128070  0.43761902  0.09749532  1
  H  H36  1  0.96174973  0.43486263  0.85551287  1
  H  H37  1  0.03825027  0.56513737  0.14448713  1
  H  H38  1  0.91607252  0.60663031  0.55358028  1
  H  H39  1  0.08392748  0.39336969  0.44641972  1
  H  H40  1  0.76733205  0.63134646  0.57740812  1
  H  H41  1  0.23266795  0.36865354  0.42259188  1
  H  H42  1  0.93446828  0.74123081  0.59706495  1
  H  H43  1  0.06553172  0.25876919  0.40293505  1
  H  H44  1  0.19991703  0.81319755  0.75520788  1
  H  H45  1  0.80008297  0.18680245  0.24479212  1
  H  H46  1  0.21149813  0.72963999  0.81760889  1
  H  H47  1  0.78850187  0.27036001  0.18239111  1
  H  H48  1  0.19217565  0.68437193  0.69877189  1
  H  H49  1  0.80782435  0.31562807  0.30122811  1
  H  H50  1  0.95698064  0.86841498  0.99421942  1
  H  H51  1  0.04301936  0.13158502  0.00578058  1
  H  H52  1  0.98647062  0.74946019  0.96435293  1
  H  H53  1  0.01352938  0.25053981  0.03564707  1
  H  H54  1  0.10907271  0.86898424  0.95613816  1
  H  H55  1  0.89092729  0.13101576  0.04386184  1
  H  H56  1  0.03621034  0.95767147  0.81701481  1
  H  H57  1  0.96378966  0.04232853  0.18298519  1
  H  H58  1  0.86466799  0.89925912  0.73424422  1
  H  H59  1  0.13533201  0.10074088  0.26575578  1
  H  H60  1  0.88285617  0.96130664  0.85120973  1
  H  H61  1  0.11714383  0.03869336  0.14879027  1
  H  H62  1  0.47187924  0.73469256  0.89349648  1
  H  H63  1  0.52812076  0.26530744  0.10650352  1
  H  H64  1  0.64203383  0.77577341  0.97227770  1
  H  H65  1  0.35796617  0.22422659  0.02772230  1
  H  H66  1  0.62038576  0.85375250  0.90608976  1
  H  H67  1  0.37961424  0.14624750  0.09391024  1
  H  H68  1  0.52685702  0.76629128  0.70872997  1
  H  H69  1  0.47314298  0.23370872  0.29127003  1
  H  H70  1  0.57104413  0.66694205  0.64105026  1
  H  H71  1  0.42895587  0.33305795  0.35894974  1
  H  H72  1  0.41454728  0.62714971  0.67826498  1
  H  H73  1  0.58545272  0.37285029  0.32173502  1
  H  H74  1  0.35215450  0.53046225  0.85482991  1
  H  H75  1  0.64784550  0.46953775  0.14517009  1
  H  H76  1  0.30505569  0.46693045  0.73483210  1
  H  H77  1  0.69494431  0.53306955  0.26516790  1
  H  H78  1  0.31492085  0.39213581  0.80611407  1
  H  H79  1  0.68507915  0.60786419  0.19388593  1
  H  H80  1  0.59751829  0.45857727  0.94861361  1
  H  H81  1  0.40248171  0.54142273  0.05138639  1
  H  H82  1  0.76731448  0.54955982  0.94894055  1
  H  H83  1  0.23268552  0.45044018  0.05105945  1
  H  H84  1  0.64282847  0.59897722  0.98422543  1
  H  H85  1  0.35717153  0.40102278  0.01577457  1
  H  H86  1  0.32188536  0.04055789  0.37047865  1
  H  H87  1  0.67811464  0.95944211  0.62952135  1
  H  H88  1  0.23471225  0.03109010  0.45652198  1
  H  H89  1  0.76528775  0.96890990  0.54347802  1
  H  H90  1  0.33698048  0.15976630  0.45319231  1
  H  H91  1  0.66301952  0.84023370  0.54680769  1
  H  H92  1  0.66266321  0.25063614  0.48993188  1
  H  H93  1  0.33733679  0.74936386  0.51006812  1
  H  H94  1  0.76180136  0.17709050  0.51409851  1
  H  H95  1  0.23819864  0.82290950  0.48590149  1
  H  H96  1  0.63439208  0.12780943  0.40547660  1
  H  H97  1  0.36560792  0.87219057  0.59452340  1
  H  H98  1  0.47046142  0.02411384  0.81646951  1
  H  H99  1  0.52953858  0.97588616  0.18353049  1
  H  H100  1  0.54518654  0.96725168  0.73435034  1
  H  H101  1  0.45481346  0.03274832  0.26564966  1
  H  H102  1  0.64273267  0.02565255  0.85196516  1
  H  H103  1  0.35726733  0.97434745  0.14803484  1
  H  H104  1  0.90415183  0.16889336  0.83324681  1
  H  H105  1  0.09584817  0.83110664  0.16675319  1
  H  H106  1  0.84011375  0.13016790  0.71304162  1
  H  H107  1  0.15988625  0.86983210  0.28695838  1
  H  H108  1  0.91468553  0.26862797  0.78475983  1
  H  H109  1  0.08531447  0.73137203  0.21524017  1
  H  H110  1  0.76334960  0.35461424  0.91672485  1
  H  H111  1  0.23665040  0.64538576  0.08327515  1
  H  H112  1  0.60025599  0.26472797  0.92652366  1
  H  H113  1  0.39974401  0.73527203  0.07347634  1
  H  H114  1  0.76397046  0.25309000  0.96072552  1
  H  H115  1  0.23602954  0.74691000  0.03927448  1
  H  H116  1  0.18476328  0.18418405  0.81729265  1
  H  H117  1  0.81523672  0.81581595  0.18270735  1
  H  H118  1  0.31912622  0.13883481  0.84478543  1
  H  H119  1  0.68087378  0.86116519  0.15521457  1
  H  H120  1  0.37090737  0.27391990  0.85075023  1
  H  H121  1  0.62909263  0.72608010  0.14924977  1
  H  H122  1  0.23471554  0.28529536  0.63820524  1
  H  H123  1  0.76528446  0.71470464  0.36179476  1
  H  H124  1  0.14378336  0.15588475  0.54998387  1
  H  H125  1  0.85621664  0.84411525  0.45001613  1
  H  H126  1  0.07749526  0.18668264  0.64475654  1
  H  H127  1  0.92250474  0.81331736  0.35524346  1
  H  H128  1  0.15676089  0.95673467  0.56662106  1
  H  H129  1  0.84323911  0.04326533  0.43337894  1
  H  H130  1  0.21699914  0.95071226  0.67488866  1
  H  H131  1  0.78300086  0.04928774  0.32511134  1
  H  H132  1  0.06479251  0.97893032  0.64897455  1
  H  H133  1  0.93520749  0.02106968  0.35102545  1
  C  C134  1  0.53279085  0.40367831  0.58831624  1
  C  C135  1  0.46720915  0.59632169  0.41168376  1
  C  C136  1  0.95261053  0.41937198  0.64611844  1
  C  C137  1  0.04738947  0.58062802  0.35388156  1
  C  C138  1  0.98361045  0.51249852  0.84715668  1
  C  C139  1  0.01638955  0.48750148  0.15284332  1
  C  C140  1  0.88526874  0.66097343  0.60123894  1
  C  C141  1  0.11473126  0.33902657  0.39876106  1
  C  C142  1  0.15840377  0.72921486  0.75193616  1
  C  C143  1  0.84159623  0.27078514  0.24806384  1
  C  C144  1  0.99449198  0.81990432  0.94627045  1
  C  C145  1  0.00550802  0.18009568  0.05372955  1
  C  C146  1  0.91977624  0.91165245  0.80387547  1
  C  C147  1  0.08022376  0.08834755  0.19612453  1
  C  C148  1  0.58915181  0.77091576  0.90471065  1
  C  C149  1  0.41084819  0.22908424  0.09528935  1
  C  C150  1  0.52727402  0.68678931  0.69837462  1
  C  C151  1  0.47272598  0.31321069  0.30162538  1
  C  C152  1  0.36519319  0.47098047  0.80002678  1
  C  C153  1  0.63480681  0.52901953  0.19997322  1
  C  C154  1  0.65213457  0.53193980  0.93503217  1
  C  C155  1  0.34786543  0.46806020  0.06496783  1
  C  C156  1  0.33259516  0.07893924  0.44271068  1
  C  C157  1  0.66740484  0.92106076  0.55728932  1
  C  C158  1  0.65617605  0.16931722  0.47884298  1
  C  C159  1  0.34382395  0.83068278  0.52115702  1
  C  C160  1  0.57074838  0.03377521  0.79842001  1
  C  C161  1  0.42925162  0.96622479  0.20157999  1
  C  C162  1  0.84817941  0.18628544  0.77892651  1
  C  C163  1  0.15182059  0.81371456  0.22107349  1
  C  C164  1  0.70103936  0.27102969  0.90995343  1
  C  C165  1  0.29896064  0.72897031  0.09004657  1
  C  C166  1  0.29147605  0.19014271  0.81177689  1
  C  C167  1  0.70852395  0.80985729  0.18822311  1
  C  C168  1  0.17648937  0.19887389  0.62409155  1
  C  C169  1  0.82351063  0.80112611  0.37590845  1
  C  C170  1  0.17213782  0.99317080  0.63978060  1
  C  C171  1  0.82786218  0.00682920  0.36021940  1
