# generated using pymatgen
data_Pb2NO5
_symmetry_space_group_name_H-M   'P 1'
_cell_length_a   5.81215960
_cell_length_b   11.67536198
_cell_length_c   15.06787787
_cell_angle_alpha   90.00000000
_cell_angle_beta   90.00000000
_cell_angle_gamma   90.00000000
_symmetry_Int_Tables_number   1
_chemical_formula_structural   Pb2NO5
_chemical_formula_sum   'Pb16 N8 O40'
_cell_volume   1022.49213718
_cell_formula_units_Z   8
loop_
 _symmetry_equiv_pos_site_id
 _symmetry_equiv_pos_as_xyz
  1  'x, y, z'
loop_
 _atom_site_type_symbol
 _atom_site_label
 _atom_site_symmetry_multiplicity
 _atom_site_fract_x
 _atom_site_fract_y
 _atom_site_fract_z
 _atom_site_occupancy
  Pb  Pb0  1  0.73776921  0.38180415  0.33602390  1
  Pb  Pb1  1  0.23776921  0.11819585  0.66397610  1
  Pb  Pb2  1  0.26223079  0.88180415  0.16397610  1
  Pb  Pb3  1  0.76223079  0.61819585  0.83602390  1
  Pb  Pb4  1  0.26223079  0.61819585  0.66397610  1
  Pb  Pb5  1  0.76223079  0.88180415  0.33602390  1
  Pb  Pb6  1  0.73776921  0.11819585  0.83602390  1
  Pb  Pb7  1  0.23776921  0.38180415  0.16397610  1
  Pb  Pb8  1  0.73212861  0.13168235  0.18044392  1
  Pb  Pb9  1  0.23212861  0.36831765  0.81955608  1
  Pb  Pb10  1  0.26787139  0.63168235  0.31955608  1
  Pb  Pb11  1  0.76787139  0.86831765  0.68044392  1
  Pb  Pb12  1  0.26787139  0.86831765  0.81955608  1
  Pb  Pb13  1  0.76787139  0.63168235  0.18044392  1
  Pb  Pb14  1  0.73212861  0.36831765  0.68044392  1
  Pb  Pb15  1  0.23212861  0.13168235  0.31955608  1
  N  N16  1  0.64953118  0.12447288  0.49100402  1
  N  N17  1  0.14953118  0.37552712  0.50899598  1
  N  N18  1  0.35046882  0.62447288  0.00899598  1
  N  N19  1  0.85046882  0.87552712  0.99100402  1
  N  N20  1  0.35046882  0.87552712  0.50899598  1
  N  N21  1  0.85046882  0.62447288  0.49100402  1
  N  N22  1  0.64953118  0.37552712  0.99100402  1
  N  N23  1  0.14953118  0.12447288  0.00899598  1
  O  O24  1  0.47331262  0.25342826  0.24932785  1
  O  O25  1  0.97331262  0.24657174  0.75067215  1
  O  O26  1  0.52668738  0.75342826  0.25067215  1
  O  O27  1  0.02668738  0.74657174  0.74932785  1
  O  O28  1  0.52668738  0.74657174  0.75067215  1
  O  O29  1  0.02668738  0.75342826  0.24932785  1
  O  O30  1  0.47331262  0.24657174  0.74932785  1
  O  O31  1  0.97331262  0.25342826  0.25067215  1
  O  O32  1  0.50596269  0.51022130  0.24487793  1
  O  O33  1  0.00596269  0.98977870  0.75512207  1
  O  O34  1  0.49403731  0.01022130  0.25512207  1
  O  O35  1  0.99403731  0.48977870  0.74487793  1
  O  O36  1  0.49403731  0.48977870  0.75512207  1
  O  O37  1  0.99403731  0.01022130  0.24487793  1
  O  O38  1  0.50596269  0.98977870  0.74487793  1
  O  O39  1  0.00596269  0.51022130  0.25512207  1
  O  O40  1  0.76773798  0.10236731  0.42301618  1
  O  O41  1  0.26773798  0.39763269  0.57698382  1
  O  O42  1  0.23226202  0.60236731  0.07698382  1
  O  O43  1  0.73226202  0.89763269  0.92301618  1
  O  O44  1  0.23226202  0.89763269  0.57698382  1
  O  O45  1  0.73226202  0.60236731  0.42301618  1
  O  O46  1  0.76773798  0.39763269  0.92301618  1
  O  O47  1  0.26773798  0.10236731  0.07698382  1
  O  O48  1  0.46504049  0.18315867  0.48293367  1
  O  O49  1  0.96504049  0.31684133  0.51706633  1
  O  O50  1  0.53495951  0.68315867  0.01706633  1
  O  O51  1  0.03495951  0.81684133  0.98293367  1
  O  O52  1  0.53495951  0.81684133  0.51706633  1
  O  O53  1  0.03495951  0.68315867  0.48293367  1
  O  O54  1  0.46504049  0.31684133  0.98293367  1
  O  O55  1  0.96504049  0.18315867  0.01706633  1
  O  O56  1  0.70740873  0.08969741  0.56710720  1
  O  O57  1  0.20740873  0.41030259  0.43289280  1
  O  O58  1  0.29259127  0.58969741  0.93289280  1
  O  O59  1  0.79259127  0.91030259  0.06710720  1
  O  O60  1  0.29259127  0.91030259  0.43289280  1
  O  O61  1  0.79259127  0.58969741  0.56710720  1
  O  O62  1  0.70740873  0.41030259  0.06710720  1
  O  O63  1  0.20740873  0.08969741  0.93289280  1
