# generated using pymatgen
data_Ho4In5S13
_symmetry_space_group_name_H-M   'P 1'
_cell_length_a   3.85937576
_cell_length_b   11.86510004
_cell_length_c   21.54085958
_cell_angle_alpha   90.00000000
_cell_angle_beta   90.00000000
_cell_angle_gamma   90.00000000
_symmetry_Int_Tables_number   1
_chemical_formula_structural   Ho4In5S13
_chemical_formula_sum   'Ho8 In10 S26'
_cell_volume   986.39644588
_cell_formula_units_Z   2
loop_
 _symmetry_equiv_pos_site_id
 _symmetry_equiv_pos_as_xyz
  1  'x, y, z'
loop_
 _atom_site_type_symbol
 _atom_site_label
 _atom_site_symmetry_multiplicity
 _atom_site_fract_x
 _atom_site_fract_y
 _atom_site_fract_z
 _atom_site_occupancy
  Ho  Ho0  1  -0.00000000  0.67210792  0.34037115  1
  Ho  Ho1  1  0.00000000  0.32789208  0.65962885  1
  Ho  Ho2  1  0.00000000  0.82789208  0.84037115  1
  Ho  Ho3  1  -0.00000000  0.17210792  0.15962885  1
  Ho  Ho4  1  0.00000000  0.51490093  0.17205028  1
  Ho  Ho5  1  -0.00000000  0.48509907  0.82794972  1
  Ho  Ho6  1  -0.00000000  0.98509907  0.67205028  1
  Ho  Ho7  1  -0.00000000  0.01490093  0.32794972  1
  In  In8  1  -0.00000000  0.50000000  0.50000000  1
  In  In9  1  -0.00000000  -0.00000000  0.00000000  1
  In  In10  1  0.50000000  0.84532140  0.49327336  1
  In  In11  1  0.50000000  0.15467860  0.50672664  1
  In  In12  1  0.50000000  0.65467860  0.99327336  1
  In  In13  1  0.50000000  0.34532140  0.00672664  1
  In  In14  1  0.50000000  0.84388187  0.17094815  1
  In  In15  1  0.50000000  0.15611813  0.82905185  1
  In  In16  1  0.50000000  0.65611813  0.67094815  1
  In  In17  1  0.50000000  0.34388187  0.32905185  1
  S  S18  1  0.50000000  0.84861493  0.36539728  1
  S  S19  1  0.50000000  0.15138507  0.63460272  1
  S  S20  1  0.50000000  0.65138507  0.86539728  1
  S  S21  1  0.50000000  0.34861493  0.13460272  1
  S  S22  1  0.50000000  0.57986743  0.26117050  1
  S  S23  1  0.50000000  0.42013257  0.73882950  1
  S  S24  1  0.50000000  0.92013257  0.76117050  1
  S  S25  1  0.50000000  0.07986743  0.23882950  1
  S  S26  1  0.50000000  0.50540417  0.40503002  1
  S  S27  1  0.50000000  0.49459583  0.59496998  1
  S  S28  1  0.50000000  0.99459583  0.90503002  1
  S  S29  1  0.50000000  0.00540417  0.09496998  1
  S  S30  1  -0.00000000  0.70303391  0.47250524  1
  S  S31  1  0.00000000  0.29696609  0.52749476  1
  S  S32  1  0.00000000  0.79696609  0.97250524  1
  S  S33  1  0.00000000  0.20303391  0.02749476  1
  S  S34  1  0.00000000  0.83231016  0.24330541  1
  S  S35  1  0.00000000  0.16768984  0.75669459  1
  S  S36  1  -0.00000000  0.66768984  0.74330541  1
  S  S37  1  -0.00000000  0.33231016  0.25669459  1
  S  S38  1  0.50000000  0.65525508  0.11573619  1
  S  S39  1  0.50000000  0.34474492  0.88426381  1
  S  S40  1  0.50000000  0.84474492  0.61573619  1
  S  S41  1  0.50000000  0.15525508  0.38426381  1
  S  S42  1  -0.00000000  -0.00000000  0.50000000  1
  S  S43  1  -0.00000000  0.50000000  0.00000000  1
