# generated using pymatgen
data_Ca2Al2FeSi3O13
_symmetry_space_group_name_H-M   'P 1'
_cell_length_a   5.72438958
_cell_length_b   8.98459011
_cell_length_c   10.41044683
_cell_angle_alpha   116.14713591
_cell_angle_beta   90.00000000
_cell_angle_gamma   90.00000000
_symmetry_Int_Tables_number   1
_chemical_formula_structural   Ca2Al2FeSi3O13
_chemical_formula_sum   'Ca4 Al4 Fe2 Si6 O26'
_cell_volume   480.63044877
_cell_formula_units_Z   2
loop_
 _symmetry_equiv_pos_site_id
 _symmetry_equiv_pos_as_xyz
  1  'x, y, z'
loop_
 _atom_site_type_symbol
 _atom_site_label
 _atom_site_symmetry_multiplicity
 _atom_site_fract_x
 _atom_site_fract_y
 _atom_site_fract_z
 _atom_site_occupancy
  Ca  Ca0  1  0.25000000  0.23911728  0.84898680  1
  Ca  Ca1  1  0.75000000  0.76088272  0.15101320  1
  Ca  Ca2  1  0.25000000  0.40638210  0.57778223  1
  Ca  Ca3  1  0.75000000  0.59361790  0.42221777  1
  Al  Al4  1  0.50000000  0.00000000  -0.00000000  1
  Al  Al5  1  -0.00000000  0.00000000  -0.00000000  1
  Al  Al6  1  0.50000000  0.00000000  0.50000000  1
  Al  Al7  1  -0.00000000  0.00000000  0.50000000  1
  Fe  Fe8  1  0.75000000  0.70784411  0.77265790  1
  Fe  Fe9  1  0.25000000  0.29215589  0.22734210  1
  Si  Si10  1  0.25000000  0.66077186  0.95249091  1
  Si  Si11  1  0.75000000  0.33922814  0.04750909  1
  Si  Si12  1  0.75000000  0.31408573  0.73049645  1
  Si  Si13  1  0.25000000  0.68591427  0.26950355  1
  Si  Si14  1  0.25000000  0.81339479  0.67960306  1
  Si  Si15  1  0.75000000  0.18660521  0.32039694  1
  O  O16  1  0.49232797  0.76699542  0.96162929  1
  O  O17  1  0.99232797  0.23300458  0.03837071  1
  O  O18  1  0.50767203  0.23300458  0.03837071  1
  O  O19  1  0.00767203  0.76699542  0.96162929  1
  O  O20  1  0.47892991  0.68884009  0.64097269  1
  O  O21  1  0.97892991  0.31115991  0.35902731  1
  O  O22  1  0.52107009  0.31115991  0.35902731  1
  O  O23  1  0.02107009  0.68884009  0.64097269  1
  O  O24  1  0.51893479  0.19646560  0.66758152  1
  O  O25  1  0.01893479  0.80353440  0.33241848  1
  O  O26  1  0.48106521  0.80353440  0.33241848  1
  O  O27  1  0.98106521  0.19646560  0.66758152  1
  O  O28  1  0.75000000  0.94640887  0.87629000  1
  O  O29  1  0.25000000  0.05359113  0.12371000  1
  O  O30  1  0.25000000  0.95440813  0.85190786  1
  O  O31  1  0.75000000  0.04559187  0.14809214  1
  O  O32  1  0.25000000  0.92450134  0.58868892  1
  O  O33  1  0.75000000  0.07549866  0.41131108  1
  O  O34  1  0.25000000  0.48194241  0.81755927  1
  O  O35  1  0.75000000  0.51805759  0.18244073  1
  O  O36  1  0.75000000  0.46978786  0.69253131  1
  O  O37  1  0.25000000  0.53021214  0.30746869  1
  O  O38  1  0.75000000  0.37676585  0.90482252  1
  O  O39  1  0.25000000  0.62323415  0.09517748  1
  O  O40  1  0.75000000  0.89815483  0.54471865  1
  O  O41  1  0.25000000  0.10184517  0.45528135  1
