# generated using pymatgen
data_Na6Mg3B9P6H3O38
_symmetry_space_group_name_H-M   'P 1'
_cell_length_a   11.88622133
_cell_length_b   11.88696996
_cell_length_c   12.23301416
_cell_angle_alpha   90.00000000
_cell_angle_beta   90.00000000
_cell_angle_gamma   120.00286364
_symmetry_Int_Tables_number   1
_chemical_formula_structural   Na6Mg3B9P6H3O38
_chemical_formula_sum   'Na12 Mg6 B18 P12 H6 O76'
_cell_volume   1496.80958406
_cell_formula_units_Z   2
loop_
 _symmetry_equiv_pos_site_id
 _symmetry_equiv_pos_as_xyz
  1  'x, y, z'
loop_
 _atom_site_type_symbol
 _atom_site_label
 _atom_site_symmetry_multiplicity
 _atom_site_fract_x
 _atom_site_fract_y
 _atom_site_fract_z
 _atom_site_occupancy
  Na  Na0  1  0.28626123  0.01785996  0.82255878  1
  Na  Na1  1  0.98213210  0.26838754  0.82256468  1
  Na  Na2  1  0.73162110  0.71374969  0.82256803  1
  Na  Na3  1  0.71373877  0.98214004  0.32255878  1
  Na  Na4  1  0.01786790  0.73161246  0.32256468  1
  Na  Na5  1  0.26837890  0.28625031  0.32256803  1
  Na  Na6  1  0.66664556  0.33332718  0.17155329  1
  Na  Na7  1  0.33335444  0.66667282  0.67155329  1
  Na  Na8  1  0.33341412  0.66669994  0.16083955  1
  Na  Na9  1  0.66658588  0.33330006  0.66083955  1
  Na  Na10  1  0.99998049  0.99997989  0.08050560  1
  Na  Na11  1  0.00001951  0.00002011  0.58050560  1
  Mg  Mg12  1  0.49948257  0.49595012  0.07711621  1
  Mg  Mg13  1  0.50404508  0.00353124  0.07711756  1
  Mg  Mg14  1  0.99647992  0.50053133  0.07712590  1
  Mg  Mg15  1  0.50051743  0.50404988  0.57711621  1
  Mg  Mg16  1  0.49595492  0.99646876  0.57711756  1
  Mg  Mg17  1  0.00352008  0.49946867  0.57712590  1
  B  B18  1  0.29579578  0.04242252  0.22585401  1
  B  B19  1  0.95757423  0.25336969  0.22585960  1
  B  B20  1  0.74663080  0.70420694  0.22585052  1
  B  B21  1  0.70420422  0.95757748  0.72585401  1
  B  B22  1  0.04242577  0.74663031  0.72585960  1
  B  B23  1  0.25336920  0.29579306  0.72585052  1
  B  B24  1  0.40849750  0.49299621  0.82950737  1
  B  B25  1  0.50699987  0.91549618  0.82951220  1
  B  B26  1  0.08449051  0.59150047  0.82951149  1
  B  B27  1  0.59150250  0.50700379  0.32950737  1
  B  B28  1  0.49300013  0.08450382  0.32951220  1
  B  B29  1  0.91550949  0.40849953  0.32951149  1
  B  B30  1  0.03823177  0.74725320  0.92771421  1
  B  B31  1  0.25274456  0.29096977  0.92771278  1
  B  B32  1  0.70902295  0.96178092  0.92771426  1
  B  B33  1  0.96176823  0.25274680  0.42771421  1
  B  B34  1  0.74725544  0.70903023  0.42771278  1
  B  B35  1  0.29097705  0.03821908  0.42771426  1
  P  P36  1  0.80470440  0.61784264  0.03907180  1
  P  P37  1  0.38219884  0.18698580  0.03912558  1
  P  P38  1  0.81292968  0.19516143  0.03915397  1
  P  P39  1  0.19529560  0.38215736  0.53907180  1
  P  P40  1  0.61780116  0.81301420  0.53912558  1
  P  P41  1  0.18707032  0.80483857  0.53915397  1
  P  P42  1  0.18923844  0.80862011  0.11112712  1
  P  P43  1  0.19153867  0.38059994  0.11119841  1
  P  P44  1  0.61939179  0.81085316  0.11115071  1
  P  P45  1  0.81076156  0.19137989  0.61112712  1
  P  P46  1  0.80846133  0.61940006  0.61119841  1
  P  P47  1  0.38060821  0.18914684  0.61115071  1
  H  H48  1  0.34148139  0.83819866  0.90834742  1
  H  H49  1  0.16179596  0.50329186  0.90833994  1
  H  H50  1  0.49672162  0.65852048  0.90834213  1
  H  H51  1  0.65851861  0.16180134  0.40834742  1
  H  H52  1  0.83820404  0.49670814  0.40833994  1
  H  H53  1  0.50327838  0.34147952  0.40834213  1
  O  O54  1  0.83559923  0.71716767  0.13672404  1
  O  O55  1  0.28283658  0.11842720  0.13673238  1
  O  O56  1  0.88156055  0.16441505  0.13672872  1
  O  O57  1  0.16440077  0.28283233  0.63672404  1
  O  O58  1  0.71716342  0.88157280  0.63673238  1
  O  O59  1  0.11843945  0.83558495  0.63672872  1
  O  O60  1  0.66961056  0.57168666  0.99300316  1
  O  O61  1  0.42830967  0.09784609  0.99297648  1
  O  O62  1  0.90220251  0.33053673  0.99297643  1
  O  O63  1  0.33038944  0.42831334  0.49300316  1
  O  O64  1  0.57169033  0.90215391  0.49297648  1
  O  O65  1  0.09779749  0.66946327  0.49297643  1
  O  O66  1  0.89964616  0.70499959  0.94584868  1
  O  O67  1  0.29496117  0.19461281  0.94584368  1
  O  O68  1  0.80537748  0.10038315  0.94583478  1
  O  O69  1  0.10035384  0.29500041  0.44584868  1
  O  O70  1  0.70503883  0.80538719  0.44584368  1
  O  O71  1  0.19462252  0.89961685  0.44583478  1
  O  O72  1  0.20154978  0.90169925  0.20690986  1
  O  O73  1  0.09827359  0.29983898  0.20689617  1
  O  O74  1  0.70017236  0.79845069  0.20690613  1
  O  O75  1  0.79845022  0.09830075  0.70690986  1
  O  O76  1  0.90172641  0.70016102  0.70689617  1
  O  O77  1  0.29982764  0.20154931  0.70690613  1
  O  O78  1  0.83160309  0.51174775  0.07718475  1
  O  O79  1  0.48819124  0.31975538  0.07712876  1
  O  O80  1  0.68029048  0.16846713  0.07712322  1
  O  O81  1  0.16839691  0.48825225  0.57718475  1
  O  O82  1  0.51180876  0.68024462  0.57712876  1
  O  O83  1  0.31970952  0.83153287  0.57712322  1
  O  O84  1  0.10785517  0.67216997  0.15906421  1
  O  O85  1  0.32770141  0.43563912  0.15901671  1
  O  O86  1  0.56433496  0.89208000  0.15903272  1
  O  O87  1  0.89214483  0.32783003  0.65906421  1
  O  O88  1  0.67229859  0.56436088  0.65901671  1
  O  O89  1  0.43566504  0.10792000  0.65903272  1
  O  O90  1  0.32166401  0.83523272  0.06836314  1
  O  O91  1  0.16474368  0.48650881  0.06832769  1
  O  O92  1  0.51357552  0.67829962  0.06833219  1
  O  O93  1  0.67833599  0.16476728  0.56836314  1
  O  O94  1  0.83525632  0.51349119  0.56832769  1
  O  O95  1  0.48642448  0.32170038  0.56833219  1
  O  O96  1  0.62839679  0.56715551  0.22876955  1
  O  O97  1  0.43284615  0.06124068  0.22877714  1
  O  O98  1  0.93877728  0.37162867  0.22877629  1
  O  O99  1  0.37160321  0.43284449  0.72876955  1
  O  O100  1  0.56715385  0.93875932  0.72877714  1
  O  O101  1  0.06122272  0.62837133  0.72877629  1
  O  O102  1  0.08260438  0.81728728  0.82670409  1
  O  O103  1  0.18269518  0.26529387  0.82669895  1
  O  O104  1  0.73469383  0.91740176  0.82671074  1
  O  O105  1  0.91739562  0.18271272  0.32670409  1
  O  O106  1  0.81730482  0.73470613  0.32669895  1
  O  O107  1  0.26530617  0.08259824  0.32671074  1
  O  O108  1  0.36997509  0.42624751  0.92713273  1
  O  O109  1  0.57373828  0.94371840  0.92714031  1
  O  O110  1  0.05627536  0.63000289  0.92714161  1
  O  O111  1  0.63002491  0.57375249  0.42713273  1
  O  O112  1  0.42626172  0.05628160  0.42714031  1
  O  O113  1  0.94372464  0.36999711  0.42714161  1
  O  O114  1  0.37268286  0.85852919  0.83199549  1
  O  O115  1  0.14146825  0.51414425  0.83201031  1
  O  O116  1  0.48584811  0.62732021  0.83199893  1
  O  O117  1  0.62731714  0.14147081  0.33199549  1
  O  O118  1  0.85853175  0.48585575  0.33201031  1
  O  O119  1  0.51415189  0.37267979  0.33199893  1
  O  O120  1  0.11550000  0.83713043  0.01790867  1
  O  O121  1  0.16284675  0.27835720  0.01788986  1
  O  O122  1  0.72166402  0.88452796  0.01789786  1
  O  O123  1  0.88450000  0.16286957  0.51790867  1
  O  O124  1  0.83715325  0.72164280  0.51788986  1
  O  O125  1  0.27833598  0.11547204  0.51789786  1
  O  O126  1  0.33331182  0.66662799  0.36436616  1
  O  O127  1  0.66668818  0.33337201  0.86436616  1
  O  O128  1  -0.00000147  0.99999445  0.28953430  1
  O  O129  1  0.00000147  0.00000555  0.78953430  1
