# generated using pymatgen
data_CrH6C3(S2N)3
_symmetry_space_group_name_H-M   'P 1'
_cell_length_a   8.93781468
_cell_length_b   8.93781468
_cell_length_c   8.93781448
_cell_angle_alpha   99.86345698
_cell_angle_beta   99.86345698
_cell_angle_gamma   99.86345936
_symmetry_Int_Tables_number   1
_chemical_formula_structural   CrH6C3(S2N)3
_chemical_formula_sum   'Cr2 H12 C6 S12 N6'
_cell_volume   678.07353364
_cell_formula_units_Z   2
loop_
 _symmetry_equiv_pos_site_id
 _symmetry_equiv_pos_as_xyz
  1  'x, y, z'
loop_
 _atom_site_type_symbol
 _atom_site_label
 _atom_site_symmetry_multiplicity
 _atom_site_fract_x
 _atom_site_fract_y
 _atom_site_fract_z
 _atom_site_occupancy
  Cr  Cr0  1  0.24763941  0.24763941  0.24763941  1
  Cr  Cr1  1  0.75236059  0.75236059  0.75236059  1
  H  H2  1  0.65853750  0.31776885  0.97250874  1
  H  H3  1  0.31776885  0.97250874  0.65853750  1
  H  H4  1  0.97250874  0.65853750  0.31776885  1
  H  H5  1  0.34146250  0.68223115  0.02749126  1
  H  H6  1  0.68223115  0.02749126  0.34146250  1
  H  H7  1  0.02749126  0.34146250  0.68223115  1
  H  H8  1  0.49883743  0.26882177  0.81882745  1
  H  H9  1  0.26882177  0.81882745  0.49883743  1
  H  H10  1  0.81882745  0.49883743  0.26882177  1
  H  H11  1  0.50116257  0.73117823  0.18117255  1
  H  H12  1  0.73117823  0.18117255  0.50116257  1
  H  H13  1  0.18117255  0.50116257  0.73117823  1
  C  C14  1  0.44754736  0.27062016  0.03451533  1
  C  C15  1  0.27062016  0.03451533  0.44754736  1
  C  C16  1  0.03451533  0.44754736  0.27062016  1
  C  C17  1  0.55245264  0.72937984  0.96548467  1
  C  C18  1  0.72937984  0.96548467  0.55245264  1
  C  C19  1  0.96548467  0.55245264  0.72937984  1
  S  S20  1  0.51707959  0.30577194  0.23103434  1
  S  S21  1  0.30577194  0.23103434  0.51707959  1
  S  S22  1  0.23103434  0.51707959  0.30577194  1
  S  S23  1  0.48292041  0.69422806  0.76896566  1
  S  S24  1  0.69422806  0.76896566  0.48292041  1
  S  S25  1  0.76896566  0.48292041  0.69422806  1
  S  S26  1  0.25013969  0.21650230  0.97554665  1
  S  S27  1  0.21650230  0.97554665  0.25013969  1
  S  S28  1  0.97554665  0.25013969  0.21650230  1
  S  S29  1  0.74986031  0.78349770  0.02445335  1
  S  S30  1  0.78349770  0.02445335  0.74986031  1
  S  S31  1  0.02445335  0.74986031  0.78349770  1
  N  N32  1  0.54152674  0.28592666  0.93477348  1
  N  N33  1  0.28592666  0.93477348  0.54152674  1
  N  N34  1  0.93477348  0.54152674  0.28592666  1
  N  N35  1  0.45847326  0.71407334  0.06522652  1
  N  N36  1  0.71407334  0.06522652  0.45847326  1
  N  N37  1  0.06522652  0.45847326  0.71407334  1
