# generated using pymatgen
data_Na2NiMo6H26(NO15)2
_symmetry_space_group_name_H-M   'P 1'
_cell_length_a   11.34138794
_cell_length_b   12.03236305
_cell_length_c   12.03236232
_cell_angle_alpha   116.64317220
_cell_angle_beta   90.00000000
_cell_angle_gamma   90.00000000
_symmetry_Int_Tables_number   1
_chemical_formula_structural   Na2NiMo6H26(NO15)2
_chemical_formula_sum   'Na4 Ni2 Mo12 H52 N4 O60'
_cell_volume   1467.62955692
_cell_formula_units_Z   2
loop_
 _symmetry_equiv_pos_site_id
 _symmetry_equiv_pos_as_xyz
  1  'x, y, z'
loop_
 _atom_site_type_symbol
 _atom_site_label
 _atom_site_symmetry_multiplicity
 _atom_site_fract_x
 _atom_site_fract_y
 _atom_site_fract_z
 _atom_site_occupancy
  Na  Na0  1  0.79828499  0.08527781  0.42841245  1
  Na  Na1  1  0.29828499  0.91472219  0.07158755  1
  Na  Na2  1  0.20171501  0.91472219  0.57158755  1
  Na  Na3  1  0.70171501  0.08527781  0.92841245  1
  Ni  Ni4  1  0.50000000  0.50000000  0.50000000  1
  Ni  Ni5  1  -0.00000000  0.50000000  0.00000000  1
  Mo  Mo6  1  0.72988503  0.33910212  0.32305355  1
  Mo  Mo7  1  0.22988503  0.66089788  0.17694645  1
  Mo  Mo8  1  0.27011497  0.66089788  0.67694645  1
  Mo  Mo9  1  0.77011497  0.33910212  0.82305355  1
  Mo  Mo10  1  0.50678406  0.81254202  0.63727378  1
  Mo  Mo11  1  0.00678406  0.18745798  0.86272622  1
  Mo  Mo12  1  0.49321594  0.18745798  0.36272622  1
  Mo  Mo13  1  0.99321594  0.81254202  0.13727378  1
  Mo  Mo14  1  0.73519430  0.64745948  0.46014195  1
  Mo  Mo15  1  0.23519430  0.35254052  0.03985805  1
  Mo  Mo16  1  0.26480570  0.35254052  0.53985805  1
  Mo  Mo17  1  0.76480570  0.64745948  0.96014195  1
  H  H18  1  0.64815445  0.35719241  0.55934495  1
  H  H19  1  0.14815445  0.64280759  0.94065505  1
  H  H20  1  0.35184555  0.64280759  0.44065505  1
  H  H21  1  0.85184555  0.35719241  0.05934495  1
  H  H22  1  0.57219329  0.49713344  0.28206837  1
  H  H23  1  0.07219329  0.50286656  0.21793163  1
  H  H24  1  0.42780671  0.50286656  0.71793163  1
  H  H25  1  0.92780671  0.49713344  0.78206837  1
  H  H26  1  0.64856486  0.64326769  0.68371909  1
  H  H27  1  0.14856486  0.35673231  0.81628091  1
  H  H28  1  0.35143514  0.35673231  0.31628091  1
  H  H29  1  0.85143514  0.64326769  0.18371909  1
  H  H30  1  0.77288177  0.06224487  0.65605495  1
  H  H31  1  0.27288177  0.93775513  0.84394505  1
  H  H32  1  0.22711823  0.93775513  0.34394505  1
  H  H33  1  0.72711823  0.06224487  0.15605495  1
  H  H34  1  0.71648662  0.93320895  0.57247836  1
  H  H35  1  0.21648662  0.06679105  0.92752164  1
  H  H36  1  0.28351338  0.06679105  0.42752164  1
  H  H37  1  0.78351338  0.93320895  0.07247836  1
  H  H38  1  0.52232071  0.59817173  0.17411927  1
  H  H39  1  0.02232071  0.40182827  0.32588073  1
  H  H40  1  0.47767929  0.40182827  0.82588073  1
  H  H41  1  0.97767929  0.59817173  0.67411927  1
  H  H42  1  0.48959814  0.46100105  0.09492475  1
  H  H43  1  0.98959814  0.53899895  0.40507525  1
  H  H44  1  0.51040186  0.53899895  0.90507525  1
  H  H45  1  0.01040186  0.46100105  0.59492475  1
  H  H46  1  0.06211922  0.11474834  0.47209549  1
  H  H47  1  0.56211922  0.88525166  0.02790451  1
  H  H48  1  0.93788078  0.88525166  0.52790451  1
  H  H49  1  0.43788078  0.11474834  0.97209549  1
  H  H50  1  0.98716427  0.15109987  0.59273846  1
  H  H51  1  0.48716427  0.84890013  0.90726154  1
  H  H52  1  0.01283573  0.84890013  0.40726154  1
  H  H53  1  0.51283573  0.15109987  0.09273846  1
  H  H54  1  0.55244948  0.80082604  0.36834640  1
  H  H55  1  0.05244948  0.19917396  0.13165360  1
  H  H56  1  0.44755052  0.19917396  0.63165360  1
  H  H57  1  0.94755052  0.80082604  0.86834640  1
  H  H58  1  0.60283768  0.79524731  0.22996291  1
  H  H59  1  0.10283768  0.20475269  0.27003709  1
  H  H60  1  0.39716232  0.20475269  0.77003709  1
  H  H61  1  0.89716232  0.79524731  0.72996291  1
  H  H62  1  0.45660460  0.81019542  0.25872299  1
  H  H63  1  0.95660460  0.18980458  0.24127701  1
  H  H64  1  0.54339540  0.18980458  0.74127701  1
  H  H65  1  0.04339540  0.81019542  0.75872299  1
  H  H66  1  0.55018474  0.92922924  0.34175708  1
  H  H67  1  0.05018474  0.07077076  0.15824292  1
  H  H68  1  0.44981526  0.07077076  0.65824292  1
  H  H69  1  0.94981526  0.92922924  0.84175708  1
  N  N70  1  0.53953218  0.83214584  0.30050324  1
  N  N71  1  0.03953218  0.16785416  0.19949676  1
  N  N72  1  0.46046782  0.16785416  0.69949676  1
  N  N73  1  0.96046782  0.83214584  0.80050324  1
  O  O74  1  0.61012485  0.35434153  0.48375881  1
  O  O75  1  0.11012485  0.64565847  0.01624119  1
  O  O76  1  0.38987515  0.64565847  0.51624119  1
  O  O77  1  0.88987515  0.35434153  0.98375881  1
  O  O78  1  0.60506273  0.49500894  0.35875996  1
  O  O79  1  0.10506273  0.50499106  0.14124004  1
  O  O80  1  0.39493727  0.50499106  0.64124004  1
  O  O81  1  0.89493727  0.49500894  0.85875996  1
  O  O82  1  0.61145319  0.64278062  0.60839261  1
  O  O83  1  0.11145319  0.35721938  0.89160739  1
  O  O84  1  0.38854681  0.35721938  0.39160739  1
  O  O85  1  0.88854681  0.64278062  0.10839261  1
  O  O86  1  0.59154406  0.22665355  0.25258879  1
  O  O87  1  0.09154406  0.77334645  0.24741121  1
  O  O88  1  0.40845594  0.77334645  0.74741121  1
  O  O89  1  0.90845594  0.22665355  0.75258879  1
  O  O90  1  0.82344811  0.23064940  0.34176841  1
  O  O91  1  0.32344811  0.76935060  0.15823159  1
  O  O92  1  0.17655189  0.76935060  0.65823159  1
  O  O93  1  0.67655189  0.23064940  0.84176841  1
  O  O94  1  0.77993237  0.33489145  0.18359552  1
  O  O95  1  0.27993237  0.66510855  0.31640448  1
  O  O96  1  0.22006763  0.66510855  0.81640448  1
  O  O97  1  0.72006763  0.33489145  0.68359552  1
  O  O98  1  0.80512125  0.49111721  0.44252661  1
  O  O99  1  0.30512125  0.50888279  0.05747339  1
  O  O100  1  0.19487875  0.50888279  0.55747339  1
  O  O101  1  0.69487875  0.49111721  0.94252661  1
  O  O102  1  0.78747155  0.65395269  0.32652380  1
  O  O103  1  0.28747155  0.34604731  0.17347620  1
  O  O104  1  0.21252845  0.34604731  0.67347620  1
  O  O105  1  0.71252845  0.65395269  0.82652380  1
  O  O106  1  0.82806997  0.74560568  0.58105821  1
  O  O107  1  0.32806997  0.25439432  0.91894179  1
  O  O108  1  0.17193003  0.25439432  0.41894179  1
  O  O109  1  0.67193003  0.74560568  0.08105821  1
  O  O110  1  0.60055355  0.76359045  0.48347266  1
  O  O111  1  0.10055355  0.23640955  0.01652734  1
  O  O112  1  0.39944645  0.23640955  0.51652734  1
  O  O113  1  0.89944645  0.76359045  0.98347266  1
  O  O114  1  0.60889727  0.91095597  0.74575481  1
  O  O115  1  0.10889727  0.08904403  0.75424519  1
  O  O116  1  0.39110273  0.08904403  0.25424519  1
  O  O117  1  0.89110273  0.91095597  0.24575481  1
  O  O118  1  0.41269056  0.91659824  0.61111729  1
  O  O119  1  0.91269056  0.08340176  0.88888271  1
  O  O120  1  0.58730944  0.08340176  0.38888271  1
  O  O121  1  0.08730944  0.91659824  0.11111729  1
  O  O122  1  0.76108333  0.00128737  0.56943350  1
  O  O123  1  0.26108333  0.99871263  0.93056650  1
  O  O124  1  0.23891667  0.99871263  0.43056650  1
  O  O125  1  0.73891667  0.00128737  0.06943350  1
  O  O126  1  0.54447908  0.51463584  0.15942027  1
  O  O127  1  0.04447908  0.48536416  0.34057973  1
  O  O128  1  0.45552092  0.48536416  0.84057973  1
  O  O129  1  0.95552092  0.51463584  0.65942027  1
  O  O130  1  0.98229882  0.13446200  0.50527551  1
  O  O131  1  0.48229882  0.86553800  0.99472449  1
  O  O132  1  0.01770118  0.86553800  0.49472449  1
  O  O133  1  0.51770118  0.13446200  0.00527551  1
