# generated using pymatgen
data_La2Co2O5
_symmetry_space_group_name_H-M   'P 1'
_cell_length_a   5.45841818
_cell_length_b   5.84659091
_cell_length_c   15.79231339
_cell_angle_alpha   90.00000000
_cell_angle_beta   90.00000000
_cell_angle_gamma   90.00000000
_symmetry_Int_Tables_number   1
_chemical_formula_structural   La2Co2O5
_chemical_formula_sum   'La8 Co8 O20'
_cell_volume   503.98227836
_cell_formula_units_Z   4
loop_
 _symmetry_equiv_pos_site_id
 _symmetry_equiv_pos_as_xyz
  1  'x, y, z'
loop_
 _atom_site_type_symbol
 _atom_site_label
 _atom_site_symmetry_multiplicity
 _atom_site_fract_x
 _atom_site_fract_y
 _atom_site_fract_z
 _atom_site_occupancy
  La  La0  1  0.00047083  0.52298346  0.88975257  1
  La  La1  1  0.50047083  0.97701654  0.61024743  1
  La  La2  1  -0.00047083  0.47701654  0.38975257  1
  La  La3  1  0.49952917  0.02298346  0.11024743  1
  La  La4  1  -0.00047083  0.47701654  0.11024743  1
  La  La5  1  0.49952917  0.02298346  0.38975257  1
  La  La6  1  0.00047083  0.52298346  0.61024743  1
  La  La7  1  0.50047083  0.97701654  0.88975257  1
  Co  Co8  1  0.50000000  0.50000000  0.00000000  1
  Co  Co9  1  0.00000000  0.00000000  0.50000000  1
  Co  Co10  1  0.50000000  0.50000000  0.50000000  1
  Co  Co11  1  -0.00000000  -0.00000000  0.00000000  1
  Co  Co12  1  0.54624888  0.43866116  0.75000000  1
  Co  Co13  1  0.04624888  0.06133884  0.75000000  1
  Co  Co14  1  0.45375112  0.56133884  0.25000000  1
  Co  Co15  1  0.95375112  0.93866116  0.25000000  1
  O  O16  1  0.25532442  0.75456998  0.01800838  1
  O  O17  1  0.75532442  0.74543002  0.48199162  1
  O  O18  1  0.74467558  0.24543002  0.51800838  1
  O  O19  1  0.24467558  0.25456998  0.98199162  1
  O  O20  1  0.74467558  0.24543002  0.98199162  1
  O  O21  1  0.24467558  0.25456998  0.51800838  1
  O  O22  1  0.25532442  0.75456998  0.48199162  1
  O  O23  1  0.75532442  0.74543002  0.01800838  1
  O  O24  1  0.47995611  0.58506152  0.85891962  1
  O  O25  1  0.97995611  0.91493848  0.64108038  1
  O  O26  1  0.52004389  0.41493848  0.35891962  1
  O  O27  1  0.02004389  0.08506152  0.14108038  1
  O  O28  1  0.52004389  0.41493848  0.14108038  1
  O  O29  1  0.02004389  0.08506152  0.35891962  1
  O  O30  1  0.47995611  0.58506152  0.64108038  1
  O  O31  1  0.97995611  0.91493848  0.85891962  1
  O  O32  1  0.92343354  0.38390718  0.75000000  1
  O  O33  1  0.42343354  0.11609282  0.75000000  1
  O  O34  1  0.07656646  0.61609282  0.25000000  1
  O  O35  1  0.57656646  0.88390718  0.25000000  1
