# generated using pymatgen
data_RbVPO6
_symmetry_space_group_name_H-M   'P 1'
_cell_length_a   6.78582479
_cell_length_b   9.88192345
_cell_length_c   18.37064757
_cell_angle_alpha   90.00000000
_cell_angle_beta   90.00000000
_cell_angle_gamma   90.00000000
_symmetry_Int_Tables_number   1
_chemical_formula_structural   RbVPO6
_chemical_formula_sum   'Rb8 V8 P8 O48'
_cell_volume   1231.88053467
_cell_formula_units_Z   8
loop_
 _symmetry_equiv_pos_site_id
 _symmetry_equiv_pos_as_xyz
  1  'x, y, z'
loop_
 _atom_site_type_symbol
 _atom_site_label
 _atom_site_symmetry_multiplicity
 _atom_site_fract_x
 _atom_site_fract_y
 _atom_site_fract_z
 _atom_site_occupancy
  Rb  Rb0  1  0.77359105  0.80905622  0.40095814  1
  Rb  Rb1  1  0.27359105  0.69094378  0.59904186  1
  Rb  Rb2  1  0.22640895  0.30905622  0.09904186  1
  Rb  Rb3  1  0.72640895  0.19094378  0.90095814  1
  Rb  Rb4  1  0.22640895  0.19094378  0.59904186  1
  Rb  Rb5  1  0.72640895  0.30905622  0.40095814  1
  Rb  Rb6  1  0.77359105  0.69094378  0.90095814  1
  Rb  Rb7  1  0.27359105  0.80905622  0.09904186  1
  V  V8  1  0.52254921  0.95524364  0.74360872  1
  V  V9  1  0.02254921  0.54475636  0.25639128  1
  V  V10  1  0.47745079  0.45524364  0.75639128  1
  V  V11  1  0.97745079  0.04475636  0.24360872  1
  V  V12  1  0.47745079  0.04475636  0.25639128  1
  V  V13  1  0.97745079  0.45524364  0.74360872  1
  V  V14  1  0.52254921  0.54475636  0.24360872  1
  V  V15  1  0.02254921  0.95524364  0.75639128  1
  P  P16  1  0.29560982  0.90109217  0.89844956  1
  P  P17  1  0.79560982  0.59890783  0.10155044  1
  P  P18  1  0.70439018  0.40109217  0.60155044  1
  P  P19  1  0.20439018  0.09890783  0.39844956  1
  P  P20  1  0.70439018  0.09890783  0.10155044  1
  P  P21  1  0.20439018  0.40109217  0.89844956  1
  P  P22  1  0.29560982  0.59890783  0.39844956  1
  P  P23  1  0.79560982  0.90109217  0.60155044  1
  O  O24  1  0.34364261  0.76858727  0.93893068  1
  O  O25  1  0.84364261  0.73141273  0.06106932  1
  O  O26  1  0.65635739  0.26858727  0.56106932  1
  O  O27  1  0.15635739  0.23141273  0.43893068  1
  O  O28  1  0.65635739  0.23141273  0.06106932  1
  O  O29  1  0.15635739  0.26858727  0.93893068  1
  O  O30  1  0.34364261  0.73141273  0.43893068  1
  O  O31  1  0.84364261  0.76858727  0.56106932  1
  O  O32  1  0.27241263  0.99702362  0.96411860  1
  O  O33  1  0.77241263  0.50297638  0.03588140  1
  O  O34  1  0.72758737  0.49702362  0.53588140  1
  O  O35  1  0.22758737  0.00297638  0.46411860  1
  O  O36  1  0.72758737  0.00297638  0.03588140  1
  O  O37  1  0.22758737  0.49702362  0.96411860  1
  O  O38  1  0.27241263  0.50297638  0.46411860  1
  O  O39  1  0.77241263  0.99702362  0.53588140  1
  O  O40  1  0.60309368  0.88970703  0.64728199  1
  O  O41  1  0.10309368  0.61029297  0.35271801  1
  O  O42  1  0.39690632  0.38970703  0.85271801  1
  O  O43  1  0.89690632  0.11029297  0.14728199  1
  O  O44  1  0.39690632  0.11029297  0.35271801  1
  O  O45  1  0.89690632  0.38970703  0.64728199  1
  O  O46  1  0.60309368  0.61029297  0.14728199  1
  O  O47  1  0.10309368  0.88970703  0.85271801  1
  O  O48  1  0.96926751  0.94568658  0.65124645  1
  O  O49  1  0.46926751  0.55431342  0.34875355  1
  O  O50  1  0.03073249  0.44568658  0.84875355  1
  O  O51  1  0.53073249  0.05431342  0.15124645  1
  O  O52  1  0.03073249  0.05431342  0.34875355  1
  O  O53  1  0.53073249  0.44568658  0.65124645  1
  O  O54  1  0.96926751  0.55431342  0.15124645  1
  O  O55  1  0.46926751  0.94568658  0.84875355  1
  O  O56  1  0.47640107  0.88113337  0.26726347  1
  O  O57  1  0.97640107  0.61886663  0.73273653  1
  O  O58  1  0.52359893  0.38113337  0.23273653  1
  O  O59  1  0.02359893  0.11886663  0.76726347  1
  O  O60  1  0.52359893  0.11886663  0.73273653  1
  O  O61  1  0.02359893  0.38113337  0.26726347  1
  O  O62  1  0.47640107  0.61886663  0.76726347  1
  O  O63  1  0.97640107  0.88113337  0.23273653  1
  O  O64  1  0.72259448  0.10139298  0.27360555  1
  O  O65  1  0.22259448  0.39860702  0.72639445  1
  O  O66  1  0.27740552  0.60139298  0.22639445  1
  O  O67  1  0.77740552  0.89860702  0.77360555  1
  O  O68  1  0.27740552  0.89860702  0.72639445  1
  O  O69  1  0.77740552  0.60139298  0.27360555  1
  O  O70  1  0.72259448  0.39860702  0.77360555  1
  O  O71  1  0.22259448  0.10139298  0.22639445  1
