# generated using pymatgen
data_ZnH20PtC4(NO3)4
_symmetry_space_group_name_H-M   'P 1'
_cell_length_a   7.23514146
_cell_length_b   7.54032175
_cell_length_c   9.17723952
_cell_angle_alpha   114.25613111
_cell_angle_beta   113.21543143
_cell_angle_gamma   90.00000000
_symmetry_Int_Tables_number   1
_chemical_formula_structural   ZnH20PtC4(NO3)4
_chemical_formula_sum   'Zn1 H20 Pt1 C4 N4 O12'
_cell_volume   411.59717042
_cell_formula_units_Z   1
loop_
 _symmetry_equiv_pos_site_id
 _symmetry_equiv_pos_as_xyz
  1  'x, y, z'
loop_
 _atom_site_type_symbol
 _atom_site_label
 _atom_site_symmetry_multiplicity
 _atom_site_fract_x
 _atom_site_fract_y
 _atom_site_fract_z
 _atom_site_occupancy
  Zn  Zn0  1  0.00000000  0.50000000  -0.00000000  1
  H  H1  1  0.47202094  0.81697487  0.18508766  1
  H  H2  1  0.71306672  0.36811279  0.18508766  1
  H  H3  1  0.28693328  0.18302513  0.81491234  1
  H  H4  1  0.52797906  0.63188721  0.81491234  1
  H  H5  1  0.65516831  0.01786166  0.31592537  1
  H  H6  1  0.66075705  0.29806370  0.31592537  1
  H  H7  1  0.33924295  0.98213834  0.68407463  1
  H  H8  1  0.34483169  0.70193630  0.68407463  1
  H  H9  1  0.69911057  0.81157237  0.18345230  1
  H  H10  1  0.48434172  0.37187993  0.18345230  1
  H  H11  1  0.51565828  0.18842763  0.81654770  1
  H  H12  1  0.30088943  0.62812007  0.81654770  1
  H  H13  1  0.94533451  0.80154524  0.89149682  1
  H  H14  1  0.94616230  0.08995157  0.89149682  1
  H  H15  1  0.05383770  0.19845476  0.10850318  1
  H  H16  1  0.05466549  0.91004843  0.10850318  1
  H  H17  1  0.92138967  0.81076044  0.62328032  1
  H  H18  1  0.70189065  0.81251988  0.62328032  1
  H  H19  1  0.29810935  0.18923956  0.37671968  1
  H  H20  1  0.07861033  0.18748012  0.37671968  1
  Pt  Pt21  1  0.50000000  0.00000000  -0.00000000  1
  C  C22  1  0.92634111  0.31705820  0.63562800  1
  C  C23  1  0.70928689  0.31856980  0.63562800  1
  C  C24  1  0.29071311  0.68294180  0.36437200  1
  C  C25  1  0.07365889  0.68143020  0.36437200  1
  N  N26  1  0.59130246  0.89910214  0.19128971  1
  N  N27  1  0.59998724  0.29218757  0.19128971  1
  N  N28  1  0.40001276  0.10089786  0.80871029  1
  N  N29  1  0.40869754  0.70781243  0.80871029  1
  O  O30  1  0.08321558  0.39218386  0.78643963  1
  O  O31  1  0.70322404  0.39425577  0.78643963  1
  O  O32  1  0.29677596  0.60781614  0.21356037  1
  O  O33  1  0.91678442  0.60574423  0.21356037  1
  O  O34  1  0.92824093  0.24127820  0.48606731  1
  O  O35  1  0.55782639  0.24478911  0.48606731  1
  O  O36  1  0.44217361  0.75872180  0.51393269  1
  O  O37  1  0.07175907  0.75521089  0.51393269  1
  O  O38  1  1.00000000  0.78075944  1.00000000  1
  O  O39  1  0.00000000  0.21924056  0.00000000  1
  O  O40  1  0.85152336  0.85152336  0.70304671  1
  O  O41  1  0.14847664  0.14847664  0.29695329  1
