# generated using pymatgen
data_KS2N(O2F)2
_symmetry_space_group_name_H-M   'P 1'
_cell_length_a   5.70619268
_cell_length_b   15.03869115
_cell_length_c   15.73031966
_cell_angle_alpha   91.10624370
_cell_angle_beta   90.00000000
_cell_angle_gamma   90.00000000
_symmetry_Int_Tables_number   1
_chemical_formula_structural   KS2N(O2F)2
_chemical_formula_sum   'K8 S16 N8 O32 F16'
_cell_volume   1349.62485229
_cell_formula_units_Z   8
loop_
 _symmetry_equiv_pos_site_id
 _symmetry_equiv_pos_as_xyz
  1  'x, y, z'
loop_
 _atom_site_type_symbol
 _atom_site_label
 _atom_site_symmetry_multiplicity
 _atom_site_fract_x
 _atom_site_fract_y
 _atom_site_fract_z
 _atom_site_occupancy
  K  K0  1  0.73298667  0.20658149  0.81728516  1
  K  K1  1  0.76701333  0.20658149  0.31728516  1
  K  K2  1  0.26701333  0.79341851  0.18271484  1
  K  K3  1  0.23298667  0.79341851  0.68271484  1
  K  K4  1  0.78395671  0.29266182  0.06727909  1
  K  K5  1  0.71604329  0.29266182  0.56727909  1
  K  K6  1  0.21604329  0.70733818  0.93272091  1
  K  K7  1  0.28395671  0.70733818  0.43272091  1
  S  S8  1  0.24032202  0.13437108  0.99520801  1
  S  S9  1  0.25967798  0.13437108  0.49520801  1
  S  S10  1  0.75967798  0.86562892  0.00479199  1
  S  S11  1  0.74032202  0.86562892  0.50479199  1
  S  S12  1  0.30659645  0.39305249  0.91896540  1
  S  S13  1  0.19340355  0.39305249  0.41896540  1
  S  S14  1  0.69340355  0.60694751  0.08103460  1
  S  S15  1  0.80659645  0.60694751  0.58103460  1
  S  S16  1  0.22959961  0.36660312  0.74424588  1
  S  S17  1  0.27040039  0.36660312  0.24424588  1
  S  S18  1  0.77040039  0.63339688  0.25575412  1
  S  S19  1  0.72959961  0.63339688  0.75575412  1
  S  S20  1  0.31529451  0.10720911  0.16888716  1
  S  S21  1  0.18470549  0.10720911  0.66888716  1
  S  S22  1  0.68470549  0.89279089  0.83111284  1
  S  S23  1  0.81529451  0.89279089  0.33111284  1
  N  N24  1  0.16187383  0.13872486  0.09150261  1
  N  N25  1  0.33812617  0.13872486  0.59150261  1
  N  N26  1  0.83812617  0.86127514  0.90849739  1
  N  N27  1  0.66187383  0.86127514  0.40849739  1
  N  N28  1  0.14895236  0.36615606  0.84019703  1
  N  N29  1  0.35104764  0.36615606  0.34019703  1
  N  N30  1  0.85104764  0.63384394  0.15980297  1
  N  N31  1  0.64895236  0.63384394  0.65980297  1
  O  O32  1  0.17491645  0.37802077  0.99521485  1
  O  O33  1  0.32508355  0.37802077  0.49521485  1
  O  O34  1  0.82508355  0.62197923  0.00478515  1
  O  O35  1  0.67491645  0.62197923  0.50478515  1
  O  O36  1  0.46683944  0.33831289  0.72629341  1
  O  O37  1  0.03316056  0.33831289  0.22629341  1
  O  O38  1  0.53316056  0.66168711  0.27370659  1
  O  O39  1  0.96683944  0.66168711  0.77370659  1
  O  O40  1  0.54852156  0.36484275  0.91586660  1
  O  O41  1  0.95147844  0.36484275  0.41586660  1
  O  O42  1  0.45147844  0.63515725  0.08413340  1
  O  O43  1  0.04852156  0.63515725  0.58413340  1
  O  O44  1  0.47621331  0.16322211  0.97687791  1
  O  O45  1  0.02378669  0.16322211  0.47687791  1
  O  O46  1  0.52378669  0.83677789  0.02312209  1
  O  O47  1  0.97621331  0.83677789  0.52312209  1
  O  O48  1  0.19482794  0.13127293  0.24625820  1
  O  O49  1  0.30517206  0.13127293  0.74625820  1
  O  O50  1  0.80517206  0.86872707  0.75374180  1
  O  O51  1  0.69482794  0.86872707  0.25374180  1
  O  O52  1  0.56476366  0.12261598  0.16393763  1
  O  O53  1  0.93523634  0.12261598  0.66393763  1
  O  O54  1  0.43523634  0.87738402  0.83606237  1
  O  O55  1  0.06476366  0.87738402  0.33606237  1
  O  O56  1  0.05038520  0.17070719  0.94647689  1
  O  O57  1  0.44961480  0.17070719  0.44647689  1
  O  O58  1  0.94961480  0.82929281  0.05352311  1
  O  O59  1  0.55038520  0.82929281  0.55352311  1
  O  O60  1  0.04197169  0.32797652  0.69468836  1
  O  O61  1  0.45802831  0.32797652  0.19468836  1
  O  O62  1  0.95802831  0.67202348  0.30531164  1
  O  O63  1  0.54197169  0.67202348  0.80531164  1
  F  F64  1  0.24195092  0.03046868  0.97185437  1
  F  F65  1  0.25804908  0.03046868  0.47185437  1
  F  F66  1  0.75804908  0.96953132  0.02814563  1
  F  F67  1  0.74195092  0.96953132  0.52814563  1
  F  F68  1  0.32128096  0.50019659  0.91286944  1
  F  F69  1  0.17871904  0.50019659  0.41286944  1
  F  F70  1  0.67871904  0.49980341  0.08713056  1
  F  F71  1  0.82128096  0.49980341  0.58713056  1
  F  F72  1  0.29102725  0.00001439  0.16207455  1
  F  F73  1  0.20897275  0.00001439  0.66207455  1
  F  F74  1  0.70897275  0.99998561  0.83792545  1
  F  F75  1  0.79102725  0.99998561  0.33792545  1
  F  F76  1  0.22919616  0.46973041  0.72130902  1
  F  F77  1  0.27080384  0.46973041  0.22130902  1
  F  F78  1  0.77080384  0.53026959  0.27869098  1
  F  F79  1  0.72919616  0.53026959  0.77869098  1
