# generated using pymatgen
data_Cu4SO10
_symmetry_space_group_name_H-M   'P 1'
_cell_length_a   5.83811012
_cell_length_b   9.56160185
_cell_length_c   12.93752817
_cell_angle_alpha   90.00000000
_cell_angle_beta   90.00000000
_cell_angle_gamma   90.04545073
_symmetry_Int_Tables_number   1
_chemical_formula_structural   Cu4SO10
_chemical_formula_sum   'Cu16 S4 O40'
_cell_volume   722.19438847
_cell_formula_units_Z   4
loop_
 _symmetry_equiv_pos_site_id
 _symmetry_equiv_pos_as_xyz
  1  'x, y, z'
loop_
 _atom_site_type_symbol
 _atom_site_label
 _atom_site_symmetry_multiplicity
 _atom_site_fract_x
 _atom_site_fract_y
 _atom_site_fract_z
 _atom_site_occupancy
  Cu  Cu0  1  0.87540251  0.49006983  0.28625848  1
  Cu  Cu1  1  0.12459749  0.50993017  0.71374152  1
  Cu  Cu2  1  0.37540251  0.99006983  0.21374152  1
  Cu  Cu3  1  0.62459749  0.00993017  0.78625848  1
  Cu  Cu4  1  0.37566781  0.49060813  0.28920155  1
  Cu  Cu5  1  0.62433219  0.50939187  0.71079845  1
  Cu  Cu6  1  0.87566781  0.99060813  0.21079845  1
  Cu  Cu7  1  0.12433219  0.00939187  0.78920155  1
  Cu  Cu8  1  0.62490838  0.75813105  0.36168474  1
  Cu  Cu9  1  0.37509162  0.24186895  0.63831526  1
  Cu  Cu10  1  0.12490838  0.25813105  0.13831526  1
  Cu  Cu11  1  0.87509162  0.74186895  0.86168474  1
  Cu  Cu12  1  0.12506094  0.75341046  0.35602575  1
  Cu  Cu13  1  0.87493906  0.24658954  0.64397425  1
  Cu  Cu14  1  0.62506094  0.25341046  0.14397425  1
  Cu  Cu15  1  0.37493906  0.74658954  0.85602575  1
  S  S16  1  0.62181438  0.70749277  0.09223088  1
  S  S17  1  0.37818562  0.29250723  0.90776912  1
  S  S18  1  0.12181438  0.20749277  0.40776912  1
  S  S19  1  0.87818562  0.79250723  0.59223088  1
  O  O20  1  0.86959196  0.63357453  0.38806676  1
  O  O21  1  0.13040804  0.36642547  0.61193324  1
  O  O22  1  0.36959196  0.13357453  0.11193324  1
  O  O23  1  0.63040804  0.86642547  0.88806676  1
  O  O24  1  0.38036046  0.63501160  0.39145645  1
  O  O25  1  0.61963954  0.36498840  0.60854355  1
  O  O26  1  0.88036046  0.13501160  0.10854355  1
  O  O27  1  0.11963954  0.86498840  0.89145645  1
  O  O28  1  0.87593571  0.87473732  0.32939511  1
  O  O29  1  0.12406429  0.12526268  0.67060489  1
  O  O30  1  0.37593571  0.37473732  0.17060489  1
  O  O31  1  0.62406429  0.62526268  0.82939511  1
  O  O32  1  0.37422854  0.87574755  0.33335763  1
  O  O33  1  0.62577146  0.12425245  0.66664237  1
  O  O34  1  0.87422854  0.37574755  0.16664237  1
  O  O35  1  0.12577146  0.62425245  0.83335763  1
  O  O36  1  0.12662603  0.58353478  0.23928049  1
  O  O37  1  0.87337397  0.41646522  0.76071951  1
  O  O38  1  0.62662603  0.08353478  0.26071951  1
  O  O39  1  0.37337397  0.91646522  0.73928049  1
  O  O40  1  0.62657475  0.40672166  0.34033528  1
  O  O41  1  0.37342525  0.59327834  0.65966472  1
  O  O42  1  0.12657475  0.90672166  0.15966472  1
  O  O43  1  0.87342525  0.09327834  0.84033528  1
  O  O44  1  0.62430036  0.63881724  0.19755246  1
  O  O45  1  0.37569964  0.36118276  0.80244754  1
  O  O46  1  0.12430036  0.13881724  0.30244754  1
  O  O47  1  0.87569964  0.86118276  0.69755246  1
  O  O48  1  0.62448451  0.86313751  0.11231423  1
  O  O49  1  0.37551549  0.13686249  0.88768577  1
  O  O50  1  0.12448451  0.36313751  0.38768577  1
  O  O51  1  0.87551549  0.63686249  0.61231423  1
  O  O52  1  0.41085448  0.66984015  0.03685465  1
  O  O53  1  0.58914552  0.33015985  0.96314535  1
  O  O54  1  0.91085448  0.16984015  0.46314535  1
  O  O55  1  0.08914552  0.83015985  0.53685465  1
  O  O56  1  0.83233773  0.66640201  0.03708425  1
  O  O57  1  0.16766227  0.33359799  0.96291575  1
  O  O58  1  0.33233773  0.16640201  0.46291575  1
  O  O59  1  0.66766227  0.83359799  0.53708425  1
