# generated using pymatgen
data_NdTiCrO5
_symmetry_space_group_name_H-M   'P 1'
_cell_length_a   5.93942726
_cell_length_b   7.46442723
_cell_length_c   8.85481503
_cell_angle_alpha   90.00000000
_cell_angle_beta   90.00000000
_cell_angle_gamma   90.00000000
_symmetry_Int_Tables_number   1
_chemical_formula_structural   NdTiCrO5
_chemical_formula_sum   'Nd4 Ti4 Cr4 O20'
_cell_volume   392.57311132
_cell_formula_units_Z   4
loop_
 _symmetry_equiv_pos_site_id
 _symmetry_equiv_pos_as_xyz
  1  'x, y, z'
loop_
 _atom_site_type_symbol
 _atom_site_label
 _atom_site_symmetry_multiplicity
 _atom_site_fract_x
 _atom_site_fract_y
 _atom_site_fract_z
 _atom_site_occupancy
  Nd  Nd0  1  -0.00000000  0.63361186  0.32924527  1
  Nd  Nd1  1  -0.00000000  0.36638814  0.67075473  1
  Nd  Nd2  1  -0.00000000  0.13361186  0.17075473  1
  Nd  Nd3  1  -0.00000000  0.86638814  0.82924527  1
  Ti  Ti4  1  0.25199768  0.50000000  0.00000000  1
  Ti  Ti5  1  0.74800232  0.00000000  0.50000000  1
  Ti  Ti6  1  0.74800232  0.50000000  0.00000000  1
  Ti  Ti7  1  0.25199768  0.00000000  0.50000000  1
  Cr  Cr8  1  0.50000000  0.59966296  0.64527161  1
  Cr  Cr9  1  0.50000000  0.40033704  0.35472839  1
  Cr  Cr10  1  0.50000000  0.09966296  0.85472839  1
  Cr  Cr11  1  0.50000000  0.90033704  0.14527161  1
  O  O12  1  0.24766411  0.60579259  0.79617269  1
  O  O13  1  0.24766411  0.39420741  0.20382731  1
  O  O14  1  0.75233589  0.10579259  0.70382731  1
  O  O15  1  0.75233589  0.89420741  0.29617269  1
  O  O16  1  0.75233589  0.39420741  0.20382731  1
  O  O17  1  0.75233589  0.60579259  0.79617269  1
  O  O18  1  0.24766411  0.89420741  0.29617269  1
  O  O19  1  0.24766411  0.10579259  0.70382731  1
  O  O20  1  -0.00000000  0.66126260  0.05438165  1
  O  O21  1  -0.00000000  0.33873740  0.94561835  1
  O  O22  1  -0.00000000  0.16126260  0.44561835  1
  O  O23  1  -0.00000000  0.83873740  0.55438165  1
  O  O24  1  0.50000000  0.65652452  0.07136935  1
  O  O25  1  0.50000000  0.34347548  0.92863065  1
  O  O26  1  0.50000000  0.15652452  0.42863065  1
  O  O27  1  0.50000000  0.84347548  0.57136935  1
  O  O28  1  0.27548290  0.50000000  0.50000000  1
  O  O29  1  0.72451710  0.00000000  0.00000000  1
  O  O30  1  0.72451710  0.50000000  0.50000000  1
  O  O31  1  0.27548290  0.00000000  0.00000000  1
