# generated using pymatgen
data_ZnH10C2(Se2N)2
_symmetry_space_group_name_H-M   'P 1'
_cell_length_a   12.08044724
_cell_length_b   12.43810896
_cell_length_c   15.58763237
_cell_angle_alpha   90.00000000
_cell_angle_beta   90.00000000
_cell_angle_gamma   90.00000000
_symmetry_Int_Tables_number   1
_chemical_formula_structural   ZnH10C2(Se2N)2
_chemical_formula_sum   'Zn8 H80 C16 Se32 N16'
_cell_volume   2342.16520294
_cell_formula_units_Z   8
loop_
 _symmetry_equiv_pos_site_id
 _symmetry_equiv_pos_as_xyz
  1  'x, y, z'
loop_
 _atom_site_type_symbol
 _atom_site_label
 _atom_site_symmetry_multiplicity
 _atom_site_fract_x
 _atom_site_fract_y
 _atom_site_fract_z
 _atom_site_occupancy
  Zn  Zn0  1  0.44742012  0.55045001  0.23926517  1
  Zn  Zn1  1  0.94742012  0.44954999  0.76073483  1
  Zn  Zn2  1  0.94742012  0.94954999  0.73926517  1
  Zn  Zn3  1  0.44742012  0.05045001  0.26073483  1
  Zn  Zn4  1  0.94547020  0.68608370  0.24459298  1
  Zn  Zn5  1  0.44547020  0.31391630  0.75540702  1
  Zn  Zn6  1  0.44547020  0.81391630  0.74459298  1
  Zn  Zn7  1  0.94547020  0.18608370  0.25540702  1
  H  H8  1  0.25815263  0.62200143  0.29665652  1
  H  H9  1  0.75815263  0.37799857  0.70334348  1
  H  H10  1  0.75815263  0.87799857  0.79665652  1
  H  H11  1  0.25815263  0.12200143  0.20334348  1
  H  H12  1  0.35822361  0.66758406  0.35742226  1
  H  H13  1  0.85822361  0.33241594  0.64257774  1
  H  H14  1  0.85822361  0.83241594  0.85742226  1
  H  H15  1  0.35822361  0.16758406  0.14257774  1
  H  H16  1  0.53928765  0.73054676  0.19850971  1
  H  H17  1  0.03928765  0.26945324  0.80149029  1
  H  H18  1  0.03928765  0.76945324  0.69850971  1
  H  H19  1  0.53928765  0.23054676  0.30149029  1
  H  H20  1  0.40686030  0.75287590  0.19818204  1
  H  H21  1  0.90686030  0.24712410  0.80181796  1
  H  H22  1  0.90686030  0.74712410  0.69818204  1
  H  H23  1  0.40686030  0.25287590  0.30181796  1
  H  H24  1  0.03424580  0.50412711  0.28250377  1
  H  H25  1  0.53424580  0.49587289  0.71749623  1
  H  H26  1  0.53424580  0.99587289  0.78250377  1
  H  H27  1  0.03424580  0.00412711  0.21749623  1
  H  H28  1  0.90179176  0.48421513  0.28925848  1
  H  H29  1  0.40179176  0.51578487  0.71074152  1
  H  H30  1  0.40179176  0.01578487  0.78925848  1
  H  H31  1  0.90179176  0.98421513  0.21074152  1
  H  H32  1  0.75986461  0.61609254  0.18027004  1
  H  H33  1  0.25986461  0.38390746  0.81972996  1
  H  H34  1  0.25986461  0.88390746  0.68027004  1
  H  H35  1  0.75986461  0.11609254  0.31972996  1
  H  H36  1  0.86224400  0.57578750  0.11937859  1
  H  H37  1  0.36224400  0.42421250  0.88062141  1
  H  H38  1  0.36224400  0.92421250  0.61937859  1
  H  H39  1  0.86224400  0.07578750  0.38062141  1
  H  H40  1  0.37835113  0.48372042  0.42105679  1
  H  H41  1  0.87835113  0.51627958  0.57894321  1
  H  H42  1  0.87835113  0.01627958  0.92105679  1
  H  H43  1  0.37835113  0.98372042  0.07894321  1
  H  H44  1  0.25333296  0.55141142  0.44967215  1
  H  H45  1  0.75333296  0.44858858  0.55032785  1
  H  H46  1  0.75333296  0.94858858  0.94967215  1
  H  H47  1  0.25333296  0.05141142  0.05032785  1
  H  H48  1  0.25342125  0.45198413  0.36710781  1
  H  H49  1  0.75342125  0.54801587  0.63289219  1
  H  H50  1  0.75342125  0.04801587  0.86710781  1
  H  H51  1  0.25342125  0.95198413  0.13289219  1
  H  H52  1  0.38275839  0.67505849  0.05837885  1
  H  H53  1  0.88275839  0.32494151  0.94162115  1
  H  H54  1  0.88275839  0.82494151  0.55837885  1
  H  H55  1  0.38275839  0.17505849  0.44162115  1
  H  H56  1  0.48711244  0.77690630  0.05416759  1
  H  H57  1  0.98711244  0.22309370  0.94583241  1
  H  H58  1  0.98711244  0.72309370  0.55416759  1
  H  H59  1  0.48711244  0.27690630  0.44583241  1
  H  H60  1  0.52385862  0.63783182  0.05780658  1
  H  H61  1  0.02385862  0.36216818  0.94219342  1
  H  H62  1  0.02385862  0.86216818  0.55780658  1
  H  H63  1  0.52385862  0.13783182  0.44219342  1
  H  H64  1  0.89367126  0.57343765  0.42809335  1
  H  H65  1  0.39367126  0.42656235  0.57190665  1
  H  H66  1  0.39367126  0.92656235  0.92809335  1
  H  H67  1  0.89367126  0.07343765  0.07190665  1
  H  H68  1  0.98685991  0.46082633  0.43000678  1
  H  H69  1  0.48685991  0.53917367  0.56999322  1
  H  H70  1  0.48685991  0.03917367  0.93000678  1
  H  H71  1  0.98685991  0.96082633  0.06999322  1
  H  H72  1  0.03825117  0.59495647  0.42108419  1
  H  H73  1  0.53825117  0.40504353  0.57891581  1
  H  H74  1  0.53825117  0.90504353  0.92108419  1
  H  H75  1  0.03825117  0.09495647  0.07891581  1
  H  H76  1  0.88213214  0.75818542  0.05983965  1
  H  H77  1  0.38213214  0.24181458  0.94016035  1
  H  H78  1  0.38213214  0.74181458  0.55983965  1
  H  H79  1  0.88213214  0.25818542  0.44016035  1
  H  H80  1  0.75366459  0.69619429  0.03273947  1
  H  H81  1  0.25366459  0.30380571  0.96726053  1
  H  H82  1  0.25366459  0.80380571  0.53273947  1
  H  H83  1  0.75366459  0.19619429  0.46726053  1
  H  H84  1  0.76053542  0.79285875  0.11797379  1
  H  H85  1  0.26053542  0.20714125  0.88202621  1
  H  H86  1  0.26053542  0.70714125  0.61797379  1
  H  H87  1  0.76053542  0.29285875  0.38202621  1
  C  C88  1  0.30121215  0.51765602  0.39596664  1
  C  C89  1  0.80121215  0.48234398  0.60403336  1
  C  C90  1  0.80121215  0.98234398  0.89596664  1
  C  C91  1  0.30121215  0.01765602  0.10403336  1
  C  C92  1  0.46513093  0.69827240  0.08117945  1
  C  C93  1  0.96513093  0.30172760  0.91882055  1
  C  C94  1  0.96513093  0.80172760  0.58117945  1
  C  C95  1  0.46513093  0.19827240  0.41882055  1
  C  C96  1  0.97103742  0.54059448  0.40232830  1
  C  C97  1  0.47103742  0.45940552  0.59767170  1
  C  C98  1  0.47103742  0.95940552  0.90232830  1
  C  C99  1  0.97103742  0.04059448  0.09767170  1
  C  C100  1  0.80442351  0.72684314  0.08609323  1
  C  C101  1  0.30442351  0.27315686  0.91390677  1
  C  C102  1  0.30442351  0.77315686  0.58609323  1
  C  C103  1  0.80442351  0.22684314  0.41390677  1
  Se  Se104  1  0.12575042  0.72367609  0.17850454  1
  Se  Se105  1  0.62575042  0.27632391  0.82149546  1
  Se  Se106  1  0.62575042  0.77632391  0.67850454  1
  Se  Se107  1  0.12575042  0.22367609  0.32149546  1
  Se  Se108  1  0.12686410  0.57458318  0.08175142  1
  Se  Se109  1  0.62686410  0.42541682  0.91824858  1
  Se  Se110  1  0.62686410  0.92541682  0.58175142  1
  Se  Se111  1  0.12686410  0.07458318  0.41824858  1
  Se  Se112  1  0.18786514  0.42316250  0.15953575  1
  Se  Se113  1  0.68786514  0.57683750  0.84046425  1
  Se  Se114  1  0.68786514  0.07683750  0.65953575  1
  Se  Se115  1  0.18786514  0.92316250  0.34046425  1
  Se  Se116  1  0.38407038  0.40736648  0.14568392  1
  Se  Se117  1  0.88407038  0.59263352  0.85431608  1
  Se  Se118  1  0.88407038  0.09263352  0.64568392  1
  Se  Se119  1  0.38407038  0.90736648  0.35431608  1
  Se  Se120  1  0.62244606  0.50978551  0.31277594  1
  Se  Se121  1  0.12244606  0.49021449  0.68722406  1
  Se  Se122  1  0.12244606  0.99021449  0.81277594  1
  Se  Se123  1  0.62244606  0.00978551  0.18722406  1
  Se  Se124  1  0.62540810  0.66016866  0.40856323  1
  Se  Se125  1  0.12540810  0.33983134  0.59143677  1
  Se  Se126  1  0.12540810  0.83983134  0.90856323  1
  Se  Se127  1  0.62540810  0.16016866  0.09143677  1
  Se  Se128  1  0.68474078  0.81012262  0.32791299  1
  Se  Se129  1  0.18474078  0.18987738  0.67208701  1
  Se  Se130  1  0.18474078  0.68987738  0.82791299  1
  Se  Se131  1  0.68474078  0.31012262  0.17208701  1
  Se  Se132  1  0.88062719  0.82610183  0.33989034  1
  Se  Se133  1  0.38062719  0.17389817  0.66010966  1
  Se  Se134  1  0.38062719  0.67389817  0.83989034  1
  Se  Se135  1  0.88062719  0.32610183  0.16010966  1
  N  N136  1  0.32809325  0.59881856  0.32963416  1
  N  N137  1  0.82809325  0.40118144  0.67036584  1
  N  N138  1  0.82809325  0.90118144  0.82963416  1
  N  N139  1  0.32809325  0.09881856  0.17036584  1
  N  N140  1  0.46576557  0.70007783  0.17637570  1
  N  N141  1  0.96576557  0.29992217  0.82362430  1
  N  N142  1  0.96576557  0.79992217  0.67637570  1
  N  N143  1  0.46576557  0.20007783  0.32362430  1
  N  N144  1  0.96321900  0.53656720  0.30761101  1
  N  N145  1  0.46321900  0.46343280  0.69238899  1
  N  N146  1  0.46321900  0.96343280  0.80761101  1
  N  N147  1  0.96321900  0.03656720  0.19238899  1
  N  N148  1  0.83050603  0.64185456  0.14979151  1
  N  N149  1  0.33050603  0.35814544  0.85020849  1
  N  N150  1  0.33050603  0.85814544  0.64979151  1
  N  N151  1  0.83050603  0.14185456  0.35020849  1
