# generated using pymatgen
data_Na2PrGeO5
_symmetry_space_group_name_H-M   'P 1'
_cell_length_a   6.86328926
_cell_length_b   7.65804577
_cell_length_c   9.62373464
_cell_angle_alpha   90.00000000
_cell_angle_beta   90.00000000
_cell_angle_gamma   90.00000000
_symmetry_Int_Tables_number   1
_chemical_formula_structural   Na2PrGeO5
_chemical_formula_sum   'Na8 Pr4 Ge4 O20'
_cell_volume   505.81755758
_cell_formula_units_Z   4
loop_
 _symmetry_equiv_pos_site_id
 _symmetry_equiv_pos_as_xyz
  1  'x, y, z'
loop_
 _atom_site_type_symbol
 _atom_site_label
 _atom_site_symmetry_multiplicity
 _atom_site_fract_x
 _atom_site_fract_y
 _atom_site_fract_z
 _atom_site_occupancy
  Na  Na0  1  0.63488154  0.46610756  0.17583251  1
  Na  Na1  1  0.86511846  0.03389244  0.67583251  1
  Na  Na2  1  0.36511846  0.96610756  0.82416749  1
  Na  Na3  1  0.13488154  0.53389244  0.32416749  1
  Na  Na4  1  0.36511846  0.53389244  0.82416749  1
  Na  Na5  1  0.13488154  0.96610756  0.32416749  1
  Na  Na6  1  0.63488154  0.03389244  0.17583251  1
  Na  Na7  1  0.86511846  0.46610756  0.67583251  1
  Pr  Pr8  1  0.62258166  0.75000000  0.45749087  1
  Pr  Pr9  1  0.87741834  0.75000000  0.95749087  1
  Pr  Pr10  1  0.37741834  0.25000000  0.54250913  1
  Pr  Pr11  1  0.12258166  0.25000000  0.04250913  1
  Ge  Ge12  1  0.82201853  0.25000000  0.40856427  1
  Ge  Ge13  1  0.67798147  0.25000000  0.90856427  1
  Ge  Ge14  1  0.17798147  0.75000000  0.59143573  1
  Ge  Ge15  1  0.32201853  0.75000000  0.09143573  1
  O  O16  1  0.66727653  0.43232849  0.43948489  1
  O  O17  1  0.83272347  0.06767151  0.93948489  1
  O  O18  1  0.33272347  0.93232849  0.56051511  1
  O  O19  1  0.16727653  0.56767151  0.06051511  1
  O  O20  1  0.33272347  0.56767151  0.56051511  1
  O  O21  1  0.16727653  0.93232849  0.06051511  1
  O  O22  1  0.66727653  0.06767151  0.43948489  1
  O  O23  1  0.83272347  0.43232849  0.93948489  1
  O  O24  1  0.89228684  0.25000000  0.23213193  1
  O  O25  1  0.60771316  0.25000000  0.73213193  1
  O  O26  1  0.10771316  0.75000000  0.76786807  1
  O  O27  1  0.39228684  0.75000000  0.26786807  1
  O  O28  1  0.77854394  0.75000000  0.21316908  1
  O  O29  1  0.72145606  0.75000000  0.71316908  1
  O  O30  1  0.22145606  0.25000000  0.78683092  1
  O  O31  1  0.27854394  0.25000000  0.28683092  1
  O  O32  1  0.47788840  0.25000000  0.02310769  1
  O  O33  1  0.02211160  0.25000000  0.52310769  1
  O  O34  1  0.52211160  0.75000000  0.97689231  1
  O  O35  1  0.97788840  0.75000000  0.47689231  1
