# generated using pymatgen
data_NaSr3CeP3O13
_symmetry_space_group_name_H-M   'P 1'
_cell_length_a   7.18271373
_cell_length_b   9.77524186
_cell_length_c   9.77471720
_cell_angle_alpha   120.00685772
_cell_angle_beta   90.00086900
_cell_angle_gamma   90.00044064
_symmetry_Int_Tables_number   1
_chemical_formula_structural   NaSr3CeP3O13
_chemical_formula_sum   'Na2 Sr6 Ce2 P6 O26'
_cell_volume   594.32074171
_cell_formula_units_Z   2
loop_
 _symmetry_equiv_pos_site_id
 _symmetry_equiv_pos_as_xyz
  1  'x, y, z'
loop_
 _atom_site_type_symbol
 _atom_site_label
 _atom_site_symmetry_multiplicity
 _atom_site_fract_x
 _atom_site_fract_y
 _atom_site_fract_z
 _atom_site_occupancy
  Na  Na0  1  0.02052685  0.33338322  0.66670144  1
  Na  Na1  1  0.97947315  0.66661678  0.33329856  1
  Sr  Sr2  1  0.24639381  0.01559574  0.24704760  1
  Sr  Sr3  1  0.24649489  0.75305534  0.76862292  1
  Sr  Sr4  1  0.24643205  0.23139266  0.98441306  1
  Sr  Sr5  1  0.75360619  0.98440426  0.75295240  1
  Sr  Sr6  1  0.75350511  0.24694466  0.23137708  1
  Sr  Sr7  1  0.75356795  0.76860734  0.01558694  1
  Ce  Ce8  1  0.52122769  0.33334719  0.66666167  1
  Ce  Ce9  1  0.47877231  0.66665281  0.33333833  1
  P  P10  1  0.74186489  0.03178498  0.40764679  1
  P  P11  1  0.74192050  0.59239077  0.62417285  1
  P  P12  1  0.74188260  0.37585418  0.96823018  1
  P  P13  1  0.25813511  0.96821502  0.59235321  1
  P  P14  1  0.25807950  0.40760923  0.37582715  1
  P  P15  1  0.25811740  0.62414582  0.03176982  1
  O  O16  1  0.71479578  0.85316233  0.35155118  1
  O  O17  1  0.71478820  0.64849915  0.50167778  1
  O  O18  1  0.71487094  0.49836235  0.14689918  1
  O  O19  1  0.28520422  0.14683767  0.64844882  1
  O  O20  1  0.28521180  0.35150085  0.49832222  1
  O  O21  1  0.28512906  0.50163765  0.85310082  1
  O  O22  1  0.77398021  0.12980646  0.58977731  1
  O  O23  1  0.77392344  0.41023860  0.53999974  1
  O  O24  1  0.77398773  0.46002259  0.87028871  1
  O  O25  1  0.22601979  0.87019354  0.41022269  1
  O  O26  1  0.22607656  0.58976140  0.46000026  1
  O  O27  1  0.22601227  0.53997741  0.12971129  1
  O  O28  1  0.90154329  0.04938267  0.31242025  1
  O  O29  1  0.90163247  0.68754119  0.73694804  1
  O  O30  1  0.90157887  0.26303910  0.95060650  1
  O  O31  1  0.09845671  0.95061733  0.68757975  1
  O  O32  1  0.09836753  0.31245881  0.26305196  1
  O  O33  1  0.09842113  0.73696090  0.04939350  1
  O  O34  1  0.56175790  0.10716066  0.38208643  1
  O  O35  1  0.56181741  0.61795761  0.72516542  1
  O  O36  1  0.56177643  0.27491485  0.89286820  1
  O  O37  1  0.43824210  0.89283934  0.61791357  1
  O  O38  1  0.43818259  0.38204239  0.27483458  1
  O  O39  1  0.43822357  0.72508515  0.10713180  1
  O  O40  1  0.31042310  0.00005310  0.00008079  1
  O  O41  1  0.68957690  0.99994690  0.99991921  1
