# generated using pymatgen
data_PuP2H4CO7
_symmetry_space_group_name_H-M   'P 1'
_cell_length_a   8.84722747
_cell_length_b   8.86947351
_cell_length_c   9.75309660
_cell_angle_alpha   71.10712623
_cell_angle_beta   71.73904825
_cell_angle_gamma   81.69824855
_symmetry_Int_Tables_number   1
_chemical_formula_structural   PuP2H4CO7
_chemical_formula_sum   'Pu4 P8 H16 C4 O28'
_cell_volume   686.84512693
_cell_formula_units_Z   4
loop_
 _symmetry_equiv_pos_site_id
 _symmetry_equiv_pos_as_xyz
  1  'x, y, z'
loop_
 _atom_site_type_symbol
 _atom_site_label
 _atom_site_symmetry_multiplicity
 _atom_site_fract_x
 _atom_site_fract_y
 _atom_site_fract_z
 _atom_site_occupancy
  Pu  Pu0  1  0.68704948  0.94717332  0.21998516  1
  Pu  Pu1  1  0.31295052  0.05282668  0.78001484  1
  Pu  Pu2  1  0.17279143  0.42426079  0.22184407  1
  Pu  Pu3  1  0.82720857  0.57573921  0.77815593  1
  P  P4  1  0.51954227  0.27091496  0.38395258  1
  P  P5  1  0.48045773  0.72908504  0.61604742  1
  P  P6  1  0.27510817  0.02229808  0.18465744  1
  P  P7  1  0.72489183  0.97770192  0.81534256  1
  P  P8  1  0.98096769  0.23044496  0.62938963  1
  P  P9  1  0.01903231  0.76955504  0.37061037  1
  P  P10  1  0.22870670  0.46191015  0.82989882  1
  P  P11  1  0.77129330  0.53808985  0.17010118  1
  H  H12  1  0.71817320  0.21934665  0.62129285  1
  H  H13  1  0.28182680  0.78065335  0.37870715  1
  H  H14  1  0.84552667  0.07277697  0.54885735  1
  H  H15  1  0.15447333  0.92722303  0.45114265  1
  H  H16  1  0.69689957  0.41512873  0.43266229  1
  H  H17  1  0.30310043  0.58487127  0.56733771  1
  H  H18  1  0.54033383  0.53846960  0.37248127  1
  H  H19  1  0.45966617  0.46153040  0.62751873  1
  H  H20  1  0.93114668  0.19232204  0.95617763  1
  H  H21  1  0.06885332  0.80767796  0.04382237  1
  H  H22  1  0.36854802  0.74509610  0.08111030  1
  H  H23  1  0.63145198  0.25490390  0.91888970  1
  H  H24  1  0.50193544  0.60292780  0.08140796  1
  H  H25  1  0.49806456  0.39707220  0.91859204  1
  H  H26  1  0.96264794  0.18769073  0.10926838  1
  H  H27  1  0.03735206  0.81230927  0.89073162  1
  C  C28  1  0.81336498  0.12796845  0.64072743  1
  C  C29  1  0.18663502  0.87203155  0.35927257  1
  C  C30  1  0.62981257  0.44380874  0.34903867  1
  C  C31  1  0.37018743  0.55619126  0.65096133  1
  O  O32  1  0.07810476  0.66370479  0.26476526  1
  O  O33  1  0.92189524  0.33629521  0.73523474  1
  O  O34  1  0.38654482  0.32481958  0.30586275  1
  O  O35  1  0.61345518  0.67518042  0.69413725  1
  O  O36  1  0.44826959  0.02888843  0.18654849  1
  O  O37  1  0.55173041  0.97111157  0.81345151  1
  O  O38  1  0.93639121  0.45366595  0.17109640  1
  O  O39  1  0.06360879  0.54633405  0.82890360  1
  O  O40  1  0.73007211  0.02691558  0.95005544  1
  O  O41  1  0.26992789  0.97308442  0.04994456  1
  O  O42  1  0.03901766  0.32920467  0.46150260  1
  O  O43  1  0.96098234  0.67079533  0.53849740  1
  O  O44  1  0.89089281  0.89413363  0.32268203  1
  O  O45  1  0.10910719  0.10586637  0.67731797  1
  O  O46  1  0.17917285  0.18120394  0.19417381  1
  O  O47  1  0.82082715  0.81879606  0.80582619  1
  O  O48  1  0.76753280  0.71402656  0.16725230  1
  O  O49  1  0.23246720  0.28597344  0.83274770  1
  O  O50  1  0.89380763  0.15116535  0.06632022  1
  O  O51  1  0.10619237  0.84883465  0.93367978  1
  O  O52  1  0.28320378  0.47524795  0.96143755  1
  O  O53  1  0.71679622  0.52475205  0.03856245  1
  O  O54  1  0.54921138  0.78700862  0.44158766  1
  O  O55  1  0.45078862  0.21299138  0.55841234  1
  O  O56  1  0.39110868  0.63214622  0.13066482  1
  O  O57  1  0.60889132  0.36785378  0.86933518  1
  O  O58  1  0.63607284  0.14387728  0.32666306  1
  O  O59  1  0.36392716  0.85612272  0.67333694  1
