# generated using pymatgen
data_AlCu6H18SClO19
_symmetry_space_group_name_H-M   'P 1'
_cell_length_a   8.37324487
_cell_length_b   8.37259452
_cell_length_c   14.46318533
_cell_angle_alpha   90.02620452
_cell_angle_beta   89.94759506
_cell_angle_gamma   120.00256789
_symmetry_Int_Tables_number   1
_chemical_formula_structural   AlCu6H18SClO19
_chemical_formula_sum   'Al2 Cu12 H36 S2 Cl2 O38'
_cell_volume   878.08592179
_cell_formula_units_Z   2
loop_
 _symmetry_equiv_pos_site_id
 _symmetry_equiv_pos_as_xyz
  1  'x, y, z'
loop_
 _atom_site_type_symbol
 _atom_site_label
 _atom_site_symmetry_multiplicity
 _atom_site_fract_x
 _atom_site_fract_y
 _atom_site_fract_z
 _atom_site_occupancy
  Al  Al0  1  0.33334634  0.66668130  0.50141699  1
  Al  Al1  1  0.66666505  0.33331870  0.00141699  1
  Cu  Cu2  1  0.75958312  0.96048281  0.49944047  1
  Cu  Cu3  1  0.20086104  0.24038433  0.49934068  1
  Cu  Cu4  1  0.03949548  0.79914743  0.49937306  1
  Cu  Cu5  1  0.79910031  0.03951719  0.99944047  1
  Cu  Cu6  1  0.96047671  0.75961567  0.99934068  1
  Cu  Cu7  1  0.24034805  0.20085257  0.99937306  1
  Cu  Cu8  1  0.46692619  0.09654700  0.48101712  1
  Cu  Cu9  1  0.62964955  0.53305674  0.48097128  1
  Cu  Cu10  1  0.90368399  0.37042087  0.48111266  1
  Cu  Cu11  1  0.37037919  0.90345300  0.98101712  1
  Cu  Cu12  1  0.09659281  0.46694326  0.98097128  1
  Cu  Cu13  1  0.53326312  0.62957913  0.98111266  1
  H  H14  1  0.20602739  0.77310140  0.24352405  1
  H  H15  1  0.56714033  0.79406144  0.24354691  1
  H  H16  1  0.22699270  0.43325987  0.24364067  1
  H  H17  1  0.43292599  0.22689860  0.74352405  1
  H  H18  1  0.77307889  0.20593856  0.74354691  1
  H  H19  1  0.79373283  0.56674013  0.74364067  1
  H  H20  1  0.99621063  0.63266598  0.24353864  1
  H  H21  1  0.63659548  0.00388973  0.24350794  1
  H  H22  1  0.36690383  0.36327582  0.24332733  1
  H  H23  1  0.36354466  0.36733402  0.74353864  1
  H  H24  1  0.63270575  0.99611027  0.74350794  1
  H  H25  1  0.00362801  0.63672418  0.74332733  1
  H  H26  1  0.20405981  0.03767735  0.36805382  1
  H  H27  1  0.83388845  0.79611624  0.36811305  1
  H  H28  1  0.96239722  0.16624256  0.36813205  1
  H  H29  1  0.16638246  0.96232265  0.86805382  1
  H  H30  1  0.03777222  0.20388376  0.86811305  1
  H  H31  1  0.79615467  0.83375744  0.86813205  1
  H  H32  1  0.46060141  0.87961496  0.35850357  1
  H  H33  1  0.41940015  0.53952678  0.35845585  1
  H  H34  1  0.12049043  0.58077367  0.35844175  1
  H  H35  1  0.58098645  0.12038504  0.85850357  1
  H  H36  1  0.87987338  0.46047322  0.85845585  1
  H  H37  1  0.53971676  0.41922633  0.85844175  1
  H  H38  1  0.85065086  0.53071849  0.61217122  1
  H  H39  1  0.67968556  0.14905641  0.61221703  1
  H  H40  1  0.46911775  0.32013236  0.61212171  1
  H  H41  1  0.31993237  0.46928151  0.11217122  1
  H  H42  1  0.53062915  0.85094359  0.11221703  1
  H  H43  1  0.14898539  0.67986764  0.11212171  1
  H  H44  1  0.57608164  0.75217491  0.63562604  1
  H  H45  1  0.17572955  0.42348510  0.63559268  1
  H  H46  1  0.24745675  0.82438809  0.63555108  1
  H  H47  1  0.82390674  0.24782509  0.13562604  1
  H  H48  1  0.75224446  0.57651490  0.13559268  1
  H  H49  1  0.42306866  0.17561191  0.13555108  1
  S  S50  1  0.99998313  0.99993172  0.71812671  1
  S  S51  1  0.00005141  0.00006828  0.21812671  1
  Cl  Cl52  1  0.66704156  0.33338309  0.33656171  1
  Cl  Cl53  1  0.33365847  0.66661691  0.83656171  1
  O  O54  1  0.11666722  0.64281257  0.23253752  1
  O  O55  1  0.52626238  0.88342485  0.23259821  1
  O  O56  1  0.35714943  0.47386238  0.23254903  1
  O  O57  1  0.47385465  0.35718743  0.73253752  1
  O  O58  1  0.64283753  0.11657515  0.73259821  1
  O  O59  1  0.88328706  0.52613762  0.73254903  1
  O  O60  1  0.21595798  0.03612644  0.43721838  1
  O  O61  1  0.82033845  0.78414443  0.43728977  1
  O  O62  1  0.96395121  0.17971423  0.43731134  1
  O  O63  1  0.17983155  0.96387356  0.93721838  1
  O  O64  1  0.03619402  0.21585557  0.93728977  1
  O  O65  1  0.78423698  0.82028577  0.93731134  1
  O  O66  1  0.46826311  0.88342422  0.42625627  1
  O  O67  1  0.41539588  0.53187586  0.42620687  1
  O  O68  1  0.11678114  0.58475438  0.42624514  1
  O  O69  1  0.58483889  0.11657577  0.92625627  1
  O  O70  1  0.88352002  0.46812414  0.92620687  1
  O  O71  1  0.53202676  0.41524562  0.92624514  1
  O  O72  1  0.84806808  0.54816702  0.54444163  1
  O  O73  1  0.69995801  0.15188759  0.54447915  1
  O  O74  1  0.45170826  0.29997635  0.54443238  1
  O  O75  1  0.29990106  0.45183298  0.04444163  1
  O  O76  1  0.54807041  0.84811241  0.04447915  1
  O  O77  1  0.15173190  0.70002365  0.04443238  1
  O  O78  1  0.05122091  0.18880381  0.75271804  1
  O  O79  1  0.13769009  0.94873599  0.75255001  1
  O  O80  1  0.81117640  0.86225707  0.75276484  1
  O  O81  1  0.86241709  0.81119619  0.25271804  1
  O  O82  1  0.18895409  0.05126401  0.25255001  1
  O  O83  1  0.94891933  0.13774293  0.25276484  1
  O  O84  1  0.55805620  0.75320716  0.56898914  1
  O  O85  1  0.19489596  0.44175834  0.56896864  1
  O  O86  1  0.24655869  0.80493451  0.56895880  1
  O  O87  1  0.80484904  0.24679284  0.06898914  1
  O  O88  1  0.75313762  0.55824166  0.06896864  1
  O  O89  1  0.44162418  0.19506549  0.06895880  1
  O  O90  1  0.99991454  0.99996496  0.61515874  1
  O  O91  1  0.99994959  0.00003504  0.11515874  1
