# generated using pymatgen
data_NaGa2P2O9
_symmetry_space_group_name_H-M   'P 1'
_cell_length_a   9.06720001
_cell_length_b   9.12281059
_cell_length_c   9.40089958
_cell_angle_alpha   90.00000000
_cell_angle_beta   114.95378931
_cell_angle_gamma   90.00000000
_symmetry_Int_Tables_number   1
_chemical_formula_structural   NaGa2P2O9
_chemical_formula_sum   'Na4 Ga8 P8 O36'
_cell_volume   705.03412896
_cell_formula_units_Z   4
loop_
 _symmetry_equiv_pos_site_id
 _symmetry_equiv_pos_as_xyz
  1  'x, y, z'
loop_
 _atom_site_type_symbol
 _atom_site_label
 _atom_site_symmetry_multiplicity
 _atom_site_fract_x
 _atom_site_fract_y
 _atom_site_fract_z
 _atom_site_occupancy
  Na  Na0  1  0.27162741  0.62054592  0.97894146  1
  Na  Na1  1  0.77162741  0.87945408  0.47894146  1
  Na  Na2  1  0.72837259  0.37945408  0.02105854  1
  Na  Na3  1  0.22837259  0.12054592  0.52105854  1
  Ga  Ga4  1  0.14809599  0.91330698  0.12068244  1
  Ga  Ga5  1  0.64809599  0.58669302  0.62068244  1
  Ga  Ga6  1  0.85190401  0.08669302  0.87931756  1
  Ga  Ga7  1  0.35190401  0.41330698  0.37931756  1
  Ga  Ga8  1  0.23212988  0.73286196  0.56986336  1
  Ga  Ga9  1  0.73212988  0.76713804  0.06986336  1
  Ga  Ga10  1  0.76787012  0.26713804  0.43013664  1
  Ga  Ga11  1  0.26787012  0.23286196  0.93013664  1
  P  P12  1  0.56182983  0.88745565  0.73073930  1
  P  P13  1  0.06182983  0.61254435  0.23073930  1
  P  P14  1  0.43817017  0.11254435  0.26926070  1
  P  P15  1  0.93817017  0.38745565  0.76926070  1
  P  P16  1  0.39607655  0.45267885  0.73328006  1
  P  P17  1  0.89607655  0.04732115  0.23328006  1
  P  P18  1  0.60392345  0.54732115  0.26671994  1
  P  P19  1  0.10392345  0.95267885  0.76671994  1
  O  O20  1  0.10247516  0.11007015  0.01064661  1
  O  O21  1  0.60247516  0.38992985  0.51064661  1
  O  O22  1  0.89752484  0.88992985  0.98935339  1
  O  O23  1  0.39752484  0.61007015  0.48935339  1
  O  O24  1  0.17471247  0.86412878  0.92240691  1
  O  O25  1  0.67471247  0.63587122  0.42240691  1
  O  O26  1  0.82528753  0.13587122  0.07759309  1
  O  O27  1  0.32528753  0.36412878  0.57759309  1
  O  O28  1  0.07052330  0.99073836  0.27386237  1
  O  O29  1  0.57052330  0.50926164  0.77386237  1
  O  O30  1  0.92947670  0.00926164  0.72613763  1
  O  O31  1  0.42947670  0.49073836  0.22613763  1
  O  O32  1  0.16598205  0.70884220  0.17186928  1
  O  O33  1  0.66598205  0.79115780  0.67186928  1
  O  O34  1  0.83401795  0.29115780  0.82813072  1
  O  O35  1  0.33401795  0.20884220  0.32813072  1
  O  O36  1  0.37470135  0.95457137  0.24839042  1
  O  O37  1  0.87470135  0.54542863  0.74839042  1
  O  O38  1  0.62529865  0.04542863  0.75160958  1
  O  O39  1  0.12529865  0.45457137  0.25160958  1
  O  O40  1  0.38021769  0.89027470  0.60723940  1
  O  O41  1  0.88021769  0.60972530  0.10723940  1
  O  O42  1  0.61978231  0.10972530  0.39276060  1
  O  O43  1  0.11978231  0.39027470  0.89276060  1
  O  O44  1  0.08864295  0.85375017  0.62753077  1
  O  O45  1  0.58864295  0.64624983  0.12753077  1
  O  O46  1  0.91135705  0.14624983  0.37246923  1
  O  O47  1  0.41135705  0.35375017  0.87246923  1
  O  O48  1  0.06139619  0.67796999  0.38353394  1
  O  O49  1  0.56139619  0.82203001  0.88353394  1
  O  O50  1  0.93860381  0.32203001  0.61646606  1
  O  O51  1  0.43860381  0.17796999  0.11646606  1
  O  O52  1  0.28211597  0.58554877  0.72378721  1
  O  O53  1  0.78211597  0.91445123  0.22378721  1
  O  O54  1  0.71788403  0.41445123  0.27621279  1
  O  O55  1  0.21788403  0.08554877  0.77621279  1
