# generated using pymatgen
data_SnH8C2I3N
_symmetry_space_group_name_H-M   'P 1'
_cell_length_a   8.56171363
_cell_length_b   9.16512929
_cell_length_c   15.03145643
_cell_angle_alpha   90.00000000
_cell_angle_beta   90.00000000
_cell_angle_gamma   90.00000000
_symmetry_Int_Tables_number   1
_chemical_formula_structural   SnH8C2I3N
_chemical_formula_sum   'Sn4 H32 C8 I12 N4'
_cell_volume   1179.50654673
_cell_formula_units_Z   4
loop_
 _symmetry_equiv_pos_site_id
 _symmetry_equiv_pos_as_xyz
  1  'x, y, z'
loop_
 _atom_site_type_symbol
 _atom_site_label
 _atom_site_symmetry_multiplicity
 _atom_site_fract_x
 _atom_site_fract_y
 _atom_site_fract_z
 _atom_site_occupancy
  Sn  Sn0  1  0.00368793  0.50431705  0.99937561  1
  Sn  Sn1  1  0.50368793  0.49568295  0.00062439  1
  Sn  Sn2  1  0.50368793  0.00431705  0.50062439  1
  Sn  Sn3  1  0.00368793  0.99568295  0.49937561  1
  H  H4  1  0.58444811  0.89876462  0.89670524  1
  H  H5  1  0.08444811  0.10123538  0.10329476  1
  H  H6  1  0.08444811  0.39876462  0.60329476  1
  H  H7  1  0.58444811  0.60123538  0.39670524  1
  H  H8  1  0.61187405  0.08139203  0.85676519  1
  H  H9  1  0.11187405  0.91860797  0.14323481  1
  H  H10  1  0.11187405  0.58139203  0.64323481  1
  H  H11  1  0.61187405  0.41860797  0.35676519  1
  H  H12  1  0.56304176  0.93858269  0.78091649  1
  H  H13  1  0.06304176  0.06141731  0.21908351  1
  H  H14  1  0.06304176  0.43858269  0.71908351  1
  H  H15  1  0.56304176  0.56141731  0.28091649  1
  H  H16  1  0.52244664  0.96902762  0.16102603  1
  H  H17  1  0.02244664  0.03097238  0.83897397  1
  H  H18  1  0.02244664  0.46902762  0.33897397  1
  H  H19  1  0.52244664  0.53097238  0.66102603  1
  H  H20  1  0.37315739  0.85561488  0.21050553  1
  H  H21  1  0.87315739  0.14438512  0.78949447  1
  H  H22  1  0.87315739  0.35561488  0.28949447  1
  H  H23  1  0.37315739  0.64438512  0.71050553  1
  H  H24  1  0.37077267  0.88812395  0.09339635  1
  H  H25  1  0.87077267  0.11187605  0.90660365  1
  H  H26  1  0.87077267  0.38812395  0.40660365  1
  H  H27  1  0.37077267  0.61187605  0.59339635  1
  H  H28  1  0.31504788  0.10575159  0.23645286  1
  H  H29  1  0.81504788  0.89424841  0.76354714  1
  H  H30  1  0.81504788  0.60575159  0.26354714  1
  H  H31  1  0.31504788  0.39424841  0.73645286  1
  H  H32  1  0.33416058  0.14880128  0.13068999  1
  H  H33  1  0.83416058  0.85119872  0.86931001  1
  H  H34  1  0.83416058  0.64880128  0.36931001  1
  H  H35  1  0.33416058  0.35119872  0.63068999  1
  C  C36  1  0.62732424  0.96542197  0.84148622  1
  C  C37  1  0.12732424  0.03457803  0.15851378  1
  C  C38  1  0.12732424  0.46542197  0.65851378  1
  C  C39  1  0.62732424  0.53457803  0.34148622  1
  C  C40  1  0.39976394  0.93502041  0.15824037  1
  C  C41  1  0.89976394  0.06497959  0.84175963  1
  C  C42  1  0.89976394  0.43502041  0.34175963  1
  C  C43  1  0.39976394  0.56497959  0.65824037  1
  I  I44  1  0.19355530  0.73596231  0.91258577  1
  I  I45  1  0.69355530  0.26403769  0.08741423  1
  I  I46  1  0.69355530  0.23596231  0.58741423  1
  I  I47  1  0.19355530  0.76403769  0.41258577  1
  I  I48  1  0.24383795  0.48693931  0.15945016  1
  I  I49  1  0.74383795  0.51306069  0.84054984  1
  I  I50  1  0.74383795  0.98693931  0.34054984  1
  I  I51  1  0.24383795  0.01306069  0.65945016  1
  I  I52  1  0.79665778  0.72549533  0.09430542  1
  I  I53  1  0.29665778  0.27450467  0.90569458  1
  I  I54  1  0.29665778  0.22549533  0.40569458  1
  I  I55  1  0.79665778  0.77450467  0.59430542  1
  N  N56  1  0.29842378  0.06559676  0.17230526  1
  N  N57  1  0.79842378  0.93440324  0.82769474  1
  N  N58  1  0.79842378  0.56559676  0.32769474  1
  N  N59  1  0.29842378  0.43440324  0.67230526  1
