# generated using pymatgen
data_PuP2H4CO7
_symmetry_space_group_name_H-M   'P 1'
_cell_length_a   8.79602196
_cell_length_b   11.41846229
_cell_length_c   13.86369482
_cell_angle_alpha   90.00000000
_cell_angle_beta   90.00000000
_cell_angle_gamma   90.00000000
_symmetry_Int_Tables_number   1
_chemical_formula_structural   PuP2H4CO7
_chemical_formula_sum   'Pu8 P16 H32 C8 O56'
_cell_volume   1392.42854123
_cell_formula_units_Z   8
loop_
 _symmetry_equiv_pos_site_id
 _symmetry_equiv_pos_as_xyz
  1  'x, y, z'
loop_
 _atom_site_type_symbol
 _atom_site_label
 _atom_site_symmetry_multiplicity
 _atom_site_fract_x
 _atom_site_fract_y
 _atom_site_fract_z
 _atom_site_occupancy
  Pu  Pu0  1  0.33823305  0.27482746  0.64696322  1
  Pu  Pu1  1  0.83823305  0.22517254  0.35303678  1
  Pu  Pu2  1  0.66176695  0.77482746  0.85303678  1
  Pu  Pu3  1  0.16176695  0.72517254  0.14696322  1
  Pu  Pu4  1  0.66176695  0.72517254  0.35303678  1
  Pu  Pu5  1  0.16176695  0.77482746  0.64696322  1
  Pu  Pu6  1  0.33823305  0.22517254  0.14696322  1
  Pu  Pu7  1  0.83823305  0.27482746  0.85303678  1
  P  P8  1  0.00037844  0.47436491  0.67458198  1
  P  P9  1  0.50037844  0.02563509  0.32541802  1
  P  P10  1  0.99962156  0.97436491  0.82541802  1
  P  P11  1  0.49962156  0.52563509  0.17458198  1
  P  P12  1  0.99962156  0.52563509  0.32541802  1
  P  P13  1  0.49962156  0.97436491  0.67458198  1
  P  P14  1  0.00037844  0.02563509  0.17458198  1
  P  P15  1  0.50037844  0.47436491  0.82541802  1
  P  P16  1  0.75268885  0.30600733  0.59750806  1
  P  P17  1  0.25268885  0.19399267  0.40249194  1
  P  P18  1  0.24731115  0.80600733  0.90249194  1
  P  P19  1  0.74731115  0.69399267  0.09750806  1
  P  P20  1  0.24731115  0.69399267  0.40249194  1
  P  P21  1  0.74731115  0.80600733  0.59750806  1
  P  P22  1  0.75268885  0.19399267  0.09750806  1
  P  P23  1  0.25268885  0.30600733  0.90249194  1
  H  H24  1  0.75141735  0.51297474  0.62230996  1
  H  H25  1  0.25141735  0.98702526  0.37769004  1
  H  H26  1  0.24858265  0.01297474  0.87769004  1
  H  H27  1  0.74858265  0.48702526  0.12230996  1
  H  H28  1  0.24858265  0.48702526  0.37769004  1
  H  H29  1  0.74858265  0.01297474  0.62230996  1
  H  H30  1  0.75141735  0.98702526  0.12230996  1
  H  H31  1  0.25141735  0.51297474  0.87769004  1
  H  H32  1  0.86485186  0.47569746  0.52204542  1
  H  H33  1  0.36485186  0.02430254  0.47795458  1
  H  H34  1  0.13514814  0.97569746  0.97795458  1
  H  H35  1  0.63514814  0.52430254  0.02204542  1
  H  H36  1  0.13514814  0.52430254  0.47795458  1
  H  H37  1  0.63514814  0.97569746  0.52204542  1
  H  H38  1  0.86485186  0.02430254  0.02204542  1
  H  H39  1  0.36485186  0.47569746  0.97795458  1
  H  H40  1  0.10088581  0.07225159  0.64627287  1
  H  H41  1  0.60088581  0.42774841  0.35372713  1
  H  H42  1  0.89911419  0.57225159  0.85372713  1
  H  H43  1  0.39911419  0.92774841  0.14627287  1
  H  H44  1  0.89911419  0.92774841  0.35372713  1
  H  H45  1  0.39911419  0.57225159  0.64627287  1
  H  H46  1  0.10088581  0.42774841  0.14627287  1
  H  H47  1  0.60088581  0.07225159  0.85372713  1
  H  H48  1  0.07922995  0.15367283  0.54915257  1
  H  H49  1  0.57922995  0.34632717  0.45084743  1
  H  H50  1  0.92077005  0.65367283  0.95084743  1
  H  H51  1  0.42077005  0.84632717  0.04915257  1
  H  H52  1  0.92077005  0.84632717  0.45084743  1
  H  H53  1  0.42077005  0.65367283  0.54915257  1
  H  H54  1  0.07922995  0.34632717  0.04915257  1
  H  H55  1  0.57922995  0.15367283  0.95084743  1
  C  C56  1  0.83806587  0.45088511  0.59663498  1
  C  C57  1  0.33806587  0.04911489  0.40336502  1
  C  C58  1  0.16193413  0.95088511  0.90336502  1
  C  C59  1  0.66193413  0.54911489  0.09663498  1
  C  C60  1  0.16193413  0.54911489  0.40336502  1
  C  C61  1  0.66193413  0.95088511  0.59663498  1
  C  C62  1  0.83806587  0.04911489  0.09663498  1
  C  C63  1  0.33806587  0.45088511  0.90336502  1
  O  O64  1  0.94742687  0.44732179  0.77840421  1
  O  O65  1  0.44742687  0.05267821  0.22159579  1
  O  O66  1  0.05257313  0.94732179  0.72159579  1
  O  O67  1  0.55257313  0.55267821  0.27840421  1
  O  O68  1  0.05257313  0.55267821  0.22159579  1
  O  O69  1  0.55257313  0.94732179  0.77840421  1
  O  O70  1  0.94742687  0.05267821  0.27840421  1
  O  O71  1  0.44742687  0.44732179  0.72159579  1
  O  O72  1  0.04381837  0.60546551  0.66525753  1
  O  O73  1  0.54381837  0.89453449  0.33474247  1
  O  O74  1  0.95618163  0.10546551  0.83474247  1
  O  O75  1  0.45618163  0.39453449  0.16525753  1
  O  O76  1  0.95618163  0.39453449  0.33474247  1
  O  O77  1  0.45618163  0.10546551  0.66525753  1
  O  O78  1  0.04381837  0.89453449  0.16525753  1
  O  O79  1  0.54381837  0.60546551  0.83474247  1
  O  O80  1  0.13501197  0.39788153  0.64054925  1
  O  O81  1  0.63501197  0.10211847  0.35945075  1
  O  O82  1  0.86498803  0.89788153  0.85945075  1
  O  O83  1  0.36498803  0.60211847  0.14054925  1
  O  O84  1  0.86498803  0.60211847  0.35945075  1
  O  O85  1  0.36498803  0.89788153  0.64054925  1
  O  O86  1  0.13501197  0.10211847  0.14054925  1
  O  O87  1  0.63501197  0.39788153  0.85945075  1
  O  O88  1  0.78266551  0.25075296  0.69825794  1
  O  O89  1  0.28266551  0.24924704  0.30174206  1
  O  O90  1  0.21733449  0.75075296  0.80174206  1
  O  O91  1  0.71733449  0.74924704  0.19825794  1
  O  O92  1  0.21733449  0.74924704  0.30174206  1
  O  O93  1  0.71733449  0.75075296  0.69825794  1
  O  O94  1  0.78266551  0.24924704  0.19825794  1
  O  O95  1  0.28266551  0.25075296  0.80174206  1
  O  O96  1  0.82639670  0.23039391  0.51749801  1
  O  O97  1  0.32639670  0.26960609  0.48250199  1
  O  O98  1  0.17360330  0.73039391  0.98250199  1
  O  O99  1  0.67360330  0.76960609  0.01749801  1
  O  O100  1  0.17360330  0.76960609  0.48250199  1
  O  O101  1  0.67360330  0.73039391  0.51749801  1
  O  O102  1  0.82639670  0.26960609  0.01749801  1
  O  O103  1  0.32639670  0.23039391  0.98250199  1
  O  O104  1  0.58178826  0.32016746  0.57810349  1
  O  O105  1  0.08178826  0.17983254  0.42189651  1
  O  O106  1  0.41821174  0.82016746  0.92189651  1
  O  O107  1  0.91821174  0.67983254  0.07810349  1
  O  O108  1  0.41821174  0.67983254  0.42189651  1
  O  O109  1  0.91821174  0.82016746  0.57810349  1
  O  O110  1  0.58178826  0.17983254  0.07810349  1
  O  O111  1  0.08178826  0.32016746  0.92189651  1
  O  O112  1  0.13449868  0.14387198  0.61155001  1
  O  O113  1  0.63449868  0.35612802  0.38844999  1
  O  O114  1  0.86550132  0.64387198  0.88844999  1
  O  O115  1  0.36550132  0.85612802  0.11155001  1
  O  O116  1  0.86550132  0.85612802  0.38844999  1
  O  O117  1  0.36550132  0.64387198  0.61155001  1
  O  O118  1  0.13449868  0.35612802  0.11155001  1
  O  O119  1  0.63449868  0.14387198  0.88844999  1
