# generated using pymatgen
data_Cd2H6S2O9
_symmetry_space_group_name_H-M   'P 1'
_cell_length_a   10.73272404
_cell_length_b   12.42552166
_cell_length_c   14.22966019
_cell_angle_alpha   103.33550469
_cell_angle_beta   90.00000000
_cell_angle_gamma   90.00000000
_symmetry_Int_Tables_number   1
_chemical_formula_structural   Cd2H6S2O9
_chemical_formula_sum   'Cd16 H48 S16 O72'
_cell_volume   1846.49480122
_cell_formula_units_Z   8
loop_
 _symmetry_equiv_pos_site_id
 _symmetry_equiv_pos_as_xyz
  1  'x, y, z'
loop_
 _atom_site_type_symbol
 _atom_site_label
 _atom_site_symmetry_multiplicity
 _atom_site_fract_x
 _atom_site_fract_y
 _atom_site_fract_z
 _atom_site_occupancy
  Cd  Cd0  1  0.62514330  0.62560198  0.98641474  1
  Cd  Cd1  1  0.12514330  0.37439802  0.51358526  1
  Cd  Cd2  1  0.37485670  0.37439802  0.01358526  1
  Cd  Cd3  1  0.87485670  0.62560198  0.48641474  1
  Cd  Cd4  1  0.89268376  0.87450268  0.01358503  1
  Cd  Cd5  1  0.39268376  0.12549732  0.48641497  1
  Cd  Cd6  1  0.10731624  0.12549732  0.98641497  1
  Cd  Cd7  1  0.60731624  0.87450268  0.51358503  1
  Cd  Cd8  1  0.80505346  0.35208744  0.96487369  1
  Cd  Cd9  1  0.30505346  0.64791256  0.53512631  1
  Cd  Cd10  1  0.19494654  0.64791256  0.03512631  1
  Cd  Cd11  1  0.69494654  0.35208744  0.46487369  1
  Cd  Cd12  1  0.78637007  0.74888874  0.75170110  1
  Cd  Cd13  1  0.28637007  0.25111126  0.74829890  1
  Cd  Cd14  1  0.21362993  0.25111126  0.24829890  1
  Cd  Cd15  1  0.71362993  0.74888874  0.25170110  1
  H  H16  1  0.61975601  0.18592465  0.95726437  1
  H  H17  1  0.11975601  0.81407535  0.54273563  1
  H  H18  1  0.38024399  0.81407535  0.04273563  1
  H  H19  1  0.88024399  0.18592465  0.45726437  1
  H  H20  1  0.75849307  0.12750015  0.94180682  1
  H  H21  1  0.25849307  0.87249985  0.55819318  1
  H  H22  1  0.24150693  0.87249985  0.05819318  1
  H  H23  1  0.74150693  0.12750015  0.44180682  1
  H  H24  1  0.96663399  0.30784943  0.80200590  1
  H  H25  1  0.46663399  0.69215057  0.69799410  1
  H  H26  1  0.03336601  0.69215057  0.19799410  1
  H  H27  1  0.53336601  0.30784943  0.30200590  1
  H  H28  1  0.83863263  0.24054197  0.76481541  1
  H  H29  1  0.33863263  0.75945803  0.73518459  1
  H  H30  1  0.16136737  0.75945803  0.23518459  1
  H  H31  1  0.66136737  0.24054197  0.26481541  1
  H  H32  1  0.74984773  0.31161488  0.14430662  1
  H  H33  1  0.24984773  0.68838512  0.35569338  1
  H  H34  1  0.25015227  0.68838512  0.85569338  1
  H  H35  1  0.75015227  0.31161488  0.64430662  1
  H  H36  1  0.66568820  0.41543433  0.14035313  1
  H  H37  1  0.16568820  0.58456567  0.35964687  1
  H  H38  1  0.33431180  0.58456567  0.85964687  1
  H  H39  1  0.83431180  0.41543433  0.64035313  1
  H  H40  1  0.59590920  0.58408627  0.73835918  1
  H  H41  1  0.09590920  0.41591373  0.76164082  1
  H  H42  1  0.40409080  0.41591373  0.26164082  1
  H  H43  1  0.90409080  0.58408627  0.23835918  1
  H  H44  1  0.63248273  0.59038636  0.62834370  1
  H  H45  1  0.13248273  0.40961364  0.87165630  1
  H  H46  1  0.36751727  0.40961364  0.37165630  1
  H  H47  1  0.86751727  0.59038636  0.12834370  1
  H  H48  1  0.63571718  0.90544507  0.88142415  1
  H  H49  1  0.13571718  0.09455493  0.61857585  1
  H  H50  1  0.36428282  0.09455493  0.11857585  1
  H  H51  1  0.86428282  0.90544507  0.38142415  1
  H  H52  1  0.60915465  0.92329297  0.77357247  1
  H  H53  1  0.10915465  0.07670703  0.72642753  1
  H  H54  1  0.39084535  0.07670703  0.22642753  1
  H  H55  1  0.89084535  0.92329297  0.27357247  1
  H  H56  1  0.67266757  0.13287067  0.67965047  1
  H  H57  1  0.17266757  0.86712933  0.82034953  1
  H  H58  1  0.32733243  0.86712933  0.32034953  1
  H  H59  1  0.82733243  0.13287067  0.17965047  1
  H  H60  1  0.78984232  0.11016811  0.61548701  1
  H  H61  1  0.28984232  0.88983189  0.88451299  1
  H  H62  1  0.21015768  0.88983189  0.38451299  1
  H  H63  1  0.71015768  0.11016811  0.11548701  1
  S  S64  1  0.90925524  0.60400947  0.92477501  1
  S  S65  1  0.40925524  0.39599053  0.57522499  1
  S  S66  1  0.09074476  0.39599053  0.07522499  1
  S  S67  1  0.59074476  0.60400947  0.42477501  1
  S  S68  1  0.54166589  0.41821617  0.83541123  1
  S  S69  1  0.04166589  0.58178383  0.66458877  1
  S  S70  1  0.45833411  0.58178383  0.16458877  1
  S  S71  1  0.95833411  0.41821617  0.33541123  1
  S  S72  1  0.61570008  0.88303574  0.07746901  1
  S  S73  1  0.11570008  0.11696426  0.42253099  1
  S  S74  1  0.38429992  0.11696426  0.92253099  1
  S  S75  1  0.88429992  0.88303574  0.57746901  1
  S  S76  1  0.93291898  0.98851872  0.83449274  1
  S  S77  1  0.43291898  0.01148128  0.66550726  1
  S  S78  1  0.06708102  0.01148128  0.16550726  1
  S  S79  1  0.56708102  0.98851872  0.33449274  1
  O  O80  1  0.98890027  0.69666094  0.98911428  1
  O  O81  1  0.48890027  0.30333906  0.51088572  1
  O  O82  1  0.01109973  0.30333906  0.01088572  1
  O  O83  1  0.51109973  0.69666094  0.48911428  1
  O  O84  1  0.80042643  0.66760086  0.88965076  1
  O  O85  1  0.30042643  0.33239914  0.61034924  1
  O  O86  1  0.19957357  0.33239914  0.11034924  1
  O  O87  1  0.69957357  0.66760086  0.38965076  1
  O  O88  1  0.83857828  0.54689078  0.99721824  1
  O  O89  1  0.33857828  0.45310922  0.50278176  1
  O  O90  1  0.16142172  0.45310922  0.00278176  1
  O  O91  1  0.66142172  0.54689078  0.49721824  1
  O  O92  1  0.60443925  0.42154746  0.93469813  1
  O  O93  1  0.10443925  0.57845254  0.56530187  1
  O  O94  1  0.39556075  0.57845254  0.06530187  1
  O  O95  1  0.89556075  0.42154746  0.43469813  1
  O  O96  1  0.53366117  0.54310562  0.83592696  1
  O  O97  1  0.03366117  0.45689438  0.66407304  1
  O  O98  1  0.46633883  0.45689438  0.16407304  1
  O  O99  1  0.96633883  0.54310562  0.33592696  1
  O  O100  1  0.40460938  0.38494191  0.85331124  1
  O  O101  1  0.90460938  0.61505809  0.64668876  1
  O  O102  1  0.59539062  0.61505809  0.14668876  1
  O  O103  1  0.09539062  0.38494191  0.35331124  1
  O  O104  1  0.53483608  0.79596510  0.00826603  1
  O  O105  1  0.03483608  0.20403490  0.49173397  1
  O  O106  1  0.46516392  0.20403490  0.99173397  1
  O  O107  1  0.96516392  0.79596510  0.50826603  1
  O  O108  1  0.72344507  0.81132679  0.10724283  1
  O  O109  1  0.22344507  0.18867321  0.39275717  1
  O  O110  1  0.27655493  0.18867321  0.89275717  1
  O  O111  1  0.77655493  0.81132679  0.60724283  1
  O  O112  1  0.68751976  0.94738989  0.01362321  1
  O  O113  1  0.18751976  0.05261011  0.48637679  1
  O  O114  1  0.31248024  0.05261011  0.98637679  1
  O  O115  1  0.81248024  0.94738989  0.51362321  1
  O  O116  1  0.90459022  0.05640830  0.93869977  1
  O  O117  1  0.40459022  0.94359170  0.56130023  1
  O  O118  1  0.09540978  0.94359170  0.06130023  1
  O  O119  1  0.59540978  0.05640830  0.43869977  1
  O  O120  1  0.07307927  0.01005017  0.82349697  1
  O  O121  1  0.57307927  0.98994983  0.67650303  1
  O  O122  1  0.92692073  0.98994983  0.17650303  1
  O  O123  1  0.42692073  0.01005017  0.32349697  1
  O  O124  1  0.92542005  0.86595488  0.84753266  1
  O  O125  1  0.42542005  0.13404512  0.65246734  1
  O  O126  1  0.07457995  0.13404512  0.15246734  1
  O  O127  1  0.57457995  0.86595488  0.34753266  1
  O  O128  1  0.70429071  0.18650468  0.92830032  1
  O  O129  1  0.20429071  0.81349532  0.57169968  1
  O  O130  1  0.29570929  0.81349532  0.07169968  1
  O  O131  1  0.79570929  0.18650468  0.42830032  1
  O  O132  1  0.87510579  0.30456140  0.81129274  1
  O  O133  1  0.37510579  0.69543860  0.68870726  1
  O  O134  1  0.12489421  0.69543860  0.18870726  1
  O  O135  1  0.62489421  0.30456140  0.31129274  1
  O  O136  1  0.74936877  0.38387348  0.12588203  1
  O  O137  1  0.24936877  0.61612652  0.37411797  1
  O  O138  1  0.25063123  0.61612652  0.87411797  1
  O  O139  1  0.75063123  0.38387348  0.62588203  1
  O  O140  1  0.61799963  0.63419125  0.69497277  1
  O  O141  1  0.11799963  0.36580875  0.80502723  1
  O  O142  1  0.38200037  0.36580875  0.30502723  1
  O  O143  1  0.88200037  0.63419125  0.19497277  1
  O  O144  1  0.62499233  0.86804012  0.81275830  1
  O  O145  1  0.12499233  0.13195988  0.68724170  1
  O  O146  1  0.37500767  0.13195988  0.18724170  1
  O  O147  1  0.87500767  0.86804012  0.31275830  1
  O  O148  1  0.74929518  0.16879021  0.66402595  1
  O  O149  1  0.24929518  0.83120979  0.83597405  1
  O  O150  1  0.25070482  0.83120979  0.33597405  1
  O  O151  1  0.75070482  0.16879021  0.16402595  1
