# generated using pymatgen
data_RbV(PO4)2
_symmetry_space_group_name_H-M   'P 1'
_cell_length_a   5.11759802
_cell_length_b   8.74679703
_cell_length_c   14.70589381
_cell_angle_alpha   90.00000000
_cell_angle_beta   93.02822602
_cell_angle_gamma   90.00000000
_symmetry_Int_Tables_number   1
_chemical_formula_structural   RbV(PO4)2
_chemical_formula_sum   'Rb4 V4 P8 O32'
_cell_volume   657.35471944
_cell_formula_units_Z   4
loop_
 _symmetry_equiv_pos_site_id
 _symmetry_equiv_pos_as_xyz
  1  'x, y, z'
loop_
 _atom_site_type_symbol
 _atom_site_label
 _atom_site_symmetry_multiplicity
 _atom_site_fract_x
 _atom_site_fract_y
 _atom_site_fract_z
 _atom_site_occupancy
  Rb  Rb0  1  0.26215107  0.47842594  0.59766762  1
  Rb  Rb1  1  0.73784893  0.97842594  0.90233238  1
  Rb  Rb2  1  0.73784893  0.52157406  0.40233238  1
  Rb  Rb3  1  0.26215107  0.02157406  0.09766762  1
  V  V4  1  0.74451643  0.46638390  0.84950058  1
  V  V5  1  0.25548357  0.96638390  0.65049942  1
  V  V6  1  0.25548357  0.53361610  0.15049942  1
  V  V7  1  0.74451643  0.03361610  0.34950058  1
  P  P8  1  0.73428448  0.16805942  0.56010636  1
  P  P9  1  0.26571552  0.66805942  0.93989364  1
  P  P10  1  0.26571552  0.83194058  0.43989364  1
  P  P11  1  0.73428448  0.33194058  0.06010636  1
  P  P12  1  0.23043683  0.23768267  0.82117134  1
  P  P13  1  0.76956317  0.73768267  0.67882866  1
  P  P14  1  0.76956317  0.76231733  0.17882866  1
  P  P15  1  0.23043683  0.26231733  0.32117134  1
  O  O16  1  0.74025093  0.60316753  0.74868397  1
  O  O17  1  0.25974907  0.10316753  0.75131603  1
  O  O18  1  0.25974907  0.39683247  0.25131603  1
  O  O19  1  0.74025093  0.89683247  0.24868397  1
  O  O20  1  0.05222869  0.55763802  0.89796122  1
  O  O21  1  0.94777131  0.05763802  0.60203878  1
  O  O22  1  0.94777131  0.44236198  0.10203878  1
  O  O23  1  0.05222869  0.94236198  0.39796122  1
  O  O24  1  0.74092782  0.34452711  0.95361496  1
  O  O25  1  0.25907218  0.84452711  0.54638504  1
  O  O26  1  0.25907218  0.65547289  0.04638504  1
  O  O27  1  0.74092782  0.15547289  0.45361496  1
  O  O28  1  0.53542322  0.60664233  0.91132600  1
  O  O29  1  0.46457678  0.10664233  0.58867400  1
  O  O30  1  0.46457678  0.39335767  0.08867400  1
  O  O31  1  0.53542322  0.89335767  0.41132600  1
  O  O32  1  0.44488825  0.36099275  0.79936041  1
  O  O33  1  0.55511175  0.86099275  0.70063959  1
  O  O34  1  0.55511175  0.63900725  0.20063959  1
  O  O35  1  0.44488825  0.13900725  0.29936041  1
  O  O36  1  0.95981012  0.31483612  0.79465882  1
  O  O37  1  0.04018988  0.81483612  0.70534118  1
  O  O38  1  0.04018988  0.68516388  0.20534118  1
  O  O39  1  0.95981012  0.18516388  0.29465882  1
  O  O40  1  0.77273409  0.33070847  0.58755803  1
  O  O41  1  0.22726591  0.83070847  0.91244197  1
  O  O42  1  0.22726591  0.66929153  0.41244197  1
  O  O43  1  0.77273409  0.16929153  0.08755803  1
  O  O44  1  0.25478068  0.17742230  0.91634976  1
  O  O45  1  0.74521932  0.67742230  0.58365024  1
  O  O46  1  0.74521932  0.82257770  0.08365024  1
  O  O47  1  0.25478068  0.32257770  0.41634976  1
