# generated using pymatgen
data_Ca2Zn4As4O17
_symmetry_space_group_name_H-M   'P 1'
_cell_length_a   7.80877301
_cell_length_b   9.95962932
_cell_length_c   10.65119996
_cell_angle_alpha   101.49733898
_cell_angle_beta   111.50409722
_cell_angle_gamma   90.00000000
_symmetry_Int_Tables_number   1
_chemical_formula_structural   Ca2Zn4As4O17
_chemical_formula_sum   'Ca4 Zn8 As8 O34'
_cell_volume   752.81435102
_cell_formula_units_Z   2
loop_
 _symmetry_equiv_pos_site_id
 _symmetry_equiv_pos_as_xyz
  1  'x, y, z'
loop_
 _atom_site_type_symbol
 _atom_site_label
 _atom_site_symmetry_multiplicity
 _atom_site_fract_x
 _atom_site_fract_y
 _atom_site_fract_z
 _atom_site_occupancy
  Ca  Ca0  1  0.84126630  0.90600790  0.20347868  1
  Ca  Ca1  1  0.63778762  0.59399210  0.79652132  1
  Ca  Ca2  1  0.15873370  0.09399210  0.79652132  1
  Ca  Ca3  1  0.36221238  0.40600790  0.20347868  1
  Zn  Zn4  1  0.00167013  0.79754196  0.81234906  1
  Zn  Zn5  1  0.18932107  0.70245804  0.18765094  1
  Zn  Zn6  1  0.99832987  0.20245804  0.18765094  1
  Zn  Zn7  1  0.81067893  0.29754196  0.81234906  1
  Zn  Zn8  1  0.21349965  0.51188076  0.57429578  1
  Zn  Zn9  1  0.63920387  0.98811924  0.42570422  1
  Zn  Zn10  1  0.78650035  0.48811924  0.42570422  1
  Zn  Zn11  1  0.36079613  0.01188076  0.57429578  1
  As  As12  1  0.99841323  0.79590082  0.49458704  1
  As  As13  1  0.50382619  0.70409918  0.50541296  1
  As  As14  1  0.00158677  0.20409918  0.50541296  1
  As  As15  1  0.49617381  0.29590082  0.49458704  1
  As  As16  1  0.16677066  0.51654195  0.87874964  1
  As  As17  1  0.28802102  0.98345805  0.12125036  1
  As  As18  1  0.83322934  0.48345805  0.12125036  1
  As  As19  1  0.71197898  0.01654195  0.87874964  1
  O  O20  1  0.78873395  0.83109294  0.38181418  1
  O  O21  1  0.40691976  0.66890706  0.61818582  1
  O  O22  1  0.21126605  0.16890706  0.61818582  1
  O  O23  1  0.59308024  0.33109294  0.38181418  1
  O  O24  1  0.97323736  0.60840067  0.83079463  1
  O  O25  1  0.14244274  0.89159933  0.16920537  1
  O  O26  1  0.02676264  0.39159933  0.16920537  1
  O  O27  1  0.85755726  0.10840067  0.83079463  1
  O  O28  1  0.01025120  0.62029935  0.46527185  1
  O  O29  1  0.54497935  0.87970065  0.53472815  1
  O  O30  1  0.98974880  0.37970065  0.53472815  1
  O  O31  1  0.45502065  0.12029935  0.46527185  1
  O  O32  1  0.30466693  0.53755389  0.79018571  1
  O  O33  1  0.51448122  0.96244611  0.20981429  1
  O  O34  1  0.69533307  0.46244611  0.20981429  1
  O  O35  1  0.48551878  0.03755389  0.79018571  1
  O  O36  1  0.15438592  0.86986285  0.44517892  1
  O  O37  1  0.70920700  0.63013715  0.55482108  1
  O  O38  1  0.84561408  0.13013715  0.55482108  1
  O  O39  1  0.29079300  0.36986285  0.44517892  1
  O  O40  1  0.91835159  0.65521480  0.15151526  1
  O  O41  1  0.76683633  0.84478520  0.84848474  1
  O  O42  1  0.08164841  0.34478520  0.84848474  1
  O  O43  1  0.23316367  0.15521480  0.15151526  1
  O  O44  1  0.04187146  0.86821378  0.66590987  1
  O  O45  1  0.37596159  0.63178622  0.33409013  1
  O  O46  1  0.95812854  0.13178622  0.33409013  1
  O  O47  1  0.62403841  0.36821378  0.66590987  1
  O  O48  1  0.22196304  0.93000962  0.94491147  1
  O  O49  1  0.27705157  0.56999038  0.05508853  1
  O  O50  1  0.77803696  0.06999038  0.05508853  1
  O  O51  1  0.72294843  0.43000962  0.94491147  1
  O  O52  1  0.66555247  0.75000000  0.00000000  1
  O  O53  1  0.33444753  0.25000000  0.00000000  1
