# generated using pymatgen
data_CeBiW2O9
_symmetry_space_group_name_H-M   'P 1'
_cell_length_a   7.22542107
_cell_length_b   7.22542107
_cell_length_c   13.89623896
_cell_angle_alpha   80.79120962
_cell_angle_beta   80.79120962
_cell_angle_gamma   87.87497271
_symmetry_Int_Tables_number   1
_chemical_formula_structural   CeBiW2O9
_chemical_formula_sum   'Ce4 Bi4 W8 O36'
_cell_volume   706.84814967
_cell_formula_units_Z   4
loop_
 _symmetry_equiv_pos_site_id
 _symmetry_equiv_pos_as_xyz
  1  'x, y, z'
loop_
 _atom_site_type_symbol
 _atom_site_label
 _atom_site_symmetry_multiplicity
 _atom_site_fract_x
 _atom_site_fract_y
 _atom_site_fract_z
 _atom_site_occupancy
  Ce  Ce0  1  0.12511797  0.17192962  0.88343642  1
  Ce  Ce1  1  0.82807038  0.87488203  0.61656358  1
  Ce  Ce2  1  0.87488203  0.82807038  0.11656358  1
  Ce  Ce3  1  0.17192962  0.12511797  0.38343642  1
  Bi  Bi4  1  0.65479112  0.47416672  0.86196261  1
  Bi  Bi5  1  0.52583328  0.34520888  0.63803739  1
  Bi  Bi6  1  0.34520888  0.52583328  0.13803739  1
  Bi  Bi7  1  0.47416672  0.65479112  0.36196261  1
  W  W8  1  0.58709660  0.00380192  0.88190327  1
  W  W9  1  0.99619808  0.41290340  0.61809673  1
  W  W10  1  0.41290340  0.99619808  0.11809673  1
  W  W11  1  0.00380192  0.58709660  0.38190327  1
  W  W12  1  0.16559604  0.69242942  0.86505814  1
  W  W13  1  0.30757058  0.83440396  0.63494186  1
  W  W14  1  0.83440396  0.30757058  0.13494186  1
  W  W15  1  0.69242942  0.16559604  0.36505814  1
  O  O16  1  0.34967070  0.91321002  0.87019496  1
  O  O17  1  0.08678998  0.65032930  0.62980504  1
  O  O18  1  0.65032930  0.08678998  0.12980504  1
  O  O19  1  0.91321002  0.34967070  0.37019496  1
  O  O20  1  0.36154671  0.63845329  0.75000000  1
  O  O21  1  0.63845329  0.36154671  0.25000000  1
  O  O22  1  0.99529943  0.50772261  0.85874712  1
  O  O23  1  0.49227739  0.00470057  0.64125288  1
  O  O24  1  0.00470057  0.49227739  0.14125288  1
  O  O25  1  0.50772261  0.99529943  0.35874712  1
  O  O26  1  0.48423310  0.24520756  0.80577038  1
  O  O27  1  0.75479244  0.51576690  0.69422962  1
  O  O28  1  0.51576690  0.75479244  0.19422962  1
  O  O29  1  0.24520756  0.48423310  0.30577038  1
  O  O30  1  0.71727469  0.86115998  0.79696148  1
  O  O31  1  0.13884002  0.28272531  0.70303852  1
  O  O32  1  0.28272531  0.13884002  0.20303852  1
  O  O33  1  0.86115998  0.71727469  0.29696148  1
  O  O34  1  0.11319794  0.88680206  0.75000000  1
  O  O35  1  0.88680206  0.11319794  0.25000000  1
  O  O36  1  0.78326006  0.18077971  0.88327384  1
  O  O37  1  0.81922029  0.21673994  0.61672616  1
  O  O38  1  0.21673994  0.81922029  0.11672616  1
  O  O39  1  0.18077971  0.78326006  0.38327384  1
  O  O40  1  0.60492343  0.85404209  0.00402243  1
  O  O41  1  0.14595791  0.39507657  0.49597757  1
  O  O42  1  0.39507657  0.14595791  0.99597757  1
  O  O43  1  0.85404209  0.60492343  0.50402243  1
  O  O44  1  0.00920729  0.83346201  0.94915451  1
  O  O45  1  0.16653799  0.99079271  0.55084549  1
  O  O46  1  0.99079271  0.16653799  0.05084549  1
  O  O47  1  0.83346201  0.00920729  0.44915451  1
  O  O48  1  0.30763480  0.54245200  0.94830175  1
  O  O49  1  0.45754800  0.69236520  0.55169825  1
  O  O50  1  0.69236520  0.45754800  0.05169825  1
  O  O51  1  0.54245200  0.30763480  0.44830175  1
