# generated using pymatgen
data_Si4SbH38C14Cl
_symmetry_space_group_name_H-M   'P 1'
_cell_length_a   12.45678409
_cell_length_b   13.22310323
_cell_length_c   18.19936369
_cell_angle_alpha   90.00000000
_cell_angle_beta   108.12375754
_cell_angle_gamma   90.00000000
_symmetry_Int_Tables_number   1
_chemical_formula_structural   Si4SbH38C14Cl
_chemical_formula_sum   'Si16 Sb4 H152 C56 Cl4'
_cell_volume   2849.02288685
_cell_formula_units_Z   4
loop_
 _symmetry_equiv_pos_site_id
 _symmetry_equiv_pos_as_xyz
  1  'x, y, z'
loop_
 _atom_site_type_symbol
 _atom_site_label
 _atom_site_symmetry_multiplicity
 _atom_site_fract_x
 _atom_site_fract_y
 _atom_site_fract_z
 _atom_site_occupancy
  Si  Si0  1  0.82765933  0.74856296  0.45431271  1
  Si  Si1  1  0.32765933  0.75143704  0.95431271  1
  Si  Si2  1  0.17234067  0.25143704  0.54568729  1
  Si  Si3  1  0.67234067  0.24856296  0.04568729  1
  Si  Si4  1  0.75430142  0.86095025  0.28812502  1
  Si  Si5  1  0.25430142  0.63904975  0.78812502  1
  Si  Si6  1  0.24569858  0.13904975  0.71187498  1
  Si  Si7  1  0.74569858  0.36095025  0.21187498  1
  Si  Si8  1  0.38581679  0.63781330  0.31738762  1
  Si  Si9  1  0.88581679  0.86218670  0.81738762  1
  Si  Si10  1  0.61418321  0.36218670  0.68261238  1
  Si  Si11  1  0.11418321  0.13781330  0.18261238  1
  Si  Si12  1  0.36968496  0.76556486  0.46579918  1
  Si  Si13  1  0.86968496  0.73443514  0.96579918  1
  Si  Si14  1  0.63031504  0.23443514  0.53420082  1
  Si  Si15  1  0.13031504  0.26556486  0.03420082  1
  Sb  Sb16  1  0.56856728  0.85104058  0.39588913  1
  Sb  Sb17  1  0.06856728  0.64895942  0.89588913  1
  Sb  Sb18  1  0.43143272  0.14895942  0.60411087  1
  Sb  Sb19  1  0.93143272  0.35104058  0.10411087  1
  H  H20  1  0.67881526  0.71026589  0.33320700  1
  H  H21  1  0.17881526  0.78973411  0.83320700  1
  H  H22  1  0.32118474  0.28973411  0.66679300  1
  H  H23  1  0.82118474  0.21026589  0.16679300  1
  H  H24  1  0.98714057  0.83558370  0.54951019  1
  H  H25  1  0.48714057  0.66441630  0.04951019  1
  H  H26  1  0.01285943  0.16441630  0.45048981  1
  H  H27  1  0.51285943  0.33558370  0.95048981  1
  H  H28  1  0.87501925  0.92175184  0.51024671  1
  H  H29  1  0.37501925  0.57824816  0.01024671  1
  H  H30  1  0.12498075  0.07824816  0.48975329  1
  H  H31  1  0.62498075  0.42175184  0.98975329  1
  H  H32  1  0.96679372  0.88834449  0.45635416  1
  H  H33  1  0.46679372  0.61165551  0.95635416  1
  H  H34  1  0.03320628  0.11165551  0.54364584  1
  H  H35  1  0.53320628  0.38834449  0.04364584  1
  H  H36  1  0.95213007  0.65423996  0.39078468  1
  H  H37  1  0.45213007  0.84576004  0.89078468  1
  H  H38  1  0.04786993  0.34576004  0.60921532  1
  H  H39  1  0.54786993  0.15423996  0.10921532  1
  H  H40  1  0.86031266  0.57123717  0.41978890  1
  H  H41  1  0.36031266  0.92876283  0.91978890  1
  H  H42  1  0.13968734  0.42876283  0.58021110  1
  H  H43  1  0.63968734  0.07123717  0.08021110  1
  H  H44  1  0.98072504  0.62179525  0.48994400  1
  H  H45  1  0.48072504  0.87820475  0.98994400  1
  H  H46  1  0.01927496  0.37820475  0.51005600  1
  H  H47  1  0.51927496  0.12179525  0.01005600  1
  H  H48  1  0.84195900  0.68877848  0.58527967  1
  H  H49  1  0.34195900  0.81122152  0.08527967  1
  H  H50  1  0.15804100  0.31122152  0.41472033  1
  H  H51  1  0.65804100  0.18877848  0.91472033  1
  H  H52  1  0.72193205  0.63361395  0.51734503  1
  H  H53  1  0.22193205  0.86638605  0.01734503  1
  H  H54  1  0.27806795  0.36638605  0.48265497  1
  H  H55  1  0.77806795  0.13361395  0.98265497  1
  H  H56  1  0.71676977  0.76047453  0.54960135  1
  H  H57  1  0.21676977  0.73952547  0.04960135  1
  H  H58  1  0.28323023  0.23952547  0.45039865  1
  H  H59  1  0.78323023  0.26047453  0.95039865  1
  H  H60  1  0.57230978  0.85915739  0.17870462  1
  H  H61  1  0.07230978  0.64084261  0.67870462  1
  H  H62  1  0.42769022  0.14084261  0.82129538  1
  H  H63  1  0.92769022  0.35915739  0.32129538  1
  H  H64  1  0.66090899  0.75586756  0.17152224  1
  H  H65  1  0.16090899  0.74413244  0.67152224  1
  H  H66  1  0.33909101  0.24413244  0.82847776  1
  H  H67  1  0.83909101  0.25586756  0.32847776  1
  H  H68  1  0.69173879  0.88001804  0.14648713  1
  H  H69  1  0.19173879  0.61998196  0.64648713  1
  H  H70  1  0.30826121  0.11998196  0.85351287  1
  H  H71  1  0.80826121  0.38001804  0.35351287  1
  H  H72  1  0.90552168  0.74483247  0.27324483  1
  H  H73  1  0.40552168  0.75516753  0.77324483  1
  H  H74  1  0.09447832  0.25516753  0.72675517  1
  H  H75  1  0.59447832  0.24483247  0.22675517  1
  H  H76  1  0.96742665  0.84245457  0.34043180  1
  H  H77  1  0.46742665  0.65754543  0.84043180  1
  H  H78  1  0.03257335  0.15754543  0.65956820  1
  H  H79  1  0.53257335  0.34245457  0.15956820  1
  H  H80  1  0.91849721  0.86864042  0.23991297  1
  H  H81  1  0.41849721  0.63135958  0.73991297  1
  H  H82  1  0.08150279  0.13135958  0.76008703  1
  H  H83  1  0.58150279  0.36864042  0.26008703  1
  H  H84  1  0.77786543  0.04324937  0.26364637  1
  H  H85  1  0.27786543  0.45675063  0.76364637  1
  H  H86  1  0.22213457  0.95675063  0.73635363  1
  H  H87  1  0.72213457  0.54324937  0.23635363  1
  H  H88  1  0.81473464  0.02069366  0.36457627  1
  H  H89  1  0.31473464  0.47930634  0.86457627  1
  H  H90  1  0.18526536  0.97930634  0.63542373  1
  H  H91  1  0.68526536  0.52069366  0.13542373  1
  H  H92  1  0.66968475  0.02684243  0.30688605  1
  H  H93  1  0.16968475  0.47315757  0.80688605  1
  H  H94  1  0.33031525  0.97315757  0.69311395  1
  H  H95  1  0.83031525  0.52684243  0.19311395  1
  H  H96  1  0.52257679  0.66953403  0.44332739  1
  H  H97  1  0.02257679  0.83046597  0.94332739  1
  H  H98  1  0.47742321  0.33046597  0.55667261  1
  H  H99  1  0.97742321  0.16953403  0.05667261  1
  H  H100  1  0.41274068  0.57781540  0.19709596  1
  H  H101  1  0.91274068  0.92218460  0.69709596  1
  H  H102  1  0.58725932  0.42218460  0.80290404  1
  H  H103  1  0.08725932  0.07781540  0.30290404  1
  H  H104  1  0.54627167  0.59095878  0.26874513  1
  H  H105  1  0.04627167  0.90904122  0.76874513  1
  H  H106  1  0.45372833  0.40904122  0.73125487  1
  H  H107  1  0.95372833  0.09095878  0.23125487  1
  H  H108  1  0.47437375  0.70024657  0.21936894  1
  H  H109  1  0.97437375  0.79975343  0.71936894  1
  H  H110  1  0.52562625  0.29975343  0.78063106  1
  H  H111  1  0.02562625  0.20024657  0.28063106  1
  H  H112  1  0.19877056  0.63041886  0.21647321  1
  H  H113  1  0.69877056  0.86958114  0.71647321  1
  H  H114  1  0.80122944  0.36958114  0.78352679  1
  H  H115  1  0.30122944  0.13041886  0.28352679  1
  H  H116  1  0.24210908  0.75805842  0.23927806  1
  H  H117  1  0.74210908  0.74194158  0.73927806  1
  H  H118  1  0.75789092  0.24194158  0.76072194  1
  H  H119  1  0.25789092  0.25805842  0.26072194  1
  H  H120  1  0.18444711  0.68659319  0.30118859  1
  H  H121  1  0.68444711  0.81340681  0.80118859  1
  H  H122  1  0.81555289  0.31340681  0.69881141  1
  H  H123  1  0.31555289  0.18659319  0.19881141  1
  H  H124  1  0.32064536  0.49469048  0.38636973  1
  H  H125  1  0.82064536  0.00530952  0.88636973  1
  H  H126  1  0.67935464  0.50530952  0.61363027  1
  H  H127  1  0.17935464  0.99469048  0.11363027  1
  H  H128  1  0.46373505  0.47913491  0.38924035  1
  H  H129  1  0.96373505  0.02086509  0.88924035  1
  H  H130  1  0.53626495  0.52086509  0.61075965  1
  H  H131  1  0.03626495  0.97913491  0.11075965  1
  H  H132  1  0.35260948  0.45253928  0.30313830  1
  H  H133  1  0.85260948  0.04746072  0.80313830  1
  H  H134  1  0.64739052  0.54746072  0.69686170  1
  H  H135  1  0.14739052  0.95253928  0.19686170  1
  H  H136  1  0.40837309  0.82491755  0.60020355  1
  H  H137  1  0.90837309  0.67508245  0.10020355  1
  H  H138  1  0.59162691  0.17508245  0.39979645  1
  H  H139  1  0.09162691  0.32491755  0.89979645  1
  H  H140  1  0.51540365  0.87003404  0.56340398  1
  H  H141  1  0.01540365  0.62996596  0.06340398  1
  H  H142  1  0.48459635  0.12996596  0.43659602  1
  H  H143  1  0.98459635  0.37003404  0.93659602  1
  H  H144  1  0.51782841  0.74216145  0.59466005  1
  H  H145  1  0.01782841  0.75783855  0.09466005  1
  H  H146  1  0.48217159  0.25783855  0.40533995  1
  H  H147  1  0.98217159  0.24216145  0.90533995  1
  H  H148  1  0.32590012  0.59723551  0.51267694  1
  H  H149  1  0.82590012  0.90276449  0.01267694  1
  H  H150  1  0.67409988  0.40276449  0.48732306  1
  H  H151  1  0.17409988  0.09723551  0.98732306  1
  H  H152  1  0.21678171  0.63219672  0.42726317  1
  H  H153  1  0.71678171  0.86780328  0.92726317  1
  H  H154  1  0.78321829  0.36780328  0.57273683  1
  H  H155  1  0.28321829  0.13219672  0.07273683  1
  H  H156  1  0.22563730  0.69074910  0.51681389  1
  H  H157  1  0.72563730  0.80925090  0.01681389  1
  H  H158  1  0.77436270  0.30925090  0.48318611  1
  H  H159  1  0.27436270  0.19074910  0.98318611  1
  H  H160  1  0.23045111  0.90139037  0.46075981  1
  H  H161  1  0.73045111  0.59860963  0.96075981  1
  H  H162  1  0.76954889  0.09860963  0.53924019  1
  H  H163  1  0.26954889  0.40139037  0.03924019  1
  H  H164  1  0.21765612  0.85942796  0.36534038  1
  H  H165  1  0.71765612  0.64057204  0.86534038  1
  H  H166  1  0.78234388  0.14057204  0.63465962  1
  H  H167  1  0.28234388  0.35942796  0.13465962  1
  H  H168  1  0.32904228  0.94228739  0.41460242  1
  H  H169  1  0.82904228  0.55771261  0.91460242  1
  H  H170  1  0.67095772  0.05771261  0.58539758  1
  H  H171  1  0.17095772  0.44228739  0.08539758  1
  C  C172  1  0.70917042  0.78290276  0.36198073  1
  C  C173  1  0.20917042  0.71709724  0.86198073  1
  C  C174  1  0.29082958  0.21709724  0.63801927  1
  C  C175  1  0.79082958  0.28290276  0.13801927  1
  C  C176  1  0.92284218  0.85916614  0.49564491  1
  C  C177  1  0.42284218  0.64083386  0.99564491  1
  C  C178  1  0.07715782  0.14083386  0.50435509  1
  C  C179  1  0.57715782  0.35916614  0.00435509  1
  C  C180  1  0.91309554  0.63926512  0.43605318  1
  C  C181  1  0.41309554  0.86073488  0.93605318  1
  C  C182  1  0.08690446  0.36073488  0.56394682  1
  C  C183  1  0.58690446  0.13926512  0.06394682  1
  C  C184  1  0.77024562  0.70421018  0.53321083  1
  C  C185  1  0.27024562  0.79578982  0.03321083  1
  C  C186  1  0.22975438  0.29578982  0.46678917  1
  C  C187  1  0.72975438  0.20421018  0.96678917  1
  C  C188  1  0.65975033  0.83615852  0.18672832  1
  C  C189  1  0.15975033  0.66384148  0.68672832  1
  C  C190  1  0.34024967  0.16384148  0.81327168  1
  C  C191  1  0.84024967  0.33615852  0.31327168  1
  C  C192  1  0.90044966  0.82533105  0.28643027  1
  C  C193  1  0.40044966  0.67466895  0.78643027  1
  C  C194  1  0.09955034  0.17466895  0.71356973  1
  C  C195  1  0.59955034  0.32533105  0.21356973  1
  C  C196  1  0.75407850  0.00088643  0.30824976  1
  C  C197  1  0.25407850  0.49911357  0.80824976  1
  C  C198  1  0.24592150  0.99911357  0.69175024  1
  C  C199  1  0.74592150  0.50088643  0.19175024  1
  C  C200  1  0.46016864  0.72095983  0.40429730  1
  C  C201  1  0.96016864  0.77904017  0.90429730  1
  C  C202  1  0.53983136  0.27904017  0.59570270  1
  C  C203  1  0.03983136  0.22095983  0.09570270  1
  C  C204  1  0.46340288  0.62686100  0.24419853  1
  C  C205  1  0.96340288  0.87313900  0.74419853  1
  C  C206  1  0.53659712  0.37313900  0.75580147  1
  C  C207  1  0.03659712  0.12686100  0.25580147  1
  C  C208  1  0.23899054  0.68277701  0.26411421  1
  C  C209  1  0.73899054  0.81722299  0.76411421  1
  C  C210  1  0.76100946  0.31722299  0.73588579  1
  C  C211  1  0.26100946  0.18277701  0.23588579  1
  C  C212  1  0.37974301  0.50410007  0.35302493  1
  C  C213  1  0.87974301  0.99589993  0.85302493  1
  C  C214  1  0.62025699  0.49589993  0.64697507  1
  C  C215  1  0.12025699  0.00410007  0.14697507  1
  C  C216  1  0.46240991  0.80409914  0.56492860  1
  C  C217  1  0.96240991  0.69590086  0.06492860  1
  C  C218  1  0.53759009  0.19590086  0.43507140  1
  C  C219  1  0.03759009  0.30409914  0.93507140  1
  C  C220  1  0.27573944  0.66104030  0.48131599  1
  C  C221  1  0.77573944  0.83895970  0.98131599  1
  C  C222  1  0.72426056  0.33895970  0.51868401  1
  C  C223  1  0.22426056  0.16104030  0.01868401  1
  C  C224  1  0.27815349  0.87743445  0.42200210  1
  C  C225  1  0.77815349  0.62256555  0.92200210  1
  C  C226  1  0.72184651  0.12256555  0.57799790  1
  C  C227  1  0.22184651  0.37743445  0.07799790  1
  Cl  Cl228  1  0.44719603  0.91224355  0.27194856  1
  Cl  Cl229  1  0.94719603  0.58775645  0.77194856  1
  Cl  Cl230  1  0.55280397  0.08775645  0.72805144  1
  Cl  Cl231  1  0.05280397  0.41224355  0.22805144  1
