# generated using pymatgen
data_CuSi2BiP3(H3C)15
_symmetry_space_group_name_H-M   'P 1'
_cell_length_a   10.64933782
_cell_length_b   12.48790764
_cell_length_c   29.38606201
_cell_angle_alpha   85.56891859
_cell_angle_beta   79.56050604
_cell_angle_gamma   64.76157792
_symmetry_Int_Tables_number   1
_chemical_formula_structural   CuSi2BiP3(H3C)15
_chemical_formula_sum   'Cu4 Si8 Bi4 P12 H180 C60'
_cell_volume   3476.42576114
_cell_formula_units_Z   4
loop_
 _symmetry_equiv_pos_site_id
 _symmetry_equiv_pos_as_xyz
  1  'x, y, z'
loop_
 _atom_site_type_symbol
 _atom_site_label
 _atom_site_symmetry_multiplicity
 _atom_site_fract_x
 _atom_site_fract_y
 _atom_site_fract_z
 _atom_site_occupancy
  Cu  Cu0  1  0.16671713  0.98939447  0.35112883  1
  Cu  Cu1  1  0.50724043  0.01060553  0.64887117  1
  Cu  Cu2  1  0.90611160  0.51060553  0.85112883  1
  Cu  Cu3  1  0.26784596  0.48939447  0.14887117  1
  Si  Si4  1  0.81250836  0.38483578  0.38486621  1
  Si  Si5  1  0.58221035  0.61516422  0.61513379  1
  Si  Si6  1  0.94734414  0.11516422  0.88486621  1
  Si  Si7  1  0.94737457  0.88483578  0.11513379  1
  Si  Si8  1  0.19965063  0.31184135  0.41094205  1
  Si  Si9  1  0.92243403  0.68815865  0.58905795  1
  Si  Si10  1  0.26149198  0.18815865  0.91094205  1
  Si  Si11  1  0.36059269  0.81184135  0.08905795  1
  Bi  Bi12  1  0.08488088  0.24809245  0.34877217  1
  Bi  Bi13  1  0.68174550  0.75190755  0.65122783  1
  Bi  Bi14  1  0.08297333  0.25190755  0.84877217  1
  Bi  Bi15  1  0.18365305  0.74809245  0.15122783  1
  P  P16  1  0.98061438  0.96550960  0.33010890  1
  P  P17  1  0.27623288  0.03449040  0.66989110  1
  P  P18  1  0.69612398  0.53449040  0.83010890  1
  P  P19  1  0.06072328  0.46550960  0.16989110  1
  P  P20  1  0.22269726  0.90335935  0.42161176  1
  P  P21  1  0.54766837  0.09664065  0.57838824  1
  P  P22  1  0.87605661  0.59664065  0.92161176  1
  P  P23  1  0.39430902  0.40335935  0.07838824  1
  P  P24  1  0.36564344  0.92226633  0.29298195  1
  P  P25  1  0.58089171  0.07773367  0.70701805  1
  P  P26  1  0.03790977  0.57773367  0.79298195  1
  P  P27  1  0.40862538  0.42226633  0.20701805  1
  H  H28  1  0.47798172  0.04966149  0.30456722  1
  H  H29  1  0.83221042  0.95033851  0.69543278  1
  H  H30  1  0.27764321  0.45033851  0.80456722  1
  H  H31  1  0.53254893  0.54966149  0.19543278  1
  H  H32  1  0.55937713  0.90738197  0.32996031  1
  H  H33  1  0.79671941  0.09261803  0.67003969  1
  H  H34  1  0.21675910  0.59261803  0.82996031  1
  H  H35  1  0.63933744  0.40738197  0.17003969  1
  H  H36  1  0.59755288  0.92556186  0.26880473  1
  H  H37  1  0.79191946  0.07443814  0.73119527  1
  H  H38  1  0.27311473  0.57443814  0.76880473  1
  H  H39  1  0.61635760  0.42556186  0.23119527  1
  H  H40  1  0.27980194  0.94016418  0.22003879  1
  H  H41  1  0.44000491  0.05983582  0.77996121  1
  H  H42  1  0.96996612  0.55983582  0.72003879  1
  H  H43  1  0.24984073  0.44016418  0.27996121  1
  H  H44  1  0.29040530  0.07278385  0.23368073  1
  H  H45  1  0.59686987  0.92721615  0.76631927  1
  H  H46  1  0.11318914  0.42721615  0.73368073  1
  H  H47  1  0.27408603  0.57278385  0.26631927  1
  H  H48  1  0.44634108  0.94741384  0.21065403  1
  H  H49  1  0.60440895  0.05258616  0.78934597  1
  H  H50  1  0.14375492  0.55258616  0.71065403  1
  H  H51  1  0.40699511  0.44741384  0.28934597  1
  H  H52  1  0.81697434  0.02937444  0.27412981  1
  H  H53  1  0.12047859  0.97062556  0.72587019  1
  H  H54  1  0.59634878  0.47062556  0.77412981  1
  H  H55  1  0.84110415  0.52937444  0.22587019  1
  H  H56  1  0.86674876  0.14380650  0.28524292  1
  H  H57  1  0.29579818  0.85619350  0.71475708  1
  H  H58  1  0.76055526  0.35619350  0.78524292  1
  H  H59  1  0.90199168  0.64380650  0.21475708  1
  H  H60  1  0.98592043  0.02146368  0.24887232  1
  H  H61  1  0.25625642  0.97853632  0.75112768  1
  H  H62  1  0.75738410  0.47853632  0.74887232  1
  H  H63  1  0.98479274  0.52146368  0.25112768  1
  H  H64  1  0.62968846  0.38890285  0.45317171  1
  H  H65  1  0.47176301  0.61109715  0.54682829  1
  H  H66  1  0.76859130  0.11109715  0.95317171  1
  H  H67  1  0.83286016  0.88890285  0.04682829  1
  H  H68  1  0.76031964  0.24168543  0.44021030  1
  H  H69  1  0.44221538  0.75831457  0.55978970  1
  H  H70  1  0.75200508  0.25831457  0.94021030  1
  H  H71  1  0.95052994  0.74168543  0.05978970  1
  H  H72  1  0.79889691  0.34039419  0.46945735  1
  H  H73  1  0.60874845  0.65960581  0.53054265  1
  H  H74  1  0.88929111  0.15960581  0.96945735  1
  H  H75  1  0.01835426  0.84039419  0.03054265  1
  H  H76  1  0.09800141  0.78018788  0.28683134  1
  H  H77  1  0.16502063  0.21981212  0.71316866  1
  H  H78  1  0.62818928  0.71981212  0.78683134  1
  H  H79  1  0.13483275  0.28018788  0.21316866  1
  H  H80  1  0.02331073  0.75780100  0.34430568  1
  H  H81  1  0.12541741  0.24219900  0.65569432  1
  H  H82  1  0.53111173  0.74219900  0.84430568  1
  H  H83  1  0.11761641  0.25780100  0.15569432  1
  H  H84  1  0.91414946  0.81985169  0.30096583  1
  H  H85  1  0.03496698  0.18014831  0.69903417  1
  H  H86  1  0.48400115  0.68014831  0.80096583  1
  H  H87  1  0.96511529  0.31985169  0.19903417  1
  H  H88  1  0.71704606  0.43039381  0.31016204  1
  H  H89  1  0.45760191  0.56960619  0.68983796  1
  H  H90  1  0.89743987  0.06960619  0.81016204  1
  H  H91  1  0.77720810  0.93039381  0.18983796  1
  H  H92  1  0.70006655  0.30266231  0.33659658  1
  H  H93  1  0.33932545  0.69733769  0.66340342  1
  H  H94  1  0.75272887  0.19733769  0.83659658  1
  H  H95  1  0.78666314  0.80266231  0.16340342  1
  H  H96  1  0.58224494  0.44598802  0.35833434  1
  H  H97  1  0.38656730  0.55401198  0.64166566  1
  H  H98  1  0.77823296  0.05401198  0.85833434  1
  H  H99  1  0.69057928  0.94598802  0.14166566  1
  H  H100  1  0.47192035  0.85452234  0.41455395  1
  H  H101  1  0.74099665  0.14547766  0.58544605  1
  H  H102  1  0.07644269  0.64547766  0.91455395  1
  H  H103  1  0.63647431  0.35452234  0.08544605  1
  H  H104  1  0.36728126  0.99274251  0.44341419  1
  H  H105  1  0.80343797  0.00725749  0.55658581  1
  H  H106  1  0.11002377  0.50725749  0.94341419  1
  H  H107  1  0.56069545  0.49274251  0.05658581  1
  H  H108  1  0.39518583  0.85658934  0.47381878  1
  H  H109  1  0.72559395  0.14341066  0.52618122  1
  H  H110  1  0.00177517  0.64341066  0.97381878  1
  H  H111  1  0.61900461  0.35658934  0.02618122  1
  H  H112  1  0.13256486  0.91750607  0.50545062  1
  H  H113  1  0.55552154  0.08249393  0.49454938  1
  H  H114  1  0.80007092  0.58249393  0.00545062  1
  H  H115  1  0.38801548  0.41750607  0.99454938  1
  H  H116  1  0.06021228  0.05740331  0.47666243  1
  H  H117  1  0.59427802  0.94259669  0.52333757  1
  H  H118  1  0.86761559  0.44259669  0.97666243  1
  H  H119  1  0.28687471  0.55740331  0.02333757  1
  H  H120  1  0.99869206  0.94764810  0.47132949  1
  H  H121  1  0.41766965  0.05235190  0.52867051  1
  H  H122  1  0.69634017  0.55235190  0.97132949  1
  H  H123  1  0.22002155  0.44764810  0.02867051  1
  H  H124  1  0.84463403  0.94301181  0.40308708  1
  H  H125  1  0.19073292  0.05698819  0.59691292  1
  H  H126  1  0.53764584  0.55698819  0.90308708  1
  H  H127  1  0.99772111  0.44301181  0.09691292  1
  H  H128  1  0.78876297  0.09484187  0.38687943  1
  H  H129  1  0.27048427  0.90515813  0.61312057  1
  H  H130  1  0.63360484  0.40515813  0.88687943  1
  H  H131  1  0.92564240  0.59484187  0.11312057  1
  H  H132  1  0.73375436  0.00196108  0.36011586  1
  H  H133  1  0.09583130  0.99803892  0.63988414  1
  H  H134  1  0.48571544  0.49803892  0.86011586  1
  H  H135  1  0.84387022  0.50196108  0.13988414  1
  H  H136  1  0.66416839  0.59777010  0.40721606  1
  H  H137  1  0.66915455  0.40222990  0.59278394  1
  H  H138  1  0.01193849  0.90222990  0.90721606  1
  H  H139  1  0.82138445  0.09777010  0.09278394  1
  H  H140  1  0.84007138  0.55438541  0.41591063  1
  H  H141  1  0.81036742  0.44561459  0.58408937  1
  H  H142  1  0.14445679  0.94561459  0.91591063  1
  H  H143  1  0.00598200  0.05438541  0.08408937  1
  H  H144  1  0.79862619  0.58483958  0.35902406  1
  H  H145  1  0.74248983  0.41516042  0.64097594  1
  H  H146  1  0.13346577  0.91516042  0.85902406  1
  H  H147  1  0.90765025  0.08483958  0.14097594  1
  H  H148  1  0.30330772  0.70891821  0.46113983  1
  H  H149  1  0.47336576  0.29108179  0.53886017  1
  H  H150  1  0.76222594  0.79108179  0.96113983  1
  H  H151  1  0.51444755  0.20891821  0.03886017  1
  H  H152  1  0.16792368  0.73146585  0.42846521  1
  H  H153  1  0.32785474  0.26853415  0.57153479  1
  H  H154  1  0.64938952  0.76853415  0.92846521  1
  H  H155  1  0.34638889  0.23146585  0.07153479  1
  H  H156  1  0.34250265  0.69522690  0.39952809  1
  H  H157  1  0.43725764  0.30477310  0.60047191  1
  H  H158  1  0.78772955  0.80477310  0.89952809  1
  H  H159  1  0.49203074  0.19522690  0.10047191  1
  H  H160  1  0.54188829  0.74195688  0.25064990  1
  H  H161  1  0.53449506  0.25804312  0.74935010  1
  H  H162  1  0.03384517  0.75804312  0.75064990  1
  H  H163  1  0.54253819  0.24195688  0.24935010  1
  H  H164  1  0.51075561  0.71618661  0.31132917  1
  H  H165  1  0.53827140  0.28381339  0.68867083  1
  H  H166  1  0.97694223  0.78381339  0.81132917  1
  H  H167  1  0.57208479  0.21618661  0.18867083  1
  H  H168  1  0.38539799  0.72656343  0.27648279  1
  H  H169  1  0.38844421  0.27343657  0.72351721  1
  H  H170  1  0.86196142  0.77343657  0.77648279  1
  H  H171  1  0.41188078  0.22656343  0.22351721  1
  H  H172  1  0.43445392  0.13383170  0.40192937  1
  H  H173  1  0.97021499  0.86616830  0.59807063  1
  H  H174  1  0.31828562  0.36616830  0.90192937  1
  H  H175  1  0.58638329  0.63383170  0.09807063  1
  H  H176  1  0.43756956  0.24699718  0.36161339  1
  H  H177  1  0.04618013  0.75300282  0.63838661  1
  H  H178  1  0.43456674  0.25300282  0.86161339  1
  H  H179  1  0.54918296  0.74699718  0.13838661  1
  H  H180  1  0.44659841  0.26106165  0.42047443  1
  H  H181  1  0.12813449  0.73893835  0.57952557  1
  H  H182  1  0.45766006  0.23893835  0.92047443  1
  H  H183  1  0.61707284  0.76106165  0.07952557  1
  H  H184  1  0.03078383  0.32604804  0.48338699  1
  H  H185  1  0.84021886  0.67395196  0.51661301  1
  H  H186  1  0.10683187  0.17395196  0.98338699  1
  H  H187  1  0.26417082  0.82604804  0.01661301  1
  H  H188  1  0.17822589  0.18617608  0.47967708  1
  H  H189  1  0.84407905  0.81382392  0.52032292  1
  H  H190  1  0.11440197  0.31382392  0.97967708  1
  H  H191  1  0.40790297  0.68617608  0.02032292  1
  H  H192  1  0.19270530  0.31391817  0.49694631  1
  H  H193  1  0.00356978  0.68608183  0.50305369  1
  H  H194  1  0.25662347  0.18608183  0.99694631  1
  H  H195  1  0.43965162  0.81391817  0.00305369  1
  H  H196  1  0.21161322  0.49477335  0.43463996  1
  H  H197  1  0.14102653  0.50522665  0.56536004  1
  H  H198  1  0.45638657  0.00522665  0.93463996  1
  H  H199  1  0.39625319  0.99477335  0.06536004  1
  H  H200  1  0.20972971  0.49670082  0.37408640  1
  H  H201  1  0.08051692  0.50329918  0.62591360  1
  H  H202  1  0.45643052  0.00329918  0.87408640  1
  H  H203  1  0.33381611  0.99670082  0.12591360  1
  H  H204  1  0.05095153  0.53234177  0.41404372  1
  H  H205  1  0.99733702  0.46765823  0.58595628  1
  H  H206  1  0.33329330  0.96765823  0.91404372  1
  H  H207  1  0.21499525  0.03234177  0.08595628  1
  C  C208  1  0.51499873  0.95412428  0.29949470  1
  C  C209  1  0.76861771  0.04587572  0.70050530  1
  C  C210  1  0.21912301  0.54587572  0.79949470  1
  C  C211  1  0.56449343  0.45412428  0.20050530  1
  C  C212  1  0.34387451  0.97577446  0.23361036  1
  C  C213  1  0.55325933  0.02422554  0.76638964  1
  C  C214  1  0.06964897  0.52422554  0.73361036  1
  C  C215  1  0.32748487  0.47577446  0.26638964  1
  C  C216  1  0.90486859  0.04828965  0.27984720  1
  C  C217  1  0.23300544  0.95171035  0.72015280  1
  C  C218  1  0.70315824  0.45171035  0.77984720  1
  C  C219  1  0.93471579  0.54828965  0.22015280  1
  C  C220  1  0.74310608  0.33447431  0.44247660  1
  C  C221  1  0.52005699  0.66552569  0.55752340  1
  C  C222  1  0.82758039  0.16552569  0.94247660  1
  C  C223  1  0.93558268  0.83447431  0.05752340  1
  C  C224  1  0.00611028  0.81668552  0.31421761  1
  C  C225  1  0.13701341  0.18331448  0.68578239  1
  C  C226  1  0.57279581  0.68331448  0.81421761  1
  C  C227  1  0.07032789  0.31668552  0.18578239  1
  C  C228  1  0.69228744  0.39085922  0.34331685  1
  C  C229  1  0.42646351  0.60914078  0.65668315  1
  C  C230  1  0.83314666  0.10914078  0.84331685  1
  C  C231  1  0.78560429  0.89085922  0.15668315  1
  C  C232  1  0.37903540  0.90169360  0.44034787  1
  C  C233  1  0.72107686  0.09830640  0.55965213  1
  C  C234  1  0.03072900  0.59830640  0.94034787  1
  C  C235  1  0.56938326  0.40169360  0.05965213  1
  C  C236  1  0.09171729  0.96185844  0.47400223  1
  C  C237  1  0.52757796  0.03814156  0.52599777  1
  C  C238  1  0.80357573  0.53814156  0.97400223  1
  C  C239  1  0.31571952  0.46185844  0.02599777  1
  C  C240  1  0.82122130  0.00519421  0.37404700  1
  C  C241  1  0.20046251  0.99480579  0.62595300  1
  C  C242  1  0.57641551  0.49480579  0.87404700  1
  C  C243  1  0.94526830  0.50519421  0.12595300  1
  C  C244  1  0.77549834  0.54575538  0.39245560  1
  C  C245  1  0.71370932  0.45424462  0.60754440  1
  C  C246  1  0.07125372  0.95424462  0.89245560  1
  C  C247  1  0.91795394  0.04575538  0.10754440  1
  C  C248  1  0.26320750  0.74463095  0.42853152  1
  C  C249  1  0.43636997  0.25536905  0.57146848  1
  C  C250  1  0.75783845  0.75536905  0.92853152  1
  C  C251  1  0.44173902  0.24463095  0.07146848  1
  C  C252  1  0.46029148  0.76159714  0.28166121  1
  C  C253  1  0.50354983  0.23840286  0.71833879  1
  C  C254  1  0.97188861  0.73840286  0.78166121  1
  C  C255  1  0.49195269  0.26159714  0.21833879  1
  C  C256  1  0.39835335  0.23005067  0.39738251  1
  C  C257  1  0.02578654  0.76994933  0.60261749  1
  C  C258  1  0.37840403  0.26994933  0.89738251  1
  C  C259  1  0.54573586  0.73005067  0.10261749  1
  C  C260  1  0.14575325  0.28152903  0.47383608  1
  C  C261  1  0.90111837  0.71847097  0.52616392  1
  C  C262  1  0.17728228  0.21847097  0.97383608  1
  C  C263  1  0.36958934  0.78152903  0.02616392  1
  C  C264  1  0.16419458  0.47446483  0.40801295  1
  C  C265  1  0.04667235  0.52553517  0.59198705  1
  C  C266  1  0.38865940  0.02553517  0.90801295  1
  C  C267  1  0.32220752  0.97446483  0.09198705  1
