# generated using pymatgen
data_K4Mo2H6S2O9
_symmetry_space_group_name_H-M   'P 1'
_cell_length_a   6.57840333
_cell_length_b   6.57840333
_cell_length_c   19.03298967
_cell_angle_alpha   82.89026419
_cell_angle_beta   82.89026419
_cell_angle_gamma   80.16671072
_symmetry_Int_Tables_number   1
_chemical_formula_structural   K4Mo2H6S2O9
_chemical_formula_sum   'K8 Mo4 H12 S4 O18'
_cell_volume   800.87033288
_cell_formula_units_Z   2
loop_
 _symmetry_equiv_pos_site_id
 _symmetry_equiv_pos_as_xyz
  1  'x, y, z'
loop_
 _atom_site_type_symbol
 _atom_site_label
 _atom_site_symmetry_multiplicity
 _atom_site_fract_x
 _atom_site_fract_y
 _atom_site_fract_z
 _atom_site_occupancy
  K  K0  1  0.80644354  0.77748552  0.28504316  1
  K  K1  1  0.22251448  0.19355646  0.21495684  1
  K  K2  1  0.19355646  0.22251448  0.71495684  1
  K  K3  1  0.77748552  0.80644354  0.78504316  1
  K  K4  1  0.86967078  0.26170153  0.43961413  1
  K  K5  1  0.73829847  0.13032922  0.06038587  1
  K  K6  1  0.13032922  0.73829847  0.56038587  1
  K  K7  1  0.26170153  0.86967078  0.93961413  1
  Mo  Mo8  1  0.30784461  0.54085384  0.37898255  1
  Mo  Mo9  1  0.45914616  0.69215539  0.12101745  1
  Mo  Mo10  1  0.69215539  0.45914616  0.62101745  1
  Mo  Mo11  1  0.54085384  0.30784461  0.87898255  1
  H  H12  1  0.20083432  0.29310189  0.03398511  1
  H  H13  1  0.70689811  0.79916568  0.46601489  1
  H  H14  1  0.79916568  0.70689811  0.96601489  1
  H  H15  1  0.29310189  0.20083432  0.53398511  1
  H  H16  1  0.06446382  0.46225923  0.07712162  1
  H  H17  1  0.53774077  0.93553618  0.42287838  1
  H  H18  1  0.93553618  0.53774077  0.92287838  1
  H  H19  1  0.46225923  0.06446382  0.57712162  1
  H  H20  1  0.71102701  0.27395908  0.21049894  1
  H  H21  1  0.72604092  0.28897299  0.28950106  1
  H  H22  1  0.28897299  0.72604092  0.78950106  1
  H  H23  1  0.27395908  0.71102701  0.71049894  1
  S  S24  1  0.88970420  0.23551273  0.87569628  1
  S  S25  1  0.76448727  0.11029580  0.62430372  1
  S  S26  1  0.11029580  0.76448727  0.12430372  1
  S  S27  1  0.23551273  0.88970420  0.37569628  1
  O  O28  1  0.14303678  0.45697377  0.32464350  1
  O  O29  1  0.54302623  0.85696322  0.17535650  1
  O  O30  1  0.85696322  0.54302623  0.67535650  1
  O  O31  1  0.45697377  0.14303678  0.82464350  1
  O  O32  1  0.24952007  0.42872518  0.46812334  1
  O  O33  1  0.57127482  0.75047993  0.03187666  1
  O  O34  1  0.75047993  0.57127482  0.53187666  1
  O  O35  1  0.42872518  0.24952007  0.96812334  1
  O  O36  1  0.57726255  0.46232465  0.35003883  1
  O  O37  1  0.53767535  0.42273745  0.14996117  1
  O  O38  1  0.42273745  0.53767535  0.64996117  1
  O  O39  1  0.46232465  0.57726255  0.85003883  1
  O  O40  1  0.07961659  0.31432922  0.07028659  1
  O  O41  1  0.68567078  0.92038341  0.42971341  1
  O  O42  1  0.92038341  0.68567078  0.92971341  1
  O  O43  1  0.31432922  0.07961659  0.57028659  1
  O  O44  1  0.79251164  0.20748836  0.25000000  1
  O  O45  1  0.20748836  0.79251164  0.75000000  1
