# generated using pymatgen
data_NaSmP2H4CO7
_symmetry_space_group_name_H-M   'P 1'
_cell_length_a   6.74606246
_cell_length_b   6.78712326
_cell_length_c   15.28634394
_cell_angle_alpha   90.00000000
_cell_angle_beta   90.00000000
_cell_angle_gamma   91.10436134
_symmetry_Int_Tables_number   1
_chemical_formula_structural   NaSmP2H4CO7
_chemical_formula_sum   'Na4 Sm4 P8 H16 C4 O28'
_cell_volume   699.77599824
_cell_formula_units_Z   4
loop_
 _symmetry_equiv_pos_site_id
 _symmetry_equiv_pos_as_xyz
  1  'x, y, z'
loop_
 _atom_site_type_symbol
 _atom_site_label
 _atom_site_symmetry_multiplicity
 _atom_site_fract_x
 _atom_site_fract_y
 _atom_site_fract_z
 _atom_site_occupancy
  Na  Na0  1  0.13489751  0.19613453  0.97266738  1
  Na  Na1  1  0.36510249  0.80386547  0.47266738  1
  Na  Na2  1  0.86510249  0.80386547  0.02733262  1
  Na  Na3  1  0.63489751  0.19613453  0.52733262  1
  Sm  Sm4  1  0.60135485  0.32606854  0.09962889  1
  Sm  Sm5  1  0.89864515  0.67393146  0.59962889  1
  Sm  Sm6  1  0.39864515  0.67393146  0.90037111  1
  Sm  Sm7  1  0.10135485  0.32606854  0.40037111  1
  P  P8  1  0.63252025  0.17929155  0.90478545  1
  P  P9  1  0.86747975  0.82070845  0.40478545  1
  P  P10  1  0.36747975  0.82070845  0.09521455  1
  P  P11  1  0.13252025  0.17929155  0.59521455  1
  P  P12  1  0.10605699  0.46874768  0.15999861  1
  P  P13  1  0.39394301  0.53125232  0.65999861  1
  P  P14  1  0.89394301  0.53125232  0.84000139  1
  P  P15  1  0.60605699  0.46874768  0.34000139  1
  H  H16  1  0.10949502  0.81249011  0.20207179  1
  H  H17  1  0.39050498  0.18750989  0.70207179  1
  H  H18  1  0.89050498  0.18750989  0.79792821  1
  H  H19  1  0.60949502  0.81249011  0.29792821  1
  H  H20  1  0.92878275  0.13283838  0.21062764  1
  H  H21  1  0.57121725  0.86716162  0.71062764  1
  H  H22  1  0.07121725  0.86716162  0.78937236  1
  H  H23  1  0.42878275  0.13283838  0.28937236  1
  H  H24  1  0.74360296  0.99238756  0.18865656  1
  H  H25  1  0.75639704  0.00761244  0.68865656  1
  H  H26  1  0.25639704  0.00761244  0.81134344  1
  H  H27  1  0.24360296  0.99238756  0.31134344  1
  H  H28  1  0.32318919  0.68446808  0.23869150  1
  H  H29  1  0.17681081  0.31553192  0.73869150  1
  H  H30  1  0.67681081  0.31553192  0.76130850  1
  H  H31  1  0.82318919  0.68446808  0.26130850  1
  C  C32  1  0.22390352  0.70755411  0.18275221  1
  C  C33  1  0.27609648  0.29244589  0.68275221  1
  C  C34  1  0.77609648  0.29244589  0.81724779  1
  C  C35  1  0.72390352  0.70755411  0.31724779  1
  O  O36  1  0.24775003  0.35455523  0.10127411  1
  O  O37  1  0.25224997  0.64544477  0.60127411  1
  O  O38  1  0.75224997  0.64544477  0.89872589  1
  O  O39  1  0.74775003  0.35455523  0.39872589  1
  O  O40  1  0.52394940  0.67254160  0.06071718  1
  O  O41  1  0.97605060  0.32745840  0.56071718  1
  O  O42  1  0.47605060  0.32745840  0.93928282  1
  O  O43  1  0.02394940  0.67254160  0.43928282  1
  O  O44  1  0.46877254  0.00442401  0.13421382  1
  O  O45  1  0.03122746  0.99557599  0.63421382  1
  O  O46  1  0.53122746  0.99557599  0.86578618  1
  O  O47  1  0.96877254  0.00442401  0.36578618  1
  O  O48  1  0.57206172  0.36924796  0.25006865  1
  O  O49  1  0.92793828  0.63075204  0.75006865  1
  O  O50  1  0.42793828  0.63075204  0.74993135  1
  O  O51  1  0.07206172  0.36924796  0.24993135  1
  O  O52  1  0.85318159  0.06959475  0.16256509  1
  O  O53  1  0.64681841  0.93040525  0.66256509  1
  O  O54  1  0.14681841  0.93040525  0.83743491  1
  O  O55  1  0.35318159  0.06959475  0.33743491  1
  O  O56  1  0.77152563  0.13834770  0.98309898  1
  O  O57  1  0.72847437  0.86165230  0.48309898  1
  O  O58  1  0.22847437  0.86165230  0.01690102  1
  O  O59  1  0.27152563  0.13834770  0.51690102  1
  O  O60  1  0.90668297  0.50583013  0.11344882  1
  O  O61  1  0.59331703  0.49416987  0.61344882  1
  O  O62  1  0.09331703  0.49416987  0.88655118  1
  O  O63  1  0.40668297  0.50583013  0.38655118  1
