# generated using pymatgen
data_Ba14In4Cu2N7
_symmetry_space_group_name_H-M   'P 1'
_cell_length_a   8.18606612
_cell_length_b   9.45004741
_cell_length_c   21.92920334
_cell_angle_alpha   102.15273649
_cell_angle_beta   89.99997428
_cell_angle_gamma   89.99998679
_symmetry_Int_Tables_number   1
_chemical_formula_structural   Ba14In4Cu2N7
_chemical_formula_sum   'Ba28 In8 Cu4 N14'
_cell_volume   1658.39809059
_cell_formula_units_Z   2
loop_
 _symmetry_equiv_pos_site_id
 _symmetry_equiv_pos_as_xyz
  1  'x, y, z'
loop_
 _atom_site_type_symbol
 _atom_site_label
 _atom_site_symmetry_multiplicity
 _atom_site_fract_x
 _atom_site_fract_y
 _atom_site_fract_z
 _atom_site_occupancy
  Ba  Ba0  1  0.74900852  0.24810564  0.10703769  1
  Ba  Ba1  1  0.25098883  0.24810666  0.10703792  1
  Ba  Ba2  1  0.25095730  0.75185046  0.89296554  1
  Ba  Ba3  1  0.74904026  0.75185002  0.89296615  1
  Ba  Ba4  1  0.74760584  0.42460062  0.30894781  1
  Ba  Ba5  1  0.25239480  0.42460179  0.30894823  1
  Ba  Ba6  1  0.25236220  0.57540433  0.69105292  1
  Ba  Ba7  1  0.74763940  0.57540464  0.69105371  1
  Ba  Ba8  1  0.73392730  0.84089381  0.08546177  1
  Ba  Ba9  1  0.26606963  0.84089313  0.08546066  1
  Ba  Ba10  1  0.26606597  0.15910076  0.91455027  1
  Ba  Ba11  1  0.73393333  0.15910091  0.91455011  1
  Ba  Ba12  1  0.50000320  0.17204862  0.40706454  1
  Ba  Ba13  1  0.50000165  0.82790697  0.59293543  1
  Ba  Ba14  1  0.50000065  0.25172108  0.58376903  1
  Ba  Ba15  1  0.50000260  0.74825926  0.41625224  1
  Ba  Ba16  1  0.00000125  0.08453467  0.21110126  1
  Ba  Ba17  1  0.00000079  0.91547681  0.78891113  1
  Ba  Ba18  1  0.99999652  0.16901117  0.40895303  1
  Ba  Ba19  1  0.99999873  0.83100838  0.59106417  1
  Ba  Ba20  1  0.99999753  0.25291801  0.58757970  1
  Ba  Ba21  1  0.99999738  0.74706531  0.41243493  1
  Ba  Ba22  1  0.99999815  0.61106593  0.19291722  1
  Ba  Ba23  1  0.99999966  0.38897621  0.80707456  1
  Ba  Ba24  1  0.74750645  0.49999293  0.50001239  1
  Ba  Ba25  1  0.25249377  0.49999336  0.50001189  1
  Ba  Ba26  1  0.49999746  0.50000622  0.99998472  1
  Ba  Ba27  1  0.99999852  0.50001407  0.00001620  1
  In  In28  1  0.70064087  0.13565092  0.71930833  1
  In  In29  1  0.29936035  0.13565205  0.71930937  1
  In  In30  1  0.29955441  0.86435234  0.28074190  1
  In  In31  1  0.70044724  0.86435311  0.28074286  1
  In  In32  1  0.49999965  0.06159982  0.21836484  1
  In  In33  1  0.50000082  0.93848687  0.78157400  1
  In  In34  1  0.50000146  0.64171827  0.19191873  1
  In  In35  1  0.50000123  0.35825229  0.80795941  1
  Cu  Cu36  1  0.75608297  0.99999687  0.49998310  1
  Cu  Cu37  1  0.24391722  0.99999739  0.49998224  1
  Cu  Cu38  1  0.50000113  0.00001392  0.00002875  1
  Cu  Cu39  1  0.99999984  0.99999147  0.00001915  1
  N  N40  1  0.75740492  0.19741998  0.49707159  1
  N  N41  1  0.24259267  0.19742560  0.49707011  1
  N  N42  1  0.24258897  0.80257250  0.50292393  1
  N  N43  1  0.75741028  0.80257461  0.50292481  1
  N  N44  1  0.50000049  0.20266004  0.00568330  1
  N  N45  1  0.50000038  0.79735188  0.99432659  1
  N  N46  1  0.50000126  0.45359148  0.39769185  1
  N  N47  1  0.50000191  0.54639147  0.60225691  1
  N  N48  1  0.00000070  0.02763607  0.08726022  1
  N  N49  1  0.00000173  0.97235368  0.91277429  1
  N  N50  1  0.00000060  0.35477704  0.20067822  1
  N  N51  1  0.00000101  0.64528511  0.79930377  1
  N  N52  1  0.99999995  0.44745167  0.38562433  1
  N  N53  1  0.00000026  0.55253179  0.61436223  1
