# generated using pymatgen
data_Cd3H6C2I6(NO)2
_symmetry_space_group_name_H-M   'P 1'
_cell_length_a   4.31345428
_cell_length_b   14.19799029
_cell_length_c   16.60059884
_cell_angle_alpha   90.00000000
_cell_angle_beta   90.00000000
_cell_angle_gamma   90.00000000
_symmetry_Int_Tables_number   1
_chemical_formula_structural   Cd3H6C2I6(NO)2
_chemical_formula_sum   'Cd6 H12 C4 I12 N4 O4'
_cell_volume   1016.66021532
_cell_formula_units_Z   2
loop_
 _symmetry_equiv_pos_site_id
 _symmetry_equiv_pos_as_xyz
  1  'x, y, z'
loop_
 _atom_site_type_symbol
 _atom_site_label
 _atom_site_symmetry_multiplicity
 _atom_site_fract_x
 _atom_site_fract_y
 _atom_site_fract_z
 _atom_site_occupancy
  Cd  Cd0  1  0.10242641  0.73714859  0.11152348  1
  Cd  Cd1  1  0.10242641  0.26285141  0.88847652  1
  Cd  Cd2  1  0.60242641  0.23714859  0.38847652  1
  Cd  Cd3  1  0.60242641  0.76285141  0.61152348  1
  Cd  Cd4  1  0.62511553  0.50000000  0.00000000  1
  Cd  Cd5  1  0.12511553  -0.00000000  0.50000000  1
  H  H6  1  0.04782135  0.07781237  0.05432018  1
  H  H7  1  0.04782135  0.92218763  0.94567982  1
  H  H8  1  0.54782135  0.57781237  0.44567982  1
  H  H9  1  0.54782135  0.42218763  0.55432018  1
  H  H10  1  0.02500882  0.10664234  0.15730807  1
  H  H11  1  0.02500882  0.89335766  0.84269193  1
  H  H12  1  0.52500882  0.60664234  0.34269193  1
  H  H13  1  0.52500882  0.39335766  0.65730807  1
  H  H14  1  0.98392952  0.94848281  0.19515221  1
  H  H15  1  0.98392952  0.05151719  0.80484779  1
  H  H16  1  0.48392952  0.44848281  0.30484779  1
  H  H17  1  0.48392952  0.55151719  0.69515221  1
  C  C18  1  0.01515722  0.96562162  0.13069371  1
  C  C19  1  0.01515722  0.03437838  0.86930629  1
  C  C20  1  0.51515722  0.46562162  0.36930629  1
  C  C21  1  0.51515722  0.53437838  0.63069371  1
  I  I22  1  0.12486839  0.52285663  0.12573229  1
  I  I23  1  0.12486839  0.47714337  0.87426771  1
  I  I24  1  0.62486839  0.02285663  0.37426771  1
  I  I25  1  0.62486839  0.97714337  0.62573229  1
  I  I26  1  0.58788942  0.76102127  0.23182872  1
  I  I27  1  0.58788942  0.23897873  0.76817128  1
  I  I28  1  0.08788942  0.26102127  0.26817128  1
  I  I29  1  0.08788942  0.73897873  0.73182872  1
  I  I30  1  0.61509412  0.71276583  0.98195445  1
  I  I31  1  0.61509412  0.28723417  0.01804555  1
  I  I32  1  0.11509412  0.21276583  0.51804555  1
  I  I33  1  0.11509412  0.78723417  0.48195445  1
  N  N34  1  0.02833269  0.05666542  0.11308114  1
  N  N35  1  0.02833269  0.94333458  0.88691886  1
  N  N36  1  0.52833269  0.55666542  0.38691886  1
  N  N37  1  0.52833269  0.44333458  0.61308114  1
  O  O38  1  0.03331429  0.90150132  0.07835938  1
  O  O39  1  0.03331429  0.09849868  0.92164062  1
  O  O40  1  0.53331429  0.40150132  0.42164062  1
  O  O41  1  0.53331429  0.59849868  0.57835938  1
