# generated using pymatgen
data_KH5C3N2O5
_symmetry_space_group_name_H-M   'P 1'
_cell_length_a   7.69958961
_cell_length_b   7.78297871
_cell_length_c   12.85489359
_cell_angle_alpha   90.00000000
_cell_angle_beta   90.00000000
_cell_angle_gamma   90.00000000
_symmetry_Int_Tables_number   1
_chemical_formula_structural   KH5C3N2O5
_chemical_formula_sum   'K4 H20 C12 N8 O20'
_cell_volume   770.33903685
_cell_formula_units_Z   4
loop_
 _symmetry_equiv_pos_site_id
 _symmetry_equiv_pos_as_xyz
  1  'x, y, z'
loop_
 _atom_site_type_symbol
 _atom_site_label
 _atom_site_symmetry_multiplicity
 _atom_site_fract_x
 _atom_site_fract_y
 _atom_site_fract_z
 _atom_site_occupancy
  K  K0  1  0.74407865  0.50000000  0.00000000  1
  K  K1  1  0.75592135  0.00000000  0.50000000  1
  K  K2  1  0.25592135  0.50000000  0.00000000  1
  K  K3  1  0.24407865  0.00000000  0.50000000  1
  H  H4  1  0.50000000  0.11864259  0.09129889  1
  H  H5  1  0.50000000  0.88135741  0.90870111  1
  H  H6  1  0.00000000  0.61864259  0.40870111  1
  H  H7  1  0.00000000  0.38135741  0.59129889  1
  H  H8  1  0.50000000  0.63500041  0.21714770  1
  H  H9  1  0.50000000  0.36499959  0.78285230  1
  H  H10  1  0.00000000  0.13500041  0.28285230  1
  H  H11  1  0.00000000  0.86499959  0.71714770  1
  H  H12  1  0.50000000  0.82419091  0.29792030  1
  H  H13  1  0.50000000  0.17580909  0.70207970  1
  H  H14  1  0.00000000  0.32419091  0.20207970  1
  H  H15  1  0.00000000  0.67580909  0.79792030  1
  H  H16  1  0.00000000  0.18758258  0.95803991  1
  H  H17  1  0.00000000  0.81241742  0.04196009  1
  H  H18  1  0.50000000  0.68758258  0.54196009  1
  H  H19  1  0.50000000  0.31241742  0.45803991  1
  H  H20  1  0.00000000  0.12359197  0.07417121  1
  H  H21  1  0.00000000  0.87640803  0.92582879  1
  H  H22  1  0.50000000  0.62359197  0.42582879  1
  H  H23  1  0.50000000  0.37640803  0.57417121  1
  C  C24  1  0.50000000  0.32819074  0.24559161  1
  C  C25  1  0.50000000  0.67180926  0.75440839  1
  C  C26  1  0.00000000  0.82819074  0.25440839  1
  C  C27  1  0.00000000  0.17180926  0.74559161  1
  C  C28  1  0.50000000  0.12799977  0.25182241  1
  C  C29  1  0.50000000  0.87200023  0.74817759  1
  C  C30  1  0.00000000  0.62799977  0.24817759  1
  C  C31  1  0.00000000  0.37200023  0.75182241  1
  C  C32  1  0.50000000  0.86496916  0.14178056  1
  C  C33  1  0.50000000  0.13503084  0.85821944  1
  C  C34  1  0.00000000  0.36496916  0.35821944  1
  C  C35  1  0.00000000  0.63503084  0.64178056  1
  N  N36  1  0.50000000  0.04535193  0.15838689  1
  N  N37  1  0.50000000  0.95464807  0.84161311  1
  N  N38  1  0.00000000  0.54535193  0.34161311  1
  N  N39  1  0.00000000  0.45464807  0.65838689  1
  N  N40  1  0.50000000  0.76607934  0.22661158  1
  N  N41  1  0.50000000  0.23392066  0.77338842  1
  N  N42  1  0.00000000  0.26607934  0.27338842  1
  N  N43  1  0.00000000  0.73392066  0.72661158  1
  O  O44  1  0.50000000  0.39549535  0.15606136  1
  O  O45  1  0.50000000  0.60450465  0.84393864  1
  O  O46  1  0.00000000  0.89549535  0.34393864  1
  O  O47  1  0.00000000  0.10450465  0.65606136  1
  O  O48  1  0.50000000  0.40478321  0.33228716  1
  O  O49  1  0.50000000  0.59521679  0.66771284  1
  O  O50  1  0.00000000  0.90478321  0.16771284  1
  O  O51  1  0.00000000  0.09521679  0.83228716  1
  O  O52  1  0.50000000  0.05501182  0.33786406  1
  O  O53  1  0.50000000  0.94498818  0.66213594  1
  O  O54  1  0.00000000  0.55501182  0.16213594  1
  O  O55  1  0.00000000  0.44498818  0.83786406  1
  O  O56  1  0.50000000  0.80713105  0.05093740  1
  O  O57  1  0.50000000  0.19286895  0.94906260  1
  O  O58  1  0.00000000  0.30713105  0.44906260  1
  O  O59  1  0.00000000  0.69286895  0.55093740  1
  O  O60  1  0.00000000  0.22777927  0.03151950  1
  O  O61  1  0.00000000  0.77222073  0.96848050  1
  O  O62  1  0.50000000  0.72777927  0.46848050  1
  O  O63  1  0.50000000  0.27222073  0.53151950  1
