# generated using pymatgen
data_ZnSi4H36(C6N)2
_symmetry_space_group_name_H-M   'P 1'
_cell_length_a   12.73672443
_cell_length_b   12.75381818
_cell_length_c   18.38495282
_cell_angle_alpha   90.00000000
_cell_angle_beta   90.00000000
_cell_angle_gamma   116.77501413
_symmetry_Int_Tables_number   1
_chemical_formula_structural   ZnSi4H36(C6N)2
_chemical_formula_sum   'Zn4 Si16 H144 C48 N8'
_cell_volume   2666.28206748
_cell_formula_units_Z   4
loop_
 _symmetry_equiv_pos_site_id
 _symmetry_equiv_pos_as_xyz
  1  'x, y, z'
loop_
 _atom_site_type_symbol
 _atom_site_label
 _atom_site_symmetry_multiplicity
 _atom_site_fract_x
 _atom_site_fract_y
 _atom_site_fract_z
 _atom_site_occupancy
  Zn  Zn0  1  0.24367215  0.51632632  0.86585911  1
  Zn  Zn1  1  0.25632785  0.48367368  0.36585911  1
  Zn  Zn2  1  0.75632785  0.48367368  0.13414089  1
  Zn  Zn3  1  0.74367215  0.51632632  0.63414089  1
  Si  Si4  1  0.08750981  0.26870273  0.93082943  1
  Si  Si5  1  0.41249019  0.73129727  0.43082943  1
  Si  Si6  1  0.91249019  0.73129727  0.06917057  1
  Si  Si7  1  0.58750981  0.26870273  0.56917057  1
  Si  Si8  1  0.23376753  0.30258996  0.78818308  1
  Si  Si9  1  0.26623247  0.69741004  0.28818308  1
  Si  Si10  1  0.76623247  0.69741004  0.21181692  1
  Si  Si11  1  0.73376753  0.30258996  0.71181692  1
  Si  Si12  1  0.26206499  0.74976873  0.80550987  1
  Si  Si13  1  0.23793501  0.25023127  0.30550987  1
  Si  Si14  1  0.73793501  0.25023127  0.19449013  1
  Si  Si15  1  0.76206499  0.74976873  0.69449013  1
  Si  Si16  1  0.42512964  0.74414752  0.93302823  1
  Si  Si17  1  0.07487036  0.25585248  0.43302823  1
  Si  Si18  1  0.57487036  0.25585248  0.06697177  1
  Si  Si19  1  0.92512964  0.74414752  0.56697177  1
  H  H20  1  0.03648148  0.42372796  0.97798855  1
  H  H21  1  0.46351852  0.57627204  0.47798855  1
  H  H22  1  0.96351852  0.57627204  0.02201145  1
  H  H23  1  0.53648148  0.42372796  0.52201145  1
  H  H24  1  0.01595109  0.31745267  0.04571316  1
  H  H25  1  0.48404891  0.68254733  0.54571316  1
  H  H26  1  0.98404891  0.68254733  0.95428684  1
  H  H27  1  0.51595109  0.31745267  0.45428684  1
  H  H28  1  0.16030975  0.42719688  0.02600769  1
  H  H29  1  0.33969025  0.57280312  0.52600769  1
  H  H30  1  0.83969025  0.57280312  0.97399231  1
  H  H31  1  0.66030975  0.42719688  0.47399231  1
  H  H32  1  0.92948886  0.10309853  0.86132718  1
  H  H33  1  0.57051114  0.89690147  0.36132718  1
  H  H34  1  0.07051114  0.89690147  0.13867282  1
  H  H35  1  0.42948886  0.10309853  0.63867282  1
  H  H36  1  0.87968601  0.12130539  0.94822626  1
  H  H37  1  0.62031399  0.87869461  0.44822626  1
  H  H38  1  0.12031399  0.87869461  0.05177374  1
  H  H39  1  0.37968601  0.12130539  0.55177374  1
  H  H40  1  0.88922568  0.21830308  0.87658759  1
  H  H41  1  0.61077432  0.78169692  0.37658759  1
  H  H42  1  0.11077432  0.78169692  0.12341241  1
  H  H43  1  0.38922568  0.21830308  0.62341241  1
  H  H44  1  0.14912047  0.10830846  0.93529732  1
  H  H45  1  0.35087953  0.89169154  0.43529732  1
  H  H46  1  0.85087953  0.89169154  0.06470268  1
  H  H47  1  0.64912047  0.10830846  0.56470268  1
  H  H48  1  0.23350568  0.22198476  0.99766224  1
  H  H49  1  0.26649432  0.77801524  0.49766224  1
  H  H50  1  0.76649432  0.77801524  0.00233776  1
  H  H51  1  0.73350568  0.22198476  0.50233776  1
  H  H52  1  0.08642591  0.11955534  0.01908562  1
  H  H53  1  0.41357409  0.88044466  0.51908562  1
  H  H54  1  0.91357409  0.88044466  0.98091438  1
  H  H55  1  0.58642591  0.11955534  0.48091438  1
  H  H56  1  0.44417055  0.38647827  0.82630527  1
  H  H57  1  0.05582945  0.61352173  0.32630527  1
  H  H58  1  0.55582945  0.61352173  0.17369473  1
  H  H59  1  0.94417055  0.38647827  0.67369473  1
  H  H60  1  0.36646043  0.23594304  0.85245751  1
  H  H61  1  0.13353957  0.76405696  0.35245751  1
  H  H62  1  0.63353957  0.76405696  0.14754249  1
  H  H63  1  0.86646043  0.23594304  0.64754249  1
  H  H64  1  0.41030600  0.27369876  0.76051348  1
  H  H65  1  0.08969400  0.72630124  0.26051348  1
  H  H66  1  0.58969400  0.72630124  0.23948652  1
  H  H67  1  0.91030600  0.27369876  0.73948652  1
  H  H68  1  0.18083517  0.40551256  0.68998341  1
  H  H69  1  0.31916483  0.59448744  0.18998341  1
  H  H70  1  0.81916483  0.59448744  0.31001659  1
  H  H71  1  0.68083517  0.40551256  0.81001659  1
  H  H72  1  0.32908769  0.49264863  0.72031042  1
  H  H73  1  0.17091231  0.50735137  0.22031042  1
  H  H74  1  0.67091231  0.50735137  0.27968958  1
  H  H75  1  0.82908769  0.49264863  0.77968958  1
  H  H76  1  0.29528350  0.37039385  0.66247721  1
  H  H77  1  0.20471650  0.62960615  0.16247721  1
  H  H78  1  0.70471650  0.62960615  0.33752279  1
  H  H79  1  0.79528350  0.37039385  0.83752279  1
  H  H80  1  0.04408597  0.14651865  0.73984731  1
  H  H81  1  0.45591403  0.85348135  0.23984731  1
  H  H82  1  0.95591403  0.85348135  0.26015269  1
  H  H83  1  0.54408597  0.14651865  0.76015269  1
  H  H84  1  0.16772494  0.12819764  0.71007553  1
  H  H85  1  0.33227506  0.87180236  0.21007553  1
  H  H86  1  0.83227506  0.87180236  0.28992447  1
  H  H87  1  0.66772494  0.12819764  0.78992447  1
  H  H88  1  0.11269743  0.08481259  0.79943986  1
  H  H89  1  0.38730257  0.91518741  0.29943986  1
  H  H90  1  0.88730257  0.91518741  0.20056014  1
  H  H91  1  0.61269743  0.08481259  0.70056014  1
  H  H92  1  0.34405525  0.95130783  0.85975865  1
  H  H93  1  0.15594475  0.04869217  0.35975865  1
  H  H94  1  0.65594475  0.04869217  0.14024135  1
  H  H95  1  0.84405525  0.95130783  0.64024135  1
  H  H96  1  0.22100949  0.92210194  0.80328193  1
  H  H97  1  0.27899051  0.07789806  0.30328193  1
  H  H98  1  0.77899051  0.07789806  0.19671807  1
  H  H99  1  0.72100949  0.92210194  0.69671807  1
  H  H100  1  0.19871787  0.86176259  0.89244373  1
  H  H101  1  0.30128213  0.13823741  0.39244373  1
  H  H102  1  0.80128213  0.13823741  0.10755627  1
  H  H103  1  0.69871787  0.86176259  0.60755627  1
  H  H104  1  0.36297317  0.72566091  0.69405257  1
  H  H105  1  0.13702683  0.27433909  0.19405257  1
  H  H106  1  0.63702683  0.27433909  0.30594743  1
  H  H107  1  0.86297317  0.72566091  0.80594743  1
  H  H108  1  0.32020181  0.83940181  0.68199382  1
  H  H109  1  0.17979819  0.16059819  0.18199382  1
  H  H110  1  0.67979819  0.16059819  0.31800618  1
  H  H111  1  0.82020181  0.83940181  0.81800618  1
  H  H112  1  0.44643573  0.86558041  0.73458066  1
  H  H113  1  0.05356427  0.13441959  0.23458066  1
  H  H114  1  0.55356427  0.13441959  0.26541934  1
  H  H115  1  0.94643573  0.86558041  0.76541934  1
  H  H116  1  0.10366486  0.56409306  0.75316194  1
  H  H117  1  0.39633514  0.43590694  0.25316194  1
  H  H118  1  0.89633514  0.43590694  0.24683806  1
  H  H119  1  0.60366486  0.56409306  0.74683806  1
  H  H120  1  0.04652510  0.62216329  0.82251122  1
  H  H121  1  0.45347490  0.37783671  0.32251122  1
  H  H122  1  0.95347490  0.37783671  0.17748878  1
  H  H123  1  0.54652510  0.62216329  0.67748878  1
  H  H124  1  0.07657951  0.68627687  0.73462142  1
  H  H125  1  0.42342049  0.31372313  0.23462142  1
  H  H126  1  0.92342049  0.31372313  0.26537858  1
  H  H127  1  0.57657951  0.68627687  0.76537858  1
  H  H128  1  0.49528827  0.58946589  0.92306647  1
  H  H129  1  0.00471173  0.41053411  0.42306647  1
  H  H130  1  0.50471173  0.41053411  0.07693353  1
  H  H131  1  0.99528827  0.58946589  0.57693353  1
  H  H132  1  0.53727456  0.66590761  0.00714327  1
  H  H133  1  0.96272544  0.33409239  0.50714327  1
  H  H134  1  0.46272544  0.33409239  0.99285673  1
  H  H135  1  0.03727456  0.66590761  0.49285673  1
  H  H136  1  0.39053832  0.55749239  0.99493676  1
  H  H137  1  0.10946168  0.44250761  0.49493676  1
  H  H138  1  0.60946168  0.44250761  0.00506324  1
  H  H139  1  0.89053832  0.55749239  0.50506324  1
  H  H140  1  0.54553893  0.94177839  0.87710199  1
  H  H141  1  0.95446107  0.05822161  0.37710199  1
  H  H142  1  0.45446107  0.05822161  0.12289801  1
  H  H143  1  0.04553893  0.94177839  0.62289801  1
  H  H144  1  0.62935674  0.90294994  0.93859727  1
  H  H145  1  0.87064326  0.09705006  0.43859727  1
  H  H146  1  0.37064326  0.09705006  0.06140273  1
  H  H147  1  0.12935674  0.90294994  0.56140273  1
  H  H148  1  0.59944848  0.84060996  0.85011708  1
  H  H149  1  0.90055152  0.15939004  0.35011708  1
  H  H150  1  0.40055152  0.15939004  0.14988292  1
  H  H151  1  0.09944848  0.84060996  0.64988292  1
  H  H152  1  0.36233637  0.87619805  0.00322779  1
  H  H153  1  0.13766363  0.12380195  0.50322779  1
  H  H154  1  0.63766363  0.12380195  0.99677221  1
  H  H155  1  0.86233637  0.87619805  0.49677221  1
  H  H156  1  0.30459644  0.73346512  0.04265758  1
  H  H157  1  0.19540356  0.26653488  0.54265758  1
  H  H158  1  0.69540356  0.26653488  0.95734242  1
  H  H159  1  0.80459644  0.73346512  0.45734242  1
  H  H160  1  0.45453988  0.83439665  0.05552885  1
  H  H161  1  0.04546012  0.16560335  0.55552885  1
  H  H162  1  0.54546012  0.16560335  0.94447115  1
  H  H163  1  0.95453988  0.83439665  0.44447115  1
  C  C164  1  0.07490194  0.36929359  0.00150077  1
  C  C165  1  0.42509806  0.63070641  0.50150077  1
  C  C166  1  0.92509806  0.63070641  0.99849923  1
  C  C167  1  0.57490194  0.36929359  0.49849923  1
  C  C168  1  0.93258375  0.16911386  0.90070779  1
  C  C169  1  0.56741625  0.83088614  0.40070779  1
  C  C170  1  0.06741625  0.83088614  0.09929221  1
  C  C171  1  0.43258375  0.16911386  0.59929221  1
  C  C172  1  0.14493706  0.17109019  0.97474948  1
  C  C173  1  0.35506294  0.82890981  0.47474948  1
  C  C174  1  0.85506294  0.82890981  0.02525052  1
  C  C175  1  0.64493706  0.17109019  0.52525052  1
  C  C176  1  0.37697134  0.29934705  0.80919608  1
  C  C177  1  0.12302866  0.70065295  0.30919608  1
  C  C178  1  0.62302866  0.70065295  0.19080392  1
  C  C179  1  0.87697134  0.29934705  0.69080392  1
  C  C180  1  0.26189530  0.40298509  0.70806472  1
  C  C181  1  0.23810470  0.59701491  0.20806472  1
  C  C182  1  0.73810470  0.59701491  0.29193528  1
  C  C183  1  0.76189530  0.40298509  0.79193528  1
  C  C184  1  0.12860445  0.15108232  0.75719803  1
  C  C185  1  0.37139555  0.84891768  0.25719803  1
  C  C186  1  0.87139555  0.84891768  0.24280197  1
  C  C187  1  0.62860445  0.15108232  0.74280197  1
  C  C188  1  0.25625925  0.88352082  0.84460856  1
  C  C189  1  0.24374075  0.11647918  0.34460856  1
  C  C190  1  0.74374075  0.11647918  0.15539144  1
  C  C191  1  0.75625925  0.88352082  0.65539144  1
  C  C192  1  0.35703975  0.79913300  0.72147099  1
  C  C193  1  0.14296025  0.20086700  0.22147099  1
  C  C194  1  0.64296025  0.20086700  0.27852901  1
  C  C195  1  0.85703975  0.79913300  0.77852901  1
  C  C196  1  0.10821679  0.64553465  0.77651057  1
  C  C197  1  0.39178321  0.35446535  0.27651057  1
  C  C198  1  0.89178321  0.35446535  0.22348943  1
  C  C199  1  0.60821679  0.64553465  0.72348943  1
  C  C200  1  0.46554887  0.62810212  0.96711832  1
  C  C201  1  0.03445113  0.37189788  0.46711832  1
  C  C202  1  0.53445113  0.37189788  0.03288168  1
  C  C203  1  0.96554887  0.62810212  0.53288168  1
  C  C204  1  0.56186209  0.86859267  0.89553342  1
  C  C205  1  0.93813791  0.13140733  0.39553342  1
  C  C206  1  0.43813791  0.13140733  0.10446658  1
  C  C207  1  0.06186209  0.86859267  0.60446658  1
  C  C208  1  0.38161709  0.80243731  0.01585444  1
  C  C209  1  0.11838291  0.19756269  0.51585444  1
  C  C210  1  0.61838291  0.19756269  0.98414556  1
  C  C211  1  0.88161709  0.80243731  0.48414556  1
  N  N212  1  0.18056610  0.35415801  0.86096144  1
  N  N213  1  0.31943390  0.64584199  0.36096144  1
  N  N214  1  0.81943390  0.64584199  0.13903856  1
  N  N215  1  0.68056610  0.35415801  0.63903856  1
  N  N216  1  0.31207486  0.67902677  0.86862011  1
  N  N217  1  0.18792514  0.32097323  0.36862011  1
  N  N218  1  0.68792514  0.32097323  0.13137989  1
  N  N219  1  0.81207486  0.67902677  0.63137989  1
