# generated using pymatgen
data_SiP2H24C8BrN
_symmetry_space_group_name_H-M   'P 1'
_cell_length_a   12.24941273
_cell_length_b   12.41928925
_cell_length_c   23.92623027
_cell_angle_alpha   90.00000000
_cell_angle_beta   90.00000000
_cell_angle_gamma   90.00000000
_symmetry_Int_Tables_number   1
_chemical_formula_structural   SiP2H24C8BrN
_chemical_formula_sum   'Si8 P16 H192 C64 Br8 N8'
_cell_volume   3639.87348083
_cell_formula_units_Z   8
loop_
 _symmetry_equiv_pos_site_id
 _symmetry_equiv_pos_as_xyz
  1  'x, y, z'
loop_
 _atom_site_type_symbol
 _atom_site_label
 _atom_site_symmetry_multiplicity
 _atom_site_fract_x
 _atom_site_fract_y
 _atom_site_fract_z
 _atom_site_occupancy
  Si  Si0  1  0.75517518  0.44675294  0.99956641  1
  Si  Si1  1  0.74482482  0.94675294  0.00043359  1
  Si  Si2  1  0.25517518  0.55324706  0.50043359  1
  Si  Si3  1  0.24482482  0.05324706  0.49956641  1
  Si  Si4  1  0.24482482  0.55324706  0.00043359  1
  Si  Si5  1  0.25517518  0.05324706  0.99956641  1
  Si  Si6  1  0.74482482  0.44675294  0.49956641  1
  Si  Si7  1  0.75517518  0.94675294  0.50043359  1
  P  P8  1  0.75781648  0.55133041  0.11781173  1
  P  P9  1  0.74218352  0.05133041  0.88218827  1
  P  P10  1  0.25781648  0.44866959  0.38218827  1
  P  P11  1  0.24218352  0.94866959  0.61781173  1
  P  P12  1  0.24218352  0.44866959  0.88218827  1
  P  P13  1  0.25781648  0.94866959  0.11781173  1
  P  P14  1  0.74218352  0.55133041  0.61781173  1
  P  P15  1  0.75781648  0.05133041  0.38218827  1
  P  P16  1  0.85670334  0.43956188  0.17313769  1
  P  P17  1  0.64329666  0.93956188  0.82686231  1
  P  P18  1  0.35670334  0.56043812  0.32686231  1
  P  P19  1  0.14329666  0.06043812  0.67313769  1
  P  P20  1  0.14329666  0.56043812  0.82686231  1
  P  P21  1  0.35670334  0.06043812  0.17313769  1
  P  P22  1  0.64329666  0.43956188  0.67313769  1
  P  P23  1  0.85670334  0.93956188  0.32686231  1
  H  H24  1  0.55831344  0.40164272  0.01516401  1
  H  H25  1  0.94168656  0.90164272  0.98483599  1
  H  H26  1  0.05831344  0.59835728  0.48483599  1
  H  H27  1  0.44168656  0.09835728  0.51516401  1
  H  H28  1  0.44168656  0.59835728  0.98483599  1
  H  H29  1  0.05831344  0.09835728  0.01516401  1
  H  H30  1  0.94168656  0.40164272  0.51516401  1
  H  H31  1  0.55831344  0.90164272  0.48483599  1
  H  H32  1  0.62379496  0.29850458  0.97611344  1
  H  H33  1  0.87620504  0.79850458  0.02388656  1
  H  H34  1  0.12379496  0.70149542  0.52388656  1
  H  H35  1  0.37620504  0.20149542  0.47611344  1
  H  H36  1  0.37620504  0.70149542  0.02388656  1
  H  H37  1  0.12379496  0.20149542  0.97611344  1
  H  H38  1  0.87620504  0.29850458  0.47611344  1
  H  H39  1  0.62379496  0.79850458  0.52388656  1
  H  H40  1  0.64370270  0.30612249  0.04914655  1
  H  H41  1  0.85629730  0.80612249  0.95085345  1
  H  H42  1  0.14370270  0.69387751  0.45085345  1
  H  H43  1  0.35629730  0.19387751  0.54914655  1
  H  H44  1  0.35629730  0.69387751  0.95085345  1
  H  H45  1  0.14370270  0.19387751  0.04914655  1
  H  H46  1  0.85629730  0.30612249  0.54914655  1
  H  H47  1  0.64370270  0.80612249  0.45085345  1
  H  H48  1  0.95299218  0.40995308  0.98053315  1
  H  H49  1  0.54700782  0.90995308  0.01946685  1
  H  H50  1  0.45299218  0.59004692  0.51946685  1
  H  H51  1  0.04700782  0.09004692  0.48053315  1
  H  H52  1  0.04700782  0.59004692  0.01946685  1
  H  H53  1  0.45299218  0.09004692  0.98053315  1
  H  H54  1  0.54700782  0.40995308  0.48053315  1
  H  H55  1  0.95299218  0.90995308  0.51946685  1
  H  H56  1  0.89107235  0.29736375  0.01362796  1
  H  H57  1  0.60892765  0.79736375  0.98637204  1
  H  H58  1  0.39107235  0.70263625  0.48637204  1
  H  H59  1  0.10892765  0.20263625  0.51362796  1
  H  H60  1  0.10892765  0.70263625  0.98637204  1
  H  H61  1  0.39107235  0.20263625  0.01362796  1
  H  H62  1  0.60892765  0.29736375  0.51362796  1
  H  H63  1  0.89107235  0.79736375  0.48637204  1
  H  H64  1  0.86753508  0.32197765  0.94175518  1
  H  H65  1  0.63246492  0.82197765  0.05824482  1
  H  H66  1  0.36753508  0.67802235  0.55824482  1
  H  H67  1  0.13246492  0.17802235  0.44175518  1
  H  H68  1  0.13246492  0.67802235  0.05824482  1
  H  H69  1  0.36753508  0.17802235  0.94175518  1
  H  H70  1  0.63246492  0.32197765  0.44175518  1
  H  H71  1  0.86753508  0.82197765  0.55824482  1
  H  H72  1  0.64653872  0.57622892  0.94177437  1
  H  H73  1  0.85346128  0.07622892  0.05822563  1
  H  H74  1  0.14653872  0.42377108  0.55822563  1
  H  H75  1  0.35346128  0.92377108  0.44177437  1
  H  H76  1  0.35346128  0.42377108  0.05822563  1
  H  H77  1  0.14653872  0.92377108  0.94177437  1
  H  H78  1  0.85346128  0.57622892  0.44177437  1
  H  H79  1  0.64653872  0.07622892  0.55822563  1
  H  H80  1  0.78851191  0.59094569  0.92816673  1
  H  H81  1  0.71148809  0.09094569  0.07183327  1
  H  H82  1  0.28851191  0.40905431  0.57183327  1
  H  H83  1  0.21148809  0.90905431  0.42816673  1
  H  H84  1  0.21148809  0.40905431  0.07183327  1
  H  H85  1  0.28851191  0.90905431  0.92816673  1
  H  H86  1  0.71148809  0.59094569  0.42816673  1
  H  H87  1  0.78851191  0.09094569  0.57183327  1
  H  H88  1  0.71528387  0.48058443  0.89914506  1
  H  H89  1  0.78471613  0.98058443  0.10085494  1
  H  H90  1  0.21528387  0.51941557  0.60085494  1
  H  H91  1  0.28471613  0.01941557  0.39914506  1
  H  H92  1  0.28471613  0.51941557  0.10085494  1
  H  H93  1  0.21528387  0.01941557  0.89914506  1
  H  H94  1  0.78471613  0.48058443  0.39914506  1
  H  H95  1  0.71528387  0.98058443  0.60085494  1
  H  H96  1  0.75977422  0.74259209  0.11656605  1
  H  H97  1  0.74022578  0.24259209  0.88343395  1
  H  H98  1  0.25977422  0.25740791  0.38343395  1
  H  H99  1  0.24022578  0.75740791  0.61656605  1
  H  H100  1  0.24022578  0.25740791  0.88343395  1
  H  H101  1  0.25977422  0.75740791  0.11656605  1
  H  H102  1  0.74022578  0.74259209  0.61656605  1
  H  H103  1  0.75977422  0.24259209  0.38343395  1
  H  H104  1  0.77732733  0.69339217  0.18591297  1
  H  H105  1  0.72267267  0.19339217  0.81408703  1
  H  H106  1  0.27732733  0.30660783  0.31408703  1
  H  H107  1  0.22267267  0.80660783  0.68591297  1
  H  H108  1  0.22267267  0.30660783  0.81408703  1
  H  H109  1  0.27732733  0.80660783  0.18591297  1
  H  H110  1  0.72267267  0.69339217  0.68591297  1
  H  H111  1  0.77732733  0.19339217  0.31408703  1
  H  H112  1  0.89030251  0.69134614  0.13784654  1
  H  H113  1  0.60969749  0.19134614  0.86215346  1
  H  H114  1  0.39030251  0.30865386  0.36215346  1
  H  H115  1  0.10969749  0.80865386  0.63784654  1
  H  H116  1  0.10969749  0.30865386  0.86215346  1
  H  H117  1  0.39030251  0.80865386  0.13784654  1
  H  H118  1  0.60969749  0.69134614  0.63784654  1
  H  H119  1  0.89030251  0.19134614  0.36215346  1
  H  H120  1  0.56749545  0.58572517  0.11627937  1
  H  H121  1  0.93250455  0.08572517  0.88372063  1
  H  H122  1  0.06749545  0.41427483  0.38372063  1
  H  H123  1  0.43250455  0.91427483  0.61627937  1
  H  H124  1  0.43250455  0.41427483  0.88372063  1
  H  H125  1  0.06749545  0.91427483  0.11627937  1
  H  H126  1  0.93250455  0.58572517  0.61627937  1
  H  H127  1  0.56749545  0.08572517  0.38372063  1
  H  H128  1  0.59256258  0.45117630  0.14053369  1
  H  H129  1  0.90743742  0.95117630  0.85946631  1
  H  H130  1  0.09256258  0.54882370  0.35946631  1
  H  H131  1  0.40743742  0.04882370  0.64053369  1
  H  H132  1  0.40743742  0.54882370  0.85946631  1
  H  H133  1  0.09256258  0.04882370  0.14053369  1
  H  H134  1  0.90743742  0.45117630  0.64053369  1
  H  H135  1  0.59256258  0.95117630  0.35946631  1
  H  H136  1  0.61137359  0.56449922  0.18637556  1
  H  H137  1  0.88862641  0.06449922  0.81362444  1
  H  H138  1  0.11137359  0.43550078  0.31362444  1
  H  H139  1  0.38862641  0.93550078  0.68637556  1
  H  H140  1  0.38862641  0.43550078  0.81362444  1
  H  H141  1  0.11137359  0.93550078  0.18637556  1
  H  H142  1  0.88862641  0.56449922  0.68637556  1
  H  H143  1  0.61137359  0.06449922  0.31362444  1
  H  H144  1  0.87441851  0.24989283  0.17769613  1
  H  H145  1  0.62558149  0.74989283  0.82230387  1
  H  H146  1  0.37441851  0.75010717  0.32230387  1
  H  H147  1  0.12558149  0.25010717  0.67769613  1
  H  H148  1  0.12558149  0.75010717  0.82230387  1
  H  H149  1  0.37441851  0.25010717  0.17769613  1
  H  H150  1  0.62558149  0.24989283  0.67769613  1
  H  H151  1  0.87441851  0.74989283  0.32230387  1
  H  H152  1  0.73304229  0.28924120  0.17240191  1
  H  H153  1  0.76695771  0.78924120  0.82759809  1
  H  H154  1  0.23304229  0.71075880  0.32759809  1
  H  H155  1  0.26695771  0.21075880  0.67240191  1
  H  H156  1  0.26695771  0.71075880  0.82759809  1
  H  H157  1  0.23304229  0.21075880  0.17240191  1
  H  H158  1  0.76695771  0.28924120  0.67240191  1
  H  H159  1  0.73304229  0.78924120  0.32759809  1
  H  H160  1  0.82021864  0.29163537  0.11120422  1
  H  H161  1  0.67978136  0.79163537  0.88879578  1
  H  H162  1  0.32021864  0.70836463  0.38879578  1
  H  H163  1  0.17978136  0.20836463  0.61120422  1
  H  H164  1  0.17978136  0.70836463  0.88879578  1
  H  H165  1  0.32021864  0.20836463  0.11120422  1
  H  H166  1  0.67978136  0.29163537  0.61120422  1
  H  H167  1  0.82021864  0.79163537  0.38879578  1
  H  H168  1  0.04415865  0.39274480  0.17381135  1
  H  H169  1  0.45584135  0.89274480  0.82618865  1
  H  H170  1  0.54415865  0.60725520  0.32618865  1
  H  H171  1  0.95584135  0.10725520  0.67381135  1
  H  H172  1  0.95584135  0.60725520  0.82618865  1
  H  H173  1  0.54415865  0.10725520  0.17381135  1
  H  H174  1  0.45584135  0.39274480  0.67381135  1
  H  H175  1  0.04415865  0.89274480  0.32618865  1
  H  H176  1  0.00474108  0.45201470  0.10783101  1
  H  H177  1  0.49525892  0.95201470  0.89216899  1
  H  H178  1  0.50474108  0.54798530  0.39216899  1
  H  H179  1  0.99525892  0.04798530  0.60783101  1
  H  H180  1  0.99525892  0.54798530  0.89216899  1
  H  H181  1  0.50474108  0.04798530  0.10783101  1
  H  H182  1  0.49525892  0.45201470  0.60783101  1
  H  H183  1  0.00474108  0.95201470  0.39216899  1
  H  H184  1  0.02660701  0.53649569  0.16841043  1
  H  H185  1  0.47339299  0.03649569  0.83158957  1
  H  H186  1  0.52660701  0.46350431  0.33158957  1
  H  H187  1  0.97339299  0.96350431  0.66841043  1
  H  H188  1  0.97339299  0.46350431  0.83158957  1
  H  H189  1  0.52660701  0.96350431  0.16841043  1
  H  H190  1  0.47339299  0.53649569  0.66841043  1
  H  H191  1  0.02660701  0.03649569  0.33158957  1
  H  H192  1  0.89535305  0.40043838  0.26788022  1
  H  H193  1  0.60464695  0.90043838  0.73211978  1
  H  H194  1  0.39535305  0.59956162  0.23211978  1
  H  H195  1  0.10464695  0.09956162  0.76788022  1
  H  H196  1  0.10464695  0.59956162  0.73211978  1
  H  H197  1  0.39535305  0.09956162  0.26788022  1
  H  H198  1  0.60464695  0.40043838  0.76788022  1
  H  H199  1  0.89535305  0.90043838  0.23211978  1
  H  H200  1  0.87094577  0.54202788  0.25796662  1
  H  H201  1  0.62905423  0.04202788  0.74203338  1
  H  H202  1  0.37094577  0.45797212  0.24203338  1
  H  H203  1  0.12905423  0.95797212  0.75796662  1
  H  H204  1  0.12905423  0.45797212  0.74203338  1
  H  H205  1  0.37094577  0.95797212  0.25796662  1
  H  H206  1  0.62905423  0.54202788  0.75796662  1
  H  H207  1  0.87094577  0.04202788  0.24203338  1
  H  H208  1  0.75728362  0.44707232  0.25947929  1
  H  H209  1  0.74271638  0.94707232  0.74052071  1
  H  H210  1  0.25728362  0.55292768  0.24052071  1
  H  H211  1  0.24271638  0.05292768  0.75947929  1
  H  H212  1  0.24271638  0.55292768  0.74052071  1
  H  H213  1  0.25728362  0.05292768  0.25947929  1
  H  H214  1  0.74271638  0.44707232  0.75947929  1
  H  H215  1  0.75728362  0.94707232  0.24052071  1
  C  C216  1  0.63425900  0.35501890  0.01114409  1
  C  C217  1  0.86574100  0.85501890  0.98885591  1
  C  C218  1  0.13425900  0.64498110  0.48885591  1
  C  C219  1  0.36574100  0.14498110  0.51114409  1
  C  C220  1  0.36574100  0.64498110  0.98885591  1
  C  C221  1  0.13425900  0.14498110  0.01114409  1
  C  C222  1  0.86574100  0.35501890  0.51114409  1
  C  C223  1  0.63425900  0.85501890  0.48885591  1
  C  C224  1  0.87800759  0.36142007  0.98259818  1
  C  C225  1  0.62199241  0.86142007  0.01740182  1
  C  C226  1  0.37800759  0.63857993  0.51740182  1
  C  C227  1  0.12199241  0.13857993  0.48259818  1
  C  C228  1  0.12199241  0.63857993  0.01740182  1
  C  C229  1  0.37800759  0.13857993  0.98259818  1
  C  C230  1  0.62199241  0.36142007  0.48259818  1
  C  C231  1  0.87800759  0.86142007  0.51740182  1
  C  C232  1  0.72359567  0.53197807  0.93642083  1
  C  C233  1  0.77640433  0.03197807  0.06357917  1
  C  C234  1  0.22359567  0.46802193  0.56357917  1
  C  C235  1  0.27640433  0.96802193  0.43642083  1
  C  C236  1  0.27640433  0.46802193  0.06357917  1
  C  C237  1  0.22359567  0.96802193  0.93642083  1
  C  C238  1  0.77640433  0.53197807  0.43642083  1
  C  C239  1  0.72359567  0.03197807  0.56357917  1
  C  C240  1  0.80167851  0.68186395  0.14212891  1
  C  C241  1  0.69832149  0.18186395  0.85787109  1
  C  C242  1  0.30167851  0.31813605  0.35787109  1
  C  C243  1  0.19832149  0.81813605  0.64212891  1
  C  C244  1  0.19832149  0.31813605  0.85787109  1
  C  C245  1  0.30167851  0.81813605  0.14212891  1
  C  C246  1  0.69832149  0.68186395  0.64212891  1
  C  C247  1  0.80167851  0.18186395  0.35787109  1
  C  C248  1  0.61929465  0.53530444  0.14319050  1
  C  C249  1  0.88070535  0.03530444  0.85680950  1
  C  C250  1  0.11929465  0.46469556  0.35680950  1
  C  C251  1  0.38070535  0.96469556  0.64319050  1
  C  C252  1  0.38070535  0.46469556  0.85680950  1
  C  C253  1  0.11929465  0.96469556  0.14319050  1
  C  C254  1  0.88070535  0.53530444  0.64319050  1
  C  C255  1  0.61929465  0.03530444  0.35680950  1
  C  C256  1  0.81617410  0.30392498  0.15656359  1
  C  C257  1  0.68382590  0.80392498  0.84343641  1
  C  C258  1  0.31617410  0.69607502  0.34343641  1
  C  C259  1  0.18382590  0.19607502  0.65656359  1
  C  C260  1  0.18382590  0.69607502  0.84343641  1
  C  C261  1  0.31617410  0.19607502  0.15656359  1
  C  C262  1  0.68382590  0.30392498  0.65656359  1
  C  C263  1  0.81617410  0.80392498  0.34343641  1
  C  C264  1  0.99746941  0.45768775  0.15345115  1
  C  C265  1  0.50253059  0.95768775  0.84654885  1
  C  C266  1  0.49746941  0.54231225  0.34654885  1
  C  C267  1  0.00253059  0.04231225  0.65345115  1
  C  C268  1  0.00253059  0.54231225  0.84654885  1
  C  C269  1  0.49746941  0.04231225  0.15345115  1
  C  C270  1  0.50253059  0.45768775  0.65345115  1
  C  C271  1  0.99746941  0.95768775  0.34654885  1
  C  C272  1  0.84274894  0.46052869  0.24733833  1
  C  C273  1  0.65725106  0.96052869  0.75266167  1
  C  C274  1  0.34274894  0.53947131  0.25266167  1
  C  C275  1  0.15725106  0.03947131  0.74733833  1
  C  C276  1  0.15725106  0.53947131  0.75266167  1
  C  C277  1  0.34274894  0.03947131  0.24733833  1
  C  C278  1  0.65725106  0.46052869  0.74733833  1
  C  C279  1  0.84274894  0.96052869  0.25266167  1
  Br  Br280  1  0.55980530  0.28798322  0.25274307  1
  Br  Br281  1  0.94019470  0.78798322  0.74725693  1
  Br  Br282  1  0.05980530  0.71201678  0.24725693  1
  Br  Br283  1  0.44019470  0.21201678  0.75274307  1
  Br  Br284  1  0.44019470  0.71201678  0.74725693  1
  Br  Br285  1  0.05980530  0.21201678  0.25274307  1
  Br  Br286  1  0.94019470  0.28798322  0.75274307  1
  Br  Br287  1  0.55980530  0.78798322  0.24725693  1
  N  N288  1  0.78340902  0.52772245  0.05566675  1
  N  N289  1  0.71659098  0.02772245  0.94433325  1
  N  N290  1  0.28340902  0.47227755  0.44433325  1
  N  N291  1  0.21659098  0.97227755  0.55566675  1
  N  N292  1  0.21659098  0.47227755  0.94433325  1
  N  N293  1  0.28340902  0.97227755  0.05566675  1
  N  N294  1  0.71659098  0.52772245  0.55566675  1
  N  N295  1  0.78340902  0.02772245  0.44433325  1
