# generated using pymatgen
data_Bi3(PO5)2
_symmetry_space_group_name_H-M   'P 1'
_cell_length_a   6.96272146
_cell_length_b   7.12989784
_cell_length_c   9.33778427
_cell_angle_alpha   68.09541961
_cell_angle_beta   73.23285503
_cell_angle_gamma   91.12016927
_symmetry_Int_Tables_number   1
_chemical_formula_structural   Bi3(PO5)2
_chemical_formula_sum   'Bi6 P4 O20'
_cell_volume   407.56735637
_cell_formula_units_Z   2
loop_
 _symmetry_equiv_pos_site_id
 _symmetry_equiv_pos_as_xyz
  1  'x, y, z'
loop_
 _atom_site_type_symbol
 _atom_site_label
 _atom_site_symmetry_multiplicity
 _atom_site_fract_x
 _atom_site_fract_y
 _atom_site_fract_z
 _atom_site_occupancy
  Bi  Bi0  1  0.77332408  0.40051604  0.47686293  1
  Bi  Bi1  1  0.22667592  0.59948396  0.52313707  1
  Bi  Bi2  1  0.72924527  0.77044324  0.69934804  1
  Bi  Bi3  1  0.27075473  0.22955676  0.30065196  1
  Bi  Bi4  1  0.80740279  0.17437366  0.90261790  1
  Bi  Bi5  1  0.19259721  0.82562634  0.09738210  1
  P  P6  1  0.77334478  0.02538188  0.29856879  1
  P  P7  1  0.22665522  0.97461812  0.70143121  1
  P  P8  1  0.31431599  0.36934867  0.90252104  1
  P  P9  1  0.68568401  0.63065133  0.09747896  1
  O  O10  1  0.89636932  0.51857030  0.63840329  1
  O  O11  1  0.10363068  0.48142970  0.36159671  1
  O  O12  1  0.79018695  0.12362792  0.68329830  1
  O  O13  1  0.20981305  0.87637208  0.31670170  1
  O  O14  1  0.93322290  0.01741326  0.14483494  1
  O  O15  1  0.06677710  0.98258674  0.85516506  1
  O  O16  1  0.69794416  0.80958110  0.43986648  1
  O  O17  1  0.30205584  0.19041890  0.56013352  1
  O  O18  1  0.87807257  0.15825544  0.36299700  1
  O  O19  1  0.12192743  0.84174456  0.63700300  1
  O  O20  1  0.59974006  0.11961145  0.23917485  1
  O  O21  1  0.40025994  0.88038855  0.76082515  1
  O  O22  1  0.49708103  0.50408049  0.75153179  1
  O  O23  1  0.50291897  0.49591951  0.24846821  1
  O  O24  1  0.27107226  0.44554664  0.04432914  1
  O  O25  1  0.72892774  0.55445336  0.95567086  1
  O  O26  1  0.37845094  0.15382890  0.96757524  1
  O  O27  1  0.62154906  0.84617110  0.03242476  1
  O  O28  1  0.13242746  0.37972142  0.83816674  1
  O  O29  1  0.86757254  0.62027858  0.16183326  1
