# generated using pymatgen
data_Tb2Cu2O5
_symmetry_space_group_name_H-M   'P 1'
_cell_length_a   3.55526529
_cell_length_b   10.89877723
_cell_length_c   12.58803421
_cell_angle_alpha   90.00000000
_cell_angle_beta   90.00000000
_cell_angle_gamma   90.00000000
_symmetry_Int_Tables_number   1
_chemical_formula_structural   Tb2Cu2O5
_chemical_formula_sum   'Tb8 Cu8 O20'
_cell_volume   487.76170834
_cell_formula_units_Z   4
loop_
 _symmetry_equiv_pos_site_id
 _symmetry_equiv_pos_as_xyz
  1  'x, y, z'
loop_
 _atom_site_type_symbol
 _atom_site_label
 _atom_site_symmetry_multiplicity
 _atom_site_fract_x
 _atom_site_fract_y
 _atom_site_fract_z
 _atom_site_occupancy
  Tb  Tb0  1  0.77919063  0.95789162  0.23528874  1
  Tb  Tb1  1  0.22080937  0.04210838  0.73528874  1
  Tb  Tb2  1  0.72080937  0.45789162  0.23528874  1
  Tb  Tb3  1  0.27919063  0.54210838  0.73528874  1
  Tb  Tb4  1  0.78058202  0.79178436  0.56304385  1
  Tb  Tb5  1  0.21941798  0.20821564  0.06304385  1
  Tb  Tb6  1  0.71941798  0.29178436  0.56304385  1
  Tb  Tb7  1  0.28058202  0.70821564  0.06304385  1
  Cu  Cu8  1  0.84468569  0.76130292  0.84778430  1
  Cu  Cu9  1  0.15531431  0.23869708  0.34778430  1
  Cu  Cu10  1  0.65531431  0.26130292  0.84778430  1
  Cu  Cu11  1  0.34468569  0.73869708  0.34778430  1
  Cu  Cu12  1  0.65847234  0.98875390  0.95118763  1
  Cu  Cu13  1  0.34152766  0.01124610  0.45118763  1
  Cu  Cu14  1  0.84152766  0.48875390  0.95118763  1
  Cu  Cu15  1  0.15847234  0.51124610  0.45118763  1
  O  O16  1  0.77558043  0.67374372  0.70960044  1
  O  O17  1  0.22441957  0.32625628  0.20960044  1
  O  O18  1  0.72441957  0.17374372  0.70960044  1
  O  O19  1  0.27558043  0.82625628  0.20960044  1
  O  O20  1  0.72279143  0.92686410  0.80164330  1
  O  O21  1  0.27720857  0.07313590  0.30164330  1
  O  O22  1  0.77720857  0.42686410  0.80164330  1
  O  O23  1  0.22279143  0.57313590  0.30164330  1
  O  O24  1  0.27362252  0.92331260  0.59012448  1
  O  O25  1  0.72637748  0.07668740  0.09012448  1
  O  O26  1  0.22637748  0.42331260  0.59012448  1
  O  O27  1  0.77362252  0.57668740  0.09012448  1
  O  O28  1  0.65258659  0.87535899  0.39954299  1
  O  O29  1  0.34741341  0.12464101  0.89954299  1
  O  O30  1  0.84741341  0.37535899  0.39954299  1
  O  O31  1  0.15258659  0.62464101  0.89954299  1
  O  O32  1  0.78042853  0.82328177  0.99748426  1
  O  O33  1  0.21957147  0.17671823  0.49748426  1
  O  O34  1  0.71957147  0.32328177  0.99748426  1
  O  O35  1  0.28042853  0.67671823  0.49748426  1
