# generated using pymatgen
data_Pb3ClO3
_symmetry_space_group_name_H-M   'P 1'
_cell_length_a   5.89801386
_cell_length_b   6.87833392
_cell_length_c   16.49946998
_cell_angle_alpha   90.00000000
_cell_angle_beta   90.00000000
_cell_angle_gamma   90.00000000
_symmetry_Int_Tables_number   1
_chemical_formula_structural   Pb3ClO3
_chemical_formula_sum   'Pb12 Cl4 O12'
_cell_volume   669.35889298
_cell_formula_units_Z   4
loop_
 _symmetry_equiv_pos_site_id
 _symmetry_equiv_pos_as_xyz
  1  'x, y, z'
loop_
 _atom_site_type_symbol
 _atom_site_label
 _atom_site_symmetry_multiplicity
 _atom_site_fract_x
 _atom_site_fract_y
 _atom_site_fract_z
 _atom_site_occupancy
  Pb  Pb0  1  0.50000000  0.31152759  0.17696799  1
  Pb  Pb1  1  0.50000000  0.68847241  0.67696799  1
  Pb  Pb2  1  0.50000000  0.81604138  0.10880956  1
  Pb  Pb3  1  0.50000000  0.18395862  0.60880956  1
  Pb  Pb4  1  0.50000000  0.52956421  0.43245734  1
  Pb  Pb5  1  0.50000000  0.47043579  0.93245734  1
  Pb  Pb6  1  0.00000000  0.52331802  0.07942382  1
  Pb  Pb7  1  0.00000000  0.47668198  0.57942382  1
  Pb  Pb8  1  0.00000000  0.70698245  0.28044059  1
  Pb  Pb9  1  -0.00000000  0.29301755  0.78044059  1
  Pb  Pb10  1  -0.00000000  0.83216128  0.91096044  1
  Pb  Pb11  1  -0.00000000  0.16783872  0.41096044  1
  Cl  Cl12  1  -0.00000000  0.15117919  0.10742425  1
  Cl  Cl13  1  0.00000000  0.84882081  0.60742425  1
  Cl  Cl14  1  0.50000000  0.06521780  0.82985284  1
  Cl  Cl15  1  0.50000000  0.93478220  0.32985284  1
  O  O16  1  0.24224594  0.30853584  0.50805033  1
  O  O17  1  0.75775406  0.30853584  0.50805033  1
  O  O18  1  0.75775406  0.69146416  0.00805033  1
  O  O19  1  0.24224594  0.69146416  0.00805033  1
  O  O20  1  0.24595661  0.58476242  0.17485962  1
  O  O21  1  0.75404339  0.58476242  0.17485962  1
  O  O22  1  0.75404339  0.41523758  0.67485962  1
  O  O23  1  0.24595661  0.41523758  0.67485962  1
  O  O24  1  0.00000000  0.46272295  0.36237486  1
  O  O25  1  -0.00000000  0.53727705  0.86237486  1
  O  O26  1  0.50000000  0.31517005  0.04556842  1
  O  O27  1  0.50000000  0.68482995  0.54556842  1
