# generated using pymatgen
data_Sm2Ge6Rh
_symmetry_space_group_name_H-M   'P 1'
_cell_length_a   4.02662241
_cell_length_b   4.19604187
_cell_length_c   11.32640622
_cell_angle_alpha   90.00000000
_cell_angle_beta   100.23895152
_cell_angle_gamma   90.00000000
_symmetry_Int_Tables_number   1
_chemical_formula_structural   Sm2Ge6Rh
_chemical_formula_sum   'Sm2 Ge6 Rh1'
_cell_volume   188.32199593
_cell_formula_units_Z   1
loop_
 _symmetry_equiv_pos_site_id
 _symmetry_equiv_pos_as_xyz
  1  'x, y, z'
loop_
 _atom_site_type_symbol
 _atom_site_label
 _atom_site_symmetry_multiplicity
 _atom_site_fract_x
 _atom_site_fract_y
 _atom_site_fract_z
 _atom_site_occupancy
  Sm  Sm0  1  0.77879451  0.50000000  0.55758903  1
  Sm  Sm1  1  0.11545348  0.50000000  0.23090697  1
  Ge  Ge2  1  0.49613849  0.50000000  0.99227698  1
  Ge  Ge3  1  0.38408002  0.50000000  0.76816005  1
  Ge  Ge4  1  0.99351559  0.00000000  0.98703118  1
  Ge  Ge5  1  0.88095891  -0.00000000  0.76191782  1
  Ge  Ge6  1  0.66596918  0.00000000  0.33193837  1
  Ge  Ge7  1  0.23599524  -0.00000000  0.47199047  1
  Rh  Rh8  1  0.55609456  0.00000000  0.11218913  1
