# generated using pymatgen
data_TiMnSn4
_symmetry_space_group_name_H-M   'P 1'
_cell_length_a   5.52806122
_cell_length_b   5.52806122
_cell_length_c   14.01133877
_cell_angle_alpha   90.00000000
_cell_angle_beta   90.00000000
_cell_angle_gamma   120.00000149
_symmetry_Int_Tables_number   1
_chemical_formula_structural   TiMnSn4
_chemical_formula_sum   'Ti3 Mn3 Sn12'
_cell_volume   370.81385057
_cell_formula_units_Z   3
loop_
 _symmetry_equiv_pos_site_id
 _symmetry_equiv_pos_as_xyz
  1  'x, y, z'
loop_
 _atom_site_type_symbol
 _atom_site_label
 _atom_site_symmetry_multiplicity
 _atom_site_fract_x
 _atom_site_fract_y
 _atom_site_fract_z
 _atom_site_occupancy
  Ti  Ti0  1  0.50000000  0.50000000  0.00000000  1
  Ti  Ti1  1  0.00000000  0.50000000  0.33333300  1
  Ti  Ti2  1  0.50000000  0.00000000  0.66666700  1
  Mn  Mn3  1  0.00000000  0.00000000  0.00000000  1
  Mn  Mn4  1  0.00000000  0.00000000  0.33333300  1
  Mn  Mn5  1  -0.00000000  0.00000000  0.66666700  1
  Sn  Sn6  1  0.83481176  0.16518824  0.50000000  1
  Sn  Sn7  1  0.33037648  0.16518824  0.83333300  1
  Sn  Sn8  1  0.16518824  0.83481176  0.50000000  1
  Sn  Sn9  1  0.66962352  0.83481176  0.83333300  1
  Sn  Sn10  1  0.83481176  0.66962352  0.16666700  1
  Sn  Sn11  1  0.16518824  0.33037648  0.16666700  1
  Sn  Sn12  1  0.50000000  0.50000000  0.61171778  1
  Sn  Sn13  1  0.00000000  0.50000000  0.94505078  1
  Sn  Sn14  1  0.00000000  0.50000000  0.72161522  1
  Sn  Sn15  1  0.50000000  0.00000000  0.27838478  1
  Sn  Sn16  1  0.50000000  0.50000000  0.38828222  1
  Sn  Sn17  1  0.50000000  -0.00000000  0.05494922  1
