# generated using pymatgen
data_Ti4Fe(BiO3)6
_symmetry_space_group_name_H-M   'P 1'
_cell_length_a   4.04476985
_cell_length_b   4.04476985
_cell_length_c   24.46085689
_cell_angle_alpha   94.56216082
_cell_angle_beta   94.56216082
_cell_angle_gamma   92.17500474
_symmetry_Int_Tables_number   1
_chemical_formula_structural   Ti4Fe(BiO3)6
_chemical_formula_sum   'Ti4 Fe1 Bi6 O18'
_cell_volume   397.25677147
_cell_formula_units_Z   1
loop_
 _symmetry_equiv_pos_site_id
 _symmetry_equiv_pos_as_xyz
  1  'x, y, z'
loop_
 _atom_site_type_symbol
 _atom_site_label
 _atom_site_symmetry_multiplicity
 _atom_site_fract_x
 _atom_site_fract_y
 _atom_site_fract_z
 _atom_site_occupancy
  Ti  Ti0  1  0.18238214  0.14978568  0.33216782  1
  Ti  Ti1  1  0.85021432  0.81761786  0.66783218  1
  Ti  Ti2  1  0.10914029  0.05595734  0.16509763  1
  Ti  Ti3  1  0.94404266  0.89085971  0.83490237  1
  Fe  Fe4  1  0.01337203  0.98662797  0.00000000  1
  Bi  Bi5  1  0.38972996  0.16166111  0.55139107  1
  Bi  Bi6  1  0.83833889  0.61027004  0.44860893  1
  Bi  Bi7  1  0.45502645  0.29285167  0.74787813  1
  Bi  Bi8  1  0.70714833  0.54497355  0.25212187  1
  Bi  Bi9  1  0.55831103  0.36647923  0.92479027  1
  Bi  Bi10  1  0.63352077  0.44168897  0.07520973  1
  O  O11  1  0.17588457  0.22912576  0.40501033  1
  O  O12  1  0.77087424  0.82411543  0.59498967  1
  O  O13  1  0.00504396  0.08169265  0.08673660  1
  O  O14  1  0.91830735  0.99495604  0.91326340  1
  O  O15  1  0.50032528  0.05712369  0.00000000  1
  O  O16  1  0.94287631  0.49967472  0.00000000  1
  O  O17  1  0.55902447  0.12102995  0.16417354  1
  O  O18  1  0.87897005  0.44097553  0.83582646  1
  O  O19  1  0.39485093  0.95685641  0.83582646  1
  O  O20  1  0.04314359  0.60514907  0.16417354  1
  O  O21  1  0.63909103  0.19256354  0.31890675  1
  O  O22  1  0.80743646  0.36090897  0.68109325  1
  O  O23  1  0.32018428  0.87365679  0.68109325  1
  O  O24  1  0.12634321  0.67981572  0.31890675  1
  O  O25  1  0.07869517  0.16470948  0.24340465  1
  O  O26  1  0.83529052  0.92130483  0.75659535  1
  O  O27  1  0.80511585  0.19488415  0.50000000  1
  O  O28  1  0.30511585  0.69488415  0.50000000  1
