# generated using pymatgen
data_RbSeO4
_symmetry_space_group_name_H-M   'P 1'
_cell_length_a   4.44299899
_cell_length_b   7.77553074
_cell_length_c   10.87631313
_cell_angle_alpha   69.13963813
_cell_angle_beta   78.50869383
_cell_angle_gamma   89.84706818
_symmetry_Int_Tables_number   1
_chemical_formula_structural   RbSeO4
_chemical_formula_sum   'Rb3 Se3 O12'
_cell_volume   343.11544492
_cell_formula_units_Z   3
loop_
 _symmetry_equiv_pos_site_id
 _symmetry_equiv_pos_as_xyz
  1  'x, y, z'
loop_
 _atom_site_type_symbol
 _atom_site_label
 _atom_site_symmetry_multiplicity
 _atom_site_fract_x
 _atom_site_fract_y
 _atom_site_fract_z
 _atom_site_occupancy
  Rb  Rb0  1  0.08807704  0.80479203  0.45700325  1
  Rb  Rb1  1  0.51347129  0.21353990  0.78906862  1
  Rb  Rb2  1  0.67479969  0.54295082  0.13107687  1
  Se  Se3  1  0.38357292  0.71369825  0.79079199  1
  Se  Se4  1  0.80428760  0.04529242  0.12993084  1
  Se  Se5  1  0.09469645  0.30285105  0.45979861  1
  O  O6  1  0.54521989  0.20260535  0.07334332  1
  O  O7  1  0.05260104  0.48631541  0.32992600  1
  O  O8  1  0.04077244  0.14578778  0.19647792  1
  O  O9  1  0.19513912  0.54257154  0.92485845  1
  O  O10  1  0.14654492  0.88025784  0.72328797  1
  O  O11  1  0.63078890  0.85560135  0.25256805  1
  O  O12  1  0.55721592  0.64325693  0.66965663  1
  O  O13  1  0.40185563  0.19545267  0.40334428  1
  O  O14  1  0.78297704  0.14319175  0.51743492  1
  O  O15  1  0.99377762  0.00421232  0.99745873  1
  O  O16  1  0.64243643  0.81571827  0.84641270  1
  O  O17  1  0.14066607  0.35771433  0.58874085  1
