# generated using pymatgen
data_Yb2B6Rh
_symmetry_space_group_name_H-M   'P 1'
_cell_length_a   3.67994027
_cell_length_b   9.07109378
_cell_length_c   11.43611023
_cell_angle_alpha   90.00000000
_cell_angle_beta   90.00000000
_cell_angle_gamma   90.00000000
_symmetry_Int_Tables_number   1
_chemical_formula_structural   Yb2B6Rh
_chemical_formula_sum   'Yb8 B24 Rh4'
_cell_volume   381.74974815
_cell_formula_units_Z   4
loop_
 _symmetry_equiv_pos_site_id
 _symmetry_equiv_pos_as_xyz
  1  'x, y, z'
loop_
 _atom_site_type_symbol
 _atom_site_label
 _atom_site_symmetry_multiplicity
 _atom_site_fract_x
 _atom_site_fract_y
 _atom_site_fract_z
 _atom_site_occupancy
  Yb  Yb0  1  0.50000000  0.32433501  0.41406040  1
  Yb  Yb1  1  0.50000000  0.67566499  0.58593960  1
  Yb  Yb2  1  0.50000000  0.17566499  0.91406040  1
  Yb  Yb3  1  0.50000000  0.82433501  0.08593960  1
  Yb  Yb4  1  0.50000000  0.44305622  0.13384753  1
  Yb  Yb5  1  0.50000000  0.55694378  0.86615247  1
  Yb  Yb6  1  0.50000000  0.05694378  0.63384753  1
  Yb  Yb7  1  0.50000000  0.94305622  0.36615247  1
  B  B8  1  0.00000000  0.09440972  0.47446967  1
  B  B9  1  -0.00000000  0.90559028  0.52553033  1
  B  B10  1  -0.00000000  0.40559028  0.97446967  1
  B  B11  1  0.00000000  0.59440972  0.02553033  1
  B  B12  1  0.00000000  0.13070681  0.31463728  1
  B  B13  1  -0.00000000  0.86929319  0.68536272  1
  B  B14  1  0.00000000  0.36929319  0.81463728  1
  B  B15  1  0.00000000  0.63070681  0.18536272  1
  B  B16  1  0.00000000  0.05545934  0.06784723  1
  B  B17  1  0.00000000  0.94454066  0.93215277  1
  B  B18  1  -0.00000000  0.44454066  0.56784723  1
  B  B19  1  0.00000000  0.55545934  0.43215277  1
  B  B20  1  -0.00000000  0.48494776  0.28870199  1
  B  B21  1  -0.00000000  0.51505224  0.71129801  1
  B  B22  1  0.00000000  0.01505224  0.78870199  1
  B  B23  1  0.00000000  0.98494776  0.21129801  1
  B  B24  1  -0.00000000  0.25131424  0.08180622  1
  B  B25  1  0.00000000  0.74868576  0.91819378  1
  B  B26  1  0.00000000  0.24868576  0.58180622  1
  B  B27  1  -0.00000000  0.75131424  0.41819378  1
  B  B28  1  -0.00000000  0.29161775  0.23505563  1
  B  B29  1  0.00000000  0.70838225  0.76494437  1
  B  B30  1  -0.00000000  0.20838225  0.73505563  1
  B  B31  1  -0.00000000  0.79161775  0.26494437  1
  Rh  Rh32  1  0.50000000  0.14035441  0.17971155  1
  Rh  Rh33  1  0.50000000  0.85964559  0.82028845  1
  Rh  Rh34  1  0.50000000  0.35964559  0.67971155  1
  Rh  Rh35  1  0.50000000  0.64035441  0.32028845  1
