# generated using pymatgen
data_Sm6Al39V8
_symmetry_space_group_name_H-M   'P 1'
_cell_length_a   11.05386223
_cell_length_b   11.05386223
_cell_length_c   17.62277774
_cell_angle_alpha   90.00000000
_cell_angle_beta   90.00000000
_cell_angle_gamma   119.99999693
_symmetry_Int_Tables_number   1
_chemical_formula_structural   Sm6Al39V8
_chemical_formula_sum   'Sm12 Al78 V16'
_cell_volume   1864.80362037
_cell_formula_units_Z   2
loop_
 _symmetry_equiv_pos_site_id
 _symmetry_equiv_pos_as_xyz
  1  'x, y, z'
loop_
 _atom_site_type_symbol
 _atom_site_label
 _atom_site_symmetry_multiplicity
 _atom_site_fract_x
 _atom_site_fract_y
 _atom_site_fract_z
 _atom_site_occupancy
  Sm  Sm0  1  0.46602893  0.46602893  0.90121246  1
  Sm  Sm1  1  0.53397107  0.53397107  0.09878754  1
  Sm  Sm2  1  1.00000000  0.53397107  0.90121246  1
  Sm  Sm3  1  0.53397107  0.53397107  0.40121246  1
  Sm  Sm4  1  1.00000000  0.53397107  0.59878754  1
  Sm  Sm5  1  0.00000000  0.46602893  0.09878754  1
  Sm  Sm6  1  0.46602893  0.46602893  0.59878754  1
  Sm  Sm7  1  0.00000000  0.46602893  0.40121246  1
  Sm  Sm8  1  0.53397107  1.00000000  0.90121246  1
  Sm  Sm9  1  0.46602893  0.00000000  0.09878754  1
  Sm  Sm10  1  0.46602893  0.00000000  0.40121246  1
  Sm  Sm11  1  0.53397107  1.00000000  0.59878754  1
  Al  Al12  1  0.84523613  0.44924605  0.75000000  1
  Al  Al13  1  0.15476387  0.55075395  0.25000000  1
  Al  Al14  1  0.60400993  0.15476387  0.75000000  1
  Al  Al15  1  0.39599007  0.55075395  0.75000000  1
  Al  Al16  1  0.39599007  0.84523613  0.25000000  1
  Al  Al17  1  0.60400993  0.44924605  0.25000000  1
  Al  Al18  1  0.55075395  0.39599007  0.75000000  1
  Al  Al19  1  0.44924605  0.84523613  0.75000000  1
  Al  Al20  1  0.44924605  0.60400993  0.25000000  1
  Al  Al21  1  0.55075395  0.15476387  0.25000000  1
  Al  Al22  1  0.15476387  0.60400993  0.75000000  1
  Al  Al23  1  0.84523613  0.39599007  0.25000000  1
  Al  Al24  1  0.84641391  0.84641391  0.38309913  1
  Al  Al25  1  0.15358609  0.15358609  0.61690087  1
  Al  Al26  1  0.00000000  0.15358609  0.38309913  1
  Al  Al27  1  0.15358609  0.15358609  0.88309913  1
  Al  Al28  1  0.00000000  0.15358609  0.11690087  1
  Al  Al29  1  1.00000000  0.84641391  0.61690087  1
  Al  Al30  1  0.84641391  0.84641391  0.11690087  1
  Al  Al31  1  1.00000000  0.84641391  0.88309913  1
  Al  Al32  1  0.15358609  0.00000000  0.38309913  1
  Al  Al33  1  0.84641391  1.00000000  0.61690087  1
  Al  Al34  1  0.84641391  1.00000000  0.88309913  1
  Al  Al35  1  0.15358609  0.00000000  0.11690087  1
  Al  Al36  1  0.74973005  0.25026995  0.00000000  1
  Al  Al37  1  0.25026995  0.74973005  0.00000000  1
  Al  Al38  1  0.50053989  0.25026995  0.00000000  1
  Al  Al39  1  0.25026995  0.74973005  0.50000000  1
  Al  Al40  1  0.49946011  0.74973005  0.50000000  1
  Al  Al41  1  0.49946011  0.74973005  0.00000000  1
  Al  Al42  1  0.74973005  0.25026995  0.50000000  1
  Al  Al43  1  0.50053989  0.25026995  0.50000000  1
  Al  Al44  1  0.74973005  0.49946011  0.00000000  1
  Al  Al45  1  0.25026995  0.50053989  0.00000000  1
  Al  Al46  1  0.25026995  0.50053989  0.50000000  1
  Al  Al47  1  0.74973005  0.49946011  0.50000000  1
  Al  Al48  1  0.85011543  0.85011543  0.75000000  1
  Al  Al49  1  0.14988457  0.14988457  0.25000000  1
  Al  Al50  1  1.00000000  0.14988457  0.75000000  1
  Al  Al51  1  0.00000000  0.85011543  0.25000000  1
  Al  Al52  1  0.14988457  1.00000000  0.75000000  1
  Al  Al53  1  0.85011543  0.00000000  0.25000000  1
  Al  Al54  1  0.75040646  0.75040646  0.97075301  1
  Al  Al55  1  0.24959354  0.24959354  0.02924699  1
  Al  Al56  1  0.00000000  0.24959354  0.97075301  1
  Al  Al57  1  0.24959354  0.24959354  0.47075301  1
  Al  Al58  1  0.00000000  0.24959354  0.52924699  1
  Al  Al59  1  1.00000000  0.75040646  0.02924699  1
  Al  Al60  1  0.75040646  0.75040646  0.52924699  1
  Al  Al61  1  1.00000000  0.75040646  0.47075301  1
  Al  Al62  1  0.24959354  0.00000000  0.97075301  1
  Al  Al63  1  0.75040646  1.00000000  0.02924699  1
  Al  Al64  1  0.75040646  1.00000000  0.47075301  1
  Al  Al65  1  0.24959354  0.00000000  0.52924699  1
  Al  Al66  1  0.83730518  0.23293749  0.83661806  1
  Al  Al67  1  0.16269482  0.76706251  0.16338194  1
  Al  Al68  1  0.39563231  0.16269482  0.83661806  1
  Al  Al69  1  0.16269482  0.76706251  0.33661806  1
  Al  Al70  1  0.60436769  0.76706251  0.66338194  1
  Al  Al71  1  0.60436769  0.83730518  0.16338194  1
  Al  Al72  1  0.83730518  0.23293749  0.66338194  1
  Al  Al73  1  0.39563231  0.23293749  0.33661806  1
  Al  Al74  1  0.76706251  0.60436769  0.83661806  1
  Al  Al75  1  0.60436769  0.83730518  0.33661806  1
  Al  Al76  1  0.23293749  0.83730518  0.66338194  1
  Al  Al77  1  0.23293749  0.39563231  0.16338194  1
  Al  Al78  1  0.39563231  0.16269482  0.66338194  1
  Al  Al79  1  0.76706251  0.16269482  0.33661806  1
  Al  Al80  1  0.39563231  0.23293749  0.16338194  1
  Al  Al81  1  0.60436769  0.76706251  0.83661806  1
  Al  Al82  1  0.23293749  0.39563231  0.33661806  1
  Al  Al83  1  0.76706251  0.16269482  0.16338194  1
  Al  Al84  1  0.76706251  0.60436769  0.66338194  1
  Al  Al85  1  0.23293749  0.83730518  0.83661806  1
  Al  Al86  1  0.16269482  0.39563231  0.66338194  1
  Al  Al87  1  0.83730518  0.60436769  0.33661806  1
  Al  Al88  1  0.83730518  0.60436769  0.16338194  1
  Al  Al89  1  0.16269482  0.39563231  0.83661806  1
  V  V90  1  0.66666700  0.33333300  0.86938270  1
  V  V91  1  0.33333300  0.66666700  0.13061730  1
  V  V92  1  0.33333300  0.66666700  0.36938270  1
  V  V93  1  0.33333300  0.66666700  0.63061730  1
  V  V94  1  0.66666700  0.33333300  0.63061730  1
  V  V95  1  0.66666700  0.33333300  0.36938270  1
  V  V96  1  0.66666700  0.33333300  0.13061730  1
  V  V97  1  0.33333300  0.66666700  0.86938270  1
  V  V98  1  0.00000000  -0.00000000  0.00000000  1
  V  V99  1  0.00000000  -0.00000000  0.50000000  1
  V  V100  1  0.26241181  0.26241181  0.75000000  1
  V  V101  1  0.73758819  0.73758819  0.25000000  1
  V  V102  1  1.00000000  0.73758819  0.75000000  1
  V  V103  1  0.00000000  0.26241181  0.25000000  1
  V  V104  1  0.73758819  1.00000000  0.75000000  1
  V  V105  1  0.26241181  0.00000000  0.25000000  1
