# generated using pymatgen
data_CaH2
_symmetry_space_group_name_H-M   'P 1'
_cell_length_a   3.77962920
_cell_length_b   3.82761112
_cell_length_c   5.34597101
_cell_angle_alpha   90.00000000
_cell_angle_beta   90.00000000
_cell_angle_gamma   119.58617141
_symmetry_Int_Tables_number   1
_chemical_formula_structural   CaH2
_chemical_formula_sum   'Ca2 H4'
_cell_volume   67.25586849
_cell_formula_units_Z   2
loop_
 _symmetry_equiv_pos_site_id
 _symmetry_equiv_pos_as_xyz
  1  'x, y, z'
loop_
 _atom_site_type_symbol
 _atom_site_label
 _atom_site_symmetry_multiplicity
 _atom_site_fract_x
 _atom_site_fract_y
 _atom_site_fract_z
 _atom_site_occupancy
  Ca  Ca0  1  0.33783285  0.17566570  0.25000000  1
  Ca  Ca1  1  0.66216715  0.82433430  0.75000000  1
  H  H2  1  0.66889622  0.83779244  0.25000000  1
  H  H3  1  0.33110378  0.16220756  0.75000000  1
  H  H4  1  0.00000000  0.50000000  -0.00000000  1
  H  H5  1  0.00000000  0.50000000  0.50000000  1
