# generated using pymatgen
data_ErTa5Ag2O15
_symmetry_space_group_name_H-M   'P 1'
_cell_length_a   3.91627375
_cell_length_b   12.59337297
_cell_length_c   12.59337297
_cell_angle_alpha   90.00000000
_cell_angle_beta   90.00000000
_cell_angle_gamma   90.00000000
_symmetry_Int_Tables_number   1
_chemical_formula_structural   ErTa5Ag2O15
_chemical_formula_sum   'Er2 Ta10 Ag4 O30'
_cell_volume   621.09377030
_cell_formula_units_Z   2
loop_
 _symmetry_equiv_pos_site_id
 _symmetry_equiv_pos_as_xyz
  1  'x, y, z'
loop_
 _atom_site_type_symbol
 _atom_site_label
 _atom_site_symmetry_multiplicity
 _atom_site_fract_x
 _atom_site_fract_y
 _atom_site_fract_z
 _atom_site_occupancy
  Er  Er0  1  0.50000000  -0.00000000  0.00000000  1
  Er  Er1  1  0.50000000  0.50000000  0.50000000  1
  Ta  Ta2  1  0.00000000  -0.00000000  0.50000000  1
  Ta  Ta3  1  0.00000000  0.50000000  0.00000000  1
  Ta  Ta4  1  -0.00000000  0.07856677  0.21076460  1
  Ta  Ta5  1  -0.00000000  0.92143323  0.78923540  1
  Ta  Ta6  1  -0.00000000  0.78923540  0.07856677  1
  Ta  Ta7  1  -0.00000000  0.42143323  0.71076460  1
  Ta  Ta8  1  0.00000000  0.21076460  0.92143323  1
  Ta  Ta9  1  0.00000000  0.57856677  0.28923540  1
  Ta  Ta10  1  0.00000000  0.71076460  0.57856677  1
  Ta  Ta11  1  0.00000000  0.28923540  0.42143323  1
  Ag  Ag12  1  0.50000000  0.17206811  0.67206811  1
  Ag  Ag13  1  0.50000000  0.82793189  0.32793189  1
  Ag  Ag14  1  0.50000000  0.32793189  0.17206811  1
  Ag  Ag15  1  0.50000000  0.67206811  0.82793189  1
  O  O16  1  0.50000000  0.07972544  0.18796573  1
  O  O17  1  0.50000000  0.92027456  0.81203427  1
  O  O18  1  0.50000000  0.81203427  0.07972544  1
  O  O19  1  0.50000000  0.42027456  0.68796573  1
  O  O20  1  0.50000000  0.18796573  0.92027456  1
  O  O21  1  0.50000000  0.57972544  0.31203427  1
  O  O22  1  0.50000000  0.68796573  0.57972544  1
  O  O23  1  0.50000000  0.31203427  0.42027456  1
  O  O24  1  -0.00000000  0.72458894  0.22458894  1
  O  O25  1  -0.00000000  0.27541106  0.77541106  1
  O  O26  1  0.00000000  0.77541106  0.72458894  1
  O  O27  1  0.00000000  0.22458894  0.27541106  1
  O  O28  1  0.50000000  -0.00000000  0.50000000  1
  O  O29  1  0.50000000  0.50000000  0.00000000  1
  O  O30  1  0.00000000  0.12958852  0.05659409  1
  O  O31  1  -0.00000000  0.87041148  0.94340591  1
  O  O32  1  0.00000000  0.94340591  0.12958852  1
  O  O33  1  -0.00000000  0.37041148  0.55659409  1
  O  O34  1  -0.00000000  0.05659409  0.87041148  1
  O  O35  1  0.00000000  0.62958852  0.44340591  1
  O  O36  1  0.00000000  0.55659409  0.62958852  1
  O  O37  1  0.00000000  0.44340591  0.37041148  1
  O  O38  1  -0.00000000  0.99924024  0.34090137  1
  O  O39  1  -0.00000000  0.00075976  0.65909863  1
  O  O40  1  -0.00000000  0.65909863  0.99924024  1
  O  O41  1  -0.00000000  0.50075976  0.84090137  1
  O  O42  1  0.00000000  0.34090137  0.00075976  1
  O  O43  1  0.00000000  0.49924024  0.15909863  1
  O  O44  1  0.00000000  0.84090137  0.49924024  1
  O  O45  1  -0.00000000  0.15909863  0.50075976  1
