# generated using pymatgen
data_Pr3AlCo8
_symmetry_space_group_name_H-M   'P 1'
_cell_length_a   5.16048245
_cell_length_b   5.16048245
_cell_length_c   16.39927321
_cell_angle_alpha   90.00000000
_cell_angle_beta   90.00000000
_cell_angle_gamma   119.99999117
_symmetry_Int_Tables_number   1
_chemical_formula_structural   Pr3AlCo8
_chemical_formula_sum   'Pr6 Al2 Co16'
_cell_volume   378.21250381
_cell_formula_units_Z   2
loop_
 _symmetry_equiv_pos_site_id
 _symmetry_equiv_pos_as_xyz
  1  'x, y, z'
loop_
 _atom_site_type_symbol
 _atom_site_label
 _atom_site_symmetry_multiplicity
 _atom_site_fract_x
 _atom_site_fract_y
 _atom_site_fract_z
 _atom_site_occupancy
  Pr  Pr0  1  0.66666700  0.33333300  0.45489944  1
  Pr  Pr1  1  0.33333300  0.66666700  0.54510056  1
  Pr  Pr2  1  0.33333300  0.66666700  0.95489944  1
  Pr  Pr3  1  0.66666700  0.33333300  0.04510056  1
  Pr  Pr4  1  0.66666700  0.33333300  0.25000000  1
  Pr  Pr5  1  0.33333300  0.66666700  0.75000000  1
  Al  Al6  1  0.00000000  0.00000000  -0.00000000  1
  Al  Al7  1  0.00000000  0.00000000  0.50000000  1
  Co  Co8  1  0.83293953  0.16706047  0.86857984  1
  Co  Co9  1  0.16706047  0.83293953  0.13142016  1
  Co  Co10  1  0.33412095  0.16706047  0.86857984  1
  Co  Co11  1  0.16706047  0.83293953  0.36857984  1
  Co  Co12  1  0.66587905  0.83293953  0.13142016  1
  Co  Co13  1  0.83293953  0.16706047  0.63142016  1
  Co  Co14  1  0.83293953  0.66587905  0.86857984  1
  Co  Co15  1  0.66587905  0.83293953  0.36857984  1
  Co  Co16  1  0.16706047  0.33412095  0.13142016  1
  Co  Co17  1  0.33412095  0.16706047  0.63142016  1
  Co  Co18  1  0.16706047  0.33412095  0.36857984  1
  Co  Co19  1  0.83293953  0.66587905  0.63142016  1
  Co  Co20  1  0.00000000  0.00000000  0.75000000  1
  Co  Co21  1  0.00000000  0.00000000  0.25000000  1
  Co  Co22  1  0.66666700  0.33333300  0.75000000  1
  Co  Co23  1  0.33333300  0.66666700  0.25000000  1
