# generated using pymatgen
data_La2MgNbO6
_symmetry_space_group_name_H-M   'P 1'
_cell_length_a   5.70928500
_cell_length_b   5.73458968
_cell_length_c   8.03392290
_cell_angle_alpha   90.00000000
_cell_angle_beta   89.93919703
_cell_angle_gamma   90.00000000
_symmetry_Int_Tables_number   1
_chemical_formula_structural   La2MgNbO6
_chemical_formula_sum   'La4 Mg2 Nb2 O12'
_cell_volume   263.03375633
_cell_formula_units_Z   2
loop_
 _symmetry_equiv_pos_site_id
 _symmetry_equiv_pos_as_xyz
  1  'x, y, z'
loop_
 _atom_site_type_symbol
 _atom_site_label
 _atom_site_symmetry_multiplicity
 _atom_site_fract_x
 _atom_site_fract_y
 _atom_site_fract_z
 _atom_site_occupancy
  La  La0  1  0.00969959  0.44375887  0.24916147  1
  La  La1  1  0.99030041  0.55624113  0.75083853  1
  La  La2  1  0.49030041  0.94375887  0.25083853  1
  La  La3  1  0.50969959  0.05624113  0.74916147  1
  Mg  Mg4  1  -0.00000000  0.00000000  0.50000000  1
  Mg  Mg5  1  0.50000000  0.50000000  -0.00000000  1
  Nb  Nb6  1  -0.00000000  0.00000000  -0.00000000  1
  Nb  Nb7  1  0.50000000  0.50000000  0.50000000  1
  O  O8  1  0.20268202  0.70648251  0.05384427  1
  O  O9  1  0.79731798  0.29351749  0.94615573  1
  O  O10  1  0.29731798  0.20648251  0.44615573  1
  O  O11  1  0.70268202  0.79351749  0.55384427  1
  O  O12  1  0.29647048  0.19569855  0.04576152  1
  O  O13  1  0.70352952  0.80430145  0.95423848  1
  O  O14  1  0.20352952  0.69569855  0.45423848  1
  O  O15  1  0.79647048  0.30430145  0.54576152  1
  O  O16  1  0.90549965  0.01792078  0.24917382  1
  O  O17  1  0.09450035  0.98207922  0.75082618  1
  O  O18  1  0.59450035  0.51792078  0.25082618  1
  O  O19  1  0.40549965  0.48207922  0.74917382  1
