# generated using pymatgen
data_Na3P6(PbO9)2
_symmetry_space_group_name_H-M   'P 1'
_cell_length_a   7.79122269
_cell_length_b   7.80857464
_cell_length_c   8.36413771
_cell_angle_alpha   117.63328127
_cell_angle_beta   102.82010008
_cell_angle_gamma   96.00305714
_symmetry_Int_Tables_number   1
_chemical_formula_structural   Na3P6(PbO9)2
_chemical_formula_sum   'Na3 P6 Pb2 O18'
_cell_volume   426.70925998
_cell_formula_units_Z   1
loop_
 _symmetry_equiv_pos_site_id
 _symmetry_equiv_pos_as_xyz
  1  'x, y, z'
loop_
 _atom_site_type_symbol
 _atom_site_label
 _atom_site_symmetry_multiplicity
 _atom_site_fract_x
 _atom_site_fract_y
 _atom_site_fract_z
 _atom_site_occupancy
  Na  Na0  1  0.32773980  0.65135407  0.46903640  1
  Na  Na1  1  0.67226020  0.34864593  0.53096360  1
  Na  Na2  1  -0.00000000  0.50000000  0.00000000  1
  P  P3  1  0.01183883  0.22188175  0.27594864  1
  P  P4  1  0.98816117  0.77811825  0.72405136  1
  P  P5  1  0.25879606  0.33955822  0.64927910  1
  P  P6  1  0.74120394  0.66044178  0.35072090  1
  P  P7  1  0.73471646  0.01504013  0.68650830  1
  P  P8  1  0.26528354  0.98495987  0.31349170  1
  Pb  Pb9  1  0.39637489  0.18414628  0.03200144  1
  Pb  Pb10  1  0.60362511  0.81585372  0.96799856  1
  O  O11  1  0.06789862  0.32169646  0.50608666  1
  O  O12  1  0.93210138  0.67830354  0.49391334  1
  O  O13  1  0.24463123  0.77150392  0.25731043  1
  O  O14  1  0.75536877  0.22849608  0.74268957  1
  O  O15  1  0.80807214  0.16742122  0.20511438  1
  O  O16  1  0.19192786  0.83257878  0.79488562  1
  O  O17  1  0.22916765  0.37572437  0.83107921  1
  O  O18  1  0.77083235  0.62427563  0.16892079  1
  O  O19  1  0.58987482  0.52136489  0.35009588  1
  O  O20  1  0.41012518  0.47863511  0.64990412  1
  O  O21  1  0.28251456  0.11159651  0.53738219  1
  O  O22  1  0.71748544  0.88840349  0.46261781  1
  O  O23  1  0.41719941  0.08836706  0.27904293  1
  O  O24  1  0.58280059  0.91163294  0.72095707  1
  O  O25  1  0.11984702  0.34775754  0.22361544  1
  O  O26  1  0.88015298  0.65224246  0.77638456  1
  O  O27  1  0.07414311  0.01258728  0.21437129  1
  O  O28  1  0.92585689  0.98741272  0.78562871  1
