# generated using pymatgen
data_Mg2BO4
_symmetry_space_group_name_H-M   'P 1'
_cell_length_a   3.12392632
_cell_length_b   9.65035305
_cell_length_c   9.39312409
_cell_angle_alpha   90.00000000
_cell_angle_beta   90.00000000
_cell_angle_gamma   90.00000000
_symmetry_Int_Tables_number   1
_chemical_formula_structural   Mg2BO4
_chemical_formula_sum   'Mg8 B4 O16'
_cell_volume   283.17443576
_cell_formula_units_Z   4
loop_
 _symmetry_equiv_pos_site_id
 _symmetry_equiv_pos_as_xyz
  1  'x, y, z'
loop_
 _atom_site_type_symbol
 _atom_site_label
 _atom_site_symmetry_multiplicity
 _atom_site_fract_x
 _atom_site_fract_y
 _atom_site_fract_z
 _atom_site_occupancy
  Mg  Mg0  1  0.75000000  0.89328016  0.30421084  1
  Mg  Mg1  1  0.25000000  0.10671984  0.69578916  1
  Mg  Mg2  1  0.25000000  0.60671984  0.80421084  1
  Mg  Mg3  1  0.75000000  0.39328016  0.19578916  1
  Mg  Mg4  1  0.75000000  0.86268407  0.93318402  1
  Mg  Mg5  1  0.25000000  0.13731593  0.06681598  1
  Mg  Mg6  1  0.25000000  0.63731593  0.43318402  1
  Mg  Mg7  1  0.75000000  0.36268407  0.56681598  1
  B  B8  1  0.75000000  0.83220255  0.62941607  1
  B  B9  1  0.25000000  0.16779745  0.37058393  1
  B  B10  1  0.25000000  0.66779745  0.12941607  1
  B  B11  1  0.75000000  0.33220255  0.87058393  1
  O  O12  1  0.75000000  0.74661840  0.74833090  1
  O  O13  1  0.25000000  0.25338160  0.25166910  1
  O  O14  1  0.25000000  0.75338160  0.24833090  1
  O  O15  1  0.75000000  0.24661840  0.75166910  1
  O  O16  1  0.75000000  0.97401501  0.65025072  1
  O  O17  1  0.25000000  0.02598499  0.34974928  1
  O  O18  1  0.25000000  0.52598499  0.15025072  1
  O  O19  1  0.75000000  0.47401501  0.84974928  1
  O  O20  1  0.75000000  0.77748002  0.49365776  1
  O  O21  1  0.25000000  0.22251998  0.50634224  1
  O  O22  1  0.25000000  0.72251998  0.99365776  1
  O  O23  1  0.75000000  0.27748002  0.00634224  1
  O  O24  1  0.75000000  0.49661367  0.39543659  1
  O  O25  1  0.25000000  0.50338633  0.60456341  1
  O  O26  1  0.25000000  0.00338633  0.89543659  1
  O  O27  1  0.75000000  0.99661367  0.10456341  1
