# generated using pymatgen
data_Nd3(Co2Sn)4
_symmetry_space_group_name_H-M   'P 1'
_cell_length_a   7.59124159
_cell_length_b   9.01542293
_cell_length_c   9.01542293
_cell_angle_alpha   119.99999565
_cell_angle_beta   90.00000000
_cell_angle_gamma   90.00000000
_symmetry_Int_Tables_number   1
_chemical_formula_structural   Nd3(Co2Sn)4
_chemical_formula_sum   'Nd6 Co16 Sn8'
_cell_volume   534.33752393
_cell_formula_units_Z   2
loop_
 _symmetry_equiv_pos_site_id
 _symmetry_equiv_pos_as_xyz
  1  'x, y, z'
loop_
 _atom_site_type_symbol
 _atom_site_label
 _atom_site_symmetry_multiplicity
 _atom_site_fract_x
 _atom_site_fract_y
 _atom_site_fract_z
 _atom_site_occupancy
  Nd  Nd0  1  0.77777392  0.47258496  0.94516993  1
  Nd  Nd1  1  0.77777392  0.47258496  0.52741504  1
  Nd  Nd2  1  0.27777392  0.52741504  0.05483007  1
  Nd  Nd3  1  0.77777392  0.05483007  0.52741504  1
  Nd  Nd4  1  0.27777392  0.52741504  0.47258496  1
  Nd  Nd5  1  0.27777392  0.94516993  0.47258496  1
  Co  Co6  1  0.75318342  0.09503988  0.19007976  1
  Co  Co7  1  0.75318342  0.09503988  0.90496012  1
  Co  Co8  1  0.25318342  0.90496012  0.80992024  1
  Co  Co9  1  0.75318342  0.80992024  0.90496012  1
  Co  Co10  1  0.25318342  0.90496012  0.09503988  1
  Co  Co11  1  0.25318342  0.19007976  0.09503988  1
  Co  Co12  1  0.94433572  0.84402927  0.68805854  1
  Co  Co13  1  0.94433572  0.84402927  0.15597073  1
  Co  Co14  1  0.44433572  0.15597073  0.31194146  1
  Co  Co15  1  0.94433572  0.31194146  0.15597073  1
  Co  Co16  1  0.44433572  0.15597073  0.84402927  1
  Co  Co17  1  0.44433572  0.68805854  0.84402927  1
  Co  Co18  1  0.99721928  0.00000000  -0.00000000  1
  Co  Co19  1  0.49721928  0.00000000  -0.00000000  1
  Co  Co20  1  0.58248487  0.66666700  0.33333300  1
  Co  Co21  1  0.08248487  0.33333300  0.66666700  1
  Sn  Sn22  1  0.94563947  0.66666700  0.33333300  1
  Sn  Sn23  1  0.44563947  0.33333300  0.66666700  1
  Sn  Sn24  1  0.57142574  0.83044440  0.66088879  1
  Sn  Sn25  1  0.57142574  0.83044440  0.16955560  1
  Sn  Sn26  1  0.07142574  0.16955560  0.33911121  1
  Sn  Sn27  1  0.57142574  0.33911121  0.16955560  1
  Sn  Sn28  1  0.07142574  0.16955560  0.83044440  1
  Sn  Sn29  1  0.07142574  0.66088879  0.83044440  1
