# generated using pymatgen
data_K2HoNb5O15
_symmetry_space_group_name_H-M   'P 1'
_cell_length_a   3.95326069
_cell_length_b   12.73894059
_cell_length_c   12.73894059
_cell_angle_alpha   90.00000000
_cell_angle_beta   90.00000000
_cell_angle_gamma   90.00000000
_symmetry_Int_Tables_number   1
_chemical_formula_structural   K2HoNb5O15
_chemical_formula_sum   'K4 Ho2 Nb10 O30'
_cell_volume   641.53754581
_cell_formula_units_Z   2
loop_
 _symmetry_equiv_pos_site_id
 _symmetry_equiv_pos_as_xyz
  1  'x, y, z'
loop_
 _atom_site_type_symbol
 _atom_site_label
 _atom_site_symmetry_multiplicity
 _atom_site_fract_x
 _atom_site_fract_y
 _atom_site_fract_z
 _atom_site_occupancy
  K  K0  1  0.50000000  0.16985813  0.66985813  1
  K  K1  1  0.50000000  0.83014187  0.33014187  1
  K  K2  1  0.50000000  0.33014187  0.16985813  1
  K  K3  1  0.50000000  0.66985813  0.83014187  1
  Ho  Ho4  1  0.50000000  0.00000000  -0.00000000  1
  Ho  Ho5  1  0.50000000  0.50000000  0.50000000  1
  Nb  Nb6  1  0.00000000  0.00000000  0.50000000  1
  Nb  Nb7  1  0.00000000  0.50000000  -0.00000000  1
  Nb  Nb8  1  -0.00000000  0.07644334  0.21165915  1
  Nb  Nb9  1  0.00000000  0.92355666  0.78834085  1
  Nb  Nb10  1  -0.00000000  0.78834085  0.07644334  1
  Nb  Nb11  1  0.00000000  0.42355666  0.71165915  1
  Nb  Nb12  1  0.00000000  0.21165915  0.92355666  1
  Nb  Nb13  1  -0.00000000  0.57644334  0.28834085  1
  Nb  Nb14  1  0.00000000  0.71165915  0.57644334  1
  Nb  Nb15  1  -0.00000000  0.28834085  0.42355666  1
  O  O16  1  0.50000000  0.07812970  0.18427825  1
  O  O17  1  0.50000000  0.92187030  0.81572175  1
  O  O18  1  0.50000000  0.81572175  0.07812970  1
  O  O19  1  0.50000000  0.42187030  0.68427825  1
  O  O20  1  0.50000000  0.18427825  0.92187030  1
  O  O21  1  0.50000000  0.57812970  0.31572175  1
  O  O22  1  0.50000000  0.68427825  0.57812970  1
  O  O23  1  0.50000000  0.31572175  0.42187030  1
  O  O24  1  -0.00000000  0.71734997  0.21734997  1
  O  O25  1  0.00000000  0.28265003  0.78265003  1
  O  O26  1  0.00000000  0.78265003  0.71734997  1
  O  O27  1  -0.00000000  0.21734997  0.28265003  1
  O  O28  1  0.50000000  0.00000000  0.50000000  1
  O  O29  1  0.50000000  0.50000000  -0.00000000  1
  O  O30  1  0.00000000  0.13038413  0.05756422  1
  O  O31  1  -0.00000000  0.86961587  0.94243578  1
  O  O32  1  -0.00000000  0.94243578  0.13038413  1
  O  O33  1  -0.00000000  0.36961587  0.55756422  1
  O  O34  1  0.00000000  0.05756422  0.86961587  1
  O  O35  1  0.00000000  0.63038413  0.44243578  1
  O  O36  1  0.00000000  0.55756422  0.63038413  1
  O  O37  1  -0.00000000  0.44243578  0.36961587  1
  O  O38  1  0.00000000  0.99951585  0.34186358  1
  O  O39  1  -0.00000000  0.00048415  0.65813642  1
  O  O40  1  -0.00000000  0.65813642  0.99951585  1
  O  O41  1  -0.00000000  0.50048415  0.84186358  1
  O  O42  1  0.00000000  0.34186358  0.00048415  1
  O  O43  1  0.00000000  0.49951585  0.15813642  1
  O  O44  1  0.00000000  0.84186358  0.49951585  1
  O  O45  1  -0.00000000  0.15813642  0.50048415  1
