# generated using pymatgen
data_Pb7(ClO4)2
_symmetry_space_group_name_H-M   'P 1'
_cell_length_a   7.18773162
_cell_length_b   7.31086582
_cell_length_c   20.32740788
_cell_angle_alpha   90.00000000
_cell_angle_beta   90.00000000
_cell_angle_gamma   48.65268370
_symmetry_Int_Tables_number   1
_chemical_formula_structural   Pb7(ClO4)2
_chemical_formula_sum   'Pb14 Cl4 O16'
_cell_volume   801.89956468
_cell_formula_units_Z   2
loop_
 _symmetry_equiv_pos_site_id
 _symmetry_equiv_pos_as_xyz
  1  'x, y, z'
loop_
 _atom_site_type_symbol
 _atom_site_label
 _atom_site_symmetry_multiplicity
 _atom_site_fract_x
 _atom_site_fract_y
 _atom_site_fract_z
 _atom_site_occupancy
  Pb  Pb0  1  0.96485668  0.68867062  0.99738209  1
  Pb  Pb1  1  0.03514332  0.31132938  0.49738209  1
  Pb  Pb2  1  0.62186770  0.33156817  0.02820725  1
  Pb  Pb3  1  0.37813230  0.66843183  0.52820725  1
  Pb  Pb4  1  0.14663149  0.85610491  0.87253070  1
  Pb  Pb5  1  0.85336851  0.14389509  0.37253070  1
  Pb  Pb6  1  0.47369011  0.15713900  0.86646177  1
  Pb  Pb7  1  0.52630989  0.84286100  0.36646177  1
  Pb  Pb8  1  0.34519769  0.19711939  0.15117928  1
  Pb  Pb9  1  0.65480231  0.80288061  0.65117928  1
  Pb  Pb10  1  0.01322666  0.83167953  0.16016308  1
  Pb  Pb11  1  0.98677334  0.16832047  0.66016308  1
  Pb  Pb12  1  0.76216438  0.44056089  0.22842497  1
  Pb  Pb13  1  0.23783562  0.55943911  0.72842497  1
  Cl  Cl14  1  0.21908502  0.97568348  0.06550177  1
  Cl  Cl15  1  0.78091498  0.02431652  0.56550177  1
  Cl  Cl16  1  0.79399666  0.53719975  0.92973285  1
  Cl  Cl17  1  0.20600334  0.46280025  0.42973285  1
  O  O18  1  0.74533155  0.95584343  0.07205243  1
  O  O19  1  0.25466845  0.04415657  0.57205243  1
  O  O20  1  0.24157395  0.47149281  0.07310301  1
  O  O21  1  0.75842605  0.52850719  0.57310301  1
  O  O22  1  0.28930520  0.51703273  0.93615892  1
  O  O23  1  0.71069480  0.48296727  0.43615892  1
  O  O24  1  0.80204452  0.01646937  0.93656399  1
  O  O25  1  0.19795548  0.98353063  0.43656399  1
  O  O26  1  0.46041183  0.67490008  0.29122253  1
  O  O27  1  0.53958817  0.32509992  0.79122253  1
  O  O28  1  0.03137810  0.21182449  0.30162040  1
  O  O29  1  0.96862190  0.78817551  0.80162040  1
  O  O30  1  0.67112745  0.26106532  0.17366915  1
  O  O31  1  0.32887255  0.73893468  0.67366915  1
  O  O32  1  0.93153122  0.55098612  0.17952479  1
  O  O33  1  0.06846778  0.44901388  0.67952479  1
