# generated using pymatgen
data_YZrS2
_symmetry_space_group_name_H-M   'P 1'
_cell_length_a   3.85648221
_cell_length_b   3.85648221
_cell_length_c   6.48974202
_cell_angle_alpha   72.71521173
_cell_angle_beta   90.00000000
_cell_angle_gamma   120.00000000
_symmetry_Int_Tables_number   1
_chemical_formula_structural   YZrS2
_chemical_formula_sum   'Y1 Zr1 S2'
_cell_volume   78.51395635
_cell_formula_units_Z   1
loop_
 _symmetry_equiv_pos_site_id
 _symmetry_equiv_pos_as_xyz
  1  'x, y, z'
loop_
 _atom_site_type_symbol
 _atom_site_label
 _atom_site_symmetry_multiplicity
 _atom_site_fract_x
 _atom_site_fract_y
 _atom_site_fract_z
 _atom_site_occupancy
  Y  Y0  1  -0.00000000  -0.00000000  0.00000000  1
  Zr  Zr1  1  0.50000000  -0.00000000  0.50000000  1
  S  S2  1  0.24657484  0.49314969  0.26027547  1
  S  S3  1  0.75342516  0.50685031  0.73972453  1
