# generated using pymatgen
data_Ca7(Mg3Si7)2
_symmetry_space_group_name_H-M   'P 1'
_cell_length_a   4.21525717
_cell_length_b   12.93437451
_cell_length_c   12.93437451
_cell_angle_alpha   120.00000128
_cell_angle_beta   90.00000000
_cell_angle_gamma   90.00000000
_symmetry_Int_Tables_number   1
_chemical_formula_structural   Ca7(Mg3Si7)2
_chemical_formula_sum   'Ca7 Mg6 Si14'
_cell_volume   610.72481291
_cell_formula_units_Z   1
loop_
 _symmetry_equiv_pos_site_id
 _symmetry_equiv_pos_as_xyz
  1  'x, y, z'
loop_
 _atom_site_type_symbol
 _atom_site_label
 _atom_site_symmetry_multiplicity
 _atom_site_fract_x
 _atom_site_fract_y
 _atom_site_fract_z
 _atom_site_occupancy
  Ca  Ca0  1  0.00000000  0.81339005  0.18660995  1
  Ca  Ca1  1  -0.00000000  0.18660995  0.81339005  1
  Ca  Ca2  1  -0.00000000  0.37321991  0.18660995  1
  Ca  Ca3  1  0.00000000  0.62678009  0.81339005  1
  Ca  Ca4  1  -0.00000000  0.81339005  0.62678009  1
  Ca  Ca5  1  0.00000000  0.18660995  0.37321991  1
  Ca  Ca6  1  -0.00000000  0.00000000  -0.00000000  1
  Mg  Mg7  1  0.50000000  0.41368094  0.58631906  1
  Mg  Mg8  1  0.50000000  0.58631906  0.41368094  1
  Mg  Mg9  1  0.50000000  0.17263812  0.58631906  1
  Mg  Mg10  1  0.50000000  0.82736188  0.41368094  1
  Mg  Mg11  1  0.50000000  0.41368094  0.82736188  1
  Mg  Mg12  1  0.50000000  0.58631906  0.17263812  1
  Si  Si13  1  0.50000000  0.64316440  0.64316440  1
  Si  Si14  1  0.50000000  0.35683560  0.35683560  1
  Si  Si15  1  0.50000000  0.00000000  0.35683560  1
  Si  Si16  1  0.50000000  1.00000000  0.64316440  1
  Si  Si17  1  0.50000000  0.35683560  0.00000000  1
  Si  Si18  1  0.50000000  0.64316440  1.00000000  1
  Si  Si19  1  0.50000000  0.81896890  0.81896890  1
  Si  Si20  1  0.50000000  0.18103110  0.18103110  1
  Si  Si21  1  0.50000000  0.00000000  0.18103110  1
  Si  Si22  1  0.50000000  1.00000000  0.81896890  1
  Si  Si23  1  0.50000000  0.18103110  0.00000000  1
  Si  Si24  1  0.50000000  0.81896890  1.00000000  1
  Si  Si25  1  -0.00000000  0.66666700  0.33333300  1
  Si  Si26  1  -0.00000000  0.33333300  0.66666700  1
