# generated using pymatgen
data_Ca3TlO5
_symmetry_space_group_name_H-M   'P 1'
_cell_length_a   3.37677276
_cell_length_b   5.91233022
_cell_length_c   13.64742562
_cell_angle_alpha   90.00000000
_cell_angle_beta   90.00000000
_cell_angle_gamma   106.59294587
_symmetry_Int_Tables_number   1
_chemical_formula_structural   Ca3TlO5
_chemical_formula_sum   'Ca6 Tl2 O10'
_cell_volume   261.11926179
_cell_formula_units_Z   2
loop_
 _symmetry_equiv_pos_site_id
 _symmetry_equiv_pos_as_xyz
  1  'x, y, z'
loop_
 _atom_site_type_symbol
 _atom_site_label
 _atom_site_symmetry_multiplicity
 _atom_site_fract_x
 _atom_site_fract_y
 _atom_site_fract_z
 _atom_site_occupancy
  Ca  Ca0  1  0.27095480  0.54190961  0.11325770  1
  Ca  Ca1  1  0.72904520  0.45809039  0.88674230  1
  Ca  Ca2  1  0.72904520  0.45809039  0.61325770  1
  Ca  Ca3  1  0.27095480  0.54190961  0.38674230  1
  Ca  Ca4  1  0.52765599  0.05531199  0.25000000  1
  Ca  Ca5  1  0.47234401  0.94468801  0.75000000  1
  Tl  Tl6  1  0.00000000  0.00000000  0.00000000  1
  Tl  Tl7  1  0.00000000  -0.00000000  0.50000000  1
  O  O8  1  0.08426191  0.16852383  0.64482067  1
  O  O9  1  0.91573809  0.83147617  0.35517933  1
  O  O10  1  0.91573809  0.83147617  0.14482067  1
  O  O11  1  0.08426191  0.16852383  0.85517933  1
  O  O12  1  0.36097661  0.72195322  0.54770183  1
  O  O13  1  0.63902339  0.27804678  0.45229817  1
  O  O14  1  0.63902339  0.27804678  0.04770183  1
  O  O15  1  0.36097661  0.72195322  0.95229817  1
  O  O16  1  0.16649003  0.33298007  0.25000000  1
  O  O17  1  0.83350997  0.66701993  0.75000000  1
