# generated using pymatgen
data_Zr2Ga3Co
_symmetry_space_group_name_H-M   'P 1'
_cell_length_a   4.17554458
_cell_length_b   5.40466230
_cell_length_c   5.34288764
_cell_angle_alpha   92.53640418
_cell_angle_beta   113.00162835
_cell_angle_gamma   67.27609080
_symmetry_Int_Tables_number   1
_chemical_formula_structural   Zr2Ga3Co
_chemical_formula_sum   'Zr2 Ga3 Co1'
_cell_volume   101.56188095
_cell_formula_units_Z   1
loop_
 _symmetry_equiv_pos_site_id
 _symmetry_equiv_pos_as_xyz
  1  'x, y, z'
loop_
 _atom_site_type_symbol
 _atom_site_label
 _atom_site_symmetry_multiplicity
 _atom_site_fract_x
 _atom_site_fract_y
 _atom_site_fract_z
 _atom_site_occupancy
  Zr  Zr0  1  0.74914470  0.70968418  0.20797357  1
  Zr  Zr1  1  0.24892380  0.29529780  0.79314540  1
  Ga  Ga2  1  0.47247512  0.67505393  0.62000417  1
  Ga  Ga3  1  0.04373772  0.13390038  0.22137583  1
  Ga  Ga4  1  0.93836039  0.89926029  0.77598106  1
  Co  Co5  1  0.54735827  0.28680343  0.38151996  1
