# generated using pymatgen
data_CsEuPO4
_symmetry_space_group_name_H-M   'P 1'
_cell_length_a   5.74382507
_cell_length_b   7.90213374
_cell_length_c   10.27799719
_cell_angle_alpha   89.99979213
_cell_angle_beta   90.00014733
_cell_angle_gamma   90.00005665
_symmetry_Int_Tables_number   1
_chemical_formula_structural   CsEuPO4
_chemical_formula_sum   'Cs4 Eu4 P4 O16'
_cell_volume   466.50260702
_cell_formula_units_Z   4
loop_
 _symmetry_equiv_pos_site_id
 _symmetry_equiv_pos_as_xyz
  1  'x, y, z'
loop_
 _atom_site_type_symbol
 _atom_site_label
 _atom_site_symmetry_multiplicity
 _atom_site_fract_x
 _atom_site_fract_y
 _atom_site_fract_z
 _atom_site_occupancy
  Cs  Cs0  1  0.74999984  0.86459813  0.58694920  1
  Cs  Cs1  1  0.25000005  0.13540090  0.41305090  1
  Cs  Cs2  1  0.25000008  0.63539998  0.08695016  1
  Cs  Cs3  1  0.75000015  0.36460163  0.91305004  1
  Eu  Eu4  1  0.75000142  0.49505042  0.31872297  1
  Eu  Eu5  1  0.24999953  0.50494961  0.68127651  1
  Eu  Eu6  1  0.25000173  0.00494505  0.81872305  1
  Eu  Eu7  1  0.74999864  0.99505309  0.18127742  1
  P  P8  1  0.75000058  0.79150633  0.91735764  1
  P  P9  1  0.24999985  0.20849365  0.08264251  1
  P  P10  1  0.24999984  0.70849336  0.41735792  1
  P  P11  1  0.74999989  0.29150661  0.58264129  1
  O  O12  1  0.97467962  0.73394049  0.84324270  1
  O  O13  1  0.02532155  0.26605919  0.15675671  1
  O  O14  1  0.02532127  0.76605821  0.34324239  1
  O  O15  1  0.47467861  0.26605912  0.15675669  1
  O  O16  1  0.97467791  0.23394319  0.65675795  1
  O  O17  1  0.52532060  0.73394055  0.84324338  1
  O  O18  1  0.52532138  0.23394240  0.65675815  1
  O  O19  1  0.47467849  0.76605806  0.34324221  1
  O  O20  1  0.74999896  0.98821578  0.92934501  1
  O  O21  1  0.24999912  0.01178403  0.07065490  1
  O  O22  1  0.24999985  0.51178361  0.42934494  1
  O  O23  1  0.74999999  0.48821548  0.57065515  1
  O  O24  1  0.75000020  0.21873200  0.44044295  1
  O  O25  1  0.25000033  0.78126908  0.55955759  1
  O  O26  1  0.25000025  0.28126979  0.94044272  1
  O  O27  1  0.75000025  0.71873025  0.05955692  1
