# generated using pymatgen
data_Bi12RuO20
_symmetry_space_group_name_H-M   'P 1'
_cell_length_a   8.94085574
_cell_length_b   8.94085574
_cell_length_c   8.94085574
_cell_angle_alpha   109.47122063
_cell_angle_beta   109.47122063
_cell_angle_gamma   109.47122063
_symmetry_Int_Tables_number   1
_chemical_formula_structural   Bi12RuO20
_chemical_formula_sum   'Bi12 Ru1 O20'
_cell_volume   550.19339517
_cell_formula_units_Z   1
loop_
 _symmetry_equiv_pos_site_id
 _symmetry_equiv_pos_as_xyz
  1  'x, y, z'
loop_
 _atom_site_type_symbol
 _atom_site_label
 _atom_site_symmetry_multiplicity
 _atom_site_fract_x
 _atom_site_fract_y
 _atom_site_fract_z
 _atom_site_occupancy
  Bi  Bi0  1  0.49711357  0.33584941  0.19292960  1
  Bi  Bi1  1  0.50288643  0.69581603  0.83873584  1
  Bi  Bi2  1  0.85708019  0.66415059  0.16126416  1
  Bi  Bi3  1  0.33584941  0.19292960  0.49711357  1
  Bi  Bi4  1  0.14291981  0.30418397  0.80707040  1
  Bi  Bi5  1  0.69581603  0.83873584  0.50288643  1
  Bi  Bi6  1  0.66415059  0.16126416  0.85708019  1
  Bi  Bi7  1  0.30418397  0.80707040  0.14291981  1
  Bi  Bi8  1  0.19292960  0.49711357  0.33584941  1
  Bi  Bi9  1  0.16126416  0.85708019  0.66415059  1
  Bi  Bi10  1  0.80707040  0.14291981  0.30418397  1
  Bi  Bi11  1  0.83873584  0.50288643  0.69581603  1
  Ru  Ru12  1  0.00000000  0.00000000  -0.00000000  1
  O  O13  1  0.38615386  0.38615386  0.38615386  1
  O  O14  1  0.61384614  -0.00000000  -0.00000000  1
  O  O15  1  -0.00000000  0.61384614  0.00000000  1
  O  O16  1  -0.00000000  0.00000000  0.61384614  1
  O  O17  1  0.73945943  0.62114439  0.38183662  1
  O  O18  1  0.26054057  0.64237719  0.88168496  1
  O  O19  1  0.76069223  0.37885561  0.11831504  1
  O  O20  1  0.62114439  0.38183662  0.73945943  1
  O  O21  1  0.23930777  0.35762281  0.61816338  1
  O  O22  1  0.64237719  0.88168496  0.26054057  1
  O  O23  1  0.37885561  0.11831504  0.76069223  1
  O  O24  1  0.35762281  0.61816338  0.23930777  1
  O  O25  1  0.38183662  0.73945943  0.62114439  1
  O  O26  1  0.11831504  0.76069223  0.37885561  1
  O  O27  1  0.61816338  0.23930777  0.35762281  1
  O  O28  1  0.88168496  0.26054057  0.64237719  1
  O  O29  1  0.78758006  0.78758006  0.78758006  1
  O  O30  1  0.21241994  0.00000000  -0.00000000  1
  O  O31  1  -0.00000000  0.21241994  -0.00000000  1
  O  O32  1  0.00000000  -0.00000000  0.21241994  1
