# generated using pymatgen
data_YCo4Si
_symmetry_space_group_name_H-M   'P 1'
_cell_length_a   3.71864020
_cell_length_b   5.07607861
_cell_length_c   5.07569053
_cell_angle_alpha   119.98451658
_cell_angle_beta   90.00000000
_cell_angle_gamma   90.00000000
_symmetry_Int_Tables_number   1
_chemical_formula_structural   YCo4Si
_chemical_formula_sum   'Y1 Co4 Si1'
_cell_volume   82.98622398
_cell_formula_units_Z   1
loop_
 _symmetry_equiv_pos_site_id
 _symmetry_equiv_pos_as_xyz
  1  'x, y, z'
loop_
 _atom_site_type_symbol
 _atom_site_label
 _atom_site_symmetry_multiplicity
 _atom_site_fract_x
 _atom_site_fract_y
 _atom_site_fract_z
 _atom_site_occupancy
  Y  Y0  1  -0.00000000  0.99992571  0.00003581  1
  Co  Co1  1  -0.00000000  0.66654522  0.33332030  1
  Co  Co2  1  0.50000000  0.50001656  0.00001994  1
  Co  Co3  1  0.50000000  0.50005508  0.49995626  1
  Co  Co4  1  0.50000000  0.99998983  0.49999381  1
  Si  Si5  1  -0.00000000  0.33336761  0.66667389  1
