# generated using pymatgen
data_MgWO4
_symmetry_space_group_name_H-M   'P 1'
_cell_length_a   5.31308861
_cell_length_b   5.61156811
_cell_length_c   5.07822199
_cell_angle_alpha   90.00000000
_cell_angle_beta   90.00000000
_cell_angle_gamma   72.76158759
_symmetry_Int_Tables_number   1
_chemical_formula_structural   MgWO4
_chemical_formula_sum   'Mg2 W2 O8'
_cell_volume   144.60479169
_cell_formula_units_Z   2
loop_
 _symmetry_equiv_pos_site_id
 _symmetry_equiv_pos_as_xyz
  1  'x, y, z'
loop_
 _atom_site_type_symbol
 _atom_site_label
 _atom_site_symmetry_multiplicity
 _atom_site_fract_x
 _atom_site_fract_y
 _atom_site_fract_z
 _atom_site_occupancy
  Mg  Mg0  1  0.50000000  0.25000000  0.67223967  1
  Mg  Mg1  1  0.50000000  0.75000000  0.32776033  1
  W  W2  1  -0.00000000  0.25000000  0.17829820  1
  W  W3  1  -0.00000000  0.75000000  0.82170180  1
  O  O4  1  0.25382864  0.62171569  0.56489836  1
  O  O5  1  0.25382864  0.12171569  0.43510164  1
  O  O6  1  0.74617136  0.37828431  0.43510164  1
  O  O7  1  0.77449163  0.60196858  0.02517834  1
  O  O8  1  0.22550837  0.39803142  0.97482166  1
  O  O9  1  0.22550837  0.89803142  0.02517834  1
  O  O10  1  0.74617136  0.87828431  0.56489836  1
  O  O11  1  0.77449163  0.10196858  0.97482166  1
