# generated using pymatgen
data_VCu(PS3)2
_symmetry_space_group_name_H-M   'P 1'
_cell_length_a   5.99374417
_cell_length_b   6.07007635
_cell_length_c   7.16583463
_cell_angle_alpha   98.32883115
_cell_angle_beta   73.96612518
_cell_angle_gamma   120.19893660
_symmetry_Int_Tables_number   1
_chemical_formula_structural   VCu(PS3)2
_chemical_formula_sum   'V1 Cu1 P2 S6'
_cell_volume   216.55717231
_cell_formula_units_Z   1
loop_
 _symmetry_equiv_pos_site_id
 _symmetry_equiv_pos_as_xyz
  1  'x, y, z'
loop_
 _atom_site_type_symbol
 _atom_site_label
 _atom_site_symmetry_multiplicity
 _atom_site_fract_x
 _atom_site_fract_y
 _atom_site_fract_z
 _atom_site_occupancy
  V  V0  1  0.69717316  0.34843049  0.98921856  1
  Cu  Cu1  1  0.25922800  0.66590138  0.20461120  1
  P  P2  1  0.05176679  0.00086533  0.83851062  1
  P  P3  1  0.94526111  0.99474869  0.15736594  1
  S  S4  1  0.87440240  0.30178533  0.24351421  1
  S  S5  1  0.41911559  0.30788078  0.77319455  1
  S  S6  1  0.76706365  0.03160635  0.76350928  1
  S  S7  1  0.27124867  0.04276028  0.23844119  1
  S  S8  1  0.61008823  0.65112495  0.24333984  1
  S  S9  1  0.03865240  0.65289643  0.76029462  1
