# generated using pymatgen
data_YAlCo4
_symmetry_space_group_name_H-M   'P 1'
_cell_length_a   3.87132570
_cell_length_b   5.04787579
_cell_length_c   5.04219531
_cell_angle_alpha   60.05880460
_cell_angle_beta   90.00000000
_cell_angle_gamma   90.00000000
_symmetry_Int_Tables_number   1
_chemical_formula_structural   YAlCo4
_chemical_formula_sum   'Y1 Al1 Co4'
_cell_volume   85.38384436
_cell_formula_units_Z   1
loop_
 _symmetry_equiv_pos_site_id
 _symmetry_equiv_pos_as_xyz
  1  'x, y, z'
loop_
 _atom_site_type_symbol
 _atom_site_label
 _atom_site_symmetry_multiplicity
 _atom_site_fract_x
 _atom_site_fract_y
 _atom_site_fract_z
 _atom_site_occupancy
  Y  Y0  1  0.00000000  0.99990204  0.00001375  1
  Al  Al1  1  0.00000000  0.33365653  0.33320282  1
  Co  Co2  1  0.00000000  0.66647736  0.66679991  1
  Co  Co3  1  0.50000000  0.50336180  0.50334965  1
  Co  Co4  1  0.50000000  0.50336931  0.99329097  1
  Co  Co5  1  0.50000000  0.99313296  0.50344289  1
