# generated using pymatgen
data_ZnCu3(WO4)4
_symmetry_space_group_name_H-M   'P 1'
_cell_length_a   4.76671936
_cell_length_b   5.00496273
_cell_length_c   11.89924199
_cell_angle_alpha   87.35514117
_cell_angle_beta   83.96770071
_cell_angle_gamma   86.48324559
_symmetry_Int_Tables_number   1
_chemical_formula_structural   ZnCu3(WO4)4
_chemical_formula_sum   'Zn1 Cu3 W4 O16'
_cell_volume   281.55422847
_cell_formula_units_Z   1
loop_
 _symmetry_equiv_pos_site_id
 _symmetry_equiv_pos_as_xyz
  1  'x, y, z'
loop_
 _atom_site_type_symbol
 _atom_site_label
 _atom_site_symmetry_multiplicity
 _atom_site_fract_x
 _atom_site_fract_y
 _atom_site_fract_z
 _atom_site_occupancy
  Zn  Zn0  1  0.48349096  0.73358299  0.15859051  1
  Cu  Cu1  1  0.50225719  0.75292332  0.67013785  1
  Cu  Cu2  1  0.49418327  0.24291110  0.32961181  1
  Cu  Cu3  1  0.50033179  0.24825506  0.82739173  1
  W  W4  1  0.98794332  0.75059899  0.41581995  1
  W  W5  1  0.00255277  0.76133824  0.91525580  1
  W  W6  1  0.00772704  0.24922622  0.08519478  1
  W  W7  1  0.00425579  0.24668240  0.58421230  1
  O  O8  1  0.26210257  0.58652629  0.31296811  1
  O  O9  1  0.27580705  0.59654763  0.80998062  1
  O  O10  1  0.73364672  0.39772666  0.19210488  1
  O  O11  1  0.73018103  0.40670400  0.69184469  1
  O  O12  1  0.22296541  0.56307961  0.05003200  1
  O  O13  1  0.20942076  0.55433555  0.54714756  1
  O  O14  1  0.77973273  0.44398876  0.45631131  1
  O  O15  1  0.79669581  0.45434052  0.95590711  1
  O  O16  1  0.74336925  0.91843972  0.32291879  1
  O  O17  1  0.75912400  0.93101773  0.82365257  1
  O  O18  1  0.24781952  0.07889878  0.17730840  1
  O  O19  1  0.24861799  0.07185467  0.67522215  1
  O  O20  1  0.79004667  0.93892842  0.05735640  1
  O  O21  1  0.77978950  0.93092215  0.55939369  1
  O  O22  1  0.21065075  0.06734891  0.44073041  1
  O  O23  1  0.22728813  0.07382229  0.94090660  1
