# generated using pymatgen
data_YMn2Al(BO4)2
_symmetry_space_group_name_H-M   'P 1'
_cell_length_a   3.37380779
_cell_length_b   9.39237966
_cell_length_c   9.89152353
_cell_angle_alpha   90.00000000
_cell_angle_beta   90.00000000
_cell_angle_gamma   90.46378134
_symmetry_Int_Tables_number   1
_chemical_formula_structural   YMn2Al(BO4)2
_chemical_formula_sum   'Y2 Mn4 Al2 B4 O16'
_cell_volume   313.43315641
_cell_formula_units_Z   2
loop_
 _symmetry_equiv_pos_site_id
 _symmetry_equiv_pos_as_xyz
  1  'x, y, z'
loop_
 _atom_site_type_symbol
 _atom_site_label
 _atom_site_symmetry_multiplicity
 _atom_site_fract_x
 _atom_site_fract_y
 _atom_site_fract_z
 _atom_site_occupancy
  Y  Y0  1  0.26953078  0.08806183  0.39141799  1
  Y  Y1  1  0.76953078  0.58806183  0.10858201  1
  Mn  Mn2  1  0.27555431  0.68658952  0.41971053  1
  Mn  Mn3  1  0.77555431  0.18658952  0.08028947  1
  Mn  Mn4  1  0.74600804  0.32424747  0.60307200  1
  Mn  Mn5  1  0.24600804  0.82424747  0.89692800  1
  Al  Al6  1  0.80741810  0.92477170  0.61841814  1
  Al  Al7  1  0.30741810  0.42477170  0.88158186  1
  B  B8  1  0.27460661  0.37331275  0.31399228  1
  B  B9  1  0.77460661  0.87331275  0.18600772  1
  B  B10  1  0.68636159  0.62786377  0.66853193  1
  B  B11  1  0.18636159  0.12786377  0.83146807  1
  O  O12  1  0.27106620  0.51124772  0.26560732  1
  O  O13  1  0.77106620  0.01124772  0.23439268  1
  O  O14  1  0.56403766  0.50329383  0.73215585  1
  O  O15  1  0.06403766  0.00329383  0.76784415  1
  O  O16  1  0.29007962  0.88457559  0.52936907  1
  O  O17  1  0.79007962  0.38457559  0.97063093  1
  O  O18  1  0.76860963  0.10318878  0.53330558  1
  O  O19  1  0.26860963  0.60318878  0.96669442  1
  O  O20  1  0.30296069  0.26093253  0.22332592  1
  O  O21  1  0.80296069  0.76093253  0.27667408  1
  O  O22  1  0.71606265  0.76128262  0.73341007  1
  O  O23  1  0.21606265  0.26128262  0.76658993  1
  O  O24  1  0.24888824  0.33583746  0.45015706  1
  O  O25  1  0.74888824  0.83583746  0.04984294  1
  O  O26  1  0.77881588  0.61479444  0.53408918  1
  O  O27  1  0.27881588  0.11479444  0.96591082  1
