# generated using pymatgen
data_V5Fe5Si6
_symmetry_space_group_name_H-M   'P 1'
_cell_length_a   4.72320118
_cell_length_b   6.86266593
_cell_length_c   6.86267255
_cell_angle_alpha   60.59390698
_cell_angle_beta   89.99870699
_cell_angle_gamma   90.00128438
_symmetry_Int_Tables_number   1
_chemical_formula_structural   V5Fe5Si6
_chemical_formula_sum   'V5 Fe5 Si6'
_cell_volume   193.78551172
_cell_formula_units_Z   1
loop_
 _symmetry_equiv_pos_site_id
 _symmetry_equiv_pos_as_xyz
  1  'x, y, z'
loop_
 _atom_site_type_symbol
 _atom_site_label
 _atom_site_symmetry_multiplicity
 _atom_site_fract_x
 _atom_site_fract_y
 _atom_site_fract_z
 _atom_site_occupancy
  V  V0  1  0.74996664  0.77113665  0.00723069  1
  V  V1  1  0.74996804  0.99276980  0.22886343  1
  V  V2  1  0.25006359  0.76921636  0.23078379  1
  V  V3  1  0.25002789  0.22268246  0.00475257  1
  V  V4  1  0.25002846  0.99524739  0.77731743  1
  Fe  Fe5  1  0.49970826  0.33610605  0.32785078  1
  Fe  Fe6  1  0.49970660  0.67215090  0.66389369  1
  Fe  Fe7  1  0.00027807  0.67216299  0.66388046  1
  Fe  Fe8  1  0.00027880  0.33611993  0.32783551  1
  Fe  Fe9  1  0.74997247  0.24136527  0.75863387  1
  Si  Si10  1  0.75008037  0.58206376  0.41793636  1
  Si  Si11  1  0.75008054  0.40445679  0.99215453  1
  Si  Si12  1  0.75008138  0.00784564  0.59554284  1
  Si  Si13  1  0.24990756  0.40472983  0.59527019  1
  Si  Si14  1  0.24992565  0.58962294  0.99767668  1
  Si  Si15  1  0.24992570  0.00232324  0.41037719  1
