# generated using pymatgen
data_Y4US7
_symmetry_space_group_name_H-M   'P 1'
_cell_length_a   3.79553775
_cell_length_b   6.70871430
_cell_length_c   11.64519049
_cell_angle_alpha   104.16809469
_cell_angle_beta   90.00000000
_cell_angle_gamma   73.56776326
_symmetry_Int_Tables_number   1
_chemical_formula_structural   Y4US7
_chemical_formula_sum   'Y4 U1 S7'
_cell_volume   274.99536988
_cell_formula_units_Z   1
loop_
 _symmetry_equiv_pos_site_id
 _symmetry_equiv_pos_as_xyz
  1  'x, y, z'
loop_
 _atom_site_type_symbol
 _atom_site_label
 _atom_site_symmetry_multiplicity
 _atom_site_fract_x
 _atom_site_fract_y
 _atom_site_fract_z
 _atom_site_occupancy
  Y  Y0  1  0.69991915  0.60016170  0.18820729  1
  Y  Y1  1  0.30143630  0.39712741  0.81106196  1
  Y  Y2  1  0.11626291  0.76747417  0.57717491  1
  Y  Y3  1  0.99951914  0.00096172  0.99854586  1
  U  U4  1  0.88499331  0.23001338  0.42343444  1
  S  S5  1  0.04125785  0.91748430  0.21475058  1
  S  S6  1  0.95812522  0.08374956  0.78480109  1
  S  S7  1  0.73997649  0.52004702  0.65022149  1
  S  S8  1  0.25810949  0.48378101  0.35011572  1
  S  S9  1  0.50018346  0.99963308  0.50111379  1
  S  S10  1  0.34122517  0.31754967  0.05111959  1
  S  S11  1  0.65899151  0.68201698  0.94945327  1
