# generated using pymatgen
data_YFe6Co5W
_symmetry_space_group_name_H-M   'P 1'
_cell_length_a   4.70587919
_cell_length_b   6.41431538
_cell_length_c   6.41431538
_cell_angle_alpha   97.63967780
_cell_angle_beta   111.52001578
_cell_angle_gamma   68.47998422
_symmetry_Int_Tables_number   1
_chemical_formula_structural   YFe6Co5W
_chemical_formula_sum   'Y1 Fe6 Co5 W1'
_cell_volume   167.56250727
_cell_formula_units_Z   1
loop_
 _symmetry_equiv_pos_site_id
 _symmetry_equiv_pos_as_xyz
  1  'x, y, z'
loop_
 _atom_site_type_symbol
 _atom_site_label
 _atom_site_symmetry_multiplicity
 _atom_site_fract_x
 _atom_site_fract_y
 _atom_site_fract_z
 _atom_site_occupancy
  Y  Y0  1  0.00000000  0.00420779  0.00420779  1
  Fe  Fe1  1  0.49752984  0.00396053  0.50153152  1
  Fe  Fe2  1  0.00004115  0.00396053  0.50153152  1
  Fe  Fe3  1  0.50247016  0.50153152  0.00396053  1
  Fe  Fe4  1  -0.00004115  0.50153152  0.00396053  1
  Fe  Fe5  1  0.50000000  0.77396073  0.77396073  1
  Fe  Fe6  1  0.50000000  0.23062894  0.23062894  1
  Co  Co7  1  0.63998026  0.36064984  0.64061036  1
  Co  Co8  1  0.36001974  0.64061036  0.36064984  1
  Co  Co9  1  -0.00000000  0.35058234  0.35058234  1
  Co  Co10  1  0.72315270  0.77618985  0.22249526  1
  Co  Co11  1  0.27684730  0.22249526  0.77618985  1
  W  W12  1  0.00000000  0.62969077  0.62969077  1
