# generated using pymatgen
data_Tl3Bi
_symmetry_space_group_name_H-M   'P 1'
_cell_length_a   3.57344832
_cell_length_b   3.57344832
_cell_length_c   11.51222627
_cell_angle_alpha   90.00000000
_cell_angle_beta   90.00000000
_cell_angle_gamma   119.94271076
_symmetry_Int_Tables_number   1
_chemical_formula_structural   Tl3Bi
_chemical_formula_sum   'Tl3 Bi1'
_cell_volume   127.38414683
_cell_formula_units_Z   1
loop_
 _symmetry_equiv_pos_site_id
 _symmetry_equiv_pos_as_xyz
  1  'x, y, z'
loop_
 _atom_site_type_symbol
 _atom_site_label
 _atom_site_symmetry_multiplicity
 _atom_site_fract_x
 _atom_site_fract_y
 _atom_site_fract_z
 _atom_site_occupancy
  Tl  Tl0  1  0.66658874  0.33341126  0.87500000  1
  Tl  Tl1  1  0.33330383  0.66669617  0.12531372  1
  Tl  Tl2  1  0.33330383  0.66669617  0.62468628  1
  Bi  Bi3  1  0.66680360  0.33319640  0.37500000  1
