# generated using pymatgen
data_TeMo2S3
_symmetry_space_group_name_H-M   'P 1'
_cell_length_a   3.27793547
_cell_length_b   3.27789831
_cell_length_c   13.67903934
_cell_angle_alpha   90.00002660
_cell_angle_beta   90.00041828
_cell_angle_gamma   60.00031038
_symmetry_Int_Tables_number   1
_chemical_formula_structural   TeMo2S3
_chemical_formula_sum   'Te1 Mo2 S3'
_cell_volume   127.28682830
_cell_formula_units_Z   1
loop_
 _symmetry_equiv_pos_site_id
 _symmetry_equiv_pos_as_xyz
  1  'x, y, z'
loop_
 _atom_site_type_symbol
 _atom_site_label
 _atom_site_symmetry_multiplicity
 _atom_site_fract_x
 _atom_site_fract_y
 _atom_site_fract_z
 _atom_site_occupancy
  Te  Te0  1  0.33333850  0.33333109  0.11903738  1
  Mo  Mo1  1  0.33332037  0.33334002  0.74884178  1
  Mo  Mo2  1  0.66667998  0.66665953  0.26206333  1
  S  S3  1  0.66665966  0.66667000  0.86128376  1
  S  S4  1  0.66665252  0.66667351  0.63625446  1
  S  S5  1  0.33334897  0.33332585  0.37251929  1
