# generated using pymatgen
data_Ta2V3Cu
_symmetry_space_group_name_H-M   'P 1'
_cell_length_a   4.94828227
_cell_length_b   4.94764824
_cell_length_c   8.38891215
_cell_angle_alpha   90.00000000
_cell_angle_beta   90.00000000
_cell_angle_gamma   60.00424448
_symmetry_Int_Tables_number   1
_chemical_formula_structural   Ta2V3Cu
_chemical_formula_sum   'Ta4 V6 Cu2'
_cell_volume   177.87222261
_cell_formula_units_Z   2
loop_
 _symmetry_equiv_pos_site_id
 _symmetry_equiv_pos_as_xyz
  1  'x, y, z'
loop_
 _atom_site_type_symbol
 _atom_site_label
 _atom_site_symmetry_multiplicity
 _atom_site_fract_x
 _atom_site_fract_y
 _atom_site_fract_z
 _atom_site_occupancy
  Ta  Ta0  1  0.33332824  0.33333588  0.55898935  1
  Ta  Ta1  1  0.66667176  0.66666412  0.44101065  1
  Ta  Ta2  1  0.66667176  0.66666412  0.05898935  1
  Ta  Ta3  1  0.33332824  0.33333588  0.94101065  1
  V  V4  1  0.82612582  0.34774935  0.75000000  1
  V  V5  1  0.34771812  0.82614094  0.75000000  1
  V  V6  1  0.82612582  0.82612483  0.75000000  1
  V  V7  1  0.17387418  0.65225065  0.25000000  1
  V  V8  1  0.65228188  0.17385906  0.25000000  1
  V  V9  1  0.17387418  0.17387517  0.25000000  1
  Cu  Cu10  1  0.00000000  -0.00000000  0.50000000  1
  Cu  Cu11  1  0.00000000  -0.00000000  0.00000000  1
