# generated using pymatgen
data_Mg10(SiO6)3
_symmetry_space_group_name_H-M   'P 1'
_cell_length_a   5.15161723
_cell_length_b   8.76650243
_cell_length_c   14.15647669
_cell_angle_alpha   90.00000000
_cell_angle_beta   90.00000000
_cell_angle_gamma   90.00000000
_symmetry_Int_Tables_number   1
_chemical_formula_structural   Mg10(SiO6)3
_chemical_formula_sum   'Mg20 Si6 O36'
_cell_volume   639.33005736
_cell_formula_units_Z   2
loop_
 _symmetry_equiv_pos_site_id
 _symmetry_equiv_pos_as_xyz
  1  'x, y, z'
loop_
 _atom_site_type_symbol
 _atom_site_label
 _atom_site_symmetry_multiplicity
 _atom_site_fract_x
 _atom_site_fract_y
 _atom_site_fract_z
 _atom_site_occupancy
  Mg  Mg0  1  0.16075284  0.50000000  0.92424941  1
  Mg  Mg1  1  0.66075284  -0.00000000  0.07575059  1
  Mg  Mg2  1  0.83119085  0.84290197  0.74989668  1
  Mg  Mg3  1  0.83119085  0.15709803  0.74989668  1
  Mg  Mg4  1  0.33119085  0.65709803  0.25010332  1
  Mg  Mg5  1  0.33119085  0.34290197  0.25010332  1
  Mg  Mg6  1  0.97936215  0.67885480  0.57498225  1
  Mg  Mg7  1  0.97936215  0.32114520  0.57498225  1
  Mg  Mg8  1  0.47936215  0.82114520  0.42501775  1
  Mg  Mg9  1  0.47936215  0.17885480  0.42501775  1
  Mg  Mg10  1  0.68040947  0.67805336  0.92518221  1
  Mg  Mg11  1  0.68040947  0.32194664  0.92518221  1
  Mg  Mg12  1  0.18040947  0.82194664  0.07481779  1
  Mg  Mg13  1  0.18040947  0.17805336  0.07481779  1
  Mg  Mg14  1  0.49796701  0.50000000  0.57863172  1
  Mg  Mg15  1  0.99796701  -0.00000000  0.42136828  1
  Mg  Mg16  1  0.33191155  0.67870230  0.75085797  1
  Mg  Mg17  1  0.33191155  0.32129770  0.75085797  1
  Mg  Mg18  1  0.83191155  0.82129770  0.24914203  1
  Mg  Mg19  1  0.83191155  0.17870230  0.24914203  1
  Si  Si20  1  0.83341609  0.50000000  0.75071574  1
  Si  Si21  1  0.33341609  -0.00000000  0.24928426  1
  Si  Si22  1  0.33622481  -0.00000000  0.87447781  1
  Si  Si23  1  0.83622481  0.50000000  0.12552219  1
  Si  Si24  1  0.32575797  -0.00000000  0.62435101  1
  Si  Si25  1  0.82575797  0.50000000  0.37564899  1
  O  O26  1  0.34563685  0.66460726  0.99413668  1
  O  O27  1  0.34563685  0.33539274  0.99413668  1
  O  O28  1  0.84563685  0.83539274  0.00586332  1
  O  O29  1  0.84563685  0.16460726  0.00586332  1
  O  O30  1  0.83209078  0.50000000  0.00807364  1
  O  O31  1  0.33209078  -0.00000000  0.99192636  1
  O  O32  1  0.53262161  0.50000000  0.82774335  1
  O  O33  1  0.03262161  -0.00000000  0.17225665  1
  O  O34  1  0.97769980  0.64642371  0.82390442  1
  O  O35  1  0.97769980  0.35357629  0.82390442  1
  O  O36  1  0.47769980  0.85357629  0.17609558  1
  O  O37  1  0.47769980  0.14642371  0.17609558  1
  O  O38  1  0.49581073  0.84302194  0.83846789  1
  O  O39  1  0.49581073  0.15697806  0.83846789  1
  O  O40  1  0.99581073  0.65697806  0.16153211  1
  O  O41  1  0.99581073  0.34302194  0.16153211  1
  O  O42  1  0.03948486  -0.00000000  0.82974380  1
  O  O43  1  0.53948486  0.50000000  0.17025620  1
  O  O44  1  0.13296566  0.50000000  0.67382017  1
  O  O45  1  0.63296566  -0.00000000  0.32617983  1
  O  O46  1  0.68743557  0.64629833  0.67776678  1
  O  O47  1  0.68743557  0.35370167  0.67776678  1
  O  O48  1  0.18743557  0.85370167  0.32223322  1
  O  O49  1  0.18743557  0.14629833  0.32223322  1
  O  O50  1  0.16784253  0.84260393  0.66127076  1
  O  O51  1  0.16784253  0.15739607  0.66127076  1
  O  O52  1  0.66784253  0.65739607  0.33872924  1
  O  O53  1  0.66784253  0.34260393  0.33872924  1
  O  O54  1  0.62359055  -0.00000000  0.66837456  1
  O  O55  1  0.12359055  0.50000000  0.33162544  1
  O  O56  1  0.82635938  0.50000000  0.49310331  1
  O  O57  1  0.32635938  -0.00000000  0.50689669  1
  O  O58  1  0.31608473  0.66483167  0.50738738  1
  O  O59  1  0.31608473  0.33516833  0.50738738  1
  O  O60  1  0.81608473  0.83516833  0.49261262  1
  O  O61  1  0.81608473  0.16483167  0.49261262  1
