# generated using pymatgen
data_UMnAl
_symmetry_space_group_name_H-M   'P 1'
_cell_length_a   5.33422596
_cell_length_b   5.28087127
_cell_length_c   8.17192660
_cell_angle_alpha   90.00680490
_cell_angle_beta   90.01913393
_cell_angle_gamma   119.65353833
_symmetry_Int_Tables_number   1
_chemical_formula_structural   UMnAl
_chemical_formula_sum   'U4 Mn4 Al4'
_cell_volume   200.04959118
_cell_formula_units_Z   4
loop_
 _symmetry_equiv_pos_site_id
 _symmetry_equiv_pos_as_xyz
  1  'x, y, z'
loop_
 _atom_site_type_symbol
 _atom_site_label
 _atom_site_symmetry_multiplicity
 _atom_site_fract_x
 _atom_site_fract_y
 _atom_site_fract_z
 _atom_site_occupancy
  U  U0  1  0.66271466  0.33143914  0.55525731  1
  U  U1  1  0.34552057  0.67268413  0.41254151  1
  U  U2  1  0.34520761  0.67247068  0.08812831  1
  U  U3  1  0.66315372  0.33175643  0.94448464  1
  Mn  Mn4  1  0.65602284  0.82793650  0.74980470  1
  Mn  Mn5  1  0.82857437  0.65478597  0.24997851  1
  Mn  Mn6  1  0.82861350  0.17391726  0.25003722  1
  Mn  Mn7  1  0.33972184  0.16979819  0.25015862  1
  Al  Al8  1  0.99486009  0.99739494  0.49106743  1
  Al  Al9  1  0.99486074  0.99744099  0.00877658  1
  Al  Al10  1  0.17031048  0.34078264  0.74988285  1
  Al  Al11  1  0.17043959  0.82959316  0.74988234  1
