# generated using pymatgen
data_U(Fe5Mo)2
_symmetry_space_group_name_H-M   'P 1'
_cell_length_a   4.66345490
_cell_length_b   6.50753193
_cell_length_c   6.50753193
_cell_angle_alpha   96.72706586
_cell_angle_beta   110.99657262
_cell_angle_gamma   69.00342738
_symmetry_Int_Tables_number   1
_chemical_formula_structural   U(Fe5Mo)2
_chemical_formula_sum   'U1 Fe10 Mo2'
_cell_volume   172.11853911
_cell_formula_units_Z   1
loop_
 _symmetry_equiv_pos_site_id
 _symmetry_equiv_pos_as_xyz
  1  'x, y, z'
loop_
 _atom_site_type_symbol
 _atom_site_label
 _atom_site_symmetry_multiplicity
 _atom_site_fract_x
 _atom_site_fract_y
 _atom_site_fract_z
 _atom_site_occupancy
  U  U0  1  0.00000000  0.00000000  -0.00000000  1
  Fe  Fe1  1  0.50000000  0.00000000  0.50000000  1
  Fe  Fe2  1  0.00000000  0.00000000  0.50000000  1
  Fe  Fe3  1  0.50000000  0.50000000  -0.00000000  1
  Fe  Fe4  1  0.00000000  0.50000000  -0.00000000  1
  Fe  Fe5  1  0.71233954  0.78766046  0.21233954  1
  Fe  Fe6  1  0.28766046  0.21233954  0.78766046  1
  Fe  Fe7  1  0.50000000  0.77541953  0.77541953  1
  Fe  Fe8  1  0.50000000  0.22458047  0.22458047  1
  Fe  Fe9  1  0.64643918  0.35356082  0.64643918  1
  Fe  Fe10  1  0.35356082  0.64643918  0.35356082  1
  Mo  Mo11  1  0.00000000  0.35673240  0.35673240  1
  Mo  Mo12  1  -0.00000000  0.64326760  0.64326760  1
