# generated using pymatgen
data_TbCuTe2
_symmetry_space_group_name_H-M   'P 1'
_cell_length_a   8.69909637
_cell_length_b   8.69894301
_cell_length_c   13.93904600
_cell_angle_alpha   90.00002584
_cell_angle_beta   90.00044997
_cell_angle_gamma   119.99956139
_symmetry_Int_Tables_number   1
_chemical_formula_structural   TbCuTe2
_chemical_formula_sum   'Tb8 Cu8 Te16'
_cell_volume   913.49511651
_cell_formula_units_Z   8
loop_
 _symmetry_equiv_pos_site_id
 _symmetry_equiv_pos_as_xyz
  1  'x, y, z'
loop_
 _atom_site_type_symbol
 _atom_site_label
 _atom_site_symmetry_multiplicity
 _atom_site_fract_x
 _atom_site_fract_y
 _atom_site_fract_z
 _atom_site_occupancy
  Tb  Tb0  1  0.99102169  0.49550998  0.23980801  1
  Tb  Tb1  1  0.50449376  0.49550791  0.23981060  1
  Tb  Tb2  1  0.50449174  0.00898404  0.23981152  1
  Tb  Tb3  1  0.00897831  0.50449002  0.76019199  1
  Tb  Tb4  1  0.49550624  0.50449209  0.76018940  1
  Tb  Tb5  1  0.49550826  0.99101596  0.76018848  1
  Tb  Tb6  1  0.99999723  0.99999829  0.25468285  1
  Tb  Tb7  1  0.00000277  0.00000171  0.74531715  1
  Cu  Cu8  1  0.33338131  0.66668858  0.92754913  1
  Cu  Cu9  1  0.66661869  0.33331142  0.07245087  1
  Cu  Cu10  1  0.16497643  0.32996060  0.57282695  1
  Cu  Cu11  1  0.67000397  0.83499967  0.57281826  1
  Cu  Cu12  1  0.16501801  0.83503770  0.57281455  1
  Cu  Cu13  1  0.83502357  0.67003940  0.42717305  1
  Cu  Cu14  1  0.32999603  0.16500033  0.42718174  1
  Cu  Cu15  1  0.83498199  0.16496230  0.42718545  1
  Te  Te16  1  0.83709600  0.67417109  0.11943920  1
  Te  Te17  1  0.32581043  0.16290594  0.11944133  1
  Te  Te18  1  0.83709173  0.16291729  0.11943805  1
  Te  Te19  1  0.16290400  0.32582891  0.88056080  1
  Te  Te20  1  0.67418957  0.83709406  0.88055867  1
  Te  Te21  1  0.16290827  0.83708271  0.88056195  1
  Te  Te22  1  0.17274997  0.82724146  0.38076194  1
  Te  Te23  1  0.17275056  0.34550771  0.38076306  1
  Te  Te24  1  0.65448805  0.82724109  0.38075980  1
  Te  Te25  1  0.82725003  0.17275854  0.61923806  1
  Te  Te26  1  0.82724944  0.65449229  0.61923694  1
  Te  Te27  1  0.34551195  0.17275891  0.61924020  1
  Te  Te28  1  0.33334076  0.66667025  0.12021652  1
  Te  Te29  1  0.66665924  0.33332975  0.87978348  1
  Te  Te30  1  0.66666582  0.33332914  0.38294469  1
  Te  Te31  1  0.33333418  0.66667086  0.61705531  1
