# generated using pymatgen
data_ThAl2Ni3
_symmetry_space_group_name_H-M   'P 1'
_cell_length_a   3.80681982
_cell_length_b   5.33172783
_cell_length_c   5.33451362
_cell_angle_alpha   119.98272768
_cell_angle_beta   90.00000000
_cell_angle_gamma   90.00000000
_symmetry_Int_Tables_number   1
_chemical_formula_structural   ThAl2Ni3
_chemical_formula_sum   'Th1 Al2 Ni3'
_cell_volume   93.78455347
_cell_formula_units_Z   1
loop_
 _symmetry_equiv_pos_site_id
 _symmetry_equiv_pos_as_xyz
  1  'x, y, z'
loop_
 _atom_site_type_symbol
 _atom_site_label
 _atom_site_symmetry_multiplicity
 _atom_site_fract_x
 _atom_site_fract_y
 _atom_site_fract_z
 _atom_site_occupancy
  Th  Th0  1  0.00000000  0.99996622  -0.00000000  1
  Al  Al1  1  0.00000000  0.33327281  0.66658573  1
  Al  Al2  1  0.00000000  0.66668708  0.33341427  1
  Ni  Ni3  1  0.50000000  0.49999496  0.00000000  1
  Ni  Ni4  1  0.50000000  0.49999131  0.50000369  1
  Ni  Ni5  1  0.50000000  0.99998762  0.49999631  1
