# generated using pymatgen
data_Sr4Cu3NiO8
_symmetry_space_group_name_H-M   'P 1'
_cell_length_a   3.64135673
_cell_length_b   7.87623159
_cell_length_c   8.37028379
_cell_angle_alpha   90.00000000
_cell_angle_beta   77.43676837
_cell_angle_gamma   90.00000000
_symmetry_Int_Tables_number   1
_chemical_formula_structural   Sr4Cu3NiO8
_chemical_formula_sum   'Sr4 Cu3 Ni1 O8'
_cell_volume   234.31326073
_cell_formula_units_Z   1
loop_
 _symmetry_equiv_pos_site_id
 _symmetry_equiv_pos_as_xyz
  1  'x, y, z'
loop_
 _atom_site_type_symbol
 _atom_site_label
 _atom_site_symmetry_multiplicity
 _atom_site_fract_x
 _atom_site_fract_y
 _atom_site_fract_z
 _atom_site_occupancy
  Sr  Sr0  1  0.33246416  0.37500000  0.33507167  1
  Sr  Sr1  1  0.33267076  0.87500000  0.33465847  1
  Sr  Sr2  1  0.66838522  0.12661072  0.66322956  1
  Sr  Sr3  1  0.66838522  0.62338928  0.66322956  1
  Cu  Cu4  1  0.06259992  0.87500000  0.87480016  1
  Cu  Cu5  1  0.93799541  0.12583738  0.12400918  1
  Cu  Cu6  1  0.93799541  0.62416262  0.12400918  1
  Ni  Ni7  1  0.06157186  0.37500000  0.87685628  1
  O  O8  1  0.94441751  0.37500000  0.11116498  1
  O  O9  1  0.94448950  0.87500000  0.11102100  1
  O  O10  1  0.05463719  0.12718670  0.89072562  1
  O  O11  1  0.05463719  0.62281330  0.89072562  1
  O  O12  1  0.17893716  0.37500000  0.64212569  1
  O  O13  1  0.17990721  0.87500000  0.64018558  1
  O  O14  1  0.82045314  0.12482003  0.35909372  1
  O  O15  1  0.82045314  0.62517997  0.35909372  1
