# generated using pymatgen
data_Sr10Cu5Mo(W2O15)2
_symmetry_space_group_name_H-M   'P 1'
_cell_length_a   5.51312300
_cell_length_b   5.51312300
_cell_length_c   21.60982898
_cell_angle_alpha   97.32864802
_cell_angle_beta   97.32864802
_cell_angle_gamma   90.00000000
_symmetry_Int_Tables_number   1
_chemical_formula_structural   Sr10Cu5Mo(W2O15)2
_chemical_formula_sum   'Sr10 Cu5 Mo1 W4 O30'
_cell_volume   646.04451438
_cell_formula_units_Z   1
loop_
 _symmetry_equiv_pos_site_id
 _symmetry_equiv_pos_as_xyz
  1  'x, y, z'
loop_
 _atom_site_type_symbol
 _atom_site_label
 _atom_site_symmetry_multiplicity
 _atom_site_fract_x
 _atom_site_fract_y
 _atom_site_fract_z
 _atom_site_occupancy
  Sr  Sr0  1  0.54998041  0.04998041  0.09996083  1
  Sr  Sr1  1  0.15000000  0.65000000  0.30000000  1
  Sr  Sr2  1  0.75001959  0.25001959  0.50003917  1
  Sr  Sr3  1  0.35025214  0.85025214  0.70050429  1
  Sr  Sr4  1  0.94974786  0.44974786  0.89949571  1
  Sr  Sr5  1  0.04998041  0.54998041  0.09996083  1
  Sr  Sr6  1  0.65000000  0.15000000  0.30000000  1
  Sr  Sr7  1  0.25001959  0.75001959  0.50003917  1
  Sr  Sr8  1  0.85025214  0.35025214  0.70050429  1
  Sr  Sr9  1  0.44974786  0.94974786  0.89949571  1
  Cu  Cu10  1  0.49988864  0.49988864  0.99977729  1
  Cu  Cu11  1  0.09999969  0.09999969  0.19999939  1
  Cu  Cu12  1  0.70000031  0.70000031  0.40000061  1
  Cu  Cu13  1  0.30011136  0.30011136  0.60022271  1
  Cu  Cu14  1  0.90000000  0.90000000  0.80000000  1
  Mo  Mo15  1  0.40000000  0.40000000  0.80000000  1
  W  W16  1  0.00000584  0.00000584  0.00001169  1
  W  W17  1  0.60000289  0.60000289  0.20000578  1
  W  W18  1  0.19999711  0.19999711  0.39999422  1
  W  W19  1  0.79999416  0.79999416  0.59998831  1
  O  O20  1  0.04593817  0.04593817  0.09187634  1
  O  O21  1  0.64596015  0.64596015  0.29192029  1
  O  O22  1  0.24599206  0.24599206  0.49198413  1
  O  O23  1  0.84601228  0.84601228  0.69202456  1
  O  O24  1  0.44589943  0.44589943  0.89179886  1
  O  O25  1  0.55400794  0.55400794  0.10801587  1
  O  O26  1  0.15403985  0.15403985  0.30807971  1
  O  O27  1  0.75406183  0.75406183  0.50812366  1
  O  O28  1  0.35410057  0.35410057  0.70820114  1
  O  O29  1  0.95398772  0.95398772  0.90797544  1
  O  O30  1  0.20203384  0.29079146  -0.00001161  1
  O  O31  1  0.80212255  0.89081921  0.19999259  1
  O  O32  1  0.40212996  0.49082662  0.40000741  1
  O  O33  1  0.00204544  0.09080307  0.60001161  1
  O  O34  1  0.60215684  0.69031891  0.80000000  1
  O  O35  1  0.79795456  0.70919693  -0.00001161  1
  O  O36  1  0.39787004  0.30917338  0.19999259  1
  O  O37  1  0.99787745  0.90918079  0.40000741  1
  O  O38  1  0.59796616  0.50920854  0.60001161  1
  O  O39  1  0.19784316  0.10968109  0.80000000  1
  O  O40  1  0.70919693  0.20203384  -0.00001161  1
  O  O41  1  0.30917338  0.80212255  0.19999259  1
  O  O42  1  0.90918079  0.40212996  0.40000741  1
  O  O43  1  0.50920854  0.00204544  0.60001161  1
  O  O44  1  0.10968109  0.60215684  0.80000000  1
  O  O45  1  0.89081921  0.39787004  0.19999259  1
  O  O46  1  0.49082662  0.99787745  0.40000741  1
  O  O47  1  0.09080307  0.59796616  0.60001161  1
  O  O48  1  0.69031891  0.19784316  0.80000000  1
  O  O49  1  0.29079146  0.79795456  -0.00001161  1
