# generated using pymatgen
data_Sm(Co5Mo)2
_symmetry_space_group_name_H-M   'P 1'
_cell_length_a   4.67732828
_cell_length_b   6.44760619
_cell_length_c   6.44760619
_cell_angle_alpha   97.37609754
_cell_angle_beta   111.26722439
_cell_angle_gamma   68.73277561
_symmetry_Int_Tables_number   1
_chemical_formula_structural   Sm(Co5Mo)2
_chemical_formula_sum   'Sm1 Co10 Mo2'
_cell_volume   168.86106087
_cell_formula_units_Z   1
loop_
 _symmetry_equiv_pos_site_id
 _symmetry_equiv_pos_as_xyz
  1  'x, y, z'
loop_
 _atom_site_type_symbol
 _atom_site_label
 _atom_site_symmetry_multiplicity
 _atom_site_fract_x
 _atom_site_fract_y
 _atom_site_fract_z
 _atom_site_occupancy
  Sm  Sm0  1  0.00000000  0.00000000  0.00000000  1
  Co  Co1  1  0.71146565  0.78853435  0.21146565  1
  Co  Co2  1  0.28853435  0.21146565  0.78853435  1
  Co  Co3  1  0.50000000  0.77422017  0.77422017  1
  Co  Co4  1  0.50000000  0.22577983  0.22577983  1
  Co  Co5  1  0.50000000  0.00000000  0.50000000  1
  Co  Co6  1  0.00000000  0.00000000  0.50000000  1
  Co  Co7  1  0.50000000  0.50000000  0.00000000  1
  Co  Co8  1  0.00000000  0.50000000  0.00000000  1
  Co  Co9  1  0.64004112  0.35995888  0.64004112  1
  Co  Co10  1  0.35995888  0.64004112  0.35995888  1
  Mo  Mo11  1  0.00000000  0.35947885  0.35947885  1
  Mo  Mo12  1  -0.00000000  0.64052115  0.64052115  1
