# generated using pymatgen
data_SmIn7Cu5
_symmetry_space_group_name_H-M   'P 1'
_cell_length_a   5.60349313
_cell_length_b   7.25643845
_cell_length_c   7.25643845
_cell_angle_alpha   98.62152847
_cell_angle_beta   112.71235196
_cell_angle_gamma   67.28764804
_symmetry_Int_Tables_number   1
_chemical_formula_structural   SmIn7Cu5
_chemical_formula_sum   'Sm1 In7 Cu5'
_cell_volume   251.07063924
_cell_formula_units_Z   1
loop_
 _symmetry_equiv_pos_site_id
 _symmetry_equiv_pos_as_xyz
  1  'x, y, z'
loop_
 _atom_site_type_symbol
 _atom_site_label
 _atom_site_symmetry_multiplicity
 _atom_site_fract_x
 _atom_site_fract_y
 _atom_site_fract_z
 _atom_site_occupancy
  Sm  Sm0  1  0.00085382  0.99914618  0.00085382  1
  In  In1  1  0.65747817  0.34252183  0.65747817  1
  In  In2  1  0.33530500  0.66469500  0.33530500  1
  In  In3  1  0.98798714  0.35364075  0.32961502  1
  In  In4  1  0.98798714  0.67038498  0.64635925  1
  In  In5  1  0.27503925  0.22496075  0.77503925  1
  In  In6  1  0.51207689  0.78651185  0.81066564  1
  In  In7  1  0.51207689  0.18933436  0.21348815  1
  Cu  Cu8  1  0.49925807  0.99212629  0.49550935  1
  Cu  Cu9  1  0.00412499  0.99212629  0.49550935  1
  Cu  Cu10  1  0.49925807  0.50449065  0.00787371  1
  Cu  Cu11  1  0.00412499  0.50449065  0.00787371  1
  Cu  Cu12  1  0.72442959  0.77557041  0.22442959  1
