# generated using pymatgen
data_Sm2UTe5
_symmetry_space_group_name_H-M   'P 1'
_cell_length_a   4.35071406
_cell_length_b   4.36979416
_cell_length_c   26.73552488
_cell_angle_alpha   90.00000000
_cell_angle_beta   90.00000000
_cell_angle_gamma   90.00000000
_symmetry_Int_Tables_number   1
_chemical_formula_structural   Sm2UTe5
_chemical_formula_sum   'Sm4 U2 Te10'
_cell_volume   508.28844384
_cell_formula_units_Z   2
loop_
 _symmetry_equiv_pos_site_id
 _symmetry_equiv_pos_as_xyz
  1  'x, y, z'
loop_
 _atom_site_type_symbol
 _atom_site_label
 _atom_site_symmetry_multiplicity
 _atom_site_fract_x
 _atom_site_fract_y
 _atom_site_fract_z
 _atom_site_occupancy
  Sm  Sm0  1  0.75000000  0.75000000  0.09036928  1
  Sm  Sm1  1  0.75000000  0.75000000  0.42083203  1
  Sm  Sm2  1  0.75000000  0.75000000  0.75369843  1
  Sm  Sm3  1  0.25000000  0.25000000  0.24663664  1
  U  U4  1  0.25000000  0.25000000  0.57848684  1
  U  U5  1  0.25000000  0.25000000  0.91024196  1
  Te  Te6  1  0.75000000  0.75000000  0.21244921  1
  Te  Te7  1  0.75000000  0.75000000  0.54589054  1
  Te  Te8  1  0.75000000  0.75000000  0.87707959  1
  Te  Te9  1  0.25000000  0.25000000  0.12395595  1
  Te  Te10  1  0.25000000  0.25000000  0.45560483  1
  Te  Te11  1  0.25000000  0.25000000  0.78857463  1
  Te  Te12  1  0.25000000  0.75000000  0.99809408  1
  Te  Te13  1  0.25000000  0.75000000  0.33377225  1
  Te  Te14  1  0.25000000  0.75000000  0.66614043  1
  Te  Te15  1  0.75000000  0.25000000  0.99817331  1
