# generated using pymatgen
data_Sr2CaCu6(BO3)6
_symmetry_space_group_name_H-M   'P 1'
_cell_length_a   7.23829401
_cell_length_b   7.24004244
_cell_length_c   16.23048861
_cell_angle_alpha   92.03732764
_cell_angle_beta   87.96607315
_cell_angle_gamma   102.50210693
_symmetry_Int_Tables_number   1
_chemical_formula_structural   Sr2CaCu6(BO3)6
_chemical_formula_sum   'Sr4 Ca2 Cu12 B12 O36'
_cell_volume   829.53741024
_cell_formula_units_Z   2
loop_
 _symmetry_equiv_pos_site_id
 _symmetry_equiv_pos_as_xyz
  1  'x, y, z'
loop_
 _atom_site_type_symbol
 _atom_site_label
 _atom_site_symmetry_multiplicity
 _atom_site_fract_x
 _atom_site_fract_y
 _atom_site_fract_z
 _atom_site_occupancy
  Sr  Sr0  1  0.66561455  0.33414461  0.16543597  1
  Sr  Sr1  1  0.00094523  0.99900122  0.50129472  1
  Sr  Sr2  1  0.33347729  0.66678908  0.83323668  1
  Sr  Sr3  1  0.83324811  0.16655358  0.33342424  1
  Ca  Ca4  1  0.16707665  0.83344410  0.66689692  1
  Ca  Ca5  1  0.49999103  0.50017728  0.99964391  1
  Cu  Cu6  1  0.12952737  0.10266270  0.12844161  1
  Cu  Cu7  1  0.46144981  0.76706004  0.46313998  1
  Cu  Cu8  1  0.79570080  0.43563425  0.79610032  1
  Cu  Cu9  1  0.38567404  0.38468875  0.38552613  1
  Cu  Cu10  1  0.71901265  0.04969308  0.71885717  1
  Cu  Cu11  1  0.05241019  0.71613976  0.05194526  1
  Cu  Cu12  1  0.76837887  0.46252702  0.53854747  1
  Cu  Cu13  1  0.10186339  0.12901859  0.87066750  1
  Cu  Cu14  1  0.43319885  0.79452764  0.20352909  1
  Cu  Cu15  1  0.38424534  0.38605484  0.61446086  1
  Cu  Cu16  1  0.71647942  0.05238479  0.94778983  1
  Cu  Cu17  1  0.05176577  0.71894181  0.28104053  1
  B  B18  1  0.51250415  0.07730342  0.51567051  1
  B  B19  1  0.84699229  0.74637591  0.84803329  1
  B  B20  1  0.18194958  0.41332626  0.17961755  1
  B  B21  1  0.31670872  0.09040482  0.31638278  1
  B  B22  1  0.65066554  0.75731142  0.64996140  1
  B  B23  1  0.98375796  0.42292322  0.98291208  1
  B  B24  1  0.74470547  0.84610869  0.15096546  1
  B  B25  1  0.07949123  0.51489775  0.48703475  1
  B  B26  1  0.41282567  0.18041122  0.81868006  1
  B  B27  1  0.42358031  0.98390214  0.01685952  1
  B  B28  1  0.75734385  0.65009255  0.35017653  1
  B  B29  1  0.09033024  0.31748123  0.68362462  1
  O  O30  1  0.64776362  0.00734171  0.46854992  1
  O  O31  1  0.98161482  0.67751640  0.79953750  1
  O  O32  1  0.31749017  0.34467176  0.13197894  1
  O  O33  1  0.18816742  0.15366408  0.37018963  1
  O  O34  1  0.51858756  0.82227315  0.70152799  1
  O  O35  1  0.85216938  0.48875995  0.03437706  1
  O  O36  1  0.67439622  0.98140947  0.19809595  1
  O  O37  1  0.01085671  0.65061226  0.53469098  1
  O  O38  1  0.34441998  0.31536587  0.86717612  1
  O  O39  1  0.82055449  0.52162618  0.29641584  1
  O  O40  1  0.15570298  0.18569681  0.63224952  1
  O  O41  1  0.48839737  0.85179168  0.96530750  1
  O  O42  1  0.94718322  0.34781504  0.47173826  1
  O  O43  1  0.27944118  0.01391463  0.80141466  1
  O  O44  1  0.61199992  0.67934250  0.13441042  1
  O  O45  1  0.88162706  0.82516486  0.35773736  1
  O  O46  1  0.21168955  0.49541424  0.68870884  1
  O  O47  1  0.54437968  0.16214980  0.02199830  1
  O  O48  1  0.01460155  0.28108646  0.19496935  1
  O  O49  1  0.34566792  0.94499097  0.53232838  1
  O  O50  1  0.68076498  0.61253473  0.86513274  1
  O  O51  1  0.49168417  0.21498684  0.30897356  1
  O  O52  1  0.82886362  0.87808047  0.64474317  1
  O  O53  1  0.16191746  0.54456062  0.97783290  1
  O  O54  1  0.54010790  0.26304189  0.54135265  1
  O  O55  1  0.87427137  0.93041419  0.87521502  1
  O  O56  1  0.20819565  0.59645841  0.20807871  1
  O  O57  1  0.27334585  0.92213726  0.27320143  1
  O  O58  1  0.60664530  0.58959710  0.60630578  1
  O  O59  1  0.94024202  0.25456407  0.93971595  1
  O  O60  1  0.26291120  0.54150993  0.45875875  1
  O  O61  1  0.59704144  0.20771728  0.79152891  1
  O  O62  1  0.93042965  0.87357802  0.12496417  1
  O  O63  1  0.58916859  0.60685185  0.39360606  1
  O  O64  1  0.92147884  0.27361908  0.72694512  1
  O  O65  1  0.25530677  0.93975863  0.06034584  1
