# generated using pymatgen
data_SrCeVO4
_symmetry_space_group_name_H-M   'P 1'
_cell_length_a   3.92510297
_cell_length_b   3.92510297
_cell_length_c   6.85641333
_cell_angle_alpha   73.36726289
_cell_angle_beta   73.36726289
_cell_angle_gamma   90.00000000
_symmetry_Int_Tables_number   1
_chemical_formula_structural   SrCeVO4
_chemical_formula_sum   'Sr1 Ce1 V1 O4'
_cell_volume   96.59131793
_cell_formula_units_Z   1
loop_
 _symmetry_equiv_pos_site_id
 _symmetry_equiv_pos_as_xyz
  1  'x, y, z'
loop_
 _atom_site_type_symbol
 _atom_site_label
 _atom_site_symmetry_multiplicity
 _atom_site_fract_x
 _atom_site_fract_y
 _atom_site_fract_z
 _atom_site_occupancy
  Sr  Sr0  1  0.35592053  0.35592053  0.28815893  1
  Ce  Ce1  1  0.64267809  0.64267809  0.71464382  1
  V  V2  1  0.99874272  0.99874272  0.00251455  1
  O  O3  1  0.50755364  0.00755364  0.98489271  1
  O  O4  1  0.00755364  0.50755364  0.98489271  1
  O  O5  1  0.16669514  0.16669514  0.66660972  1
  O  O6  1  0.82085623  0.82085623  0.35828754  1
