# generated using pymatgen
data_K2Co(SO5)2
_symmetry_space_group_name_H-M   'P 1'
_cell_length_a   5.20481147
_cell_length_b   6.88316920
_cell_length_c   14.06920419
_cell_angle_alpha   90.00000000
_cell_angle_beta   90.00000000
_cell_angle_gamma   70.19836933
_symmetry_Int_Tables_number   1
_chemical_formula_structural   K2Co(SO5)2
_chemical_formula_sum   'K4 Co2 S4 O20'
_cell_volume   474.23447543
_cell_formula_units_Z   2
loop_
 _symmetry_equiv_pos_site_id
 _symmetry_equiv_pos_as_xyz
  1  'x, y, z'
loop_
 _atom_site_type_symbol
 _atom_site_label
 _atom_site_symmetry_multiplicity
 _atom_site_fract_x
 _atom_site_fract_y
 _atom_site_fract_z
 _atom_site_occupancy
  K  K0  1  0.21703422  0.91961213  0.34992892  1
  K  K1  1  0.78296578  0.58038787  0.84992892  1
  K  K2  1  0.78296578  0.08038787  0.65007108  1
  K  K3  1  0.21703422  0.41961213  0.15007108  1
  Co  Co4  1  0.00000000  0.50000000  0.50000000  1
  Co  Co5  1  0.00000000  -0.00000000  -0.00000000  1
  S  S6  1  0.55474832  0.29904065  0.40061827  1
  S  S7  1  0.44525168  0.20095935  0.90061827  1
  S  S8  1  0.44525168  0.70095935  0.59938173  1
  S  S9  1  0.55474832  0.79904065  0.09938173  1
  O  O10  1  0.62698329  0.11289040  0.34217267  1
  O  O11  1  0.37301671  0.38710960  0.84217267  1
  O  O12  1  0.37301671  0.88710960  0.65782733  1
  O  O13  1  0.62698329  0.61289040  0.15782733  1
  O  O14  1  0.79301748  0.28968763  0.46315383  1
  O  O15  1  0.20698252  0.21031237  0.96315383  1
  O  O16  1  0.20698252  0.71031237  0.53684617  1
  O  O17  1  0.79301748  0.78968763  0.03684617  1
  O  O18  1  0.33180466  0.28288120  0.47115701  1
  O  O19  1  0.66819534  0.21711880  0.97115701  1
  O  O20  1  0.66819534  0.71711880  0.52884299  1
  O  O21  1  0.33180466  0.78288120  0.02884299  1
  O  O22  1  0.45065904  0.49205671  0.34642778  1
  O  O23  1  0.54934096  0.00794329  0.84642778  1
  O  O24  1  0.54934096  0.50794329  0.65357222  1
  O  O25  1  0.45065904  0.99205671  0.15357222  1
  O  O26  1  0.96482807  0.60311786  0.38504516  1
  O  O27  1  0.03517193  0.89688214  0.88504516  1
  O  O28  1  0.03517193  0.39688214  0.61495484  1
  O  O29  1  0.96482807  0.10311786  0.11495484  1
