# generated using pymatgen
data_Sr3NbCoO7
_symmetry_space_group_name_H-M   'P 1'
_cell_length_a   3.98829884
_cell_length_b   3.98829884
_cell_length_c   10.79749467
_cell_angle_alpha   79.35715601
_cell_angle_beta   79.35715601
_cell_angle_gamma   90.00000000
_symmetry_Int_Tables_number   1
_chemical_formula_structural   Sr3NbCoO7
_chemical_formula_sum   'Sr3 Nb1 Co1 O7'
_cell_volume   165.78892902
_cell_formula_units_Z   1
loop_
 _symmetry_equiv_pos_site_id
 _symmetry_equiv_pos_as_xyz
  1  'x, y, z'
loop_
 _atom_site_type_symbol
 _atom_site_label
 _atom_site_symmetry_multiplicity
 _atom_site_fract_x
 _atom_site_fract_y
 _atom_site_fract_z
 _atom_site_occupancy
  Sr  Sr0  1  0.30710537  0.30710537  0.38578926  1
  Sr  Sr1  1  0.67876575  0.67876575  0.64246851  1
  Sr  Sr2  1  0.51706632  0.51706632  0.96586735  1
  Nb  Nb3  1  0.90510450  0.90510450  0.18979099  1
  Co  Co4  1  0.10001166  0.10001166  0.79997668  1
  O  O5  1  0.59528328  0.09528328  0.80943344  1
  O  O6  1  0.09528328  0.59528328  0.80943344  1
  O  O7  1  0.40123794  0.90123794  0.19752411  1
  O  O8  1  0.90123794  0.40123794  0.19752411  1
  O  O9  1  0.99763032  0.99763032  0.00473936  1
  O  O10  1  0.19545964  0.19545964  0.60908072  1
  O  O11  1  0.80581398  0.80581398  0.38837205  1
