# generated using pymatgen
data_Sn2SbS2I3
_symmetry_space_group_name_H-M   'P 1'
_cell_length_a   4.32743833
_cell_length_b   7.77617667
_cell_length_c   17.46130328
_cell_angle_alpha   90.00000000
_cell_angle_beta   90.00000000
_cell_angle_gamma   73.84422836
_symmetry_Int_Tables_number   1
_chemical_formula_structural   Sn2SbS2I3
_chemical_formula_sum   'Sn4 Sb2 S4 I6'
_cell_volume   564.38438898
_cell_formula_units_Z   2
loop_
 _symmetry_equiv_pos_site_id
 _symmetry_equiv_pos_as_xyz
  1  'x, y, z'
loop_
 _atom_site_type_symbol
 _atom_site_label
 _atom_site_symmetry_multiplicity
 _atom_site_fract_x
 _atom_site_fract_y
 _atom_site_fract_z
 _atom_site_occupancy
  Sn  Sn0  1  0.87071983  0.25856033  0.49379560  1
  Sn  Sn1  1  0.14024594  0.71950811  0.52410436  1
  Sn  Sn2  1  0.85975406  0.28049189  0.02410436  1
  Sn  Sn3  1  0.12928017  0.74143967  0.99379560  1
  Sb  Sb4  1  0.20956879  0.58086242  0.29029542  1
  Sb  Sb5  1  0.79043121  0.41913758  0.79029542  1
  S  S6  1  0.27254779  0.45490441  0.41922320  1
  S  S7  1  0.72927135  0.54145730  0.57882629  1
  S  S8  1  0.27072865  0.45854270  0.07882629  1
  S  S9  1  0.72745221  0.54509559  0.91922320  1
  I  I10  1  0.84546959  0.30906082  0.24933687  1
  I  I11  1  0.15453041  0.69093918  0.74933687  1
  I  I12  1  0.57358191  0.85283618  0.34985783  1
  I  I13  1  0.44297269  0.11405461  0.61047043  1
  I  I14  1  0.55702731  0.88594539  0.11047043  1
  I  I15  1  0.42641809  0.14716382  0.84985783  1
