# generated using pymatgen
data_RbIn(TeMo)6
_symmetry_space_group_name_H-M   'P 1'
_cell_length_a   4.60430969
_cell_length_b   10.53600791
_cell_length_c   10.53330150
_cell_angle_alpha   119.95958209
_cell_angle_beta   90.00000000
_cell_angle_gamma   90.00000000
_symmetry_Int_Tables_number   1
_chemical_formula_structural   RbIn(TeMo)6
_chemical_formula_sum   'Rb1 In1 Te6 Mo6'
_cell_volume   442.70303222
_cell_formula_units_Z   1
loop_
 _symmetry_equiv_pos_site_id
 _symmetry_equiv_pos_as_xyz
  1  'x, y, z'
loop_
 _atom_site_type_symbol
 _atom_site_label
 _atom_site_symmetry_multiplicity
 _atom_site_fract_x
 _atom_site_fract_y
 _atom_site_fract_z
 _atom_site_occupancy
  Rb  Rb0  1  0.75000000  0.66638515  0.33310006  1
  In  In1  1  0.25000000  0.33291222  0.66741534  1
  Te  Te2  1  0.75000000  0.70462866  0.67948579  1
  Te  Te3  1  0.75000000  0.32053816  0.02456944  1
  Te  Te4  1  0.75000000  0.97504930  0.29578926  1
  Te  Te5  1  0.25000000  0.29326833  0.32846323  1
  Te  Te6  1  0.25000000  0.67136507  0.96472964  1
  Te  Te7  1  0.25000000  0.03543884  0.70666008  1
  Mo  Mo8  1  0.75000000  0.01464924  0.86114507  1
  Mo  Mo9  1  0.75000000  0.13895370  0.15319744  1
  Mo  Mo10  1  0.75000000  0.84665391  0.98553544  1
  Mo  Mo11  1  0.25000000  0.98561914  0.13833422  1
  Mo  Mo12  1  0.25000000  0.86194155  0.84727493  1
  Mo  Mo13  1  0.25000000  0.15259674  0.01430007  1
