# generated using pymatgen
data_NaYbTi2O6
_symmetry_space_group_name_H-M   'P 1'
_cell_length_a   5.37699527
_cell_length_b   5.49718306
_cell_length_c   7.67187200
_cell_angle_alpha   90.00000000
_cell_angle_beta   90.00000000
_cell_angle_gamma   90.00000000
_symmetry_Int_Tables_number   1
_chemical_formula_structural   NaYbTi2O6
_chemical_formula_sum   'Na2 Yb2 Ti4 O12'
_cell_volume   226.76770367
_cell_formula_units_Z   2
loop_
 _symmetry_equiv_pos_site_id
 _symmetry_equiv_pos_as_xyz
  1  'x, y, z'
loop_
 _atom_site_type_symbol
 _atom_site_label
 _atom_site_symmetry_multiplicity
 _atom_site_fract_x
 _atom_site_fract_y
 _atom_site_fract_z
 _atom_site_occupancy
  Na  Na0  1  0.49549738  0.97272672  0.25000000  1
  Na  Na1  1  0.99549738  0.52727328  0.75000000  1
  Yb  Yb2  1  0.01337343  0.44477151  0.25000000  1
  Yb  Yb3  1  0.51337343  0.05522849  0.75000000  1
  Ti  Ti4  1  0.50493740  0.51170637  0.00198716  1
  Ti  Ti5  1  0.00493740  0.98829363  0.50198716  1
  Ti  Ti6  1  0.50493740  0.51170637  0.49801284  1
  Ti  Ti7  1  0.00493740  0.98829363  0.99801284  1
  O  O8  1  0.94115463  0.01708205  0.25000000  1
  O  O9  1  0.57676182  0.51587480  0.25000000  1
  O  O10  1  0.07676182  0.98412520  0.75000000  1
  O  O11  1  0.44115463  0.48291795  0.75000000  1
  O  O12  1  0.20309527  0.70714539  0.04297189  1
  O  O13  1  0.27857370  0.22088611  0.47133391  1
  O  O14  1  0.77857370  0.27911389  0.52866609  1
  O  O15  1  0.70309527  0.79285461  0.95702811  1
  O  O16  1  0.77857370  0.27911389  0.97133391  1
  O  O17  1  0.70309527  0.79285461  0.54297189  1
  O  O18  1  0.20309527  0.70714539  0.45702811  1
  O  O19  1  0.27857370  0.22088611  0.02866609  1
