# generated using pymatgen
data_PrMn2SiGe
_symmetry_space_group_name_H-M   'P 1'
_cell_length_a   3.99228279
_cell_length_b   3.99228279
_cell_length_c   6.10745407
_cell_angle_alpha   70.92309424
_cell_angle_beta   70.92309424
_cell_angle_gamma   90.00000000
_symmetry_Int_Tables_number   1
_chemical_formula_structural   PrMn2SiGe
_chemical_formula_sum   'Pr1 Mn2 Si1 Ge1'
_cell_volume   86.32014754
_cell_formula_units_Z   1
loop_
 _symmetry_equiv_pos_site_id
 _symmetry_equiv_pos_as_xyz
  1  'x, y, z'
loop_
 _atom_site_type_symbol
 _atom_site_label
 _atom_site_symmetry_multiplicity
 _atom_site_fract_x
 _atom_site_fract_y
 _atom_site_fract_z
 _atom_site_occupancy
  Pr  Pr0  1  0.00181286  0.00181286  0.99637427  1
  Mn  Mn1  1  0.74623953  0.24623953  0.50752093  1
  Mn  Mn2  1  0.24623953  0.74623953  0.50752093  1
  Si  Si3  1  0.62752843  0.62752843  0.74494314  1
  Ge  Ge4  1  0.37817964  0.37817964  0.24364072  1
