# generated using pymatgen
data_Pr2Cr2Co15
_symmetry_space_group_name_H-M   'P 1'
_cell_length_a   6.32528149
_cell_length_b   6.29491846
_cell_length_c   6.32528149
_cell_angle_alpha   83.15717961
_cell_angle_beta   83.68934319
_cell_angle_gamma   83.15717961
_symmetry_Int_Tables_number   1
_chemical_formula_structural   Pr2Cr2Co15
_chemical_formula_sum   'Pr2 Cr2 Co15'
_cell_volume   247.10603550
_cell_formula_units_Z   1
loop_
 _symmetry_equiv_pos_site_id
 _symmetry_equiv_pos_as_xyz
  1  'x, y, z'
loop_
 _atom_site_type_symbol
 _atom_site_label
 _atom_site_symmetry_multiplicity
 _atom_site_fract_x
 _atom_site_fract_y
 _atom_site_fract_z
 _atom_site_occupancy
  Pr  Pr0  1  0.65231338  0.64907886  0.65231338  1
  Pr  Pr1  1  0.34768662  0.35092114  0.34768662  1
  Cr  Cr2  1  0.50000000  -0.00000000  0.00000000  1
  Cr  Cr3  1  0.00000000  -0.00000000  0.50000000  1
  Co  Co4  1  0.71554074  -0.00000000  0.28445926  1
  Co  Co5  1  0.00013277  0.28310215  0.71672925  1
  Co  Co6  1  0.28327075  0.71689785  -0.00013277  1
  Co  Co7  1  -0.00013277  0.71689785  0.28327075  1
  Co  Co8  1  0.71672925  0.28310215  0.00013277  1
  Co  Co9  1  0.28445926  -0.00000000  0.71554074  1
  Co  Co10  1  0.34251796  0.85880288  0.34251796  1
  Co  Co11  1  0.85751024  0.34180678  0.34132425  1
  Co  Co12  1  0.34132425  0.34180678  0.85751024  1
  Co  Co13  1  0.65748204  0.14119712  0.65748204  1
  Co  Co14  1  0.14248976  0.65819322  0.65867575  1
  Co  Co15  1  0.65867575  0.65819322  0.14248976  1
  Co  Co16  1  0.90356261  0.90245001  0.90356261  1
  Co  Co17  1  0.09643739  0.09754999  0.09643739  1
  Co  Co18  1  0.00000000  0.50000000  0.00000000  1
