# generated using pymatgen
data_Dy5Ge3B
_symmetry_space_group_name_H-M   'P 1'
_cell_length_a   8.63884810
_cell_length_b   8.63884802
_cell_length_c   6.42990768
_cell_angle_alpha   90.00000000
_cell_angle_beta   90.00000000
_cell_angle_gamma   119.98756215
_symmetry_Int_Tables_number   1
_chemical_formula_structural   Dy5Ge3B
_chemical_formula_sum   'Dy10 Ge6 B2'
_cell_volume   415.62480394
_cell_formula_units_Z   2
loop_
 _symmetry_equiv_pos_site_id
 _symmetry_equiv_pos_as_xyz
  1  'x, y, z'
loop_
 _atom_site_type_symbol
 _atom_site_label
 _atom_site_symmetry_multiplicity
 _atom_site_fract_x
 _atom_site_fract_y
 _atom_site_fract_z
 _atom_site_occupancy
  Dy  Dy0  1  0.66659031  0.33337343  0.50003210  1
  Dy  Dy1  1  0.33337343  0.66659031  0.50003210  1
  Dy  Dy2  1  0.33340969  0.66662657  0.00003210  1
  Dy  Dy3  1  0.66662657  0.33340969  0.00003210  1
  Dy  Dy4  1  0.76418339  0.76418339  0.25001974  1
  Dy  Dy5  1  0.23590097  0.99997444  0.24996903  1
  Dy  Dy6  1  0.99997444  0.23590097  0.24996903  1
  Dy  Dy7  1  0.23581661  0.23581661  0.75001974  1
  Dy  Dy8  1  0.76409903  0.00002556  0.74996903  1
  Dy  Dy9  1  0.00002556  0.76409903  0.74996903  1
  Ge  Ge10  1  0.40090061  0.40090061  0.24995290  1
  Ge  Ge11  1  0.59908181  0.00007468  0.25002957  1
  Ge  Ge12  1  0.00007468  0.59908181  0.25002957  1
  Ge  Ge13  1  0.59909939  0.59909939  0.74995290  1
  Ge  Ge14  1  0.40091819  0.99992532  0.75002957  1
  Ge  Ge15  1  0.99992532  0.40091819  0.75002957  1
  B  B16  1  0.00000973  0.00000973  0.49996596  1
  B  B17  1  0.99999027  0.99999027  0.99996596  1
