# generated using pymatgen
data_Nd2In3Ni
_symmetry_space_group_name_H-M   'P 1'
_cell_length_a   3.82898401
_cell_length_b   4.76914022
_cell_length_c   8.28047064
_cell_angle_alpha   89.99267487
_cell_angle_beta   90.00000000
_cell_angle_gamma   90.00000000
_symmetry_Int_Tables_number   1
_chemical_formula_structural   Nd2In3Ni
_chemical_formula_sum   'Nd2 In3 Ni1'
_cell_volume   151.20935552
_cell_formula_units_Z   1
loop_
 _symmetry_equiv_pos_site_id
 _symmetry_equiv_pos_as_xyz
  1  'x, y, z'
loop_
 _atom_site_type_symbol
 _atom_site_label
 _atom_site_symmetry_multiplicity
 _atom_site_fract_x
 _atom_site_fract_y
 _atom_site_fract_z
 _atom_site_occupancy
  Nd  Nd0  1  -0.00000000  0.99998193  0.02825220  1
  Nd  Nd1  1  -0.00000000  0.50005873  0.48492071  1
  In  In2  1  0.50000000  0.49995957  0.83615974  1
  In  In3  1  0.50000000  0.49994557  0.18152407  1
  In  In4  1  0.50000000  0.99999285  0.64422789  1
  Ni  Ni5  1  0.50000000  0.99986135  0.32491540  1
