# generated using pymatgen
data_NdZrNO2
_symmetry_space_group_name_H-M   'P 1'
_cell_length_a   5.76623397
_cell_length_b   5.95500546
_cell_length_c   8.22330583
_cell_angle_alpha   90.00000000
_cell_angle_beta   89.29946602
_cell_angle_gamma   90.00000000
_symmetry_Int_Tables_number   1
_chemical_formula_structural   NdZrNO2
_chemical_formula_sum   'Nd4 Zr4 N4 O8'
_cell_volume   282.35039784
_cell_formula_units_Z   4
loop_
 _symmetry_equiv_pos_site_id
 _symmetry_equiv_pos_as_xyz
  1  'x, y, z'
loop_
 _atom_site_type_symbol
 _atom_site_label
 _atom_site_symmetry_multiplicity
 _atom_site_fract_x
 _atom_site_fract_y
 _atom_site_fract_z
 _atom_site_occupancy
  Nd  Nd0  1  0.52122176  0.55107098  0.25805442  1
  Nd  Nd1  1  0.97877824  0.05107098  0.24194558  1
  Nd  Nd2  1  0.47877824  0.44892902  0.74194558  1
  Nd  Nd3  1  0.02122176  0.94892902  0.75805442  1
  Zr  Zr4  1  0.50000000  0.00000000  0.00000000  1
  Zr  Zr5  1  -0.00000000  0.50000000  0.50000000  1
  Zr  Zr6  1  0.50000000  0.00000000  0.50000000  1
  Zr  Zr7  1  -0.00000000  0.50000000  0.00000000  1
  N  N8  1  0.79620140  0.79557481  0.05848403  1
  N  N9  1  0.70379860  0.29557481  0.44151597  1
  N  N10  1  0.20379860  0.20442519  0.94151597  1
  N  N11  1  0.29620140  0.70442519  0.55848403  1
  O  O12  1  0.38379123  0.95883882  0.24994035  1
  O  O13  1  0.11620877  0.45883882  0.25005965  1
  O  O14  1  0.61620877  0.04116118  0.75005965  1
  O  O15  1  0.88379123  0.54116118  0.74994035  1
  O  O16  1  0.20657580  0.20707799  0.56646329  1
  O  O17  1  0.29342420  0.70707799  0.93353671  1
  O  O18  1  0.79342420  0.79292201  0.43353671  1
  O  O19  1  0.70657580  0.29292201  0.06646329  1
