# generated using pymatgen
data_MnCrSi2
_symmetry_space_group_name_H-M   'P 1'
_cell_length_a   4.55452250
_cell_length_b   4.54346079
_cell_length_c   4.56070873
_cell_angle_alpha   90.00000000
_cell_angle_beta   90.00000000
_cell_angle_gamma   90.77434340
_symmetry_Int_Tables_number   1
_chemical_formula_structural   MnCrSi2
_chemical_formula_sum   'Mn2 Cr2 Si4'
_cell_volume   94.36746956
_cell_formula_units_Z   2
loop_
 _symmetry_equiv_pos_site_id
 _symmetry_equiv_pos_as_xyz
  1  'x, y, z'
loop_
 _atom_site_type_symbol
 _atom_site_label
 _atom_site_symmetry_multiplicity
 _atom_site_fract_x
 _atom_site_fract_y
 _atom_site_fract_z
 _atom_site_occupancy
  Mn  Mn0  1  0.36526796  0.85943418  0.63783896  1
  Mn  Mn1  1  0.13473204  0.14056582  0.13783896  1
  Cr  Cr2  1  0.85984874  0.63495367  0.36277847  1
  Cr  Cr3  1  0.64015126  0.36504633  0.86277847  1
  Si  Si4  1  0.15431920  0.34073693  0.65241936  1
  Si  Si5  1  0.34568080  0.65926307  0.15241936  1
  Si  Si6  1  0.64972483  0.14925696  0.34696320  1
  Si  Si7  1  0.85027517  0.85074304  0.84696320  1
