# generated using pymatgen
data_NaPr2Cl6
_symmetry_space_group_name_H-M   'P 1'
_cell_length_a   3.95665734
_cell_length_b   7.99462035
_cell_length_c   8.00083283
_cell_angle_alpha   119.95085903
_cell_angle_beta   90.00212669
_cell_angle_gamma   90.00237801
_symmetry_Int_Tables_number   1
_chemical_formula_structural   NaPr2Cl6
_chemical_formula_sum   'Na1 Pr2 Cl6'
_cell_volume   219.28400326
_cell_formula_units_Z   1
loop_
 _symmetry_equiv_pos_site_id
 _symmetry_equiv_pos_as_xyz
  1  'x, y, z'
loop_
 _atom_site_type_symbol
 _atom_site_label
 _atom_site_symmetry_multiplicity
 _atom_site_fract_x
 _atom_site_fract_y
 _atom_site_fract_z
 _atom_site_occupancy
  Na  Na0  1  0.50000000  -0.00000000  -0.00000000  1
  Pr  Pr1  1  0.74906516  0.66636764  0.33335229  1
  Pr  Pr2  1  0.25093484  0.33363236  0.66664771  1
  Cl  Cl3  1  0.74949971  0.07978972  0.69735406  1
  Cl  Cl4  1  0.74954060  0.30252137  0.38237814  1
  Cl  Cl5  1  0.74956891  0.61781427  0.92014896  1
  Cl  Cl6  1  0.25050029  0.92021028  0.30264594  1
  Cl  Cl7  1  0.25045940  0.69747863  0.61762186  1
  Cl  Cl8  1  0.25043109  0.38218573  0.07985104  1
