# generated using pymatgen
data_Nd4Cr3Fe25B2
_symmetry_space_group_name_H-M   'P 1'
_cell_length_a   8.76496499
_cell_length_b   8.76496499
_cell_length_c   12.13701677
_cell_angle_alpha   90.00000000
_cell_angle_beta   90.00000000
_cell_angle_gamma   90.21821798
_symmetry_Int_Tables_number   1
_chemical_formula_structural   Nd4Cr3Fe25B2
_chemical_formula_sum   'Nd8 Cr6 Fe50 B4'
_cell_volume   932.41483330
_cell_formula_units_Z   2
loop_
 _symmetry_equiv_pos_site_id
 _symmetry_equiv_pos_as_xyz
  1  'x, y, z'
loop_
 _atom_site_type_symbol
 _atom_site_label
 _atom_site_symmetry_multiplicity
 _atom_site_fract_x
 _atom_site_fract_y
 _atom_site_fract_z
 _atom_site_occupancy
  Nd  Nd0  1  0.23393254  0.76606746  0.49946317  1
  Nd  Nd1  1  0.76606746  0.23393254  0.49946317  1
  Nd  Nd2  1  0.26646952  0.26646952  0.00049127  1
  Nd  Nd3  1  0.73353048  0.73353048  0.00049127  1
  Nd  Nd4  1  0.64187106  0.64187106  0.49957069  1
  Nd  Nd5  1  0.35812894  0.35812894  0.49957069  1
  Nd  Nd6  1  0.85772088  0.14227912  0.00069399  1
  Nd  Nd7  1  0.14227912  0.85772088  0.00069399  1
  Cr  Cr8  1  0.67805037  0.67805037  0.24511990  1
  Cr  Cr9  1  0.32194963  0.32194963  0.24511990  1
  Cr  Cr10  1  0.50000000  0.50000000  0.11730266  1
  Cr  Cr11  1  0.00000000  0.00000000  0.62032690  1
  Cr  Cr12  1  0.50000000  0.50000000  0.87925162  1
  Cr  Cr13  1  0.00000000  0.00000000  0.37779569  1
  Fe  Fe14  1  0.40203041  0.59796959  0.29388412  1
  Fe  Fe15  1  0.59796959  0.40203041  0.29388412  1
  Fe  Fe16  1  0.09952154  0.09952154  0.79394700  1
  Fe  Fe17  1  0.90047846  0.90047846  0.79394700  1
  Fe  Fe18  1  0.59967831  0.40032169  0.70552520  1
  Fe  Fe19  1  0.40032169  0.59967831  0.70552520  1
  Fe  Fe20  1  0.89958876  0.89958876  0.20666088  1
  Fe  Fe21  1  0.10041124  0.10041124  0.20666088  1
  Fe  Fe22  1  0.14049447  0.53769642  0.32380962  1
  Fe  Fe23  1  0.85950553  0.46230358  0.32380962  1
  Fe  Fe24  1  0.35989163  0.03764019  0.82412972  1
  Fe  Fe25  1  0.64010837  0.96235981  0.82412972  1
  Fe  Fe26  1  0.85983221  0.46200155  0.67558925  1
  Fe  Fe27  1  0.14016779  0.53799845  0.67558925  1
  Fe  Fe28  1  0.64082708  0.96129591  0.17645221  1
  Fe  Fe29  1  0.35917292  0.03870409  0.17645221  1
  Fe  Fe30  1  0.53769642  0.14049447  0.32380962  1
  Fe  Fe31  1  0.46230358  0.85950553  0.32380962  1
  Fe  Fe32  1  0.03764019  0.35989163  0.82412972  1
  Fe  Fe33  1  0.96235981  0.64010837  0.82412972  1
  Fe  Fe34  1  0.46200155  0.85983221  0.67558925  1
  Fe  Fe35  1  0.53799845  0.14016779  0.67558925  1
  Fe  Fe36  1  0.96129591  0.64082708  0.17645221  1
  Fe  Fe37  1  0.03870409  0.35917292  0.17645221  1
  Fe  Fe38  1  0.93258983  0.72301028  0.37275154  1
  Fe  Fe39  1  0.06741017  0.27698972  0.37275154  1
  Fe  Fe40  1  0.56714244  0.22346317  0.87352224  1
  Fe  Fe41  1  0.43285756  0.77653683  0.87352224  1
  Fe  Fe42  1  0.06670817  0.27637291  0.62638048  1
  Fe  Fe43  1  0.93329183  0.72362709  0.62638048  1
  Fe  Fe44  1  0.43331408  0.77677039  0.12861912  1
  Fe  Fe45  1  0.56668592  0.22322961  0.12861912  1
  Fe  Fe46  1  0.72301028  0.93258983  0.37275154  1
  Fe  Fe47  1  0.27698972  0.06741017  0.37275154  1
  Fe  Fe48  1  0.22346317  0.56714244  0.87352224  1
  Fe  Fe49  1  0.77653683  0.43285756  0.87352224  1
  Fe  Fe50  1  0.27637291  0.06670817  0.62638048  1
  Fe  Fe51  1  0.72362709  0.93329183  0.62638048  1
  Fe  Fe52  1  0.77677039  0.43331408  0.12861912  1
  Fe  Fe53  1  0.22322961  0.56668592  0.12861912  1
  Fe  Fe54  1  0.00000000  0.50000000  0.49910809  1
  Fe  Fe55  1  0.50000000  0.00000000  0.00106294  1
  Fe  Fe56  1  0.50000000  0.00000000  0.49910809  1
  Fe  Fe57  1  0.00000000  0.50000000  0.00106294  1
  Fe  Fe58  1  0.18123032  0.81876968  0.25414572  1
  Fe  Fe59  1  0.81876968  0.18123032  0.25414572  1
  Fe  Fe60  1  0.31803956  0.31803956  0.75372640  1
  Fe  Fe61  1  0.68196044  0.68196044  0.75372640  1
  Fe  Fe62  1  0.81830538  0.18169462  0.74585805  1
  Fe  Fe63  1  0.18169462  0.81830538  0.74585805  1
  B  B64  1  0.87412856  0.87412856  0.49939550  1
  B  B65  1  0.12587144  0.12587144  0.49939550  1
  B  B66  1  0.62670830  0.37329170  0.00150029  1
  B  B67  1  0.37329170  0.62670830  0.00150029  1
