# generated using pymatgen
data_Na4Li5(WO3)10
_symmetry_space_group_name_H-M   'P 1'
_cell_length_a   8.85277791
_cell_length_b   8.86559912
_cell_length_c   8.83023217
_cell_angle_alpha   89.71154700
_cell_angle_beta   101.76133154
_cell_angle_gamma   113.97920703
_symmetry_Int_Tables_number   1
_chemical_formula_structural   Na4Li5(WO3)10
_chemical_formula_sum   'Na4 Li5 W10 O30'
_cell_volume   617.58388931
_cell_formula_units_Z   1
loop_
 _symmetry_equiv_pos_site_id
 _symmetry_equiv_pos_as_xyz
  1  'x, y, z'
loop_
 _atom_site_type_symbol
 _atom_site_label
 _atom_site_symmetry_multiplicity
 _atom_site_fract_x
 _atom_site_fract_y
 _atom_site_fract_z
 _atom_site_occupancy
  Na  Na0  1  0.49673701  0.19884906  0.10757783  1
  Na  Na1  1  0.00841744  0.40446754  0.20054816  1
  Na  Na2  1  0.49115431  0.59956888  0.30189887  1
  Na  Na3  1  0.00173764  0.80399388  0.40191585  1
  Li  Li4  1  0.60093517  0.04090796  0.52703143  1
  Li  Li5  1  0.98701718  0.22882401  0.50388266  1
  Li  Li6  1  0.50468735  0.34294186  0.77411583  1
  Li  Li7  1  0.94178854  0.55724960  0.84195780  1
  Li  Li8  1  0.50033241  0.89004968  0.90334608  1
  W  W9  1  0.25031767  0.60318454  0.54787127  1
  W  W10  1  0.75027504  0.79896867  0.65323656  1
  W  W11  1  0.24989363  0.80181912  0.14733852  1
  W  W12  1  0.24818598  0.19936062  0.34813862  1
  W  W13  1  0.75095009  0.40142168  0.45000217  1
  W  W14  1  0.25454535  0.40430073  0.94896270  1
  W  W15  1  0.75197031  0.60082029  0.04994141  1
  W  W16  1  0.74725416  0.99310067  0.24717896  1
  W  W17  1  0.24455295  0.99817768  0.75061262  1
  W  W18  1  0.75250570  0.19572377  0.84739686  1
  O  O19  1  0.23458061  0.78531375  0.64589803  1
  O  O20  1  0.73503735  0.99259797  0.74383565  1
  O  O21  1  0.23609802  0.98864183  0.24186522  1
  O  O22  1  0.26281132  0.41079054  0.45273338  1
  O  O23  1  0.76742987  0.60361263  0.54009029  1
  O  O24  1  0.24401842  0.59863975  0.05937554  1
  O  O25  1  0.76998402  0.80659650  0.16812349  1
  O  O26  1  0.73895498  0.18636202  0.35783806  1
  O  O27  1  0.28390116  0.21674000  0.85100851  1
  O  O28  1  0.72418505  0.39461984  0.92718791  1
  O  O29  1  0.00652952  0.46531850  0.51672174  1
  O  O30  1  0.49170525  0.71355768  0.57463418  1
  O  O31  1  0.98959449  0.69178645  0.05288979  1
  O  O32  1  0.99764288  0.13467351  0.29678425  1
  O  O33  1  0.49995975  0.30083650  0.37920760  1
  O  O34  1  0.99271551  0.30932478  0.90324141  1
  O  O35  1  0.50916270  0.50758190  0.02496303  1
  O  O36  1  0.49834936  0.87476221  0.23976023  1
  O  O37  1  0.00812594  0.89549327  0.72370396  1
  O  O38  1  0.49325905  0.09265717  0.77045597  1
  O  O39  1  0.26959315  0.50988503  0.75863434  1
  O  O40  1  0.72078296  0.68234441  0.83139814  1
  O  O41  1  0.20604694  0.68098701  0.34730919  1
  O  O42  1  0.22880614  0.09407418  0.53743865  1
  O  O43  1  0.73823825  0.29009308  0.64387860  1
  O  O44  1  0.24866640  0.30240917  0.14623463  1
  O  O45  1  0.78277879  0.49906881  0.24828457  1
  O  O46  1  0.78161094  0.91253335  0.46569915  1
  O  O47  1  0.30235327  0.91524167  0.95742477  1
  O  O48  1  0.70382001  0.07972625  0.04042553  1
