# generated using pymatgen
data_Na2Ca5TiSi4(O8F)2
_symmetry_space_group_name_H-M   'P 1'
_cell_length_a   5.80962247
_cell_length_b   7.44091869
_cell_length_c   9.78605493
_cell_angle_alpha   101.05717453
_cell_angle_beta   101.43044334
_cell_angle_gamma   89.95439382
_symmetry_Int_Tables_number   1
_chemical_formula_structural   Na2Ca5TiSi4(O8F)2
_chemical_formula_sum   'Na2 Ca5 Ti1 Si4 O16 F2'
_cell_volume   406.64804336
_cell_formula_units_Z   1
loop_
 _symmetry_equiv_pos_site_id
 _symmetry_equiv_pos_as_xyz
  1  'x, y, z'
loop_
 _atom_site_type_symbol
 _atom_site_label
 _atom_site_symmetry_multiplicity
 _atom_site_fract_x
 _atom_site_fract_y
 _atom_site_fract_z
 _atom_site_occupancy
  Na  Na0  1  0.99845662  0.49968415  0.00086550  1
  Na  Na1  1  0.77850402  0.59332600  0.36608109  1
  Ca  Ca2  1  0.50903009  0.76387059  0.01252842  1
  Ca  Ca3  1  0.49733843  0.23552304  0.99063641  1
  Ca  Ca4  1  0.79289888  0.08855994  0.36070063  1
  Ca  Ca5  1  0.20832548  0.90916411  0.63876984  1
  Ca  Ca6  1  0.21056651  0.41004525  0.63489512  1
  Ti  Ti7  1  0.00182925  0.99992701  0.99676891  1
  Si  Si8  1  0.25086380  0.35255646  0.28305928  1
  Si  Si9  1  0.74919840  0.64696549  0.71621297  1
  Si  Si10  1  0.24996737  0.78622512  0.27833893  1
  Si  Si11  1  0.74681361  0.21447385  0.72112997  1
  O  O12  1  0.75142664  0.03175396  0.10563213  1
  O  O13  1  0.24843735  0.96778195  0.89599967  1
  O  O14  1  0.52790107  0.84505263  0.32075297  1
  O  O15  1  0.46682297  0.16360458  0.67406770  1
  O  O16  1  0.52280900  0.32633613  0.35590605  1
  O  O17  1  0.47362211  0.66443118  0.64588677  1
  O  O18  1  0.21697729  0.55971565  0.24500778  1
  O  O19  1  0.78560539  0.44100159  0.75790828  1
  O  O20  1  0.16444953  0.82833099  0.11623410  1
  O  O21  1  0.83232643  0.16858095  0.88227831  1
  O  O22  1  0.09008580  0.87069440  0.38945028  1
  O  O23  1  0.91960950  0.13968998  0.61388137  1
  O  O24  1  0.19270323  0.22164480  0.12310096  1
  O  O25  1  0.80631205  0.78095673  0.87605332  1
  O  O26  1  0.07518396  0.32769823  0.38776349  1
  O  O27  1  0.94160582  0.66592629  0.62055413  1
  F  F28  1  0.68366871  0.51854289  0.10491211  1
  F  F29  1  0.30666070  0.47793605  0.88462350  1
