# generated using pymatgen
data_MnZnS2
_symmetry_space_group_name_H-M   'P 1'
_cell_length_a   3.91583675
_cell_length_b   3.91578992
_cell_length_c   6.39264804
_cell_angle_alpha   90.00000000
_cell_angle_beta   89.99801160
_cell_angle_gamma   60.00038640
_symmetry_Int_Tables_number   1
_chemical_formula_structural   MnZnS2
_chemical_formula_sum   'Mn1 Zn1 S2'
_cell_volume   84.89010662
_cell_formula_units_Z   1
loop_
 _symmetry_equiv_pos_site_id
 _symmetry_equiv_pos_as_xyz
  1  'x, y, z'
loop_
 _atom_site_type_symbol
 _atom_site_label
 _atom_site_symmetry_multiplicity
 _atom_site_fract_x
 _atom_site_fract_y
 _atom_site_fract_z
 _atom_site_occupancy
  Mn  Mn0  1  0.66667882  0.66666059  0.49819119  1
  Zn  Zn1  1  0.33332705  0.33333648  0.99945097  1
  S  S2  1  0.66664714  0.66667643  0.11969351  1
  S  S3  1  0.33334699  0.33332651  0.63066433  1
