# generated using pymatgen
data_Mn3Al2V3
_symmetry_space_group_name_H-M   'P 1'
_cell_length_a   4.19429788
_cell_length_b   4.19429788
_cell_length_c   7.25675945
_cell_angle_alpha   73.29687130
_cell_angle_beta   106.70312870
_cell_angle_gamma   119.91949411
_symmetry_Int_Tables_number   1
_chemical_formula_structural   Mn3Al2V3
_chemical_formula_sum   'Mn3 Al2 V3'
_cell_volume   104.37158647
_cell_formula_units_Z   1
loop_
 _symmetry_equiv_pos_site_id
 _symmetry_equiv_pos_as_xyz
  1  'x, y, z'
loop_
 _atom_site_type_symbol
 _atom_site_label
 _atom_site_symmetry_multiplicity
 _atom_site_fract_x
 _atom_site_fract_y
 _atom_site_fract_z
 _atom_site_occupancy
  Mn  Mn0  1  0.24978426  0.75021574  0.74922643  1
  Mn  Mn1  1  0.99877287  0.00122713  0.99568078  1
  Mn  Mn2  1  0.50118328  0.49881672  0.50401623  1
  Al  Al3  1  0.12579750  0.87420250  0.37744188  1
  Al  Al4  1  0.62428591  0.37571409  0.87277495  1
  V  V5  1  0.37454239  0.62545761  0.12387151  1
  V  V6  1  0.87522484  0.12477516  0.62592307  1
  V  V7  1  0.75040895  0.24959105  0.25106515  1
