# generated using pymatgen
data_La3Mn4AgO12
_symmetry_space_group_name_H-M   'P 1'
_cell_length_a   5.52976255
_cell_length_b   7.81839998
_cell_length_c   5.56477808
_cell_angle_alpha   90.00000118
_cell_angle_beta   90.00000132
_cell_angle_gamma   90.70111814
_symmetry_Int_Tables_number   1
_chemical_formula_structural   La3Mn4AgO12
_chemical_formula_sum   'La3 Mn4 Ag1 O12'
_cell_volume   240.56902114
_cell_formula_units_Z   1
loop_
 _symmetry_equiv_pos_site_id
 _symmetry_equiv_pos_as_xyz
  1  'x, y, z'
loop_
 _atom_site_type_symbol
 _atom_site_label
 _atom_site_symmetry_multiplicity
 _atom_site_fract_x
 _atom_site_fract_y
 _atom_site_fract_z
 _atom_site_occupancy
  La  La0  1  0.00000000  0.75000000  0.49808225  1
  La  La1  1  0.50000000  0.75000000  0.99962380  1
  La  La2  1  1.00000000  0.25000000  0.49917628  1
  Mn  Mn3  1  0.99931008  0.49555114  0.99932595  1
  Mn  Mn4  1  0.49981929  0.00455237  0.49985762  1
  Mn  Mn5  1  0.00068992  0.00444886  0.99932595  1
  Mn  Mn6  1  0.50018071  0.49544763  0.49985762  1
  Ag  Ag7  1  0.50000000  0.25000000  0.99995754  1
  O  O8  1  0.21930061  0.53186010  0.71992520  1
  O  O9  1  0.72654448  0.02266386  0.22587498  1
  O  O10  1  0.27345552  0.47733614  0.22587498  1
  O  O11  1  0.78069939  0.96813990  0.71992520  1
  O  O12  1  0.00000000  0.75000000  0.05362179  1
  O  O13  1  0.50000000  0.25000000  0.56189082  1
  O  O14  1  0.73144996  0.53980846  0.76969091  1
  O  O15  1  0.21186828  0.01871298  0.28729252  1
  O  O16  1  1.00000000  0.25000000  0.93876361  1
  O  O17  1  0.50000000  0.75000000  0.44494958  1
  O  O18  1  0.78813172  0.48128702  0.28729252  1
  O  O19  1  0.26855004  0.96019154  0.76969091  1
