# generated using pymatgen
data_Mg3Ti4(PO4)6
_symmetry_space_group_name_H-M   'P 1'
_cell_length_a   6.49108717
_cell_length_b   8.03742880
_cell_length_c   9.39313281
_cell_angle_alpha   104.58042575
_cell_angle_beta   108.74183535
_cell_angle_gamma   101.15975258
_symmetry_Int_Tables_number   1
_chemical_formula_structural   Mg3Ti4(PO4)6
_chemical_formula_sum   'Mg3 Ti4 P6 O24'
_cell_volume   428.51724224
_cell_formula_units_Z   1
loop_
 _symmetry_equiv_pos_site_id
 _symmetry_equiv_pos_as_xyz
  1  'x, y, z'
loop_
 _atom_site_type_symbol
 _atom_site_label
 _atom_site_symmetry_multiplicity
 _atom_site_fract_x
 _atom_site_fract_y
 _atom_site_fract_z
 _atom_site_occupancy
  Mg  Mg0  1  0.78119192  0.30988281  0.28678524  1
  Mg  Mg1  1  0.21880808  0.69011719  0.71321476  1
  Mg  Mg2  1  0.50000000  0.50000000  -0.00000000  1
  Ti  Ti3  1  0.44929852  0.77947337  0.47366241  1
  Ti  Ti4  1  0.55070148  0.22052663  0.52633759  1
  Ti  Ti5  1  0.90013079  0.96256256  0.11719842  1
  Ti  Ti6  1  0.09986921  0.03743744  0.88280158  1
  P  P7  1  0.42271378  0.91244210  0.16799122  1
  P  P8  1  0.57728622  0.08755790  0.83200878  1
  P  P9  1  0.89090811  0.72311793  0.36748809  1
  P  P10  1  0.10909189  0.27688207  0.63251191  1
  P  P11  1  0.27109957  0.35499392  0.22811077  1
  P  P12  1  0.72890043  0.64500608  0.77188923  1
  O  O13  1  0.29451417  0.55452251  0.29725851  1
  O  O14  1  0.70548583  0.44547749  0.70274149  1
  O  O15  1  0.44369113  0.95857420  0.34698393  1
  O  O16  1  0.55630887  0.04142580  0.65301607  1
  O  O17  1  0.79653767  0.03694335  0.91559776  1
  O  O18  1  0.20346233  0.96305665  0.08440224  1
  O  O19  1  0.95227479  0.86046231  0.28719284  1
  O  O20  1  0.04772521  0.13953769  0.71280716  1
  O  O21  1  0.52007787  0.68799055  0.66440581  1
  O  O22  1  0.47992213  0.31200945  0.33559419  1
  O  O23  1  0.73277162  0.69242647  0.94409472  1
  O  O24  1  0.26722838  0.30757353  0.05590528  1
  O  O25  1  0.40388903  0.72073536  0.08699421  1
  O  O26  1  0.59611097  0.27926464  0.91300579  1
  O  O27  1  0.63186207  0.04444325  0.16666871  1
  O  O28  1  0.36813793  0.95555675  0.83333129  1
  O  O29  1  0.74450044  0.77525369  0.46041945  1
  O  O30  1  0.25549956  0.22474631  0.53958055  1
  O  O31  1  0.04458140  0.24189182  0.22653697  1
  O  O32  1  0.95541860  0.75810818  0.77346303  1
  O  O33  1  0.11742114  0.71742240  0.49134013  1
  O  O34  1  0.88257886  0.28257760  0.50865987  1
  O  O35  1  0.76513095  0.53545782  0.23465117  1
  O  O36  1  0.23486905  0.46454218  0.76534883  1
