# generated using pymatgen
data_Mo13O33
_symmetry_space_group_name_H-M   'P 1'
_cell_length_a   3.90644246
_cell_length_b   11.37259095
_cell_length_c   15.03521547
_cell_angle_alpha   86.37269999
_cell_angle_beta   97.51062315
_cell_angle_gamma   80.09799856
_symmetry_Int_Tables_number   1
_chemical_formula_structural   Mo13O33
_chemical_formula_sum   'Mo13 O33'
_cell_volume   649.84543031
_cell_formula_units_Z   1
loop_
 _symmetry_equiv_pos_site_id
 _symmetry_equiv_pos_as_xyz
  1  'x, y, z'
loop_
 _atom_site_type_symbol
 _atom_site_label
 _atom_site_symmetry_multiplicity
 _atom_site_fract_x
 _atom_site_fract_y
 _atom_site_fract_z
 _atom_site_occupancy
  Mo  Mo0  1  0.04141626  0.05816693  0.11695823  1
  Mo  Mo1  1  0.96267808  0.94502614  0.88037984  1
  Mo  Mo2  1  0.75521110  0.28596059  0.78737319  1
  Mo  Mo3  1  0.24374316  0.71434312  0.21298049  1
  Mo  Mo4  1  0.89451106  0.86128967  0.63296367  1
  Mo  Mo5  1  0.10228017  0.14062582  0.36561906  1
  Mo  Mo6  1  0.89317782  0.47419944  0.26958240  1
  Mo  Mo7  1  0.10195296  0.52609683  0.73134087  1
  Mo  Mo8  1  0.66731553  0.19158288  0.54219514  1
  Mo  Mo9  1  0.33353753  0.81036180  0.45713766  1
  Mo  Mo10  1  0.81814501  0.39013436  0.02657654  1
  Mo  Mo11  1  0.17815589  0.61584022  0.97291372  1
  Mo  Mo12  1  0.24742083  0.50066966  0.50002295  1
  O  O13  1  0.62014292  0.15759410  0.39840771  1
  O  O14  1  0.38089375  0.84284788  0.59955402  1
  O  O15  1  0.71621728  0.24673211  0.65213837  1
  O  O16  1  0.28693953  0.75208183  0.34829984  1
  O  O17  1  0.54124054  0.04613794  0.12941308  1
  O  O18  1  0.45530211  0.95604434  0.87382562  1
  O  O19  1  0.77683120  0.66519298  0.22831615  1
  O  O20  1  0.22097099  0.33491602  0.77123811  1
  O  O21  1  0.55863582  0.37095558  0.48389356  1
  O  O22  1  0.44952060  0.62889972  0.51551497  1
  O  O23  1  0.84505874  0.13084173  0.82368165  1
  O  O24  1  0.15337914  0.86926193  0.17726513  1
  O  O25  1  0.91639819  0.89299927  0.74811056  1
  O  O26  1  0.08315298  0.10092157  0.24906275  1
  O  O27  1  0.93067674  0.21617897  0.07586540  1
  O  O28  1  0.07127020  0.78083663  0.92606384  1
  O  O29  1  0.63199651  0.47464766  0.73665622  1
  O  O30  1  0.36550047  0.52492553  0.26422205  1
  O  O31  1  0.78454666  0.02471224  0.58156737  1
  O  O32  1  0.22265992  0.97355216  0.41564284  1
  O  O33  1  0.85723509  0.43143147  0.14675986  1
  O  O34  1  0.14100915  0.56660028  0.85279940  1
  O  O35  1  0.00348655  0.99931039  0.00592117  1
  O  O36  1  0.01109546  0.67582695  0.67888486  1
  O  O37  1  0.99093395  0.32226065  0.31935877  1
  O  O38  1  0.92825110  0.53363311  0.40044805  1
  O  O39  1  0.06361196  0.46648190  0.59969661  1
  O  O40  1  0.78599134  0.33944720  0.90909116  1
  O  O41  1  0.21481601  0.65883040  0.09249408  1
  O  O42  1  0.84509388  0.80875441  0.49507457  1
  O  O43  1  0.16014564  0.19062288  0.50548053  1
  O  O44  1  0.70371498  0.57254306  0.98125602  1
  O  O45  1  0.29413523  0.42967966  0.01795192  1
