# generated using pymatgen
data_NaFe9H18(S3O22)2
_symmetry_space_group_name_H-M   'P 1'
_cell_length_a   7.48469650
_cell_length_b   10.27922789
_cell_length_c   12.04030254
_cell_angle_alpha   111.11061679
_cell_angle_beta   71.89143862
_cell_angle_gamma   90.00000000
_symmetry_Int_Tables_number   1
_chemical_formula_structural   NaFe9H18(S3O22)2
_chemical_formula_sum   'Na1 Fe9 H18 S6 O44'
_cell_volume   814.79786186
_cell_formula_units_Z   1
loop_
 _symmetry_equiv_pos_site_id
 _symmetry_equiv_pos_as_xyz
  1  'x, y, z'
loop_
 _atom_site_type_symbol
 _atom_site_label
 _atom_site_symmetry_multiplicity
 _atom_site_fract_x
 _atom_site_fract_y
 _atom_site_fract_z
 _atom_site_occupancy
  Na  Na0  1  -0.00000000  -0.00000000  0.00000000  1
  Fe  Fe1  1  0.99999800  0.49999900  0.50000100  1
  Fe  Fe2  1  0.32706722  0.16111692  0.83098792  1
  Fe  Fe3  1  0.67292778  0.83888108  0.16901408  1
  Fe  Fe4  1  0.16876946  0.82585654  0.66246207  1
  Fe  Fe5  1  0.49999900  0.50000100  0.00000200  1
  Fe  Fe6  1  0.83122854  0.17414546  0.33754293  1
  Fe  Fe7  1  0.15805813  0.83888108  0.16901408  1
  Fe  Fe8  1  0.50000100  0.49999900  0.50000100  1
  Fe  Fe9  1  0.84194387  0.16111692  0.83098792  1
  H  H10  1  0.14321184  0.57289891  0.13603983  1
  H  H11  1  0.47879475  0.24069900  0.45829572  1
  H  H12  1  0.81411625  0.90446999  0.78834503  1
  H  H13  1  0.00621684  0.29962577  0.98756731  1
  H  H14  1  0.33590312  0.95474086  0.32819376  1
  H  H15  1  0.67544830  0.62583502  0.64910239  1
  H  H16  1  0.72074833  0.57289891  0.13603983  1
  H  H17  1  0.06290853  0.24069900  0.45829572  1
  H  H18  1  0.39753973  0.90446999  0.78834503  1
  H  H19  1  0.85678816  0.42710109  0.86396017  1
  H  H20  1  0.18588375  0.09553001  0.21165497  1
  H  H21  1  0.52120525  0.75930100  0.54170428  1
  H  H22  1  0.99378316  0.70037423  0.01243269  1
  H  H23  1  0.32455170  0.37416498  0.35089761  1
  H  H24  1  0.66409688  0.04525914  0.67180624  1
  H  H25  1  0.27925167  0.42710109  0.86396017  1
  H  H26  1  0.60246027  0.09553001  0.21165497  1
  H  H27  1  0.93709147  0.75930100  0.54170428  1
  S  S28  1  0.87403133  0.43717549  0.25193733  1
  S  S29  1  0.20685349  0.10000758  0.58629202  1
  S  S30  1  0.53824378  0.77233410  0.92351345  1
  S  S31  1  0.12596867  0.56282451  0.74806267  1
  S  S32  1  0.46175622  0.22766590  0.07648655  1
  S  S33  1  0.79314651  0.89999242  0.41370798  1
  O  O34  1  0.93264921  0.46768077  0.13470059  1
  O  O35  1  0.26511274  0.12873704  0.46977551  1
  O  O36  1  0.59673467  0.79990665  0.80653066  1
  O  O37  1  0.06735079  0.53231923  0.86529941  1
  O  O38  1  0.40326533  0.20009335  0.19346934  1
  O  O39  1  0.73488726  0.87126296  0.53022449  1
  O  O40  1  0.24996182  0.62632836  0.11289721  1
  O  O41  1  0.58616030  0.29318941  0.43911100  1
  O  O42  1  0.92181849  0.95967135  0.78378358  1
  O  O43  1  0.04487281  0.21296157  0.91025438  1
  O  O44  1  0.37952535  0.88239387  0.24094831  1
  O  O45  1  0.71674742  0.54798251  0.56650615  1
  O  O46  1  0.63713997  0.62632836  0.11289721  1
  O  O47  1  0.97472970  0.29318941  0.43911100  1
  O  O48  1  0.29439792  0.95967135  0.78378358  1
  O  O49  1  0.75003818  0.37367164  0.88710279  1
  O  O50  1  0.07818151  0.04032865  0.21621642  1
  O  O51  1  0.41383970  0.70681059  0.56088900  1
  O  O52  1  0.95512719  0.78703843  0.08974562  1
  O  O53  1  0.28325258  0.45201749  0.43349385  1
  O  O54  1  0.62047465  0.11760613  0.75905169  1
  O  O55  1  0.36286003  0.37367164  0.88710279  1
  O  O56  1  0.70560208  0.04032865  0.21621642  1
  O  O57  1  0.02527030  0.70681059  0.56088900  1
  O  O58  1  0.00115692  0.49902458  0.32568006  1
  O  O59  1  0.33128684  0.16430247  0.66288006  1
  O  O60  1  0.66383643  0.83555904  0.99901620  1
  O  O61  1  0.89234522  0.28064146  0.21530857  1
  O  O62  1  0.22347675  0.94538158  0.55304750  1
  O  O63  1  0.55362803  0.61720594  0.89274393  1
  O  O64  1  0.67316402  0.49902458  0.32568006  1
  O  O65  1  0.00583310  0.16430247  0.66288006  1
  O  O66  1  0.33714637  0.83555904  0.99901620  1
  O  O67  1  0.99884308  0.50097542  0.67431994  1
  O  O68  1  0.33616357  0.16444096  0.00098380  1
  O  O69  1  0.66871316  0.83569753  0.33711994  1
  O  O70  1  0.10765478  0.71935854  0.78469143  1
  O  O71  1  0.44637197  0.38279406  0.10725607  1
  O  O72  1  0.77652325  0.05461842  0.44695250  1
  O  O73  1  0.32683598  0.50097542  0.67431994  1
  O  O74  1  0.66285363  0.16444096  0.00098380  1
  O  O75  1  0.99416690  0.83569753  0.33711994  1
  O  O76  1  0.63609629  0.31767241  0.72780841  1
  O  O77  1  0.36390371  0.68232759  0.27219159  1
