# generated using pymatgen
data_Mn(GaS2)2
_symmetry_space_group_name_H-M   'P 1'
_cell_length_a   3.70956658
_cell_length_b   6.23703808
_cell_length_c   6.77837700
_cell_angle_alpha   90.33211727
_cell_angle_beta   90.00000000
_cell_angle_gamma   90.00000000
_symmetry_Int_Tables_number   1
_chemical_formula_structural   Mn(GaS2)2
_chemical_formula_sum   'Mn1 Ga2 S4'
_cell_volume   156.82669480
_cell_formula_units_Z   1
loop_
 _symmetry_equiv_pos_site_id
 _symmetry_equiv_pos_as_xyz
  1  'x, y, z'
loop_
 _atom_site_type_symbol
 _atom_site_label
 _atom_site_symmetry_multiplicity
 _atom_site_fract_x
 _atom_site_fract_y
 _atom_site_fract_z
 _atom_site_occupancy
  Mn  Mn0  1  -0.00000000  0.63298323  0.34748955  1
  Ga  Ga1  1  0.50000000  0.09839670  0.14879814  1
  Ga  Ga2  1  0.50000000  0.64564381  0.83127339  1
  S  S3  1  -0.00000000  0.01655289  0.34369663  1
  S  S4  1  0.00000000  0.49216872  0.67540658  1
  S  S5  1  0.50000000  0.48703719  0.15308704  1
  S  S6  1  0.50000000  0.00221745  0.83424866  1
