# generated using pymatgen
data_Li4Ga4P4O17F3
_symmetry_space_group_name_H-M   'P 1'
_cell_length_a   6.83389822
_cell_length_b   7.45447499
_cell_length_c   7.64523988
_cell_angle_alpha   63.58539517
_cell_angle_beta   90.82227235
_cell_angle_gamma   89.31236679
_symmetry_Int_Tables_number   1
_chemical_formula_structural   Li4Ga4P4O17F3
_chemical_formula_sum   'Li4 Ga4 P4 O17 F3'
_cell_volume   348.70142018
_cell_formula_units_Z   1
loop_
 _symmetry_equiv_pos_site_id
 _symmetry_equiv_pos_as_xyz
  1  'x, y, z'
loop_
 _atom_site_type_symbol
 _atom_site_label
 _atom_site_symmetry_multiplicity
 _atom_site_fract_x
 _atom_site_fract_y
 _atom_site_fract_z
 _atom_site_occupancy
  Li  Li0  1  0.65407594  0.93765806  0.27804813  1
  Li  Li1  1  0.15569286  0.43329836  0.78100753  1
  Li  Li2  1  0.84350913  0.56526346  0.21803253  1
  Li  Li3  1  0.34496649  0.06784952  0.71881754  1
  Ga  Ga4  1  0.99875824  0.99991374  0.99884413  1
  Ga  Ga5  1  0.50228216  0.50503616  0.50300477  1
  Ga  Ga6  1  0.74531377  0.74783523  0.74653257  1
  Ga  Ga7  1  0.25191311  0.25039017  0.25062186  1
  P  P8  1  0.60385759  0.28238149  0.95738547  1
  P  P9  1  0.10411242  0.78308784  0.45511472  1
  P  P10  1  0.89768760  0.21743709  0.54425365  1
  P  P11  1  0.39453409  0.71596951  0.04461563  1
  O  O12  1  0.73432685  0.10214814  0.97622491  1
  O  O13  1  0.23296555  0.60207164  0.47484502  1
  O  O14  1  0.76636201  0.39722964  0.52350764  1
  O  O15  1  0.26446116  0.89630935  0.02564074  1
  O  O16  1  0.45067223  0.33482399  0.78594088  1
  O  O17  1  0.95172858  0.83935646  0.28237903  1
  O  O18  1  0.05001541  0.16277756  0.71727980  1
  O  O19  1  0.54846767  0.65978771  0.21455719  1
  O  O20  1  0.72587009  0.46236776  0.93413353  1
  O  O21  1  0.22730792  0.96381186  0.43051834  1
  O  O22  1  0.77595445  0.03652516  0.57135337  1
  O  O23  1  0.27294471  0.53518173  0.06860660  1
  O  O24  1  0.49484894  0.19272331  0.15473158  1
  O  O25  1  0.99588909  0.69426706  0.65297745  1
  O  O26  1  0.00659584  0.30588380  0.34687403  1
  O  O27  1  0.50129883  0.80760688  0.84511277  1
  O  O28  1  0.60462461  0.72787588  0.53609488  1
  F  F29  1  0.10011651  0.22858151  0.03645115  1
  F  F30  1  0.89836141  0.77127888  0.96218992  1
  F  F31  1  0.40048473  0.27327104  0.46430267  1
