# generated using pymatgen
data_Mg2Nb3Bi3O14
_symmetry_space_group_name_H-M   'P 1'
_cell_length_a   7.53718850
_cell_length_b   7.33379148
_cell_length_c   7.53718850
_cell_angle_alpha   90.00000000
_cell_angle_beta   60.00000000
_cell_angle_gamma   120.92176127
_symmetry_Int_Tables_number   1
_chemical_formula_structural   Mg2Nb3Bi3O14
_chemical_formula_sum   'Mg2 Nb3 Bi3 O14'
_cell_volume   290.42827812
_cell_formula_units_Z   1
loop_
 _symmetry_equiv_pos_site_id
 _symmetry_equiv_pos_as_xyz
  1  'x, y, z'
loop_
 _atom_site_type_symbol
 _atom_site_label
 _atom_site_symmetry_multiplicity
 _atom_site_fract_x
 _atom_site_fract_y
 _atom_site_fract_z
 _atom_site_occupancy
  Mg  Mg0  1  0.50000000  -0.00000000  0.50000000  1
  Mg  Mg1  1  0.50000000  0.50000000  0.00000000  1
  Nb  Nb2  1  0.50000000  -0.00000000  0.00000000  1
  Nb  Nb3  1  -0.00000000  -0.00000000  0.50000000  1
  Nb  Nb4  1  -0.00000000  -0.00000000  0.00000000  1
  Bi  Bi5  1  0.50000000  0.50000000  0.50000000  1
  Bi  Bi6  1  -0.00000000  0.50000000  0.00000000  1
  Bi  Bi7  1  -0.00000000  0.50000000  0.50000000  1
  O  O8  1  0.72278886  0.33418329  0.38860557  1
  O  O9  1  0.27721114  0.66581671  0.61139443  1
  O  O10  1  0.86230077  0.93691027  0.31884961  1
  O  O11  1  0.67441513  0.33152576  0.91279243  1
  O  O12  1  0.25575988  0.93691027  0.92539050  1
  O  O13  1  0.24431819  0.33152576  0.34288937  1
  O  O14  1  0.24431819  0.33152576  0.91279243  1
  O  O15  1  0.25575988  0.93691027  0.31884961  1
  O  O16  1  0.13769923  0.06308973  0.68115039  1
  O  O17  1  0.32558487  0.66847424  0.08720757  1
  O  O18  1  0.74424012  0.06308973  0.07460950  1
  O  O19  1  0.75568181  0.66847424  0.65711063  1
  O  O20  1  0.75568181  0.66847424  0.08720757  1
  O  O21  1  0.74424012  0.06308973  0.68115039  1
