# generated using pymatgen
data_Mn12Rh4N
_symmetry_space_group_name_H-M   'P 1'
_cell_length_a   4.11791935
_cell_length_b   5.22473137
_cell_length_c   9.03777466
_cell_angle_alpha   89.99453682
_cell_angle_beta   90.04132027
_cell_angle_gamma   89.98768685
_symmetry_Int_Tables_number   1
_chemical_formula_structural   Mn12Rh4N
_chemical_formula_sum   'Mn12 Rh4 N1'
_cell_volume   194.44786832
_cell_formula_units_Z   1
loop_
 _symmetry_equiv_pos_site_id
 _symmetry_equiv_pos_as_xyz
  1  'x, y, z'
loop_
 _atom_site_type_symbol
 _atom_site_label
 _atom_site_symmetry_multiplicity
 _atom_site_fract_x
 _atom_site_fract_y
 _atom_site_fract_z
 _atom_site_occupancy
  Mn  Mn0  1  0.76331469  -0.00004195  0.17037990  1
  Mn  Mn1  1  0.75156870  0.49992596  0.65796367  1
  Mn  Mn2  1  0.75050452  0.73352732  0.42163824  1
  Mn  Mn3  1  0.76443924  0.25812224  0.91350836  1
  Mn  Mn4  1  0.75051501  0.26664733  0.42175090  1
  Mn  Mn5  1  0.76425610  0.74210611  0.91367103  1
  Mn  Mn6  1  0.24843130  0.50007404  0.34203633  1
  Mn  Mn7  1  0.23668531  0.00004195  0.82962010  1
  Mn  Mn8  1  0.23556076  0.74187776  0.08649164  1
  Mn  Mn9  1  0.24949548  0.26647268  0.57836176  1
  Mn  Mn10  1  0.23574390  0.25789389  0.08632897  1
  Mn  Mn11  1  0.24948499  0.73335267  0.57824910  1
  Rh  Rh12  1  0.74431922  0.49996612  0.17182181  1
  Rh  Rh13  1  0.74837595  0.99976731  0.66216384  1
  Rh  Rh14  1  0.25162405  0.00023269  0.33783616  1
  Rh  Rh15  1  0.25568078  0.50003388  0.82817819  1
  N  N16  1  0.50000000  -0.00000000  0.00000000  1
