# generated using pymatgen
data_Dy4CrS7
_symmetry_space_group_name_H-M   'P 1'
_cell_length_a   3.81079612
_cell_length_b   6.52366257
_cell_length_c   11.34066063
_cell_angle_alpha   104.89449000
_cell_angle_beta   90.00000000
_cell_angle_gamma   73.01777965
_symmetry_Int_Tables_number   1
_chemical_formula_structural   Dy4CrS7
_chemical_formula_sum   'Dy4 Cr1 S7'
_cell_volume   259.71850335
_cell_formula_units_Z   1
loop_
 _symmetry_equiv_pos_site_id
 _symmetry_equiv_pos_as_xyz
  1  'x, y, z'
loop_
 _atom_site_type_symbol
 _atom_site_label
 _atom_site_symmetry_multiplicity
 _atom_site_fract_x
 _atom_site_fract_y
 _atom_site_fract_z
 _atom_site_occupancy
  Dy  Dy0  1  0.69343971  0.61312058  0.20936593  1
  Dy  Dy1  1  0.30597987  0.38804026  0.80129245  1
  Dy  Dy2  1  0.99899818  0.00200364  0.00762547  1
  Dy  Dy3  1  0.11194362  0.77611276  0.56261097  1
  Cr  Cr4  1  0.88482776  0.23034448  0.42469536  1
  S  S5  1  0.03070844  0.93858313  0.23250391  1
  S  S6  1  0.96315364  0.07369273  0.78431284  1
  S  S7  1  0.74728233  0.50543534  0.63264401  1
  S  S8  1  0.27437701  0.45124599  0.35306262  1
  S  S9  1  0.33639929  0.32720143  0.05328067  1
  S  S10  1  0.66013988  0.67972024  0.94823586  1
  S  S11  1  0.49275029  0.01449942  0.49036992  1
