# generated using pymatgen
data_HoAlNi4
_symmetry_space_group_name_H-M   'P 1'
_cell_length_a   3.85204504
_cell_length_b   5.02011312
_cell_length_c   5.02266888
_cell_angle_alpha   59.96134186
_cell_angle_beta   90.00000000
_cell_angle_gamma   90.00000000
_symmetry_Int_Tables_number   1
_chemical_formula_structural   HoAlNi4
_chemical_formula_sum   'Ho1 Al1 Ni4'
_cell_volume   84.08155419
_cell_formula_units_Z   1
loop_
 _symmetry_equiv_pos_site_id
 _symmetry_equiv_pos_as_xyz
  1  'x, y, z'
loop_
 _atom_site_type_symbol
 _atom_site_label
 _atom_site_symmetry_multiplicity
 _atom_site_fract_x
 _atom_site_fract_y
 _atom_site_fract_z
 _atom_site_occupancy
  Ho  Ho0  1  -0.00000000  0.00047925  0.99983774  1
  Al  Al1  1  -0.00000000  0.33339708  0.33322826  1
  Ni  Ni2  1  -0.00000000  0.66675928  0.66663476  1
  Ni  Ni3  1  0.50000000  0.50180549  0.50201195  1
  Ni  Ni4  1  0.50000000  0.50179218  0.99619016  1
  Ni  Ni5  1  0.50000000  0.99566672  0.50219715  1
