# generated using pymatgen
data_Fe7(CoO6)2
_symmetry_space_group_name_H-M   'P 1'
_cell_length_a   6.02540573
_cell_length_b   13.47146390
_cell_length_c   6.02540573
_cell_angle_alpha   77.56546105
_cell_angle_beta   89.95040447
_cell_angle_gamma   77.56546105
_symmetry_Int_Tables_number   1
_chemical_formula_structural   Fe7(CoO6)2
_chemical_formula_sum   'Fe14 Co4 O24'
_cell_volume   465.88095410
_cell_formula_units_Z   2
loop_
 _symmetry_equiv_pos_site_id
 _symmetry_equiv_pos_as_xyz
  1  'x, y, z'
loop_
 _atom_site_type_symbol
 _atom_site_label
 _atom_site_symmetry_multiplicity
 _atom_site_fract_x
 _atom_site_fract_y
 _atom_site_fract_z
 _atom_site_occupancy
  Fe  Fe0  1  0.25136289  0.49984974  0.75308676  1
  Fe  Fe1  1  0.58024624  0.83348326  0.08197011  1
  Fe  Fe2  1  0.91796790  0.16666700  0.41536610  1
  Fe  Fe3  1  0.00308676  -0.00015026  0.00136289  1
  Fe  Fe4  1  0.33197011  0.33348326  0.33024624  1
  Fe  Fe5  1  0.66536610  0.66666700  0.66796790  1
  Fe  Fe6  1  0.79166700  0.91666700  0.54166700  1
  Fe  Fe7  1  0.79166700  0.41666700  0.54166700  1
  Fe  Fe8  1  0.79166700  0.41666700  0.04166700  1
  Fe  Fe9  1  0.12611952  0.74501571  0.37125721  1
  Fe  Fe10  1  0.45721348  0.08831729  0.71207579  1
  Fe  Fe11  1  0.62125721  0.24501571  0.87611952  1
  Fe  Fe12  1  0.96207579  0.58831729  0.20721348  1
  Fe  Fe13  1  0.29166700  0.91666700  0.54166700  1
  Co  Co14  1  0.12211869  0.25025038  0.87656682  1
  Co  Co15  1  0.46121431  0.58308262  0.20676618  1
  Co  Co16  1  0.12656682  0.75025038  0.87211869  1
  Co  Co17  1  0.45676618  0.08308262  0.21121431  1
  O  O18  1  0.70141875  0.08482912  0.95743994  1
  O  O19  1  0.02227595  0.42009188  0.28982907  1
  O  O20  1  0.36313821  0.75652588  0.61766074  1
  O  O21  1  0.37589406  0.24850488  0.63191525  1
  O  O22  1  0.71567226  0.57680712  0.97019479  1
  O  O23  1  0.04350393  0.91324112  0.31105705  1
  O  O24  1  0.37781908  0.24824619  0.11327375  1
  O  O25  1  0.71704192  0.57655176  0.45226155  1
  O  O26  1  0.04110876  0.91559480  0.77187264  1
  O  O27  1  0.22006025  0.08508781  0.95551492  1
  O  O28  1  0.56146036  0.41773820  0.29222424  1
  O  O29  1  0.88107145  0.75678124  0.61629108  1
  O  O30  1  0.56105705  0.41324112  0.79350393  1
  O  O31  1  0.88191525  0.74850488  0.12589406  1
  O  O32  1  0.22019479  0.07680712  0.46567226  1
  O  O33  1  0.86766074  0.25652588  0.11313821  1
  O  O34  1  0.20743994  0.58482912  0.45141875  1
  O  O35  1  0.53982907  0.92009188  0.77227595  1
  O  O36  1  0.86629108  0.25678124  0.63107145  1
  O  O37  1  0.20551492  0.58508781  0.97006025  1
  O  O38  1  0.54222424  0.91773820  0.31146036  1
  O  O39  1  0.02187264  0.41559480  0.79110876  1
  O  O40  1  0.36327375  0.74824619  0.12781908  1
  O  O41  1  0.70226155  0.07655176  0.46704192  1
