# generated using pymatgen
data_In3GaN4
_symmetry_space_group_name_H-M   'P 1'
_cell_length_a   3.49288029
_cell_length_b   3.49288029
_cell_length_c   11.35486139
_cell_angle_alpha   90.00127101
_cell_angle_beta   89.99872899
_cell_angle_gamma   120.00052600
_symmetry_Int_Tables_number   1
_chemical_formula_structural   In3GaN4
_chemical_formula_sum   'In3 Ga1 N4'
_cell_volume   119.97135662
_cell_formula_units_Z   1
loop_
 _symmetry_equiv_pos_site_id
 _symmetry_equiv_pos_as_xyz
  1  'x, y, z'
loop_
 _atom_site_type_symbol
 _atom_site_label
 _atom_site_symmetry_multiplicity
 _atom_site_fract_x
 _atom_site_fract_y
 _atom_site_fract_z
 _atom_site_occupancy
  In  In0  1  0.33334185  0.66665815  0.74955511  1
  In  In1  1  0.66666164  0.33333836  0.00844045  1
  In  In2  1  0.66666969  0.33333031  0.49052435  1
  Ga  Ga3  1  0.33333368  0.66666632  0.24674143  1
  N  N4  1  0.33332649  0.66667351  0.07471843  1
  N  N5  1  0.33333514  0.66666486  0.55810034  1
  N  N6  1  0.66666478  0.33333522  0.29641239  1
  N  N7  1  0.66666674  0.33333326  0.81630751  1
