# generated using pymatgen
data_Gd2SCl4
_symmetry_space_group_name_H-M   'P 1'
_cell_length_a   6.74167879
_cell_length_b   7.56686005
_cell_length_c   9.48756908
_cell_angle_alpha   80.56655153
_cell_angle_beta   110.80123945
_cell_angle_gamma   89.96822326
_symmetry_Int_Tables_number   1
_chemical_formula_structural   Gd2SCl4
_chemical_formula_sum   'Gd4 S2 Cl8'
_cell_volume   445.41940165
_cell_formula_units_Z   2
loop_
 _symmetry_equiv_pos_site_id
 _symmetry_equiv_pos_as_xyz
  1  'x, y, z'
loop_
 _atom_site_type_symbol
 _atom_site_label
 _atom_site_symmetry_multiplicity
 _atom_site_fract_x
 _atom_site_fract_y
 _atom_site_fract_z
 _atom_site_occupancy
  Gd  Gd0  1  0.61700160  0.31854711  0.72232419  1
  Gd  Gd1  1  0.89373966  0.18178580  0.27802333  1
  Gd  Gd2  1  0.10626034  0.81821420  0.72197667  1
  Gd  Gd3  1  0.38299840  0.68145289  0.27767581  1
  S  S4  1  0.85520116  0.24923274  0.00025961  1
  S  S5  1  0.14479884  0.75076726  0.99974039  1
  Cl  Cl6  1  0.71334730  0.65352666  0.60166968  1
  Cl  Cl7  1  0.28715989  0.49680198  0.73981286  1
  Cl  Cl8  1  0.45216465  0.99809993  0.73950781  1
  Cl  Cl9  1  0.11209818  0.84684903  0.39949487  1
  Cl  Cl10  1  0.54783535  0.00190007  0.26049219  1
  Cl  Cl11  1  0.71284011  0.50319802  0.26018714  1
  Cl  Cl12  1  0.88790182  0.15315097  0.60050513  1
  Cl  Cl13  1  0.28665270  0.34647334  0.39833032  1
