# generated using pymatgen
data_ErMn4(FeSn3)2
_symmetry_space_group_name_H-M   'P 1'
_cell_length_a   5.46396654
_cell_length_b   5.44822209
_cell_length_c   9.04125860
_cell_angle_alpha   89.99989934
_cell_angle_beta   89.99938111
_cell_angle_gamma   119.89131724
_symmetry_Int_Tables_number   1
_chemical_formula_structural   ErMn4(FeSn3)2
_chemical_formula_sum   'Er1 Mn4 Fe2 Sn6'
_cell_volume   233.34416099
_cell_formula_units_Z   1
loop_
 _symmetry_equiv_pos_site_id
 _symmetry_equiv_pos_as_xyz
  1  'x, y, z'
loop_
 _atom_site_type_symbol
 _atom_site_label
 _atom_site_symmetry_multiplicity
 _atom_site_fract_x
 _atom_site_fract_y
 _atom_site_fract_z
 _atom_site_occupancy
  Er  Er0  1  0.99997405  0.00000374  0.00018392  1
  Mn  Mn1  1  0.99998467  0.49998998  0.24714287  1
  Mn  Mn2  1  0.50000261  0.99999639  0.75335609  1
  Mn  Mn3  1  0.49999542  0.50001035  0.75334717  1
  Mn  Mn4  1  0.99998386  0.49999281  0.75276886  1
  Fe  Fe5  1  0.50000127  0.99999399  0.24726035  1
  Fe  Fe6  1  0.49999308  0.50000957  0.24729863  1
  Sn  Sn7  1  0.33490748  0.66736660  0.00020366  1
  Sn  Sn8  1  0.66504587  0.33262373  0.00020572  1
  Sn  Sn9  1  0.33326697  0.66668565  0.49873549  1
  Sn  Sn10  1  0.66665972  0.33333427  0.49873306  1
  Sn  Sn11  1  0.99999171  0.99999639  0.33454759  1
  Sn  Sn12  1  0.99999329  0.99999652  0.66621659  1
