# generated using pymatgen
data_Eu3Ni7B2
_symmetry_space_group_name_H-M   'P 1'
_cell_length_a   5.22539395
_cell_length_b   5.23270565
_cell_length_c   7.24930759
_cell_angle_alpha   90.00000000
_cell_angle_beta   90.00000000
_cell_angle_gamma   120.01602737
_symmetry_Int_Tables_number   1
_chemical_formula_structural   Eu3Ni7B2
_chemical_formula_sum   'Eu3 Ni7 B2'
_cell_volume   171.63361153
_cell_formula_units_Z   1
loop_
 _symmetry_equiv_pos_site_id
 _symmetry_equiv_pos_as_xyz
  1  'x, y, z'
loop_
 _atom_site_type_symbol
 _atom_site_label
 _atom_site_symmetry_multiplicity
 _atom_site_fract_x
 _atom_site_fract_y
 _atom_site_fract_z
 _atom_site_occupancy
  Eu  Eu0  1  0.00032014  0.99996926  -0.00000000  1
  Eu  Eu1  1  0.00010810  0.99993912  0.50000000  1
  Eu  Eu2  1  0.33291137  0.66659669  -0.00000000  1
  Ni  Ni3  1  0.50507721  0.01015817  0.31465823  1
  Ni  Ni4  1  0.50501331  0.49499799  0.31461041  1
  Ni  Ni5  1  0.98983374  0.49492008  0.31452752  1
  Ni  Ni6  1  0.50507721  0.01015817  0.68534177  1
  Ni  Ni7  1  0.50501331  0.49499799  0.68538959  1
  Ni  Ni8  1  0.98983374  0.49492008  0.68547248  1
  Ni  Ni9  1  0.66654599  0.33337382  -0.00000000  1
  B  B10  1  0.33344423  0.66668278  0.50000000  1
  B  B11  1  0.66662166  0.33328584  0.50000000  1
