# generated using pymatgen
data_Cr3Rh3S8
_symmetry_space_group_name_H-M   'P 1'
_cell_length_a   6.08165991
_cell_length_b   6.89665891
_cell_length_c   6.40189615
_cell_angle_alpha   105.01763470
_cell_angle_beta   116.13248594
_cell_angle_gamma   90.31093685
_symmetry_Int_Tables_number   1
_chemical_formula_structural   Cr3Rh3S8
_chemical_formula_sum   'Cr3 Rh3 S8'
_cell_volume   230.61032556
_cell_formula_units_Z   1
loop_
 _symmetry_equiv_pos_site_id
 _symmetry_equiv_pos_as_xyz
  1  'x, y, z'
loop_
 _atom_site_type_symbol
 _atom_site_label
 _atom_site_symmetry_multiplicity
 _atom_site_fract_x
 _atom_site_fract_y
 _atom_site_fract_z
 _atom_site_occupancy
  Cr  Cr0  1  -0.00000000  0.00000000  0.00000000  1
  Cr  Cr1  1  0.71450530  0.36671275  0.47536114  1
  Cr  Cr2  1  0.28549470  0.63328725  0.52463886  1
  Rh  Rh3  1  -0.00000000  0.50000000  0.00000000  1
  Rh  Rh4  1  0.71599095  0.86191606  0.46959592  1
  Rh  Rh5  1  0.28400905  0.13808394  0.53040408  1
  S  S6  1  0.55256506  0.44422810  0.75691402  1
  S  S7  1  0.54944010  0.93804039  0.75580758  1
  S  S8  1  0.44743494  0.55577190  0.24308598  1
  S  S9  1  0.45055990  0.06195961  0.24419242  1
  S  S10  1  0.97615898  0.31414843  0.26792799  1
  S  S11  1  0.97660491  0.81863681  0.26832886  1
  S  S12  1  0.02384102  0.68585157  0.73207201  1
  S  S13  1  0.02339509  0.18136319  0.73167114  1
