# generated using pymatgen
data_Gd2Ti12(CuO4)9
_symmetry_space_group_name_H-M   'P 1'
_cell_length_a   6.44420656
_cell_length_b   10.51308062
_cell_length_c   10.51308062
_cell_angle_alpha   60.00000000
_cell_angle_beta   90.00000000
_cell_angle_gamma   90.00000000
_symmetry_Int_Tables_number   1
_chemical_formula_structural   Gd2Ti12(CuO4)9
_chemical_formula_sum   'Gd2 Ti12 Cu9 O36'
_cell_volume   616.82231007
_cell_formula_units_Z   1
loop_
 _symmetry_equiv_pos_site_id
 _symmetry_equiv_pos_as_xyz
  1  'x, y, z'
loop_
 _atom_site_type_symbol
 _atom_site_label
 _atom_site_symmetry_multiplicity
 _atom_site_fract_x
 _atom_site_fract_y
 _atom_site_fract_z
 _atom_site_occupancy
  Gd  Gd0  1  0.00385335  -0.00000000  0.00000000  1
  Gd  Gd1  1  0.66281365  0.33333300  0.33333300  1
  Ti  Ti2  1  0.83333300  0.16666700  0.16666700  1
  Ti  Ti3  1  0.49670600  0.50636182  0.50841053  1
  Ti  Ti4  1  0.16996100  0.82697118  0.82492247  1
  Ti  Ti5  1  0.83333300  0.66666700  0.66666700  1
  Ti  Ti6  1  0.49282646  0.00000000  -0.00000000  1
  Ti  Ti7  1  0.17384054  0.33333300  0.33333300  1
  Ti  Ti8  1  0.83333300  0.16666700  0.66666700  1
  Ti  Ti9  1  0.49670600  0.50841053  0.98522765  1
  Ti  Ti10  1  0.16996100  0.82492247  0.34810535  1
  Ti  Ti11  1  0.16996100  0.34810535  0.82697118  1
  Ti  Ti12  1  0.83333300  0.66666700  0.16666700  1
  Ti  Ti13  1  0.49670600  0.98522765  0.50636182  1
  Cu  Cu14  1  0.99673680  0.49919139  0.49867585  1
  Cu  Cu15  1  0.66993020  0.83414161  0.83465715  1
  Cu  Cu16  1  0.33333300  0.16666700  0.16666700  1
  Cu  Cu17  1  0.66993020  0.33120023  0.83414161  1
  Cu  Cu18  1  0.33333300  0.66666700  0.16666700  1
  Cu  Cu19  1  0.99673680  0.00213277  0.49919139  1
  Cu  Cu20  1  0.33333300  0.16666700  0.66666700  1
  Cu  Cu21  1  0.99673680  0.49867585  0.00213277  1
  Cu  Cu22  1  0.66993020  0.83465715  0.33120023  1
  O  O23  1  0.24535551  0.44277885  0.62281211  1
  O  O24  1  0.91860453  0.78348816  0.95918646  1
  O  O25  1  0.58371683  0.11639647  0.29228949  1
  O  O26  1  0.34898926  0.35028397  0.17527853  1
  O  O27  1  0.00445361  0.68333405  0.50282321  1
  O  O28  1  0.68524627  0.01675690  0.84221919  1
  O  O29  1  0.98141973  0.31657710  0.49111481  1
  O  O30  1  0.66221339  0.64999895  0.83050979  1
  O  O31  1  0.31767774  0.98304903  0.15805447  1
  O  O32  1  0.08294917  0.21693753  0.04104451  1
  O  O33  1  0.74806247  0.54984484  0.37414654  1
  O  O34  1  0.42131149  0.89055415  0.71052089  1
  O  O35  1  0.42131149  0.39892396  0.89055415  1
  O  O36  1  0.08294917  0.74201896  0.21693753  1
  O  O37  1  0.74806247  0.07600862  0.54984484  1
  O  O38  1  0.66221339  0.51949127  0.64999895  1
  O  O39  1  0.31767774  0.85889550  0.98304903  1
  O  O40  1  0.98141973  0.19230909  0.31657710  1
  O  O41  1  0.68524627  0.14102491  0.01675690  1
  O  O42  1  0.34898926  0.47443750  0.35028397  1
  O  O43  1  0.00445361  0.81384173  0.68333405  1
  O  O44  1  0.91860453  0.25732438  0.78348816  1
  O  O45  1  0.58371683  0.59131504  0.11639647  1
  O  O46  1  0.24535551  0.93440904  0.44277885  1
  O  O47  1  0.00445361  0.50282321  0.81384173  1
  O  O48  1  0.68524627  0.84221919  0.14102491  1
  O  O49  1  0.34898926  0.17527853  0.47443750  1
  O  O50  1  0.58371683  0.29228949  0.59131504  1
  O  O51  1  0.24535551  0.62281211  0.93440904  1
  O  O52  1  0.91860453  0.95918646  0.25732438  1
  O  O53  1  0.74806247  0.37414654  0.07600862  1
  O  O54  1  0.42131149  0.71052089  0.39892396  1
  O  O55  1  0.08294917  0.04104451  0.74201896  1
  O  O56  1  0.31767774  0.15805447  0.85889550  1
  O  O57  1  0.98141973  0.49111481  0.19230909  1
  O  O58  1  0.66221339  0.83050979  0.51949127  1
