# generated using pymatgen
data_Er4ThCN4
_symmetry_space_group_name_H-M   'P 1'
_cell_length_a   3.51301759
_cell_length_b   12.65591059
_cell_length_c   3.51301759
_cell_angle_alpha   82.02218820
_cell_angle_beta   90.00000000
_cell_angle_gamma   82.02218820
_symmetry_Int_Tables_number   1
_chemical_formula_structural   Er4ThCN4
_chemical_formula_sum   'Er4 Th1 C1 N4'
_cell_volume   153.15212265
_cell_formula_units_Z   1
loop_
 _symmetry_equiv_pos_site_id
 _symmetry_equiv_pos_as_xyz
  1  'x, y, z'
loop_
 _atom_site_type_symbol
 _atom_site_label
 _atom_site_symmetry_multiplicity
 _atom_site_fract_x
 _atom_site_fract_y
 _atom_site_fract_z
 _atom_site_occupancy
  Er  Er0  1  0.89331885  0.21336230  0.89331885  1
  Er  Er1  1  0.29800283  0.40399434  0.29800283  1
  Er  Er2  1  0.70199717  0.59600566  0.70199717  1
  Er  Er3  1  0.10668115  0.78663770  0.10668115  1
  Th  Th4  1  0.50000000  -0.00000000  0.50000000  1
  C  C5  1  -0.00000000  -0.00000000  -0.00000000  1
  N  N6  1  0.39597459  0.20805082  0.39597459  1
  N  N7  1  0.79860409  0.40279183  0.79860409  1
  N  N8  1  0.20139591  0.59720817  0.20139591  1
  N  N9  1  0.60402541  0.79194918  0.60402541  1
