# generated using pymatgen
data_Cr6Co2CuSe12
_symmetry_space_group_name_H-M   'P 1'
_cell_length_a   3.66882161
_cell_length_b   17.04122533
_cell_length_c   6.62993110
_cell_angle_alpha   97.27128438
_cell_angle_beta   73.93747078
_cell_angle_gamma   83.82039472
_symmetry_Int_Tables_number   1
_chemical_formula_structural   Cr6Co2CuSe12
_chemical_formula_sum   'Cr6 Co2 Cu1 Se12'
_cell_volume   390.67523791
_cell_formula_units_Z   1
loop_
 _symmetry_equiv_pos_site_id
 _symmetry_equiv_pos_as_xyz
  1  'x, y, z'
loop_
 _atom_site_type_symbol
 _atom_site_label
 _atom_site_symmetry_multiplicity
 _atom_site_fract_x
 _atom_site_fract_y
 _atom_site_fract_z
 _atom_site_occupancy
  Cr  Cr0  1  0.25827208  0.24080071  0.24265513  1
  Cr  Cr1  1  0.26029730  0.57312720  0.90627819  1
  Cr  Cr2  1  0.25955379  0.90696106  0.57393137  1
  Cr  Cr3  1  0.74044621  0.09303894  0.42606863  1
  Cr  Cr4  1  0.73970270  0.42687280  0.09372181  1
  Cr  Cr5  1  0.74172792  0.75919929  0.75734487  1
  Co  Co6  1  0.99952632  0.33375493  0.66719243  1
  Co  Co7  1  0.00047368  0.66624507  0.33280757  1
  Cu  Cu8  1  0.00000000  -0.00000000  0.00000000  1
  Se  Se9  1  0.37167180  0.32449618  0.93216022  1
  Se  Se10  1  0.37390789  0.65633250  0.59585172  1
  Se  Se11  1  0.36215220  0.99296401  0.28273158  1
  Se  Se12  1  0.63784780  0.00703599  0.71726842  1
  Se  Se13  1  0.62609211  0.34366750  0.40414828  1
  Se  Se14  1  0.62832820  0.67550382  0.06783978  1
  Se  Se15  1  0.88101854  0.15176371  0.08619922  1
  Se  Se16  1  0.88410373  0.48111477  0.75067778  1
  Se  Se17  1  0.88428345  0.81418218  0.41725091  1
  Se  Se18  1  0.11571655  0.18581782  0.58274909  1
  Se  Se19  1  0.11589627  0.51888523  0.24932222  1
  Se  Se20  1  0.11898146  0.84823629  0.91380078  1
