# generated using pymatgen
data_BaO4
_symmetry_space_group_name_H-M   'P 1'
_cell_length_a   4.80148752
_cell_length_b   8.58857239
_cell_length_c   8.73147792
_cell_angle_alpha   90.00000000
_cell_angle_beta   89.73514720
_cell_angle_gamma   90.00000000
_symmetry_Int_Tables_number   1
_chemical_formula_structural   BaO4
_chemical_formula_sum   'Ba4 O16'
_cell_volume   360.06416823
_cell_formula_units_Z   4
loop_
 _symmetry_equiv_pos_site_id
 _symmetry_equiv_pos_as_xyz
  1  'x, y, z'
loop_
 _atom_site_type_symbol
 _atom_site_label
 _atom_site_symmetry_multiplicity
 _atom_site_fract_x
 _atom_site_fract_y
 _atom_site_fract_z
 _atom_site_occupancy
  Ba  Ba0  1  0.23474176  0.36378296  0.67055509  1
  Ba  Ba1  1  0.76525824  0.86378296  0.82944491  1
  Ba  Ba2  1  0.76525824  0.63621704  0.32944491  1
  Ba  Ba3  1  0.23474176  0.13621704  0.17055509  1
  O  O4  1  0.72956557  0.49092260  0.62075204  1
  O  O5  1  0.27043443  0.99092260  0.87924796  1
  O  O6  1  0.27043443  0.50907740  0.37924796  1
  O  O7  1  0.72956557  0.00907740  0.12075204  1
  O  O8  1  0.23072650  0.70680416  0.66528257  1
  O  O9  1  0.76927350  0.20680416  0.83471743  1
  O  O10  1  0.76927350  0.29319584  0.33471743  1
  O  O11  1  0.23072650  0.79319584  0.16528257  1
  O  O12  1  0.08601254  0.79462147  0.56980640  1
  O  O13  1  0.91398746  0.29462147  0.93019360  1
  O  O14  1  0.91398746  0.20537853  0.43019360  1
  O  O15  1  0.08601254  0.70537853  0.06980640  1
  O  O16  1  0.28846342  0.04895802  0.73203255  1
  O  O17  1  0.71153658  0.54895802  0.76796745  1
  O  O18  1  0.71153658  0.95104198  0.26796745  1
  O  O19  1  0.28846342  0.45104198  0.23203255  1
