# generated using pymatgen
data_Co7Ge4
_symmetry_space_group_name_H-M   'P 1'
_cell_length_a   3.98980772
_cell_length_b   3.98980772
_cell_length_c   9.91480800
_cell_angle_alpha   90.00000000
_cell_angle_beta   90.00000000
_cell_angle_gamma   119.99911147
_symmetry_Int_Tables_number   1
_chemical_formula_structural   Co7Ge4
_chemical_formula_sum   'Co7 Ge4'
_cell_volume   136.68559903
_cell_formula_units_Z   1
loop_
 _symmetry_equiv_pos_site_id
 _symmetry_equiv_pos_as_xyz
  1  'x, y, z'
loop_
 _atom_site_type_symbol
 _atom_site_label
 _atom_site_symmetry_multiplicity
 _atom_site_fract_x
 _atom_site_fract_y
 _atom_site_fract_z
 _atom_site_occupancy
  Co  Co0  1  0.99998768  0.00001232  0.24496952  1
  Co  Co1  1  0.00000730  0.99999270  0.75069970  1
  Co  Co2  1  0.99998768  0.00001232  0.00503048  1
  Co  Co3  1  0.00000730  0.99999270  0.49930030  1
  Co  Co4  1  0.66664080  0.33335920  0.62500000  1
  Co  Co5  1  0.33334681  0.66665319  0.36862142  1
  Co  Co6  1  0.33334681  0.66665319  0.88137858  1
  Ge  Ge7  1  0.66666869  0.33333131  0.37433368  1
  Ge  Ge8  1  0.66666869  0.33333131  0.87566632  1
  Ge  Ge9  1  0.33332214  0.66667786  0.12500000  1
  Ge  Ge10  1  0.33331612  0.66668388  0.62500000  1
