# generated using pymatgen
data_Er4CdS7
_symmetry_space_group_name_H-M   'P 1'
_cell_length_a   3.80427520
_cell_length_b   6.59831619
_cell_length_c   11.53105023
_cell_angle_alpha   104.24659399
_cell_angle_beta   90.00000000
_cell_angle_gamma   73.24521651
_symmetry_Int_Tables_number   1
_chemical_formula_structural   Er4CdS7
_chemical_formula_sum   'Er4 Cd1 S7'
_cell_volume   267.85233813
_cell_formula_units_Z   1
loop_
 _symmetry_equiv_pos_site_id
 _symmetry_equiv_pos_as_xyz
  1  'x, y, z'
loop_
 _atom_site_type_symbol
 _atom_site_label
 _atom_site_symmetry_multiplicity
 _atom_site_fract_x
 _atom_site_fract_y
 _atom_site_fract_z
 _atom_site_occupancy
  Er  Er0  1  0.69317984  0.61364031  0.19857986  1
  Er  Er1  1  0.30703918  0.38592163  0.80435382  1
  Er  Er2  1  0.00002399  -0.00004797  0.00197185  1
  Er  Er3  1  0.11500130  0.76999740  0.57199399  1
  Cd  Cd4  1  0.88497765  0.23004470  0.42132607  1
  S  S5  1  0.74126426  0.51747148  0.64765229  1
  S  S6  1  0.25662272  0.48675457  0.35228263  1
  S  S7  1  0.34061935  0.31876129  0.04990949  1
  S  S8  1  0.65996419  0.68007163  0.94815543  1
  S  S9  1  0.03893218  0.92213563  0.21614416  1
  S  S10  1  0.96112243  0.07775515  0.78527233  1
  S  S11  1  0.50125291  0.99749418  0.50235807  1
