# generated using pymatgen
data_Co3Rh
_symmetry_space_group_name_H-M   'P 1'
_cell_length_a   2.60339821
_cell_length_b   2.60362611
_cell_length_c   8.18098342
_cell_angle_alpha   90.00000000
_cell_angle_beta   90.00000000
_cell_angle_gamma   59.99710435
_symmetry_Int_Tables_number   1
_chemical_formula_structural   Co3Rh
_chemical_formula_sum   'Co3 Rh1'
_cell_volume   48.02227075
_cell_formula_units_Z   1
loop_
 _symmetry_equiv_pos_site_id
 _symmetry_equiv_pos_as_xyz
  1  'x, y, z'
loop_
 _atom_site_type_symbol
 _atom_site_label
 _atom_site_symmetry_multiplicity
 _atom_site_fract_x
 _atom_site_fract_y
 _atom_site_fract_z
 _atom_site_occupancy
  Co  Co0  1  0.33329883  0.33335058  0.87500000  1
  Co  Co1  1  0.66655595  0.66672203  0.11409828  1
  Co  Co2  1  0.66655595  0.66672203  0.63590172  1
  Rh  Rh3  1  0.33358927  0.33320536  0.37500000  1
