# generated using pymatgen
data_Cu2WO4
_symmetry_space_group_name_H-M   'P 1'
_cell_length_a   5.76992386
_cell_length_b   8.45947628
_cell_length_c   9.66740970
_cell_angle_alpha   119.70788461
_cell_angle_beta   80.97764588
_cell_angle_gamma   98.53724674
_symmetry_Int_Tables_number   1
_chemical_formula_structural   Cu2WO4
_chemical_formula_sum   'Cu8 W4 O16'
_cell_volume   403.40070006
_cell_formula_units_Z   4
loop_
 _symmetry_equiv_pos_site_id
 _symmetry_equiv_pos_as_xyz
  1  'x, y, z'
loop_
 _atom_site_type_symbol
 _atom_site_label
 _atom_site_symmetry_multiplicity
 _atom_site_fract_x
 _atom_site_fract_y
 _atom_site_fract_z
 _atom_site_occupancy
  Cu  Cu0  1  0.02083239  0.11128199  0.37452857  1
  Cu  Cu1  1  0.64914650  0.17904024  0.84500562  1
  Cu  Cu2  1  0.35085350  0.82095976  0.15499438  1
  Cu  Cu3  1  0.49275952  0.87063701  0.84921142  1
  Cu  Cu4  1  0.97916761  0.88871801  0.62547143  1
  Cu  Cu5  1  0.32977026  0.45285955  0.84179244  1
  Cu  Cu6  1  0.50724048  0.12936299  0.15078858  1
  Cu  Cu7  1  0.67022974  0.54714045  0.15820756  1
  W  W8  1  0.27961015  0.50683750  0.41445115  1
  W  W9  1  0.72038985  0.49316250  0.58554885  1
  W  W10  1  0.07564849  0.20317808  0.00627779  1
  W  W11  1  0.92435151  0.79682192  0.99372221  1
  O  O12  1  0.45134853  0.64770271  0.60093449  1
  O  O13  1  0.60269350  0.36813973  0.69014872  1
  O  O14  1  0.91930561  0.40776453  0.11076810  1
  O  O15  1  0.54865147  0.35229729  0.39906551  1
  O  O16  1  0.39730650  0.63186027  0.30985128  1
  O  O17  1  0.23091045  0.27255431  0.21131911  1
  O  O18  1  0.81726928  0.05653719  0.07683180  1
  O  O19  1  0.36825892  0.28556189  0.93094980  1
  O  O20  1  0.95916791  0.11910693  0.79894312  1
  O  O21  1  0.08069439  0.59223547  0.88923190  1
  O  O22  1  0.99008867  0.63747973  0.49335475  1
  O  O23  1  0.76908955  0.72744569  0.78868089  1
  O  O24  1  0.18273072  0.94346281  0.92316820  1
  O  O25  1  0.63174108  0.71443811  0.06905020  1
  O  O26  1  0.04083209  0.88089307  0.20105688  1
  O  O27  1  0.00991133  0.36252027  0.50664525  1
