# generated using pymatgen
data_Co3Ni9P4
_symmetry_space_group_name_H-M   'P 1'
_cell_length_a   4.37347541
_cell_length_b   6.65565094
_cell_length_c   6.67417738
_cell_angle_alpha   96.27321470
_cell_angle_beta   109.22564522
_cell_angle_gamma   70.74205322
_symmetry_Int_Tables_number   1
_chemical_formula_structural   Co3Ni9P4
_chemical_formula_sum   'Co3 Ni9 P4'
_cell_volume   173.17457397
_cell_formula_units_Z   1
loop_
 _symmetry_equiv_pos_site_id
 _symmetry_equiv_pos_as_xyz
  1  'x, y, z'
loop_
 _atom_site_type_symbol
 _atom_site_label
 _atom_site_symmetry_multiplicity
 _atom_site_fract_x
 _atom_site_fract_y
 _atom_site_fract_z
 _atom_site_occupancy
  Co  Co0  1  0.82946497  0.81179059  0.96690183  1
  Co  Co1  1  0.35614958  0.96711878  0.18467092  1
  Co  Co2  1  0.13932182  0.03167302  0.81549945  1
  Ni  Ni3  1  0.07772632  0.39025474  0.05176182  1
  Ni  Ni4  1  0.41214152  0.61054340  0.94831304  1
  Ni  Ni5  1  0.97542457  0.94929061  0.38964727  1
  Ni  Ni6  1  0.53447367  0.05165782  0.61063423  1
  Ni  Ni7  1  0.65956926  0.39613533  0.66723283  1
  Ni  Ni8  1  0.38940098  0.60437465  0.33238253  1
  Ni  Ni9  1  0.00630351  0.33278013  0.39575421  1
  Ni  Ni10  1  0.94393251  0.66764376  0.60332661  1
  Ni  Ni11  1  0.68057958  0.18662381  0.03319711  1
  P  P12  1  0.23167698  0.33285241  0.76131168  1
  P  P13  1  0.80422135  0.66756838  0.23764887  1
  P  P14  1  0.52651059  0.23707214  0.33453383  1
  P  P15  1  0.43310279  0.76262045  0.66718379  1
