# generated using pymatgen
data_Ce2(CoCu)5
_symmetry_space_group_name_H-M   'P 1'
_cell_length_a   4.10087372
_cell_length_b   4.87938309
_cell_length_c   8.45977320
_cell_angle_alpha   89.99999593
_cell_angle_beta   90.00000000
_cell_angle_gamma   90.00000000
_symmetry_Int_Tables_number   1
_chemical_formula_structural   Ce2(CoCu)5
_chemical_formula_sum   'Ce2 Co5 Cu5'
_cell_volume   169.27781048
_cell_formula_units_Z   1
loop_
 _symmetry_equiv_pos_site_id
 _symmetry_equiv_pos_as_xyz
  1  'x, y, z'
loop_
 _atom_site_type_symbol
 _atom_site_label
 _atom_site_symmetry_multiplicity
 _atom_site_fract_x
 _atom_site_fract_y
 _atom_site_fract_z
 _atom_site_occupancy
  Ce  Ce0  1  0.00000000  0.99999469  -0.00000000  1
  Ce  Ce1  1  -0.00000000  0.49998045  0.50000000  1
  Co  Co2  1  -0.00000000  0.99998604  0.34842106  1
  Co  Co3  1  0.00000000  0.49997847  0.83737034  1
  Co  Co4  1  -0.00000000  0.49997847  0.16262966  1
  Co  Co5  1  0.00000000  0.99998604  0.65157894  1
  Co  Co6  1  0.50000000  0.99997781  0.50000000  1
  Cu  Cu7  1  0.50000000  0.49998245  -0.00000000  1
  Cu  Cu8  1  0.50000000  0.24978174  0.25177046  1
  Cu  Cu9  1  0.50000000  0.75018605  0.74822757  1
  Cu  Cu10  1  0.50000000  0.75018605  0.25177243  1
  Cu  Cu11  1  0.50000000  0.24978174  0.74822954  1
