# generated using pymatgen
data_CeIn7Cu5
_symmetry_space_group_name_H-M   'P 1'
_cell_length_a   5.50754675
_cell_length_b   7.31630644
_cell_length_c   7.31630644
_cell_angle_alpha   98.29607582
_cell_angle_beta   112.11015750
_cell_angle_gamma   67.88984250
_symmetry_Int_Tables_number   1
_chemical_formula_structural   CeIn7Cu5
_chemical_formula_sum   'Ce1 In7 Cu5'
_cell_volume   253.04344347
_cell_formula_units_Z   1
loop_
 _symmetry_equiv_pos_site_id
 _symmetry_equiv_pos_as_xyz
  1  'x, y, z'
loop_
 _atom_site_type_symbol
 _atom_site_label
 _atom_site_symmetry_multiplicity
 _atom_site_fract_x
 _atom_site_fract_y
 _atom_site_fract_z
 _atom_site_occupancy
  Ce  Ce0  1  0.00039159  0.99960841  0.00039159  1
  In  In1  1  0.65571179  0.34428821  0.65571179  1
  In  In2  1  0.33443027  0.66556973  0.33443027  1
  In  In3  1  0.98709600  0.35510923  0.32930122  1
  In  In4  1  0.98709600  0.67069878  0.64489077  1
  In  In5  1  0.27618501  0.22381499  0.77618501  1
  In  In6  1  0.51322539  0.78854928  0.81500005  1
  In  In7  1  0.51322539  0.18499995  0.21145072  1
  Cu  Cu8  1  0.49632526  0.99091361  0.49347958  1
  Cu  Cu9  1  0.00624071  0.99091361  0.49347958  1
  Cu  Cu10  1  0.49632526  0.50652042  0.00908639  1
  Cu  Cu11  1  0.00624071  0.50652042  0.00908639  1
  Cu  Cu12  1  0.72750663  0.77249337  0.22750663  1
