# generated using pymatgen
data_BaVSeS2
_symmetry_space_group_name_H-M   'P 1'
_cell_length_a   5.67369014
_cell_length_b   6.91913461
_cell_length_c   7.02752650
_cell_angle_alpha   59.60299516
_cell_angle_beta   90.00000000
_cell_angle_gamma   90.00000000
_symmetry_Int_Tables_number   1
_chemical_formula_structural   BaVSeS2
_chemical_formula_sum   'Ba2 V2 Se2 S4'
_cell_volume   237.95738668
_cell_formula_units_Z   2
loop_
 _symmetry_equiv_pos_site_id
 _symmetry_equiv_pos_as_xyz
  1  'x, y, z'
loop_
 _atom_site_type_symbol
 _atom_site_label
 _atom_site_symmetry_multiplicity
 _atom_site_fract_x
 _atom_site_fract_y
 _atom_site_fract_z
 _atom_site_occupancy
  Ba  Ba0  1  0.25000000  0.65978479  0.67015054  1
  Ba  Ba1  1  0.75000000  0.33456846  0.33248739  1
  V  V2  1  0.47313862  0.01039625  0.99443598  1
  V  V3  1  0.02686138  0.01039625  0.99443598  1
  Se  Se4  1  0.75000000  0.82511582  0.83612443  1
  Se  Se5  1  0.75000000  0.82598336  0.33999774  1
  S  S6  1  0.75000000  0.30993893  0.84487587  1
  S  S7  1  0.25000000  0.17064166  0.15942675  1
  S  S8  1  0.25000000  0.17182199  0.66931732  1
  S  S9  1  0.25000000  0.68135250  0.15874801  1
