# generated using pymatgen
data_CeMnSi2Pd
_symmetry_space_group_name_H-M   'P 1'
_cell_length_a   4.10016928
_cell_length_b   4.10016928
_cell_length_c   5.74350023
_cell_angle_alpha   69.08760947
_cell_angle_beta   69.08760947
_cell_angle_gamma   90.00000000
_symmetry_Int_Tables_number   1
_chemical_formula_structural   CeMnSi2Pd
_chemical_formula_sum   'Ce1 Mn1 Si2 Pd1'
_cell_volume   83.35142735
_cell_formula_units_Z   1
loop_
 _symmetry_equiv_pos_site_id
 _symmetry_equiv_pos_as_xyz
  1  'x, y, z'
loop_
 _atom_site_type_symbol
 _atom_site_label
 _atom_site_symmetry_multiplicity
 _atom_site_fract_x
 _atom_site_fract_y
 _atom_site_fract_z
 _atom_site_occupancy
  Ce  Ce0  1  -0.00000000  -0.00000000  0.00000000  1
  Mn  Mn1  1  0.25000000  0.75000000  0.50000000  1
  Si  Si2  1  0.37528945  0.37528945  0.24942110  1
  Si  Si3  1  0.62471055  0.62471055  0.75057890  1
  Pd  Pd4  1  0.75000000  0.25000000  0.50000000  1
