# generated using pymatgen
data_CaLaFeO4
_symmetry_space_group_name_H-M   'P 1'
_cell_length_a   3.90654252
_cell_length_b   3.90654252
_cell_length_c   6.73534388
_cell_angle_alpha   73.14184853
_cell_angle_beta   73.14184853
_cell_angle_gamma   90.00000000
_symmetry_Int_Tables_number   1
_chemical_formula_structural   CaLaFeO4
_chemical_formula_sum   'Ca1 La1 Fe1 O4'
_cell_volume   93.74613139
_cell_formula_units_Z   1
loop_
 _symmetry_equiv_pos_site_id
 _symmetry_equiv_pos_as_xyz
  1  'x, y, z'
loop_
 _atom_site_type_symbol
 _atom_site_label
 _atom_site_symmetry_multiplicity
 _atom_site_fract_x
 _atom_site_fract_y
 _atom_site_fract_z
 _atom_site_occupancy
  Ca  Ca0  1  0.35873843  0.35873843  0.28252314  1
  La  La1  1  0.64267553  0.64267553  0.71464893  1
  Fe  Fe2  1  0.99250677  0.99250677  0.01498646  1
  O  O3  1  0.17383412  0.17383412  0.65233176  1
  O  O4  1  0.82805818  0.82805818  0.34388363  1
  O  O5  1  0.50209348  0.00209348  0.99581304  1
  O  O6  1  0.00209348  0.50209348  0.99581304  1
