# generated using pymatgen
data_BaSr3Ca2(MoO6)2
_symmetry_space_group_name_H-M   'P 1'
_cell_length_a   5.93014856
_cell_length_b   5.93014855
_cell_length_c   10.26947215
_cell_angle_alpha   73.21824337
_cell_angle_beta   90.00000000
_cell_angle_gamma   119.99999996
_symmetry_Int_Tables_number   1
_chemical_formula_structural   BaSr3Ca2(MoO6)2
_chemical_formula_sum   'Ba1 Sr3 Ca2 Mo2 O12'
_cell_volume   294.86545112
_cell_formula_units_Z   1
loop_
 _symmetry_equiv_pos_site_id
 _symmetry_equiv_pos_as_xyz
  1  'x, y, z'
loop_
 _atom_site_type_symbol
 _atom_site_label
 _atom_site_symmetry_multiplicity
 _atom_site_fract_x
 _atom_site_fract_y
 _atom_site_fract_z
 _atom_site_occupancy
  Ba  Ba0  1  0.62502742  0.25005484  0.12491773  1
  Sr  Sr1  1  0.12496346  0.24992692  0.62510962  1
  Sr  Sr2  1  0.87479069  0.74958138  0.37562793  1
  Sr  Sr3  1  0.37520781  0.75041562  0.87437656  1
  Ca  Ca4  1  0.24987022  0.49974045  0.25038933  1
  Ca  Ca5  1  0.75012196  0.50024392  0.74963413  1
  Mo  Mo6  1  0.00029488  0.00058977  0.99911535  1
  Mo  Mo7  1  0.49970257  0.99940513  0.50089230  1
  O  O8  1  0.11562956  0.23125913  0.11528104  1
  O  O9  1  0.61567859  0.23135719  0.61598889  1
  O  O10  1  0.38320913  0.23093546  0.38585540  1
  O  O11  1  0.88547335  0.23167297  0.88285368  1
  O  O12  1  0.65345983  0.76908940  0.11528104  1
  O  O13  1  0.15265392  0.76833251  0.61598889  1
  O  O14  1  0.38320913  0.76641827  0.38585540  1
  O  O15  1  0.88547335  0.77094671  0.88285368  1
  O  O16  1  0.11562956  0.76908940  0.11528104  1
  O  O17  1  0.61567859  0.76833251  0.61598889  1
  O  O18  1  0.84772633  0.23093546  0.38585540  1
  O  O19  1  0.34619961  0.23167297  0.88285368  1
