# generated using pymatgen
data_K3VO5
_symmetry_space_group_name_H-M   'P 1'
_cell_length_a   10.34035223
_cell_length_b   10.40059665
_cell_length_c   12.53432350
_cell_angle_alpha   90.00000000
_cell_angle_beta   90.00000000
_cell_angle_gamma   90.00000000
_symmetry_Int_Tables_number   1
_chemical_formula_structural   K3VO5
_chemical_formula_sum   'K24 V8 O40'
_cell_volume   1348.01425893
_cell_formula_units_Z   8
loop_
 _symmetry_equiv_pos_site_id
 _symmetry_equiv_pos_as_xyz
  1  'x, y, z'
loop_
 _atom_site_type_symbol
 _atom_site_label
 _atom_site_symmetry_multiplicity
 _atom_site_fract_x
 _atom_site_fract_y
 _atom_site_fract_z
 _atom_site_occupancy
  K  K0  1  0.22920134  0.28831183  0.36831123  1
  K  K1  1  0.72920134  0.21168817  0.63168877  1
  K  K2  1  0.77079866  0.78831183  0.13168877  1
  K  K3  1  0.27079866  0.71168817  0.86831123  1
  K  K4  1  0.77079866  0.71168817  0.63168877  1
  K  K5  1  0.27079866  0.78831183  0.36831123  1
  K  K6  1  0.22920134  0.21168817  0.86831123  1
  K  K7  1  0.72920134  0.28831183  0.13168877  1
  K  K8  1  0.87531498  0.39312861  0.40332803  1
  K  K9  1  0.37531498  0.10687139  0.59667197  1
  K  K10  1  0.12468502  0.89312861  0.09667197  1
  K  K11  1  0.62468502  0.60687139  0.90332803  1
  K  K12  1  0.12468502  0.60687139  0.59667197  1
  K  K13  1  0.62468502  0.89312861  0.40332803  1
  K  K14  1  0.87531498  0.10687139  0.90332803  1
  K  K15  1  0.37531498  0.39312861  0.09667197  1
  K  K16  1  0.54836442  0.54872455  0.34455474  1
  K  K17  1  0.04836442  0.95127545  0.65544526  1
  K  K18  1  0.45163558  0.04872455  0.15544526  1
  K  K19  1  0.95163558  0.45127545  0.84455474  1
  K  K20  1  0.45163558  0.45127545  0.65544526  1
  K  K21  1  0.95163558  0.04872455  0.34455474  1
  K  K22  1  0.54836442  0.95127545  0.84455474  1
  K  K23  1  0.04836442  0.54872455  0.15544526  1
  V  V24  1  0.55627868  0.21768454  0.37496151  1
  V  V25  1  0.05627868  0.28231546  0.62503849  1
  V  V26  1  0.44372132  0.71768454  0.12503849  1
  V  V27  1  0.94372132  0.78231546  0.87496151  1
  V  V28  1  0.44372132  0.78231546  0.62503849  1
  V  V29  1  0.94372132  0.71768454  0.37496151  1
  V  V30  1  0.55627868  0.28231546  0.87496151  1
  V  V31  1  0.05627868  0.21768454  0.12503849  1
  O  O32  1  0.54336691  0.31862232  0.48367657  1
  O  O33  1  0.04336691  0.18137768  0.51632343  1
  O  O34  1  0.45663309  0.81862232  0.01632343  1
  O  O35  1  0.95663309  0.68137768  0.98367657  1
  O  O36  1  0.45663309  0.68137768  0.51632343  1
  O  O37  1  0.95663309  0.81862232  0.48367657  1
  O  O38  1  0.54336691  0.18137768  0.98367657  1
  O  O39  1  0.04336691  0.31862232  0.01632343  1
  O  O40  1  0.52104216  0.30222073  0.25982245  1
  O  O41  1  0.02104216  0.19777927  0.74017755  1
  O  O42  1  0.47895784  0.80222073  0.24017755  1
  O  O43  1  0.97895784  0.69777927  0.75982245  1
  O  O44  1  0.47895784  0.69777927  0.74017755  1
  O  O45  1  0.97895784  0.80222073  0.25982245  1
  O  O46  1  0.52104216  0.19777927  0.75982245  1
  O  O47  1  0.02104216  0.30222073  0.24017755  1
  O  O48  1  0.72002138  0.15911112  0.37658935  1
  O  O49  1  0.22002138  0.34088888  0.62341065  1
  O  O50  1  0.27997862  0.65911112  0.12341065  1
  O  O51  1  0.77997862  0.84088888  0.87658935  1
  O  O52  1  0.27997862  0.84088888  0.62341065  1
  O  O53  1  0.77997862  0.65911112  0.37658935  1
  O  O54  1  0.72002138  0.34088888  0.87658935  1
  O  O55  1  0.22002138  0.15911112  0.12341065  1
  O  O56  1  0.44549574  0.09237588  0.38770534  1
  O  O57  1  0.94549574  0.40762412  0.61229466  1
  O  O58  1  0.55450426  0.59237588  0.11229466  1
  O  O59  1  0.05450426  0.90762412  0.88770534  1
  O  O60  1  0.55450426  0.90762412  0.61229466  1
  O  O61  1  0.05450426  0.59237588  0.38770534  1
  O  O62  1  0.44549574  0.40762412  0.88770534  1
  O  O63  1  0.94549574  0.09237588  0.11229466  1
  O  O64  1  0.28558167  0.54069253  0.27271443  1
  O  O65  1  0.78558167  0.95930747  0.72728557  1
  O  O66  1  0.71441833  0.04069253  0.22728557  1
  O  O67  1  0.21441833  0.45930747  0.77271443  1
  O  O68  1  0.71441833  0.45930747  0.72728557  1
  O  O69  1  0.21441833  0.04069253  0.27271443  1
  O  O70  1  0.28558167  0.95930747  0.77271443  1
  O  O71  1  0.78558167  0.54069253  0.22728557  1
