# generated using pymatgen
data_Ba2Fe5BiPb2O13
_symmetry_space_group_name_H-M   'P 1'
_cell_length_a   3.97572034
_cell_length_b   5.80977346
_cell_length_c   13.83551300
_cell_angle_alpha   90.93852080
_cell_angle_beta   81.73926183
_cell_angle_gamma   90.00000000
_symmetry_Int_Tables_number   1
_chemical_formula_structural   Ba2Fe5BiPb2O13
_chemical_formula_sum   'Ba2 Fe5 Bi1 Pb2 O13'
_cell_volume   316.21409658
_cell_formula_units_Z   1
loop_
 _symmetry_equiv_pos_site_id
 _symmetry_equiv_pos_as_xyz
  1  'x, y, z'
loop_
 _atom_site_type_symbol
 _atom_site_label
 _atom_site_symmetry_multiplicity
 _atom_site_fract_x
 _atom_site_fract_y
 _atom_site_fract_z
 _atom_site_occupancy
  Ba  Ba0  1  0.10152637  0.99533646  0.79694725  1
  Ba  Ba1  1  0.89847363  0.00466354  0.20305275  1
  Fe  Fe2  1  0.39799548  0.50675930  0.20400904  1
  Fe  Fe3  1  0.60200452  0.49324070  0.79599096  1
  Fe  Fe4  1  0.50000000  0.00000000  -0.00000000  1
  Fe  Fe5  1  0.29268497  0.01304546  0.41463005  1
  Fe  Fe6  1  0.70731503  0.98695454  0.58536995  1
  Bi  Bi7  1  0.00000000  0.50000000  -0.00000000  1
  Pb  Pb8  1  0.80642765  0.50202273  0.38714470  1
  Pb  Pb9  1  0.19357235  0.49797727  0.61285530  1
  O  O10  1  0.44975053  0.73891234  0.10049895  1
  O  O11  1  0.55024947  0.26108766  0.89950105  1
  O  O12  1  0.55066640  0.73450638  0.89866721  1
  O  O13  1  0.44933360  0.26549362  0.10133279  1
  O  O14  1  0.89066432  0.50484998  0.21867136  1
  O  O15  1  0.10933568  0.49515002  0.78132864  1
  O  O16  1  0.66371501  0.72240691  0.67256998  1
  O  O17  1  0.33628499  0.27759309  0.32743002  1
  O  O18  1  0.22037595  0.94604739  0.55924809  1
  O  O19  1  0.77962405  0.05395261  0.44075191  1
  O  O20  1  0.33788137  0.76107935  0.32423727  1
  O  O21  1  0.66211863  0.23892065  0.67576273  1
  O  O22  1  0.00000000  0.00000000  -0.00000000  1
