# generated using pymatgen
data_Ba4Nd2Cu6NiO15
_symmetry_space_group_name_H-M   'P 1'
_cell_length_a   3.94340518
_cell_length_b   3.90975511
_cell_length_c   25.11209202
_cell_angle_alpha   85.53523293
_cell_angle_beta   85.49672594
_cell_angle_gamma   90.00000000
_symmetry_Int_Tables_number   1
_chemical_formula_structural   Ba4Nd2Cu6NiO15
_chemical_formula_sum   'Ba4 Nd2 Cu6 Ni1 O15'
_cell_volume   384.79809762
_cell_formula_units_Z   1
loop_
 _symmetry_equiv_pos_site_id
 _symmetry_equiv_pos_as_xyz
  1  'x, y, z'
loop_
 _atom_site_type_symbol
 _atom_site_label
 _atom_site_symmetry_multiplicity
 _atom_site_fract_x
 _atom_site_fract_y
 _atom_site_fract_z
 _atom_site_occupancy
  Ba  Ba0  1  0.54184798  0.54184798  0.91630403  1
  Ba  Ba1  1  0.45784363  0.45784363  0.08431273  1
  Ba  Ba2  1  0.69297947  0.69297947  0.61404105  1
  Ba  Ba3  1  0.30710653  0.30710653  0.38578695  1
  Nd  Nd4  1  0.61721848  0.61721848  0.76556304  1
  Nd  Nd5  1  0.38212742  0.38212742  0.23574516  1
  Cu  Cu6  1  0.23797090  0.23797090  0.52405821  1
  Cu  Cu7  1  0.76229670  0.76229670  0.47540659  1
  Cu  Cu8  1  -0.00008901  -0.00008901  0.00017801  1
  Cu  Cu9  1  0.08108819  0.08108819  0.83782363  1
  Cu  Cu10  1  0.91899125  0.91899125  0.16201750  1
  Cu  Cu11  1  0.15401579  0.15401579  0.69196842  1
  Ni  Ni12  1  0.84404130  0.84404130  0.31191741  1
  O  O13  1  0.58733038  0.08733038  0.82533924  1
  O  O14  1  0.41283442  0.91283442  0.17433117  1
  O  O15  1  0.03754827  0.03754827  0.92490346  1
  O  O16  1  0.96268594  0.96268594  0.07462811  1
  O  O17  1  0.24668769  0.74668769  0.50662462  1
  O  O18  1  0.75376656  0.25376656  0.49246687  1
  O  O19  1  0.19806252  0.19806252  0.60387495  1
  O  O20  1  0.80312494  0.80312494  0.39375011  1
  O  O21  1  0.14802727  0.64802727  0.70394545  1
  O  O22  1  0.85214443  0.35214443  0.29571115  1
  O  O23  1  0.08689182  0.58689182  0.82621637  1
  O  O24  1  0.91321158  0.41321158  0.17357685  1
  O  O25  1  0.64836059  0.14836059  0.70327882  1
  O  O26  1  0.35178987  0.85178987  0.29642026  1
  O  O27  1  0.50009509  0.00009509  0.99980982  1
