# generated using pymatgen
data_Ba4Pr3BiO12
_symmetry_space_group_name_H-M   'P 1'
_cell_length_a   6.38888145
_cell_length_b   6.34114716
_cell_length_c   9.00899969
_cell_angle_alpha   89.89923276
_cell_angle_beta   89.90317132
_cell_angle_gamma   89.99137440
_symmetry_Int_Tables_number   1
_chemical_formula_structural   Ba4Pr3BiO12
_chemical_formula_sum   'Ba4 Pr3 Bi1 O12'
_cell_volume   364.97905006
_cell_formula_units_Z   1
loop_
 _symmetry_equiv_pos_site_id
 _symmetry_equiv_pos_as_xyz
  1  'x, y, z'
loop_
 _atom_site_type_symbol
 _atom_site_label
 _atom_site_symmetry_multiplicity
 _atom_site_fract_x
 _atom_site_fract_y
 _atom_site_fract_z
 _atom_site_occupancy
  Ba  Ba0  1  0.46910704  0.49058116  0.75737773  1
  Ba  Ba1  1  0.96824659  0.00548494  0.75784439  1
  Ba  Ba2  1  0.53089296  0.50941884  0.24262227  1
  Ba  Ba3  1  0.03175341  0.99451506  0.24215561  1
  Pr  Pr4  1  0.00000000  0.50000000  -0.00000000  1
  Pr  Pr5  1  0.50000000  -0.00000000  0.50000000  1
  Pr  Pr6  1  0.00000000  0.50000000  0.50000000  1
  Bi  Bi7  1  0.50000000  -0.00000000  -0.00000000  1
  O  O8  1  0.51841148  0.91949366  0.76605205  1
  O  O9  1  0.02783259  0.58059875  0.75232575  1
  O  O10  1  0.48158852  0.08050634  0.23394795  1
  O  O11  1  0.97216741  0.41940125  0.24767425  1
  O  O12  1  0.28495381  0.74092885  0.04353259  1
  O  O13  1  0.79937296  0.80144646  0.45561432  1
  O  O14  1  0.69870076  0.29956105  0.54679840  1
  O  O15  1  0.23866225  0.21249227  0.95978230  1
  O  O16  1  0.71504619  0.25907115  0.95646741  1
  O  O17  1  0.20062704  0.19855354  0.54438568  1
  O  O18  1  0.30129924  0.70043895  0.45320160  1
  O  O19  1  0.76133775  0.78750773  0.04021770  1
