# generated using pymatgen
data_Ba4CaNd3(Co4O11)2
_symmetry_space_group_name_H-M   'P 1'
_cell_length_a   7.94544957
_cell_length_b   8.86116494
_cell_length_c   8.65994256
_cell_angle_alpha   101.86872797
_cell_angle_beta   117.30629893
_cell_angle_gamma   63.36342051
_symmetry_Int_Tables_number   1
_chemical_formula_structural   Ba4CaNd3(Co4O11)2
_chemical_formula_sum   'Ba4 Ca1 Nd3 Co8 O22'
_cell_volume   484.27034452
_cell_formula_units_Z   1
loop_
 _symmetry_equiv_pos_site_id
 _symmetry_equiv_pos_as_xyz
  1  'x, y, z'
loop_
 _atom_site_type_symbol
 _atom_site_label
 _atom_site_symmetry_multiplicity
 _atom_site_fract_x
 _atom_site_fract_y
 _atom_site_fract_z
 _atom_site_occupancy
  Ba  Ba0  1  0.12407195  0.24867866  0.99682257  1
  Ba  Ba1  1  0.62724939  0.24867866  0.00317743  1
  Ba  Ba2  1  0.87379751  0.75199810  0.99959312  1
  Ba  Ba3  1  0.37420439  0.75199810  0.00040688  1
  Ca  Ca4  1  0.86825115  0.26349770  0.50000000  1
  Nd  Nd5  1  0.36658998  0.26682003  0.50000000  1
  Nd  Nd6  1  0.63613052  0.72773895  0.50000000  1
  Nd  Nd7  1  0.13383913  0.73232175  0.50000000  1
  Co  Co8  1  0.36983012  0.00176237  0.74405057  1
  Co  Co9  1  0.87245807  0.00176237  0.74405057  1
  Co  Co10  1  0.62840750  0.00176237  0.25594943  1
  Co  Co11  1  0.12577955  0.00176237  0.25594943  1
  Co  Co12  1  0.62575493  0.49750517  0.74694817  1
  Co  Co13  1  0.12368807  0.49750517  0.74694817  1
  Co  Co14  1  0.87673990  0.49750517  0.25305183  1
  Co  Co15  1  0.37880676  0.49750517  0.25305183  1
  O  O16  1  0.59563366  0.99940327  0.69067060  1
  O  O17  1  0.09885180  0.99699437  0.69469797  1
  O  O18  1  0.40496306  0.99940327  0.30932940  1
  O  O19  1  0.90415383  0.99699437  0.30530203  1
  O  O20  1  0.73778081  0.22812175  0.70881688  1
  O  O21  1  0.24291433  0.22812175  0.70881688  1
  O  O22  1  0.76019528  0.77324077  0.29411001  1
  O  O23  1  0.26067396  0.77324077  0.29411001  1
  O  O24  1  0.96608527  0.77324077  0.70588999  1
  O  O25  1  0.46656395  0.77324077  0.70588999  1
  O  O26  1  0.52896393  0.22812175  0.29118312  1
  O  O27  1  0.03409745  0.22812175  0.29118312  1
  O  O28  1  0.50038233  0.99923533  0.00000000  1
  O  O29  1  0.00038233  0.99923533  0.00000000  1
  O  O30  1  0.36559204  0.49968772  0.73087180  1
  O  O31  1  0.86317876  0.50423299  0.73059050  1
  O  O32  1  0.13472024  0.49968772  0.26912820  1
  O  O33  1  0.63258825  0.50423299  0.26940950  1
  O  O34  1  0.49267670  0.50416880  0.50000000  1
  O  O35  1  0.00315450  0.50416880  0.50000000  1
  O  O36  1  0.25042429  0.49915142  0.00000000  1
  O  O37  1  0.75042429  0.49915142  0.00000000  1
