# generated using pymatgen
data_AsS
_symmetry_space_group_name_H-M   'P 1'
_cell_length_a   7.61096715
_cell_length_b   10.73528578
_cell_length_c   18.94664703
_cell_angle_alpha   90.00000000
_cell_angle_beta   90.00000000
_cell_angle_gamma   90.00000000
_symmetry_Int_Tables_number   1
_chemical_formula_structural   AsS
_chemical_formula_sum   'As32 S32'
_cell_volume   1548.05298810
_cell_formula_units_Z   32
loop_
 _symmetry_equiv_pos_site_id
 _symmetry_equiv_pos_as_xyz
  1  'x, y, z'
loop_
 _atom_site_type_symbol
 _atom_site_label
 _atom_site_symmetry_multiplicity
 _atom_site_fract_x
 _atom_site_fract_y
 _atom_site_fract_z
 _atom_site_occupancy
  As  As0  1  0.87986618  0.65409804  0.13273912  1
  As  As1  1  0.12013382  0.34590196  0.63273912  1
  As  As2  1  0.87986618  0.84590196  0.63273912  1
  As  As3  1  0.12013382  0.15409804  0.13273912  1
  As  As4  1  0.61428949  0.66196219  0.45012686  1
  As  As5  1  0.38571051  0.33803781  0.95012686  1
  As  As6  1  0.61428949  0.83803781  0.95012686  1
  As  As7  1  0.38571051  0.16196219  0.45012686  1
  As  As8  1  0.37657181  0.86319351  0.33191705  1
  As  As9  1  0.62342819  0.13680649  0.83191705  1
  As  As10  1  0.37657181  0.63680649  0.83191705  1
  As  As11  1  0.62342819  0.36319351  0.33191705  1
  As  As12  1  0.11790623  0.86088680  0.24618281  1
  As  As13  1  0.88209377  0.13911320  0.74618281  1
  As  As14  1  0.11790623  0.63911320  0.74618281  1
  As  As15  1  0.88209377  0.36088680  0.24618281  1
  As  As16  1  0.62896625  0.87496751  0.24214381  1
  As  As17  1  0.37103375  0.12503249  0.74214381  1
  As  As18  1  0.62896625  0.62503249  0.74214381  1
  As  As19  1  0.37103375  0.37496751  0.24214381  1
  As  As20  1  0.86966337  0.87903813  0.33768923  1
  As  As21  1  0.13033663  0.12096187  0.83768923  1
  As  As22  1  0.86966337  0.62096187  0.83768923  1
  As  As23  1  0.13033663  0.37903813  0.33768923  1
  As  As24  1  0.38595108  0.85440878  0.57551623  1
  As  As25  1  0.61404892  0.14559122  0.07551623  1
  As  As26  1  0.38595108  0.64559122  0.07551623  1
  As  As27  1  0.61404892  0.35440878  0.57551623  1
  As  As28  1  0.10921375  0.64905752  0.51199053  1
  As  As29  1  0.89078625  0.35094248  0.01199053  1
  As  As30  1  0.10921375  0.85094248  0.01199053  1
  As  As31  1  0.89078625  0.14905752  0.51199053  1
  S  S32  1  0.88205870  0.85612099  0.09596167  1
  S  S33  1  0.11794130  0.14387901  0.59596167  1
  S  S34  1  0.88205870  0.64387901  0.59596167  1
  S  S35  1  0.11794130  0.35612099  0.09596167  1
  S  S36  1  0.13555441  0.85821987  0.50110866  1
  S  S37  1  0.86444559  0.14178013  0.00110866  1
  S  S38  1  0.13555441  0.64178013  0.00110866  1
  S  S39  1  0.86444559  0.35821987  0.50110866  1
  S  S40  1  0.60941253  0.86245994  0.48999654  1
  S  S41  1  0.39058747  0.13754006  0.98999654  1
  S  S42  1  0.60941253  0.63754006  0.98999654  1
  S  S43  1  0.39058747  0.36245994  0.48999654  1
  S  S44  1  0.86195914  0.68014180  0.37962527  1
  S  S45  1  0.13804086  0.31985820  0.87962527  1
  S  S46  1  0.86195914  0.81985820  0.87962527  1
  S  S47  1  0.13804086  0.18014180  0.37962527  1
  S  S48  1  0.10962846  0.65722072  0.21395119  1
  S  S49  1  0.89037154  0.34277928  0.71395119  1
  S  S50  1  0.10962846  0.84277928  0.71395119  1
  S  S51  1  0.89037154  0.15722072  0.21395119  1
  S  S52  1  0.38514630  0.66188768  0.36883694  1
  S  S53  1  0.61485370  0.33811232  0.86883694  1
  S  S54  1  0.38514630  0.83811232  0.86883694  1
  S  S55  1  0.61485370  0.16188768  0.36883694  1
  S  S56  1  0.63542621  0.67306084  0.20557728  1
  S  S57  1  0.36457379  0.32693916  0.70557728  1
  S  S58  1  0.63542621  0.82693916  0.70557728  1
  S  S59  1  0.36457379  0.17306084  0.20557728  1
  S  S60  1  0.35942343  0.64467422  0.58617681  1
  S  S61  1  0.64057657  0.35532578  0.08617681  1
  S  S62  1  0.35942343  0.85532578  0.08617681  1
  S  S63  1  0.64057657  0.14467422  0.58617681  1
