# generated using pymatgen
data_Bi13Pb3Cl7O19
_symmetry_space_group_name_H-M   'P 1'
_cell_length_a   4.03155492
_cell_length_b   15.23966012
_cell_length_c   15.53052092
_cell_angle_alpha   117.52904398
_cell_angle_beta   90.00000000
_cell_angle_gamma   82.39911046
_symmetry_Int_Tables_number   1
_chemical_formula_structural   Bi13Pb3Cl7O19
_chemical_formula_sum   'Bi13 Pb3 Cl7 O19'
_cell_volume   836.68565294
_cell_formula_units_Z   1
loop_
 _symmetry_equiv_pos_site_id
 _symmetry_equiv_pos_as_xyz
  1  'x, y, z'
loop_
 _atom_site_type_symbol
 _atom_site_label
 _atom_site_symmetry_multiplicity
 _atom_site_fract_x
 _atom_site_fract_y
 _atom_site_fract_z
 _atom_site_occupancy
  Bi  Bi0  1  0.57539233  0.84921534  0.32144843  1
  Bi  Bi1  1  0.42354951  0.15290099  0.67809251  1
  Bi  Bi2  1  0.69112646  0.61774708  0.05253971  1
  Bi  Bi3  1  0.30821924  0.38356152  0.95106506  1
  Bi  Bi4  1  0.86850518  0.26298963  0.33096197  1
  Bi  Bi5  1  0.12950833  0.74098333  0.69555818  1
  Bi  Bi6  1  0.40120061  0.19759878  0.07282959  1
  Bi  Bi7  1  0.60157344  0.79685311  0.92342007  1
  Bi  Bi8  1  0.78470081  0.43059838  0.17211344  1
  Bi  Bi9  1  0.21742319  0.56515362  0.82966586  1
  Bi  Bi10  1  0.48414473  0.03171055  0.20454600  1
  Bi  Bi11  1  0.51137911  0.97724178  0.79714074  1
  Bi  Bi12  1  0.33510714  0.32978573  0.55297630  1
  Pb  Pb13  1  0.95378542  0.09242916  0.44122479  1
  Pb  Pb14  1  0.04730436  0.90539128  0.55015181  1
  Pb  Pb15  1  0.66802680  0.66394640  0.44202093  1
  Cl  Cl16  1  0.09855218  0.80289565  0.10514836  1
  Cl  Cl17  1  0.90453855  0.19092290  0.88420356  1
  Cl  Cl18  1  0.27526571  0.44946857  0.32240128  1
  Cl  Cl19  1  0.71887974  0.56224051  0.67461291  1
  Cl  Cl20  1  0.00492211  0.99015578  0.99248832  1
  Cl  Cl21  1  0.18718010  0.62563979  0.21531148  1
  Cl  Cl22  1  0.80949999  0.38100001  0.78408629  1
  O  O23  1  0.04681517  0.90636965  0.38806886  1
  O  O24  1  0.95277362  0.09445276  0.61289697  1
  O  O25  1  0.86398154  0.27203692  0.12948857  1
  O  O26  1  0.13719581  0.72560838  0.86334501  1
  O  O27  1  0.95138473  0.09723054  0.26531930  1
  O  O28  1  0.04841968  0.90316064  0.74044815  1
  O  O29  1  0.59404434  0.81191133  0.44430815  1
  O  O30  1  0.40469181  0.19061639  0.55762189  1
  O  O31  1  0.50023070  0.99953859  0.32770651  1
  O  O32  1  0.49974190  0.00051619  0.67465566  1
  O  O33  1  0.41119896  0.17760208  0.19642589  1
  O  O34  1  0.59639642  0.80720716  0.78286089  1
  O  O35  1  0.77282511  0.45434978  0.02465397  1
  O  O36  1  0.22591004  0.54817993  0.97392707  1
  O  O37  1  0.68326338  0.63347324  0.91099814  1
  O  O38  1  0.31472760  0.37054480  0.08853814  1
  O  O39  1  0.14533039  0.70933923  0.54040876  1
  O  O40  1  0.84868054  0.30263892  0.49307545  1
  O  O41  1  0.37500322  0.24999356  0.39124502  1
