# generated using pymatgen
data_Ce2Si5Ni17
_symmetry_space_group_name_H-M   'P 1'
_cell_length_a   6.19335396
_cell_length_b   7.60876851
_cell_length_c   7.60876851
_cell_angle_alpha   99.53436766
_cell_angle_beta   114.01576146
_cell_angle_gamma   65.98423854
_symmetry_Int_Tables_number   1
_chemical_formula_structural   Ce2Si5Ni17
_chemical_formula_sum   'Ce2 Si5 Ni17'
_cell_volume   299.16345982
_cell_formula_units_Z   1
loop_
 _symmetry_equiv_pos_site_id
 _symmetry_equiv_pos_as_xyz
  1  'x, y, z'
loop_
 _atom_site_type_symbol
 _atom_site_label
 _atom_site_symmetry_multiplicity
 _atom_site_fract_x
 _atom_site_fract_y
 _atom_site_fract_z
 _atom_site_occupancy
  Ce  Ce0  1  0.37500000  0.75000000  0.25000000  1
  Ce  Ce1  1  0.62500000  0.25000000  0.75000000  1
  Si  Si2  1  0.00300922  0.48519400  0.98519400  1
  Si  Si3  1  0.01179678  0.48519400  0.51480600  1
  Si  Si4  1  0.48218478  0.01480600  0.98519400  1
  Si  Si5  1  0.00300922  0.01480600  0.51480600  1
  Si  Si6  1  0.87500000  0.75000000  0.25000000  1
  Ni  Ni7  1  0.19403089  0.57900372  0.83046614  1
  Ni  Ni8  1  0.44256847  0.33046614  0.07900372  1
  Ni  Ni9  1  0.25422059  0.43080375  0.32301401  1
  Ni  Ni10  1  0.86201033  0.82301401  0.93080375  1
  Ni  Ni11  1  0.19403089  0.16953386  0.42099628  1
  Ni  Ni12  1  0.44256847  0.92099628  0.66953386  1
  Ni  Ni13  1  0.25422059  0.67698599  0.56919625  1
  Ni  Ni14  1  0.86201033  0.06919625  0.17698599  1
  Ni  Ni15  1  0.81497566  0.43080375  0.17698599  1
  Ni  Ni16  1  0.56879342  0.67698599  0.93080375  1
  Ni  Ni17  1  0.72696539  0.57900372  0.66953386  1
  Ni  Ni18  1  0.13643525  0.16953386  0.07900372  1
  Ni  Ni19  1  0.81497566  0.82301401  0.56919625  1
  Ni  Ni20  1  0.56879342  0.06919625  0.32301401  1
  Ni  Ni21  1  0.72696539  0.33046614  0.42099628  1
  Ni  Ni22  1  0.13643525  0.92099628  0.83046614  1
  Ni  Ni23  1  0.12500000  0.25000000  0.75000000  1
