# generated using pymatgen
data_Ba5Yb8Zn4O21
_symmetry_space_group_name_H-M   'P 1'
_cell_length_a   5.67604367
_cell_length_b   10.19307691
_cell_length_c   10.19307691
_cell_angle_alpha   85.55389777
_cell_angle_beta   73.83368950
_cell_angle_gamma   73.83368950
_symmetry_Int_Tables_number   1
_chemical_formula_structural   Ba5Yb8Zn4O21
_chemical_formula_sum   'Ba5 Yb8 Zn4 O21'
_cell_volume   544.01727729
_cell_formula_units_Z   1
loop_
 _symmetry_equiv_pos_site_id
 _symmetry_equiv_pos_as_xyz
  1  'x, y, z'
loop_
 _atom_site_type_symbol
 _atom_site_label
 _atom_site_symmetry_multiplicity
 _atom_site_fract_x
 _atom_site_fract_y
 _atom_site_fract_z
 _atom_site_occupancy
  O  O0  1  0.09466482  0.88254373  0.40720005  1
  O  O1  1  0.50186487  0.59279995  0.88254373  1
  O  O2  1  0.97720855  0.40720005  0.11745627  1
  O  O3  1  0.38440860  0.11745627  0.59279995  1
  O  O4  1  0.90533518  0.11745627  0.59279995  1
  O  O5  1  0.49813513  0.40720005  0.11745627  1
  O  O6  1  0.02279145  0.59279995  0.88254373  1
  O  O7  1  0.61559140  0.88254373  0.40720005  1
  O  O8  1  0.93731845  0.86202150  0.77851271  1
  O  O9  1  0.71583116  0.22148729  0.86202150  1
  O  O10  1  0.79933995  0.77851271  0.13797850  1
  O  O11  1  0.57785266  0.13797850  0.22148729  1
  O  O12  1  0.06268155  0.13797850  0.22148729  1
  O  O13  1  0.28416884  0.77851271  0.13797850  1
  O  O14  1  0.20066005  0.22148729  0.86202150  1
  O  O15  1  0.42214734  0.86202150  0.77851271  1
  O  O16  1  0.37260509  0.65853318  0.59625664  1
  O  O17  1  0.50000000  0.00000000  0.00000000  1
  O  O18  1  0.62739491  0.34146682  0.40374336  1
  O  O19  1  0.03113827  0.59625664  0.34146682  1
  O  O20  1  0.96886173  0.40374336  0.65853318  1
  Zn  Zn21  1  0.95777007  0.79652585  0.28793401  1
  Zn  Zn22  1  0.24570408  0.71206599  0.79652585  1
  Zn  Zn23  1  0.75429592  0.28793401  0.20347415  1
  Zn  Zn24  1  0.04222993  0.20347415  0.71206599  1
  Ba  Ba25  1  0.46691836  0.38897662  0.67718665  1
  Ba  Ba26  1  0.14410502  0.32281335  0.38897662  1
  Ba  Ba27  1  0.85589498  0.67718665  0.61102338  1
  Ba  Ba28  1  0.53308164  0.61102338  0.32281335  1
  Ba  Ba29  1  0.00000000  0.00000000  0.00000000  1
  Yb  Yb30  1  0.59150008  0.04842160  0.76857825  1
  Yb  Yb31  1  0.36007832  0.23142175  0.04842160  1
  Yb  Yb32  1  0.63992168  0.76857825  0.95157840  1
  Yb  Yb33  1  0.40849992  0.95157840  0.23142175  1
  Yb  Yb34  1  0.75021591  0.08285239  0.41671578  1
  Yb  Yb35  1  0.16693169  0.58328422  0.08285239  1
  Yb  Yb36  1  0.83306831  0.41671578  0.91714761  1
  Yb  Yb37  1  0.24978409  0.91714761  0.58328422  1
