# generated using pymatgen
data_La3MnFeS7
_symmetry_space_group_name_H-M   'P 1'
_cell_length_a   10.25793276
_cell_length_b   10.25793276
_cell_length_c   6.03964234
_cell_angle_alpha   90.00000000
_cell_angle_beta   90.00000000
_cell_angle_gamma   119.99999999
_symmetry_Int_Tables_number   1
_chemical_formula_structural   La3MnFeS7
_chemical_formula_sum   'La6 Mn2 Fe2 S14'
_cell_volume   550.37861228
_cell_formula_units_Z   2
loop_
 _symmetry_equiv_pos_site_id
 _symmetry_equiv_pos_as_xyz
  1  'x, y, z'
loop_
 _atom_site_type_symbol
 _atom_site_label
 _atom_site_symmetry_multiplicity
 _atom_site_fract_x
 _atom_site_fract_y
 _atom_site_fract_z
 _atom_site_occupancy
  S  S0  1  0.66666667  0.33333333  0.02611959  1
  S  S1  1  0.33333333  0.66666667  0.52611959  1
  S  S2  1  0.48222644  0.58288610  0.01414240  1
  S  S3  1  0.89934034  0.48222644  0.51414240  1
  S  S4  1  0.58288610  0.10065966  0.51414240  1
  S  S5  1  0.41711390  0.89934034  0.01414240  1
  S  S6  1  0.10065966  0.51777356  0.01414240  1
  S  S7  1  0.51777356  0.41711390  0.51414240  1
  S  S8  1  0.76576105  0.91176460  0.27895380  1
  S  S9  1  0.85399646  0.76576105  0.77895380  1
  S  S10  1  0.23423895  0.08823540  0.77895380  1
  S  S11  1  0.14600354  0.23423895  0.27895380  1
  S  S12  1  0.08823540  0.85399646  0.27895380  1
  S  S13  1  0.91176460  0.14600354  0.77895380  1
  Mn  Mn14  1  0.00000000  0.00000000  0.51676028  1
  Mn  Mn15  1  0.00000000  0.00000000  0.01676028  1
  Fe  Fe16  1  0.66666667  0.33333333  0.65557449  1
  Fe  Fe17  1  0.33333333  0.66666667  0.15557449  1
  La  La18  1  0.62396009  0.85951759  0.74075234  1
  La  La19  1  0.76444249  0.62396009  0.24075234  1
  La  La20  1  0.85951759  0.23555751  0.24075234  1
  La  La21  1  0.14048241  0.76444249  0.74075234  1
  La  La22  1  0.23555751  0.37603991  0.74075234  1
  La  La23  1  0.37603991  0.14048241  0.24075234  1
