# generated using pymatgen
data_Rb2TbO3
_symmetry_space_group_name_H-M   'P 1'
_cell_length_a   6.39543285
_cell_length_b   6.73727088
_cell_length_c   6.73727089
_cell_angle_alpha   112.95296806
_cell_angle_beta   90.00000000
_cell_angle_gamma   90.00000000
_symmetry_Int_Tables_number   1
_chemical_formula_structural   Rb2TbO3
_chemical_formula_sum   'Rb4 Tb2 O6'
_cell_volume   267.30999372
_cell_formula_units_Z   2
loop_
 _symmetry_equiv_pos_site_id
 _symmetry_equiv_pos_as_xyz
  1  'x, y, z'
loop_
 _atom_site_type_symbol
 _atom_site_label
 _atom_site_symmetry_multiplicity
 _atom_site_fract_x
 _atom_site_fract_y
 _atom_site_fract_z
 _atom_site_occupancy
  O  O0  1  0.63828453  0.62951492  0.62951492  1
  O  O1  1  0.13828453  0.37048508  0.37048508  1
  O  O2  1  0.99846156  0.84327709  0.09437698  1
  O  O3  1  0.49846156  0.15672291  0.90562302  1
  O  O4  1  0.99846156  0.09437698  0.84327709  1
  O  O5  1  0.49846156  0.90562302  0.15672291  1
  Rb  Rb6  1  0.76767806  0.19834809  0.52547938  1
  Rb  Rb7  1  0.76767806  0.52547938  0.19834809  1
  Rb  Rb8  1  0.26767806  0.80165191  0.47452062  1
  Rb  Rb9  1  0.26767806  0.47452062  0.80165191  1
  Tb  Tb10  1  0.22943623  0.09558172  0.09558172  1
  Tb  Tb11  1  0.72943623  0.90441828  0.90441828  1
