# generated using pymatgen
data_YbSiAg
_symmetry_space_group_name_H-M   'P 1'
_cell_length_a   6.98154868
_cell_length_b   6.98154868
_cell_length_c   4.39446935
_cell_angle_alpha   90.00000000
_cell_angle_beta   90.00000000
_cell_angle_gamma   120.00000002
_symmetry_Int_Tables_number   1
_chemical_formula_structural   YbSiAg
_chemical_formula_sum   'Yb3 Si3 Ag3'
_cell_volume   185.49858974
_cell_formula_units_Z   3
loop_
 _symmetry_equiv_pos_site_id
 _symmetry_equiv_pos_as_xyz
  1  'x, y, z'
loop_
 _atom_site_type_symbol
 _atom_site_label
 _atom_site_symmetry_multiplicity
 _atom_site_fract_x
 _atom_site_fract_y
 _atom_site_fract_z
 _atom_site_occupancy
  Si  Si0  1  0.66666667  0.33333333  0.00000000  1
  Si  Si1  1  0.33333333  0.66666667  0.00000000  1
  Si  Si2  1  0.00000000  0.00000000  0.50000000  1
  Ag  Ag3  1  0.75530173  0.75530173  0.00000000  1
  Ag  Ag4  1  0.24469827  0.00000000  0.00000000  1
  Ag  Ag5  1  0.00000000  0.24469827  0.00000000  1
  Yb  Yb6  1  0.00000000  0.57192968  0.50000000  1
  Yb  Yb7  1  0.57192968  0.00000000  0.50000000  1
  Yb  Yb8  1  0.42807032  0.42807032  0.50000000  1
