# generated using pymatgen
data_Ba2Mn3(SbO)2
_symmetry_space_group_name_H-M   'P 1'
_cell_length_a   4.46585486
_cell_length_b   4.46585487
_cell_length_c   11.13093272
_cell_angle_alpha   101.57237501
_cell_angle_beta   101.57237505
_cell_angle_gamma   90.00000006
_symmetry_Int_Tables_number   1
_chemical_formula_structural   Ba2Mn3(SbO)2
_chemical_formula_sum   'Ba2 Mn3 Sb2 O2'
_cell_volume   212.87277722
_cell_formula_units_Z   1
loop_
 _symmetry_equiv_pos_site_id
 _symmetry_equiv_pos_as_xyz
  1  'x, y, z'
loop_
 _atom_site_type_symbol
 _atom_site_label
 _atom_site_symmetry_multiplicity
 _atom_site_fract_x
 _atom_site_fract_y
 _atom_site_fract_z
 _atom_site_occupancy
  O  O0  1  0.00000000  0.50000000  0.00000000  1
  O  O1  1  0.50000000  0.00000000  0.00000000  1
  Mn  Mn2  1  0.00000000  0.00000000  0.00000000  1
  Mn  Mn3  1  0.75000000  0.25000000  0.50000000  1
  Mn  Mn4  1  0.25000000  0.75000000  0.50000000  1
  Sb  Sb5  1  0.16659744  0.16659744  0.33319488  1
  Sb  Sb6  1  0.83340256  0.83340256  0.66680512  1
  Ba  Ba7  1  0.58126481  0.58126481  0.16252962  1
  Ba  Ba8  1  0.41873519  0.41873519  0.83747038  1
