# generated using pymatgen
data_NdMn12
_symmetry_space_group_name_H-M   'P 1'
_cell_length_a   4.72366326
_cell_length_b   6.37099455
_cell_length_c   6.37099455
_cell_angle_alpha   82.10080741
_cell_angle_beta   68.24019889
_cell_angle_gamma   68.24019883
_symmetry_Int_Tables_number   1
_chemical_formula_structural   NdMn12
_chemical_formula_sum   'Nd1 Mn12'
_cell_volume   165.38169948
_cell_formula_units_Z   1
loop_
 _symmetry_equiv_pos_site_id
 _symmetry_equiv_pos_as_xyz
  1  'x, y, z'
loop_
 _atom_site_type_symbol
 _atom_site_label
 _atom_site_symmetry_multiplicity
 _atom_site_fract_x
 _atom_site_fract_y
 _atom_site_fract_z
 _atom_site_occupancy
  Mn  Mn0  1  0.73313032  0.76686968  0.76686968  1
  Mn  Mn1  1  0.50000000  0.00000000  0.50000000  1
  Mn  Mn2  1  0.00000000  0.50000000  0.00000000  1
  Mn  Mn3  1  0.50000000  0.50000000  0.00000000  1
  Mn  Mn4  1  0.00000000  0.00000000  0.50000000  1
  Mn  Mn5  1  0.36695440  0.63304560  0.63304560  1
  Mn  Mn6  1  0.00000000  0.36695440  0.63304560  1
  Mn  Mn7  1  0.00000000  0.63304560  0.36695440  1
  Mn  Mn8  1  0.63304560  0.36695440  0.36695440  1
  Mn  Mn9  1  0.26686968  0.23313032  0.23313032  1
  Mn  Mn10  1  0.50000000  0.76686968  0.23313032  1
  Mn  Mn11  1  0.50000000  0.23313032  0.76686968  1
  Nd  Nd12  1  0.00000000  0.00000000  0.00000000  1
