# generated using pymatgen
data_Al2(WO4)3
_symmetry_space_group_name_H-M   'P 1'
_cell_length_a   9.22842880
_cell_length_b   9.30852078
_cell_length_c   12.90610159
_cell_angle_alpha   90.00000000
_cell_angle_beta   90.00000000
_cell_angle_gamma   90.00000000
_symmetry_Int_Tables_number   1
_chemical_formula_structural   Al2(WO4)3
_chemical_formula_sum   'Al8 W12 O48'
_cell_volume   1108.67311916
_cell_formula_units_Z   4
loop_
 _symmetry_equiv_pos_site_id
 _symmetry_equiv_pos_as_xyz
  1  'x, y, z'
loop_
 _atom_site_type_symbol
 _atom_site_label
 _atom_site_symmetry_multiplicity
 _atom_site_fract_x
 _atom_site_fract_y
 _atom_site_fract_z
 _atom_site_occupancy
  O  O0  1  0.85893285  0.30524974  0.16472522  1
  O  O1  1  0.85893285  0.19475026  0.83527478  1
  O  O2  1  0.64106715  0.80524974  0.33527478  1
  O  O3  1  0.64106715  0.69475026  0.66472522  1
  O  O4  1  0.14106715  0.69475026  0.83527478  1
  O  O5  1  0.14106715  0.80524974  0.16472522  1
  O  O6  1  0.35893285  0.19475026  0.66472522  1
  O  O7  1  0.35893285  0.30524974  0.33527478  1
  O  O8  1  0.81409708  0.06531340  0.02172913  1
  O  O9  1  0.81409708  0.43468660  0.97827087  1
  O  O10  1  0.68590292  0.56531340  0.47827087  1
  O  O11  1  0.68590292  0.93468660  0.52172913  1
  O  O12  1  0.18590292  0.93468660  0.97827087  1
  O  O13  1  0.18590292  0.56531340  0.02172913  1
  O  O14  1  0.31409708  0.43468660  0.52172913  1
  O  O15  1  0.31409708  0.06531340  0.47827087  1
  O  O16  1  0.41194117  0.65768479  0.90704649  1
  O  O17  1  0.58805883  0.34231521  0.09295351  1
  O  O18  1  0.91194117  0.84231521  0.40704649  1
  O  O19  1  0.91194117  0.65768479  0.59295351  1
  O  O20  1  0.08719968  0.08835227  0.13929185  1
  O  O21  1  0.08719968  0.41164773  0.86070815  1
  O  O22  1  0.41280032  0.58835227  0.36070815  1
  O  O23  1  0.41280032  0.91164773  0.63929185  1
  O  O24  1  0.91280032  0.91164773  0.86070815  1
  O  O25  1  0.91280032  0.58835227  0.13929185  1
  O  O26  1  0.58719968  0.41164773  0.63929185  1
  O  O27  1  0.58719968  0.08835227  0.36070815  1
  O  O28  1  0.36194381  0.12369868  0.06935708  1
  O  O29  1  0.36194381  0.37630132  0.93064292  1
  O  O30  1  0.13805619  0.62369868  0.43064292  1
  O  O31  1  0.13805619  0.87630132  0.56935708  1
  O  O32  1  0.63805619  0.87630132  0.93064292  1
  O  O33  1  0.63805619  0.62369868  0.06935708  1
  O  O34  1  0.86194381  0.37630132  0.56935708  1
  O  O35  1  0.86194381  0.12369868  0.43064292  1
  O  O36  1  0.31379766  0.00671697  0.25419651  1
  O  O37  1  0.31379766  0.49328303  0.74580349  1
  O  O38  1  0.18620234  0.50671697  0.24580349  1
  O  O39  1  0.18620234  0.99328303  0.75419651  1
  O  O40  1  0.68620234  0.99328303  0.74580349  1
  O  O41  1  0.68620234  0.50671697  0.25419651  1
  O  O42  1  0.81379766  0.49328303  0.75419651  1
  O  O43  1  0.81379766  0.00671697  0.24580349  1
  O  O44  1  0.08805883  0.34231521  0.40704649  1
  O  O45  1  0.08805883  0.15768479  0.59295351  1
  O  O46  1  0.41194117  0.84231521  0.09295351  1
  O  O47  1  0.58805883  0.15768479  0.90704649  1
  Al  Al48  1  0.24987369  0.46729133  0.38151128  1
  Al  Al49  1  0.24987369  0.03270867  0.61848872  1
  Al  Al50  1  0.25012631  0.96729133  0.11848872  1
  Al  Al51  1  0.25012631  0.53270867  0.88151128  1
  Al  Al52  1  0.75012631  0.53270867  0.61848872  1
  Al  Al53  1  0.75012631  0.96729133  0.38151128  1
  Al  Al54  1  0.74987369  0.03270867  0.88151128  1
  Al  Al55  1  0.74987369  0.46729133  0.11848872  1
  W  W56  1  0.97422214  0.25000000  0.50000000  1
  W  W57  1  0.52577786  0.75000000  0.00000000  1
  W  W58  1  0.02577786  0.75000000  0.50000000  1
  W  W59  1  0.47422214  0.25000000  0.00000000  1
  W  W60  1  0.39320767  0.11557464  0.35562476  1
  W  W61  1  0.39320767  0.38442536  0.64437524  1
  W  W62  1  0.10679233  0.61557464  0.14437524  1
  W  W63  1  0.10679233  0.88442536  0.85562476  1
  W  W64  1  0.60679233  0.88442536  0.64437524  1
  W  W65  1  0.60679233  0.61557464  0.35562476  1
  W  W66  1  0.89320767  0.38442536  0.85562476  1
  W  W67  1  0.89320767  0.11557464  0.14437524  1
