# generated using pymatgen
data_Tb7O12
_symmetry_space_group_name_H-M   'P 1'
_cell_length_a   6.64329364
_cell_length_b   6.64329364
_cell_length_c   6.64329364
_cell_angle_alpha   99.50261450
_cell_angle_beta   99.50261456
_cell_angle_gamma   99.50261451
_symmetry_Int_Tables_number   1
_chemical_formula_structural   Tb7O12
_chemical_formula_sum   'Tb7 O12'
_cell_volume   279.56844925
_cell_formula_units_Z   1
loop_
 _symmetry_equiv_pos_site_id
 _symmetry_equiv_pos_as_xyz
  1  'x, y, z'
loop_
 _atom_site_type_symbol
 _atom_site_label
 _atom_site_symmetry_multiplicity
 _atom_site_fract_x
 _atom_site_fract_y
 _atom_site_fract_z
 _atom_site_occupancy
  O  O0  1  0.17940635  0.43595060  0.57903834  1
  O  O1  1  0.43595060  0.57903834  0.17940635  1
  O  O2  1  0.57903834  0.17940635  0.43595060  1
  O  O3  1  0.82059365  0.56404940  0.42096166  1
  O  O4  1  0.56404940  0.42096166  0.82059365  1
  O  O5  1  0.42096166  0.82059365  0.56404940  1
  O  O6  1  0.32620389  0.06300627  0.93577842  1
  O  O7  1  0.06422158  0.67379611  0.93699373  1
  O  O8  1  0.93699373  0.06422158  0.67379611  1
  O  O9  1  0.67379611  0.93699373  0.06422158  1
  O  O10  1  0.93577842  0.32620389  0.06300627  1
  O  O11  1  0.06300627  0.93577842  0.32620389  1
  Tb  Tb12  1  0.39152715  0.69777951  0.86168502  1
  Tb  Tb13  1  0.69777951  0.86168502  0.39152715  1
  Tb  Tb14  1  0.86168502  0.39152715  0.69777951  1
  Tb  Tb15  1  0.60847285  0.30222049  0.13831498  1
  Tb  Tb16  1  0.30222049  0.13831498  0.60847285  1
  Tb  Tb17  1  0.13831498  0.60847285  0.30222049  1
  Tb  Tb18  1  0.00000000  0.00000000  0.00000000  1
