# generated using pymatgen
data_U3MnSb5
_symmetry_space_group_name_H-M   'P 1'
_cell_length_a   8.97245636
_cell_length_b   8.97245636
_cell_length_c   6.10408208
_cell_angle_alpha   90.00000000
_cell_angle_beta   90.00000000
_cell_angle_gamma   120.00000001
_symmetry_Int_Tables_number   1
_chemical_formula_structural   U3MnSb5
_chemical_formula_sum   'U6 Mn2 Sb10'
_cell_volume   425.57264622
_cell_formula_units_Z   2
loop_
 _symmetry_equiv_pos_site_id
 _symmetry_equiv_pos_as_xyz
  1  'x, y, z'
loop_
 _atom_site_type_symbol
 _atom_site_label
 _atom_site_symmetry_multiplicity
 _atom_site_fract_x
 _atom_site_fract_y
 _atom_site_fract_z
 _atom_site_occupancy
  Mn  Mn0  1  0.00000000  0.00000000  0.00000000  1
  Mn  Mn1  1  0.00000000  0.00000000  0.50000000  1
  Sb  Sb2  1  0.66666667  0.33333333  0.50000000  1
  Sb  Sb3  1  0.33333333  0.66666667  0.00000000  1
  Sb  Sb4  1  0.75288413  0.00000000  0.75000000  1
  Sb  Sb5  1  0.75288413  0.75288413  0.25000000  1
  Sb  Sb6  1  0.33333333  0.66666667  0.50000000  1
  Sb  Sb7  1  0.66666667  0.33333333  0.00000000  1
  Sb  Sb8  1  0.24711587  0.00000000  0.25000000  1
  Sb  Sb9  1  0.24711587  0.24711587  0.75000000  1
  Sb  Sb10  1  0.00000000  0.75288413  0.75000000  1
  Sb  Sb11  1  0.00000000  0.24711587  0.25000000  1
  U  U12  1  0.39148163  0.00000000  0.75000000  1
  U  U13  1  0.39148163  0.39148163  0.25000000  1
  U  U14  1  0.00000000  0.60851837  0.25000000  1
  U  U15  1  0.00000000  0.39148163  0.75000000  1
  U  U16  1  0.60851837  0.60851837  0.75000000  1
  U  U17  1  0.60851837  0.00000000  0.25000000  1
