# generated using pymatgen
data_KO2
_symmetry_space_group_name_H-M   'P 1'
_cell_length_a   4.18846622
_cell_length_b   5.22542633
_cell_length_c   6.48427184
_cell_angle_alpha   80.49504882
_cell_angle_beta   71.15729352
_cell_angle_gamma   66.37320958
_symmetry_Int_Tables_number   1
_chemical_formula_structural   KO2
_chemical_formula_sum   'K2 O4'
_cell_volume   122.94959012
_cell_formula_units_Z   2
loop_
 _symmetry_equiv_pos_site_id
 _symmetry_equiv_pos_as_xyz
  1  'x, y, z'
loop_
 _atom_site_type_symbol
 _atom_site_label
 _atom_site_symmetry_multiplicity
 _atom_site_fract_x
 _atom_site_fract_y
 _atom_site_fract_z
 _atom_site_occupancy
  O  O0  1  0.07847311  0.04897066  0.55295302  1
  O  O1  1  0.18039679  0.45102934  0.94704698  1
  O  O2  1  0.81960321  0.54897066  0.05295302  1
  O  O3  1  0.92152689  0.95102934  0.44704698  1
  K  K4  1  0.50000000  0.50000000  0.50000000  1
  K  K5  1  0.00000000  0.00000000  0.00000000  1
