# generated using pymatgen
data_Mg6BiSb
_symmetry_space_group_name_H-M   'P 1'
_cell_length_a   6.55281657
_cell_length_b   6.51809586
_cell_length_c   5.31253394
_cell_angle_alpha   90.00000000
_cell_angle_beta   90.00000000
_cell_angle_gamma   119.82488390
_symmetry_Int_Tables_number   1
_chemical_formula_structural   Mg6BiSb
_chemical_formula_sum   'Mg6 Bi1 Sb1'
_cell_volume   196.85423037
_cell_formula_units_Z   1
loop_
 _symmetry_equiv_pos_site_id
 _symmetry_equiv_pos_as_xyz
  1  'x, y, z'
loop_
 _atom_site_type_symbol
 _atom_site_label
 _atom_site_symmetry_multiplicity
 _atom_site_fract_x
 _atom_site_fract_y
 _atom_site_fract_z
 _atom_site_occupancy
  Mg  Mg0  1  0.66759686  0.33423268  0.25000000  1
  Mg  Mg1  1  0.66759686  0.83336318  0.25000000  1
  Mg  Mg2  1  0.33939042  0.17425318  0.75000000  1
  Mg  Mg3  1  0.33939042  0.66513824  0.75000000  1
  Mg  Mg4  1  0.83093603  0.16546852  0.75000000  1
  Mg  Mg5  1  0.82520253  0.66260176  0.75000000  1
  Bi  Bi6  1  0.16525393  0.83262647  0.25000000  1
  Sb  Sb7  1  0.16463296  0.33231598  0.25000000  1
