# generated using pymatgen
data_VCdO3
_symmetry_space_group_name_H-M   'P 1'
_cell_length_a   5.35153399
_cell_length_b   5.38795073
_cell_length_c   7.78553862
_cell_angle_alpha   90.00000000
_cell_angle_beta   90.00000000
_cell_angle_gamma   90.00000000
_symmetry_Int_Tables_number   1
_chemical_formula_structural   VCdO3
_chemical_formula_sum   'V4 Cd4 O12'
_cell_volume   224.48667489
_cell_formula_units_Z   4
loop_
 _symmetry_equiv_pos_site_id
 _symmetry_equiv_pos_as_xyz
  1  'x, y, z'
loop_
 _atom_site_type_symbol
 _atom_site_label
 _atom_site_symmetry_multiplicity
 _atom_site_fract_x
 _atom_site_fract_y
 _atom_site_fract_z
 _atom_site_occupancy
  O  O0  1  0.69506214  0.28400927  0.45225406  1
  O  O1  1  0.19506344  0.21599017  0.54774607  1
  O  O2  1  0.80493772  0.78401056  0.04774600  1
  O  O3  1  0.30493714  0.71598961  0.95225413  1
  O  O4  1  0.30493714  0.71598961  0.54774607  1
  O  O5  1  0.80493772  0.78401056  0.45225406  1
  O  O6  1  0.19506344  0.21599017  0.95225413  1
  O  O7  1  0.69506214  0.28400927  0.04774600  1
  O  O8  1  0.09288112  0.46832429  0.24999938  1
  O  O9  1  0.59288170  0.03167515  0.74999944  1
  O  O10  1  0.90711815  0.53167644  0.74999944  1
  O  O11  1  0.40711758  0.96832373  0.24999938  1
  V  V12  1  0.50000058  0.00000000  0.50000007  1
  V  V13  1  0.00000000  0.49999944  0.50000007  1
  V  V14  1  0.00000000  0.49999944  0.00000000  1
  V  V15  1  0.50000058  0.00000000  0.00000000  1
  Cd  Cd16  1  0.00616468  0.96375223  0.74999944  1
  Cd  Cd17  1  0.50616338  0.53624795  0.24999938  1
  Cd  Cd18  1  0.49383590  0.46375093  0.74999944  1
  Cd  Cd19  1  0.99383648  0.03624851  0.24999938  1
