# generated using pymatgen
data_InPb2I5
_symmetry_space_group_name_H-M   'P 1'
_cell_length_a   9.01014272
_cell_length_b   9.01014273
_cell_length_c   10.06066659
_cell_angle_alpha   116.60201565
_cell_angle_beta   116.60201568
_cell_angle_gamma   89.99999999
_symmetry_Int_Tables_number   1
_chemical_formula_structural   InPb2I5
_chemical_formula_sum   'In2 Pb4 I10'
_cell_volume   632.10851256
_cell_formula_units_Z   2
loop_
 _symmetry_equiv_pos_site_id
 _symmetry_equiv_pos_as_xyz
  1  'x, y, z'
loop_
 _atom_site_type_symbol
 _atom_site_label
 _atom_site_symmetry_multiplicity
 _atom_site_fract_x
 _atom_site_fract_y
 _atom_site_fract_z
 _atom_site_occupancy
  In  In0  1  0.25000000  0.25000000  0.50000000  1
  In  In1  1  0.75000000  0.75000000  0.50000000  1
  I  I2  1  0.79567476  0.29567476  0.27842800  1
  I  I3  1  0.20432524  0.70432524  0.72157200  1
  I  I4  1  0.48275324  0.98275324  0.27842800  1
  I  I5  1  0.51724676  0.01724676  0.72157200  1
  I  I6  1  0.00000000  0.00000000  0.00000000  1
  I  I7  1  0.50000000  0.50000000  0.00000000  1
  I  I8  1  0.70432524  0.51724676  0.72157200  1
  I  I9  1  0.29567476  0.48275324  0.27842800  1
  I  I10  1  0.01724676  0.20432524  0.72157200  1
  I  I11  1  0.98275324  0.79567476  0.27842800  1
  Pb  Pb12  1  0.16337824  0.66337824  0.00000000  1
  Pb  Pb13  1  0.83662176  0.33662176  0.00000000  1
  Pb  Pb14  1  0.66337824  0.83662176  0.00000000  1
  Pb  Pb15  1  0.33662176  0.16337824  0.00000000  1
