# generated using pymatgen
data_KTiH2S2O9
_symmetry_space_group_name_H-M   'P 1'
_cell_length_a   5.32421987
_cell_length_b   7.80046635
_cell_length_c   9.29958814
_cell_angle_alpha   101.16846904
_cell_angle_beta   90.00000000
_cell_angle_gamma   90.00000000
_symmetry_Int_Tables_number   1
_chemical_formula_structural   KTiH2S2O9
_chemical_formula_sum   'K2 Ti2 H4 S4 O18'
_cell_volume   378.91052899
_cell_formula_units_Z   2
loop_
 _symmetry_equiv_pos_site_id
 _symmetry_equiv_pos_as_xyz
  1  'x, y, z'
loop_
 _atom_site_type_symbol
 _atom_site_label
 _atom_site_symmetry_multiplicity
 _atom_site_fract_x
 _atom_site_fract_y
 _atom_site_fract_z
 _atom_site_occupancy
  H  H0  1  0.75000000  0.81813886  0.96979138  1
  H  H1  1  0.25000000  0.18186114  0.03020862  1
  H  H2  1  0.75000000  0.03142242  0.00440608  1
  H  H3  1  0.25000000  0.96857758  0.99559392  1
  O  O4  1  0.52205781  0.26846710  0.76104422  1
  O  O5  1  0.02205781  0.73153290  0.23895578  1
  O  O6  1  0.47794219  0.73153290  0.23895578  1
  O  O7  1  0.97794219  0.26846710  0.76104422  1
  O  O8  1  0.75000000  0.52025353  0.88884256  1
  O  O9  1  0.25000000  0.47974647  0.11115744  1
  O  O10  1  0.75000000  0.24900660  0.98695109  1
  O  O11  1  0.25000000  0.75099340  0.01304891  1
  O  O12  1  0.52225423  0.88939042  0.70654953  1
  O  O13  1  0.02225423  0.11060958  0.29345047  1
  O  O14  1  0.47774577  0.11060958  0.29345047  1
  O  O15  1  0.97774577  0.88939042  0.70654953  1
  O  O16  1  0.75000000  0.93291585  0.48962760  1
  O  O17  1  0.25000000  0.06708415  0.51037240  1
  O  O18  1  0.75000000  0.64581381  0.56347731  1
  O  O19  1  0.25000000  0.35418619  0.43652269  1
  O  O20  1  0.75000000  0.92302624  0.04666153  1
  O  O21  1  0.25000000  0.07697376  0.95333847  1
  S  S22  1  0.75000000  0.33022806  0.85680115  1
  S  S23  1  0.25000000  0.66977194  0.14319885  1
  S  S24  1  0.25000000  0.16510115  0.38823910  1
  S  S25  1  0.75000000  0.83489885  0.61176090  1
  K  K26  1  0.25000000  0.56902694  0.71546126  1
  K  K27  1  0.75000000  0.43097306  0.28453874  1
  Ti  Ti28  1  0.75000000  0.91577834  0.26737912  1
  Ti  Ti29  1  0.25000000  0.08422166  0.73262088  1
