# generated using pymatgen
data_Li3V2(GeO5)2
_symmetry_space_group_name_H-M   'P 1'
_cell_length_a   6.56067957
_cell_length_b   6.56067957
_cell_length_c   9.28027844
_cell_angle_alpha   90.00000000
_cell_angle_beta   90.00000000
_cell_angle_gamma   89.71880265
_symmetry_Int_Tables_number   1
_chemical_formula_structural   Li3V2(GeO5)2
_chemical_formula_sum   'Li6 V4 Ge4 O20'
_cell_volume   399.44172685
_cell_formula_units_Z   2
loop_
 _symmetry_equiv_pos_site_id
 _symmetry_equiv_pos_as_xyz
  1  'x, y, z'
loop_
 _atom_site_type_symbol
 _atom_site_label
 _atom_site_symmetry_multiplicity
 _atom_site_fract_x
 _atom_site_fract_y
 _atom_site_fract_z
 _atom_site_occupancy
  Li  Li0  1  0.00000000  0.00000000  0.00000000  1
  Li  Li1  1  0.50000000  0.00000000  0.50000000  1
  Li  Li2  1  0.50000000  0.00000000  0.00000000  1
  Li  Li3  1  0.50000000  0.50000000  0.50000000  1
  Li  Li4  1  0.00000000  0.50000000  0.50000000  1
  Li  Li5  1  0.00000000  0.50000000  0.00000000  1
  O  O6  1  0.24771974  0.96653684  0.86445430  1
  O  O7  1  0.73151487  0.73151487  0.37557894  1
  O  O8  1  0.76848513  0.76848513  0.87557894  1
  O  O9  1  0.96564537  0.26117052  0.36385617  1
  O  O10  1  0.03346316  0.75228026  0.13554570  1
  O  O11  1  0.03435463  0.73882948  0.63614383  1
  O  O12  1  0.23151487  0.23151487  0.12442106  1
  O  O13  1  0.26848513  0.26848513  0.62442106  1
  O  O14  1  0.74771974  0.46653684  0.63554570  1
  O  O15  1  0.25228026  0.53346316  0.36445430  1
  O  O16  1  0.26117052  0.96564537  0.36385617  1
  O  O17  1  0.23882948  0.53435463  0.86385617  1
  O  O18  1  0.46564537  0.76117052  0.13614383  1
  O  O19  1  0.46653684  0.74771974  0.63554570  1
  O  O20  1  0.53435463  0.23882948  0.86385617  1
  O  O21  1  0.53346316  0.25228026  0.36445430  1
  O  O22  1  0.75228026  0.03346316  0.13554570  1
  O  O23  1  0.73882948  0.03435463  0.63614383  1
  O  O24  1  0.76117052  0.46564537  0.13614383  1
  O  O25  1  0.96653684  0.24771974  0.86445430  1
  V  V26  1  0.24172841  0.24172841  0.30280086  1
  V  V27  1  0.25827159  0.25827159  0.80280086  1
  V  V28  1  0.75827159  0.75827159  0.69719914  1
  V  V29  1  0.74172841  0.74172841  0.19719914  1
  Ge  Ge30  1  0.74908962  0.24908962  0.25000000  1
  Ge  Ge31  1  0.75091038  0.25091038  0.75000000  1
  Ge  Ge32  1  0.25091038  0.75091038  0.75000000  1
  Ge  Ge33  1  0.24908962  0.74908962  0.25000000  1
