# generated using pymatgen
data_Li3Ti2(PO4)3
_symmetry_space_group_name_H-M   'P 1'
_cell_length_a   8.82884811
_cell_length_b   12.22459381
_cell_length_c   8.79149142
_cell_angle_alpha   90.00000000
_cell_angle_beta   90.00000000
_cell_angle_gamma   90.88270796
_symmetry_Int_Tables_number   1
_chemical_formula_structural   Li3Ti2(PO4)3
_chemical_formula_sum   'Li12 Ti8 P12 O48'
_cell_volume   948.74499486
_cell_formula_units_Z   4
loop_
 _symmetry_equiv_pos_site_id
 _symmetry_equiv_pos_as_xyz
  1  'x, y, z'
loop_
 _atom_site_type_symbol
 _atom_site_label
 _atom_site_symmetry_multiplicity
 _atom_site_fract_x
 _atom_site_fract_y
 _atom_site_fract_z
 _atom_site_occupancy
  Li  Li0  1  0.42275231  0.80340790  0.57957279  1
  Li  Li1  1  0.20622269  0.17805367  0.77583514  1
  Li  Li2  1  0.29377731  0.32194633  0.27583514  1
  Li  Li3  1  0.41439153  0.74153878  0.20124925  1
  Li  Li4  1  0.79377731  0.82194633  0.22416486  1
  Li  Li5  1  0.92275231  0.30340790  0.92042721  1
  Li  Li6  1  0.07724769  0.69659210  0.07957279  1
  Li  Li7  1  0.08560847  0.75846122  0.70124925  1
  Li  Li8  1  0.57724769  0.19659210  0.42042721  1
  Li  Li9  1  0.58560847  0.25846122  0.79875075  1
  Li  Li10  1  0.91439153  0.24153878  0.29875075  1
  Li  Li11  1  0.70622269  0.67805367  0.72416486  1
  Ti  Ti12  1  0.25468840  0.39202829  0.96014072  1
  Ti  Ti13  1  0.74531160  0.60797171  0.03985928  1
  Ti  Ti14  1  0.74467680  0.10779664  0.97382988  1
  Ti  Ti15  1  0.25532320  0.89220336  0.02617012  1
  Ti  Ti16  1  0.75468840  0.89202829  0.53985928  1
  Ti  Ti17  1  0.75532320  0.39220336  0.47382988  1
  Ti  Ti18  1  0.24531160  0.10797171  0.46014072  1
  Ti  Ti19  1  0.24467680  0.60779664  0.52617012  1
  P  P20  1  0.60364184  0.35014764  0.11674400  1
  P  P21  1  0.03611983  0.49206861  0.24657714  1
  P  P22  1  0.46388017  0.00793139  0.74657714  1
  P  P23  1  0.96388017  0.50793139  0.75342286  1
  P  P24  1  0.39545648  0.35031471  0.60331656  1
  P  P25  1  0.10364184  0.85014764  0.38325600  1
  P  P26  1  0.89635816  0.14985236  0.61674400  1
  P  P27  1  0.10454352  0.14968529  0.10331656  1
  P  P28  1  0.60454352  0.64968529  0.39668344  1
  P  P29  1  0.89545648  0.85031471  0.89668344  1
  P  P30  1  0.53611983  0.99206861  0.25342286  1
  P  P31  1  0.39635816  0.64985236  0.88325600  1
  O  O32  1  0.06832695  0.16737528  0.59388994  1
  O  O33  1  0.92953732  0.40307641  0.31325458  1
  O  O34  1  0.42766246  0.65145766  0.38928430  1
  O  O35  1  0.14814743  0.97157824  0.41072028  1
  O  O36  1  0.42953732  0.90307641  0.18674542  1
  O  O37  1  0.66745137  0.53989431  0.44342724  1
  O  O38  1  0.45479105  0.06788307  0.36647221  1
  O  O39  1  0.32917357  0.06641168  0.66974617  1
  O  O40  1  0.89717083  0.43226622  0.62769729  1
  O  O41  1  0.16745137  0.03989431  0.05657276  1
  O  O42  1  0.35185257  0.52842176  0.91072028  1
  O  O43  1  0.56832695  0.66737528  0.90611006  1
  O  O44  1  0.07046268  0.59692359  0.68674542  1
  O  O45  1  0.85185257  0.02842176  0.58927972  1
  O  O46  1  0.80688974  0.21846700  0.49734117  1
  O  O47  1  0.92766246  0.15145766  0.11071570  1
  O  O48  1  0.19311026  0.78153300  0.50265883  1
  O  O49  1  0.14871364  0.23762818  0.98033188  1
  O  O50  1  0.93167305  0.83262472  0.40611006  1
  O  O51  1  0.85128636  0.76237182  0.01966812  1
  O  O52  1  0.04520895  0.43211693  0.86647221  1
  O  O53  1  0.69311026  0.28153300  0.99734117  1
  O  O54  1  0.33254863  0.46010569  0.55657276  1
  O  O55  1  0.60282917  0.06773378  0.12769729  1
  O  O56  1  0.82917357  0.56641168  0.83025383  1
  O  O57  1  0.07233754  0.84854234  0.88928430  1
  O  O58  1  0.64814743  0.47157824  0.08927972  1
  O  O59  1  0.14277513  0.81682608  0.21717138  1
  O  O60  1  0.85722487  0.18317392  0.78282862  1
  O  O61  1  0.43167305  0.33262472  0.09388994  1
  O  O62  1  0.67082643  0.93358832  0.33025383  1
  O  O63  1  0.64871364  0.73762818  0.51966812  1
  O  O64  1  0.57046268  0.09692359  0.81325458  1
  O  O65  1  0.54520895  0.93211693  0.63352779  1
  O  O66  1  0.64277513  0.31682608  0.28282862  1
  O  O67  1  0.83254863  0.96010569  0.94342724  1
  O  O68  1  0.35722487  0.68317392  0.71717138  1
  O  O69  1  0.65870006  0.68840970  0.23711390  1
  O  O70  1  0.35128636  0.26237182  0.48033188  1
  O  O71  1  0.39717083  0.93226622  0.87230271  1
  O  O72  1  0.10282917  0.56773378  0.37230271  1
  O  O73  1  0.17082643  0.43358832  0.16974617  1
  O  O74  1  0.30688974  0.71846700  0.00265883  1
  O  O75  1  0.57233754  0.34854234  0.61071570  1
  O  O76  1  0.84129994  0.81159030  0.73711390  1
  O  O77  1  0.34129994  0.31159030  0.76288610  1
  O  O78  1  0.95479105  0.56788307  0.13352779  1
  O  O79  1  0.15870006  0.18840970  0.26288610  1
