# generated using pymatgen
data_SnPO4
_symmetry_space_group_name_H-M   'P 1'
_cell_length_a   8.26990561
_cell_length_b   18.45258901
_cell_length_c   4.91554364
_cell_angle_alpha   90.00000000
_cell_angle_beta   90.00000000
_cell_angle_gamma   90.00000000
_symmetry_Int_Tables_number   1
_chemical_formula_structural   SnPO4
_chemical_formula_sum   'Sn8 P8 O32'
_cell_volume   750.11770757
_cell_formula_units_Z   8
loop_
 _symmetry_equiv_pos_site_id
 _symmetry_equiv_pos_as_xyz
  1  'x, y, z'
loop_
 _atom_site_type_symbol
 _atom_site_label
 _atom_site_symmetry_multiplicity
 _atom_site_fract_x
 _atom_site_fract_y
 _atom_site_fract_z
 _atom_site_occupancy
  O  O0  1  0.05023858  0.45299422  0.81924856  1
  O  O1  1  0.11909972  0.61551270  0.79165750  1
  O  O2  1  0.08104541  0.14825991  0.31836568  1
  O  O3  1  0.17260532  0.99286486  0.23580551  1
  O  O4  1  0.19895869  0.74240985  0.92337107  1
  O  O5  1  0.21821056  0.86385000  0.42300761  1
  O  O6  1  0.24525342  0.13843936  0.75159028  1
  O  O7  1  0.24230488  0.46932811  0.22661858  1
  O  O8  1  0.25769512  0.96932811  0.72661858  1
  O  O9  1  0.25474658  0.63843936  0.25159028  1
  O  O10  1  0.28178944  0.36385000  0.92300761  1
  O  O11  1  0.30104131  0.24240985  0.42337107  1
  O  O12  1  0.32739468  0.49286486  0.73580551  1
  O  O13  1  0.41895459  0.64825991  0.81836568  1
  O  O14  1  0.38090028  0.11551270  0.29165750  1
  O  O15  1  0.44976142  0.95299422  0.31924856  1
  O  O16  1  0.55023858  0.04700578  0.81924856  1
  O  O17  1  0.61909972  0.88448730  0.79165750  1
  O  O18  1  0.58104541  0.35174009  0.31836568  1
  O  O19  1  0.67260532  0.50713514  0.23580551  1
  O  O20  1  0.69895869  0.75759015  0.92337107  1
  O  O21  1  0.71821056  0.63615000  0.42300761  1
  O  O22  1  0.74525342  0.36156064  0.75159028  1
  O  O23  1  0.74230488  0.03067189  0.22661858  1
  O  O24  1  0.75769512  0.53067189  0.72661858  1
  O  O25  1  0.75474658  0.86156064  0.25159028  1
  O  O26  1  0.78178944  0.13615000  0.92300761  1
  O  O27  1  0.80104131  0.25759015  0.42337107  1
  O  O28  1  0.82739468  0.00713514  0.73580551  1
  O  O29  1  0.91895459  0.85174009  0.81836568  1
  O  O30  1  0.88090028  0.38448730  0.29165750  1
  O  O31  1  0.94976142  0.54700578  0.31924856  1
  P  P32  1  0.25119735  0.66254187  0.94355120  1
  P  P33  1  0.22902917  0.44265273  0.93006188  1
  P  P34  1  0.27097083  0.94265273  0.43006188  1
  P  P35  1  0.24880265  0.16254187  0.44355120  1
  P  P36  1  0.75119735  0.83745813  0.94355120  1
  P  P37  1  0.72902917  0.05734727  0.93006188  1
  P  P38  1  0.77097083  0.55734727  0.43006188  1
  P  P39  1  0.74880265  0.33745813  0.44355120  1
  Sn  Sn40  1  0.05383235  0.77905595  0.55611612  1
  Sn  Sn41  1  0.17924154  0.55047388  0.47498583  1
  Sn  Sn42  1  0.32075846  0.05047388  0.97498583  1
  Sn  Sn43  1  0.44616765  0.27905595  0.05611612  1
  Sn  Sn44  1  0.55383235  0.72094405  0.55611612  1
  Sn  Sn45  1  0.67924154  0.94952612  0.47498583  1
  Sn  Sn46  1  0.82075846  0.44952612  0.97498583  1
  Sn  Sn47  1  0.94616765  0.22094405  0.05611612  1
