# generated using pymatgen
data_LiTiP2O7
_symmetry_space_group_name_H-M   'P 1'
_cell_length_a   4.94864606
_cell_length_b   8.28810626
_cell_length_c   7.04787890
_cell_angle_alpha   90.00000000
_cell_angle_beta   108.85795476
_cell_angle_gamma   90.00000000
_symmetry_Int_Tables_number   1
_chemical_formula_structural   LiTiP2O7
_chemical_formula_sum   'Li2 Ti2 P4 O14'
_cell_volume   273.55171525
_cell_formula_units_Z   2
loop_
 _symmetry_equiv_pos_site_id
 _symmetry_equiv_pos_as_xyz
  1  'x, y, z'
loop_
 _atom_site_type_symbol
 _atom_site_label
 _atom_site_symmetry_multiplicity
 _atom_site_fract_x
 _atom_site_fract_y
 _atom_site_fract_z
 _atom_site_occupancy
  Li  Li0  1  0.80661650  0.30486779  0.32115542  1
  Li  Li1  1  0.19338350  0.80486779  0.67884458  1
  Ti  Ti2  1  0.20892999  0.44114860  0.72784070  1
  Ti  Ti3  1  0.79107001  0.94114860  0.27215930  1
  P  P4  1  0.59608017  0.62276723  0.47487720  1
  P  P5  1  0.40391983  0.12276723  0.52512280  1
  P  P6  1  0.78410744  0.23060634  0.91786816  1
  P  P7  1  0.21589256  0.73060634  0.08213184  1
  O  O8  1  0.39876520  0.87842185  0.07789001  1
  O  O9  1  0.19856124  0.97924975  0.49005948  1
  O  O10  1  0.80143876  0.47924975  0.50994052  1
  O  O11  1  0.24835604  0.28505477  0.50829636  1
  O  O12  1  0.60123480  0.37842185  0.92210999  1
  O  O13  1  0.60077882  0.09884228  0.75684815  1
  O  O14  1  0.13222234  0.64167722  0.88139815  1
  O  O15  1  0.86777766  0.14167722  0.11860185  1
  O  O16  1  0.39751019  0.61910200  0.60293630  1
  O  O17  1  0.39922118  0.59884228  0.24315185  1
  O  O18  1  0.95707874  0.77491718  0.14443168  1
  O  O19  1  0.04292126  0.27491718  0.85556832  1
  O  O20  1  0.75164396  0.78505477  0.49170364  1
  O  O21  1  0.60248981  0.11910200  0.39706370  1
