# generated using pymatgen
data_UCuO4
_symmetry_space_group_name_H-M   'P 1'
_cell_length_a   5.02529706
_cell_length_b   5.51773240
_cell_length_c   6.27100119
_cell_angle_alpha   111.72756249
_cell_angle_beta   90.00000000
_cell_angle_gamma   90.00000000
_symmetry_Int_Tables_number   1
_chemical_formula_structural   UCuO4
_chemical_formula_sum   'U2 Cu2 O8'
_cell_volume   161.53020498
_cell_formula_units_Z   2
loop_
 _symmetry_equiv_pos_site_id
 _symmetry_equiv_pos_as_xyz
  1  'x, y, z'
loop_
 _atom_site_type_symbol
 _atom_site_label
 _atom_site_symmetry_multiplicity
 _atom_site_fract_x
 _atom_site_fract_y
 _atom_site_fract_z
 _atom_site_occupancy
  O  O0  1  0.79045404  0.31116492  0.07330635  1
  O  O1  1  0.29045404  0.68883508  0.42669365  1
  O  O2  1  0.20954596  0.68883508  0.92669365  1
  O  O3  1  0.70954596  0.31116492  0.57330635  1
  O  O4  1  0.18299472  0.16862242  0.33629680  1
  O  O5  1  0.68299472  0.83137758  0.16370320  1
  O  O6  1  0.81700528  0.83137758  0.66370320  1
  O  O7  1  0.31700528  0.16862242  0.83629680  1
  Cu  Cu8  1  0.00000000  0.50000000  0.50000000  1
  Cu  Cu9  1  0.50000000  0.50000000  0.00000000  1
  U  U10  1  0.00000000  0.00000000  0.00000000  1
  U  U11  1  0.50000000  0.00000000  0.50000000  1
