# generated using pymatgen
data_BaCN2
_symmetry_space_group_name_H-M   'P 1'
_cell_length_a   9.12135642
_cell_length_b   9.12135642
_cell_length_c   9.12135641
_cell_angle_alpha   112.73643912
_cell_angle_beta   112.73643915
_cell_angle_gamma   112.73643918
_symmetry_Int_Tables_number   1
_chemical_formula_structural   BaCN2
_chemical_formula_sum   'Ba6 C6 N12'
_cell_volume   501.32895354
_cell_formula_units_Z   6
loop_
 _symmetry_equiv_pos_site_id
 _symmetry_equiv_pos_as_xyz
  1  'x, y, z'
loop_
 _atom_site_type_symbol
 _atom_site_label
 _atom_site_symmetry_multiplicity
 _atom_site_fract_x
 _atom_site_fract_y
 _atom_site_fract_z
 _atom_site_occupancy
  C  C0  1  0.46628095  0.25000000  0.03371905  1
  C  C1  1  0.53371905  0.75000000  0.96628095  1
  C  C2  1  0.75000000  0.96628095  0.53371905  1
  C  C3  1  0.96628095  0.53371905  0.75000000  1
  C  C4  1  0.25000000  0.03371905  0.46628095  1
  C  C5  1  0.03371905  0.46628095  0.25000000  1
  N  N6  1  0.91768998  0.34892413  0.05998761  1
  N  N7  1  0.05998761  0.91768998  0.34892413  1
  N  N8  1  0.58231002  0.44001239  0.15107587  1
  N  N9  1  0.34892413  0.05998761  0.91768998  1
  N  N10  1  0.15107587  0.58231002  0.44001239  1
  N  N11  1  0.44001239  0.15107587  0.58231002  1
  N  N12  1  0.08231002  0.65107587  0.94001239  1
  N  N13  1  0.94001239  0.08231002  0.65107587  1
  N  N14  1  0.65107587  0.94001239  0.08231002  1
  N  N15  1  0.84892413  0.41768998  0.55998761  1
  N  N16  1  0.55998761  0.84892413  0.41768998  1
  N  N17  1  0.41768998  0.55998761  0.84892413  1
  Ba  Ba18  1  0.96014169  0.75000000  0.53985831  1
  Ba  Ba19  1  0.75000000  0.53985831  0.96014169  1
  Ba  Ba20  1  0.53985831  0.96014169  0.75000000  1
  Ba  Ba21  1  0.03985831  0.25000000  0.46014169  1
  Ba  Ba22  1  0.25000000  0.46014169  0.03985831  1
  Ba  Ba23  1  0.46014169  0.03985831  0.25000000  1
