# generated using pymatgen
data_LiNb2(PO4)3
_symmetry_space_group_name_H-M   'P 1'
_cell_length_a   8.93057603
_cell_length_b   8.94566111
_cell_length_c   8.93057660
_cell_angle_alpha   119.93428529
_cell_angle_beta   59.69779636
_cell_angle_gamma   119.93428376
_symmetry_Int_Tables_number   1
_chemical_formula_structural   LiNb2(PO4)3
_chemical_formula_sum   'Li2 Nb4 P6 O24'
_cell_volume   503.82929633
_cell_formula_units_Z   2
loop_
 _symmetry_equiv_pos_site_id
 _symmetry_equiv_pos_as_xyz
  1  'x, y, z'
loop_
 _atom_site_type_symbol
 _atom_site_label
 _atom_site_symmetry_multiplicity
 _atom_site_fract_x
 _atom_site_fract_y
 _atom_site_fract_z
 _atom_site_occupancy
  Li  Li0  1  0.96761824  0.00431223  0.93364170  1
  Li  Li1  1  0.43364170  0.50431223  0.46761824  1
  Nb  Nb2  1  0.14289197  0.42841417  0.14247422  1
  Nb  Nb3  1  0.85610367  0.57113513  0.85897211  1
  Nb  Nb4  1  0.64247422  0.92841417  0.64289197  1
  Nb  Nb5  1  0.35897211  0.07113513  0.35610367  1
  P  P6  1  0.74896568  0.24809940  0.04016042  1
  P  P7  1  0.45828454  0.24864225  0.74961954  1
  P  P8  1  0.54016042  0.74809940  0.24896568  1
  P  P9  1  0.24961954  0.74864225  0.95828454  1
  P  P10  1  0.95922264  0.75247189  0.54128412  1
  P  P11  1  0.04128412  0.25247189  0.45922264  1
  O  O12  1  0.49688499  0.07757170  0.70595616  1
  O  O13  1  0.91181361  0.24316392  0.05592329  1
  O  O14  1  0.93767508  0.75745340  0.72764019  1
  O  O15  1  0.62022957  0.42081944  0.79520636  1
  O  O16  1  0.20595616  0.57757170  0.99688499  1
  O  O17  1  0.72166188  0.74690598  0.08438040  1
  O  O18  1  0.78175921  0.76090139  0.56124769  1
  O  O19  1  0.27358321  0.24828575  0.91098088  1
  O  O20  1  0.06124769  0.26090139  0.28175921  1
  O  O21  1  0.29520636  0.92081944  0.12022957  1
  O  O22  1  0.43789428  0.24040352  0.58417235  1
  O  O23  1  0.00572794  0.42548255  0.62313927  1
  O  O24  1  0.88207310  0.07917631  0.49344848  1
  O  O25  1  0.37820456  0.57512318  0.20454942  1
  O  O26  1  0.99344848  0.57917631  0.38207310  1
  O  O27  1  0.41098088  0.74828575  0.77358321  1
  O  O28  1  0.22764019  0.25745340  0.43767508  1
  O  O29  1  0.79645518  0.42163681  0.00615305  1
  O  O30  1  0.12313927  0.92548255  0.50572794  1
  O  O31  1  0.58438040  0.24690598  0.22166188  1
  O  O32  1  0.55592329  0.74316392  0.41181361  1
  O  O33  1  0.08417235  0.74040352  0.93789428  1
  O  O34  1  0.70454942  0.07512318  0.87820456  1
  O  O35  1  0.50615305  0.92163681  0.29645518  1
