# generated using pymatgen
data_Mn5As4
_symmetry_space_group_name_H-M   'P 1'
_cell_length_a   3.48501298
_cell_length_b   6.79286960
_cell_length_c   11.87289117
_cell_angle_alpha   90.00000000
_cell_angle_beta   90.00000000
_cell_angle_gamma   104.86366731
_symmetry_Int_Tables_number   1
_chemical_formula_structural   Mn5As4
_chemical_formula_sum   'Mn10 As8'
_cell_volume   271.66489393
_cell_formula_units_Z   2
loop_
 _symmetry_equiv_pos_site_id
 _symmetry_equiv_pos_as_xyz
  1  'x, y, z'
loop_
 _atom_site_type_symbol
 _atom_site_label
 _atom_site_symmetry_multiplicity
 _atom_site_fract_x
 _atom_site_fract_y
 _atom_site_fract_z
 _atom_site_occupancy
  Mn  Mn0  1  0.02315962  0.04631924  0.29455643  1
  Mn  Mn1  1  0.97684038  0.95368076  0.79455643  1
  Mn  Mn2  1  0.16866427  0.33732854  0.86953028  1
  Mn  Mn3  1  0.83133573  0.66267146  0.36953028  1
  Mn  Mn4  1  0.37119070  0.74238139  0.01669366  1
  Mn  Mn5  1  0.62880930  0.25761861  0.51669366  1
  Mn  Mn6  1  0.44036023  0.88072045  0.62673737  1
  Mn  Mn7  1  0.55963977  0.11927955  0.12673737  1
  Mn  Mn8  1  0.77784302  0.55568605  0.68073559  1
  Mn  Mn9  1  0.22215698  0.44431395  0.18073559  1
  As  As10  1  0.01022854  0.02045709  0.99640529  1
  As  As11  1  0.98977146  0.97954291  0.49640529  1
  As  As12  1  0.27051330  0.54102660  0.52524231  1
  As  As13  1  0.72948670  0.45897340  0.02524231  1
  As  As14  1  0.34485830  0.68971661  0.80716824  1
  As  As15  1  0.65514170  0.31028339  0.30716824  1
  As  As16  1  0.60021066  0.20042132  0.73203083  1
  As  As17  1  0.39978934  0.79957868  0.23203083  1
