# generated using pymatgen
data_Sb(PO3)4
_symmetry_space_group_name_H-M   'P 1'
_cell_length_a   7.21408752
_cell_length_b   13.00646106
_cell_length_c   9.39510567
_cell_angle_alpha   90.00000000
_cell_angle_beta   88.04410951
_cell_angle_gamma   90.00000000
_symmetry_Int_Tables_number   1
_chemical_formula_structural   Sb(PO3)4
_chemical_formula_sum   'Sb4 P16 O48'
_cell_volume   881.02681506
_cell_formula_units_Z   4
loop_
 _symmetry_equiv_pos_site_id
 _symmetry_equiv_pos_as_xyz
  1  'x, y, z'
loop_
 _atom_site_type_symbol
 _atom_site_label
 _atom_site_symmetry_multiplicity
 _atom_site_fract_x
 _atom_site_fract_y
 _atom_site_fract_z
 _atom_site_occupancy
  Sb  Sb0  1  0.99424766  0.77574816  0.98259517  1
  Sb  Sb1  1  0.49424766  0.72425184  0.48259517  1
  Sb  Sb2  1  0.00575234  0.22425184  0.01740483  1
  Sb  Sb3  1  0.50575234  0.27574816  0.51740483  1
  P  P4  1  0.13377313  0.13010020  0.69724311  1
  P  P5  1  0.27369746  0.40738372  0.78605419  1
  P  P6  1  0.23855618  0.38688173  0.25947104  1
  P  P7  1  0.63377313  0.36989980  0.19724311  1
  P  P8  1  0.61711674  0.88982450  0.77562568  1
  P  P9  1  0.11711674  0.61017550  0.27562568  1
  P  P10  1  0.22630254  0.90738272  0.71394581  1
  P  P11  1  0.76144382  0.61311827  0.74052896  1
  P  P12  1  0.38288326  0.11017550  0.22437432  1
  P  P13  1  0.86622687  0.86989980  0.30275689  1
  P  P14  1  0.36622687  0.63010020  0.80275689  1
  P  P15  1  0.77369746  0.09261728  0.28605419  1
  P  P16  1  0.26144382  0.88688173  0.24052896  1
  P  P17  1  0.88288326  0.38982450  0.72437432  1
  P  P18  1  0.73855618  0.11311827  0.75947104  1
  P  P19  1  0.72630254  0.59261728  0.21394581  1
  O  O20  1  0.27197688  0.71263403  0.88914125  1
  O  O21  1  0.69910840  0.48082066  0.14016213  1
  O  O22  1  0.72802312  0.28736597  0.11085875  1
  O  O23  1  0.30089160  0.51917934  0.85983787  1
  O  O24  1  0.77197688  0.78736597  0.38914125  1
  O  O25  1  0.79205684  0.49511493  0.78157617  1
  O  O26  1  0.90554655  0.57468028  0.30817337  1
  O  O27  1  0.58083177  0.63505734  0.84108192  1
  O  O28  1  0.43859810  0.39132692  0.68281980  1
  O  O29  1  0.35273556  0.62868040  0.64217376  1
  O  O30  1  0.73956217  0.16609356  0.40612888  1
  O  O31  1  0.56140190  0.60867308  0.31718020  1
  O  O32  1  0.14726444  0.12868040  0.85782624  1
  O  O33  1  0.87294020  0.31735739  0.85038411  1
  O  O34  1  0.57874440  0.17409543  0.70132589  1
  O  O35  1  0.09445345  0.42531972  0.69182663  1
  O  O36  1  0.30059689  0.14754625  0.09069292  1
  O  O37  1  0.80089160  0.98082066  0.35983787  1
  O  O38  1  0.76043783  0.66609356  0.09387112  1
  O  O39  1  0.08083177  0.86494266  0.34108192  1
  O  O40  1  0.70794316  0.99511493  0.71842383  1
  O  O41  1  0.69940311  0.85245375  0.90930708  1
  O  O42  1  0.06140190  0.89132692  0.81718020  1
  O  O43  1  0.23956217  0.33390644  0.90612888  1
  O  O44  1  0.22802312  0.21263403  0.61085875  1
  O  O45  1  0.27813592  0.37644510  0.41548221  1
  O  O46  1  0.29205684  0.00488507  0.28157617  1
  O  O47  1  0.64726444  0.37131960  0.35782624  1
  O  O48  1  0.12705980  0.68264261  0.14961589  1
  O  O49  1  0.91916823  0.13505734  0.65891808  1
  O  O50  1  0.26043783  0.83390644  0.59387112  1
  O  O51  1  0.20794316  0.50488507  0.21842383  1
  O  O52  1  0.77813592  0.12355490  0.91548221  1
  O  O53  1  0.80059689  0.35245375  0.59069292  1
  O  O54  1  0.59445345  0.07468028  0.19182663  1
  O  O55  1  0.62705980  0.81735739  0.64961589  1
  O  O56  1  0.42125560  0.82590457  0.29867411  1
  O  O57  1  0.40554655  0.92531972  0.80817337  1
  O  O58  1  0.19910840  0.01917934  0.64016213  1
  O  O59  1  0.72186408  0.62355490  0.58451779  1
  O  O60  1  0.07874440  0.32590457  0.20132589  1
  O  O61  1  0.93859810  0.10867308  0.18281980  1
  O  O62  1  0.92125560  0.67409543  0.79867411  1
  O  O63  1  0.85273556  0.87131960  0.14217376  1
  O  O64  1  0.22186408  0.87644510  0.08451779  1
  O  O65  1  0.37294020  0.18264261  0.35038411  1
  O  O66  1  0.41916823  0.36494266  0.15891808  1
  O  O67  1  0.19940311  0.64754625  0.40930708  1
