# generated using pymatgen
data_LiNiP2O7
_symmetry_space_group_name_H-M   'P 1'
_cell_length_a   5.31306642
_cell_length_b   5.31306642
_cell_length_c   4.54005905
_cell_angle_alpha   80.81937722
_cell_angle_beta   99.18062282
_cell_angle_gamma   77.49296905
_symmetry_Int_Tables_number   1
_chemical_formula_structural   LiNiP2O7
_chemical_formula_sum   'Li1 Ni1 P2 O7'
_cell_volume   120.98494351
_cell_formula_units_Z   1
loop_
 _symmetry_equiv_pos_site_id
 _symmetry_equiv_pos_as_xyz
  1  'x, y, z'
loop_
 _atom_site_type_symbol
 _atom_site_label
 _atom_site_symmetry_multiplicity
 _atom_site_fract_x
 _atom_site_fract_y
 _atom_site_fract_z
 _atom_site_occupancy
  Li  Li0  1  0.75309085  0.75309154  0.99999987  1
  O  O1  1  0.81207098  0.07027279  0.71020302  1
  O  O2  1  0.07027222  0.81206926  0.28979721  1
  O  O3  1  0.35287707  0.83856254  0.80315783  1
  O  O4  1  0.13072811  0.46320437  0.74177958  1
  O  O5  1  0.83856138  0.35287835  0.19684170  1
  O  O6  1  0.46320323  0.13072793  0.25822024  1
  O  O7  1  0.52832617  0.52832755  0.49999862  1
  P  P8  1  0.66699388  0.25803189  0.41009354  1
  P  P9  1  0.25803121  0.66699237  0.58990663  1
  Ni  Ni10  1  0.12069476  0.12069316  0.00000031  1
