# generated using pymatgen
data_Ni7(PO4)6
_symmetry_space_group_name_H-M   'P 1'
_cell_length_a   8.83620323
_cell_length_b   8.83620323
_cell_length_c   6.53172307
_cell_angle_alpha   81.38714974
_cell_angle_beta   98.61285018
_cell_angle_gamma   74.44082371
_symmetry_Int_Tables_number   1
_chemical_formula_structural   Ni7(PO4)6
_chemical_formula_sum   'Ni7 P6 O24'
_cell_volume   476.00263630
_cell_formula_units_Z   1
loop_
 _symmetry_equiv_pos_site_id
 _symmetry_equiv_pos_as_xyz
  1  'x, y, z'
loop_
 _atom_site_type_symbol
 _atom_site_label
 _atom_site_symmetry_multiplicity
 _atom_site_fract_x
 _atom_site_fract_y
 _atom_site_fract_z
 _atom_site_occupancy
  O  O0  1  0.35561258  0.01668782  0.50842335  1
  O  O1  1  0.89781463  0.88136643  0.79100417  1
  O  O2  1  0.02531965  0.34695347  0.49814659  1
  O  O3  1  0.71554193  0.72021741  0.23187390  1
  O  O4  1  0.79014022  0.39446032  0.12320212  1
  O  O5  1  0.72873225  0.70696784  0.77469763  1
  O  O6  1  0.88999971  0.88918410  0.21553276  1
  O  O7  1  0.11863341  0.10218615  0.79100397  1
  O  O8  1  0.02018206  0.39245593  0.86543840  1
  O  O9  1  0.11081560  0.10999954  0.21553285  1
  O  O10  1  0.98331171  0.64438708  0.50842332  1
  O  O11  1  0.29303241  0.27126777  0.77469768  1
  O  O12  1  0.21843060  0.59697335  0.88349435  1
  O  O13  1  0.27978229  0.28445803  0.23187384  1
  O  O14  1  0.60754396  0.97981784  0.86543840  1
  O  O15  1  0.19498890  0.80501068  0.12022920  1
  O  O16  1  0.40302594  0.78156881  0.88349433  1
  O  O17  1  0.44596109  0.55403948  0.16877810  1
  O  O18  1  0.98836170  0.59890762  0.14111820  1
  O  O19  1  0.65304654  0.97468015  0.49814664  1
  O  O20  1  0.56260504  0.43739516  0.83798680  1
  O  O21  1  0.60554053  0.20985899  0.12320247  1
  O  O22  1  0.81362297  0.18637655  0.88652554  1
  O  O23  1  0.40109267  0.01163833  0.14111825  1
  P  P24  1  0.10929278  0.28427139  0.72874291  1
  P  P25  1  0.29288733  0.10067356  0.27784503  1
  P  P26  1  0.30697275  0.69302743  0.01777985  1
  P  P27  1  0.70161248  0.29838697  0.98894398  1
  P  P28  1  0.71572798  0.89070647  0.72874293  1
  P  P29  1  0.89932573  0.70711329  0.27784474  1
  Ni  Ni30  1  0.64423510  0.97075971  0.19013489  1
  Ni  Ni31  1  0.62215098  0.61353975  0.00339146  1
  Ni  Ni32  1  0.36441686  0.02065806  0.81642680  1
  Ni  Ni33  1  0.38645971  0.37784932  0.00339128  1
  Ni  Ni34  1  0.00433348  0.99566680  0.00335783  1
  Ni  Ni35  1  0.97934204  0.63558322  0.81642680  1
  Ni  Ni36  1  0.02924079  0.35576525  0.19013492  1
