# generated using pymatgen
data_LiMo2(PO4)3
_symmetry_space_group_name_H-M   'P 1'
_cell_length_a   9.02878724
_cell_length_b   9.17952398
_cell_length_c   12.43258085
_cell_angle_alpha   90.00000000
_cell_angle_beta   90.00000000
_cell_angle_gamma   90.00000000
_symmetry_Int_Tables_number   1
_chemical_formula_structural   LiMo2(PO4)3
_chemical_formula_sum   'Li4 Mo8 P12 O48'
_cell_volume   1030.41191519
_cell_formula_units_Z   4
loop_
 _symmetry_equiv_pos_site_id
 _symmetry_equiv_pos_as_xyz
  1  'x, y, z'
loop_
 _atom_site_type_symbol
 _atom_site_label
 _atom_site_symmetry_multiplicity
 _atom_site_fract_x
 _atom_site_fract_y
 _atom_site_fract_z
 _atom_site_occupancy
  Li  Li0  1  0.14844593  0.73911597  0.75000000  1
  Li  Li1  1  0.85155407  0.26088403  0.25000000  1
  Li  Li2  1  0.14844593  0.76088403  0.25000000  1
  Li  Li3  1  0.85155407  0.23911597  0.75000000  1
  Mo  Mo4  1  0.75414223  0.52383375  0.40028821  1
  Mo  Mo5  1  0.24585777  0.47616625  0.59971179  1
  Mo  Mo6  1  0.24585777  0.02383375  0.09971179  1
  Mo  Mo7  1  0.75414223  0.52383375  0.09971179  1
  Mo  Mo8  1  0.75414223  0.97616625  0.90028821  1
  Mo  Mo9  1  0.75414223  0.97616625  0.59971179  1
  Mo  Mo10  1  0.24585777  0.02383375  0.40028821  1
  Mo  Mo11  1  0.24585777  0.47616625  0.90028821  1
  P  P12  1  0.03617710  0.75000000  0.50000000  1
  P  P13  1  0.60216732  0.62409843  0.63194085  1
  P  P14  1  0.39783268  0.37590157  0.36805915  1
  P  P15  1  0.96382290  0.25000000  -0.00000000  1
  P  P16  1  0.39783268  0.37590157  0.13194085  1
  P  P17  1  0.60216732  0.87590157  0.13194085  1
  P  P18  1  0.39783268  0.12409843  0.63194085  1
  P  P19  1  0.03617710  0.75000000  -0.00000000  1
  P  P20  1  0.39783268  0.12409843  0.86805915  1
  P  P21  1  0.60216732  0.62409843  0.86805915  1
  P  P22  1  0.60216732  0.87590157  0.36805915  1
  P  P23  1  0.96382290  0.25000000  0.50000000  1
  O  O24  1  0.36357123  0.21529730  0.11817714  1
  O  O25  1  0.20470869  0.48254352  0.75000000  1
  O  O26  1  0.36357123  0.28470270  0.88182286  1
  O  O27  1  0.65890603  0.57419012  0.75000000  1
  O  O28  1  0.05409555  0.13392549  0.05949012  1
  O  O29  1  0.79529131  0.51745648  0.25000000  1
  O  O30  1  0.63642877  0.78470270  0.88182286  1
  O  O31  1  0.05409555  0.13392549  0.44050988  1
  O  O32  1  0.86480921  0.18006258  0.91016808  1
  O  O33  1  0.30417483  0.02400943  0.56013120  1
  O  O34  1  0.63642877  0.71529730  0.11817714  1
  O  O35  1  0.86480921  0.31993742  0.08983192  1
  O  O36  1  0.56336764  0.09974043  0.87437854  1
  O  O37  1  0.05409555  0.36607451  0.55949012  1
  O  O38  1  0.34109397  0.42580988  0.25000000  1
  O  O39  1  0.69582517  0.52400943  0.93986880  1
  O  O40  1  0.43663236  0.90025957  0.12562146  1
  O  O41  1  0.86480921  0.31993742  0.41016808  1
  O  O42  1  0.43663236  0.59974043  0.62562146  1
  O  O43  1  0.69582517  0.97599057  0.43986880  1
  O  O44  1  0.56336764  0.09974043  0.62562146  1
  O  O45  1  0.69582517  0.52400943  0.56013120  1
  O  O46  1  0.13519079  0.68006258  0.58983192  1
  O  O47  1  0.65890603  0.92580988  0.25000000  1
  O  O48  1  0.56336764  0.40025957  0.37437854  1
  O  O49  1  0.94590445  0.86607451  0.94050988  1
  O  O50  1  0.79529131  0.98254352  0.75000000  1
  O  O51  1  0.94590445  0.86607451  0.55949012  1
  O  O52  1  0.13519079  0.68006258  0.91016808  1
  O  O53  1  0.13519079  0.81993742  0.41016808  1
  O  O54  1  0.34109397  0.07419012  0.75000000  1
  O  O55  1  0.56336764  0.40025957  0.12562146  1
  O  O56  1  0.43663236  0.59974043  0.87437854  1
  O  O57  1  0.94590445  0.63392549  0.44050988  1
  O  O58  1  0.30417483  0.02400943  0.93986880  1
  O  O59  1  0.05409555  0.36607451  0.94050988  1
  O  O60  1  0.30417483  0.47599057  0.06013120  1
  O  O61  1  0.36357123  0.21529730  0.38182286  1
  O  O62  1  0.43663236  0.90025957  0.37437854  1
  O  O63  1  0.86480921  0.18006258  0.58983192  1
  O  O64  1  0.63642877  0.78470270  0.61817714  1
  O  O65  1  0.13519079  0.81993742  0.08983192  1
  O  O66  1  0.94590445  0.63392549  0.05949012  1
  O  O67  1  0.20470869  0.01745648  0.25000000  1
  O  O68  1  0.69582517  0.97599057  0.06013120  1
  O  O69  1  0.63642877  0.71529730  0.38182286  1
  O  O70  1  0.30417483  0.47599057  0.43986880  1
  O  O71  1  0.36357123  0.28470270  0.61817714  1
