# generated using pymatgen
data_Mn(PO3)4
_symmetry_space_group_name_H-M   'P 1'
_cell_length_a   7.39711008
_cell_length_b   7.35566220
_cell_length_c   10.19550192
_cell_angle_alpha   83.90610605
_cell_angle_beta   66.88084964
_cell_angle_gamma   111.80141741
_symmetry_Int_Tables_number   1
_chemical_formula_structural   Mn(PO3)4
_chemical_formula_sum   'Mn2 P8 O24'
_cell_volume   452.60727521
_cell_formula_units_Z   2
loop_
 _symmetry_equiv_pos_site_id
 _symmetry_equiv_pos_as_xyz
  1  'x, y, z'
loop_
 _atom_site_type_symbol
 _atom_site_label
 _atom_site_symmetry_multiplicity
 _atom_site_fract_x
 _atom_site_fract_y
 _atom_site_fract_z
 _atom_site_occupancy
  Mn  Mn0  1  -0.00000000  -0.00000000  0.50000000  1
  Mn  Mn1  1  -0.00000000  0.49999900  0.00000000  1
  P  P2  1  0.28502277  0.26252220  0.97546317  1
  P  P3  1  0.73319709  0.25482999  0.53322217  1
  P  P4  1  0.00179603  0.32454858  0.68631663  1
  P  P5  1  0.26680291  0.74517001  0.46677783  1
  P  P6  1  0.71497823  0.73747780  0.02453583  1
  P  P7  1  0.47188469  0.30377109  0.18867283  1
  P  P8  1  0.52811631  0.69622891  0.81132717  1
  P  P9  1  0.99820297  0.67545142  0.31368337  1
  O  O10  1  0.49436057  0.11555736  0.60424259  1
  O  O11  1  0.95932017  0.33142147  0.83989455  1
  O  O12  1  0.04068083  0.66857853  0.16010545  1
  O  O13  1  0.11603754  0.33129724  0.06602065  1
  O  O14  1  0.09707611  0.81255779  0.56292650  1
  O  O15  1  0.19565142  0.67175661  0.34191213  1
  O  O16  1  0.03723058  0.14152826  0.64581571  1
  O  O17  1  0.21526009  0.53070808  0.56712444  1
  O  O18  1  0.38165540  0.20190468  0.08202115  1
  O  O19  1  0.49707844  0.53140694  0.15057986  1
  O  O20  1  0.50563843  0.88444264  0.39575741  1
  O  O21  1  0.30333032  0.19233519  0.35043751  1
  O  O22  1  0.30731246  0.69051020  0.84778404  1
  O  O23  1  0.77202768  0.90031788  0.09582512  1
  O  O24  1  0.22797332  0.09968212  0.90417388  1
  O  O25  1  0.90292389  0.18744221  0.43707350  1
  O  O26  1  0.69666968  0.80766481  0.64956149  1
  O  O27  1  0.88396346  0.66870276  0.93397935  1
  O  O28  1  0.50292256  0.46859306  0.84942014  1
  O  O29  1  0.61834360  0.79809532  0.91797885  1
  O  O30  1  0.78473991  0.46929192  0.43287656  1
  O  O31  1  0.96277042  0.85847174  0.35418529  1
  O  O32  1  0.80434958  0.32824339  0.65808887  1
  O  O33  1  0.69268654  0.30948980  0.15221596  1
