# generated using pymatgen
data_Cr(PO3)4
_symmetry_space_group_name_H-M   'P 1'
_cell_length_a   5.18280040
_cell_length_b   10.56870347
_cell_length_c   10.56870346
_cell_angle_alpha   72.59655569
_cell_angle_beta   98.18369685
_cell_angle_gamma   98.18369680
_symmetry_Int_Tables_number   1
_chemical_formula_structural   Cr(PO3)4
_chemical_formula_sum   'Cr2 P8 O24'
_cell_volume   543.72043455
_cell_formula_units_Z   2
loop_
 _symmetry_equiv_pos_site_id
 _symmetry_equiv_pos_as_xyz
  1  'x, y, z'
loop_
 _atom_site_type_symbol
 _atom_site_label
 _atom_site_symmetry_multiplicity
 _atom_site_fract_x
 _atom_site_fract_y
 _atom_site_fract_z
 _atom_site_occupancy
  O  O0  1  0.39502157  0.15873819  0.15873767  1
  O  O1  1  0.00005232  0.56799927  0.15300526  1
  O  O2  1  0.99994762  0.43200040  0.84699536  1
  O  O3  1  0.99994657  0.84699550  0.43200060  1
  O  O4  1  0.99999949  0.22605765  0.77394287  1
  O  O5  1  0.00000050  0.77394213  0.22605729  1
  O  O6  1  0.24003544  0.66238686  0.91972315  1
  O  O7  1  0.24003662  0.91972247  0.66238760  1
  O  O8  1  0.32285228  0.43554425  0.68315607  1
  O  O9  1  0.32285236  0.68315625  0.43554381  1
  O  O10  1  0.36954942  0.28029483  0.92373757  1
  O  O11  1  0.36954963  0.92373736  0.28029431  1
  O  O12  1  0.60497834  0.84126146  0.84126200  1
  O  O13  1  0.30642229  0.40218769  0.09168208  1
  O  O14  1  0.30642260  0.09168233  0.40218713  1
  O  O15  1  0.75996450  0.33761281  0.08027748  1
  O  O16  1  0.69357784  0.59781299  0.90831825  1
  O  O17  1  0.00005356  0.15300517  0.56799973  1
  O  O18  1  0.63045028  0.07626230  0.71970535  1
  O  O19  1  0.63045068  0.71970583  0.07626181  1
  O  O20  1  0.67714774  0.31684441  0.56445556  1
  O  O21  1  0.67714766  0.56445541  0.31684455  1
  O  O22  1  0.75996332  0.08027720  0.33761302  1
  O  O23  1  0.69357750  0.90831833  0.59781225  1
  P  P24  1  0.46676019  0.06560110  0.30618721  1
  P  P25  1  0.82303759  0.20226277  0.64275723  1
  P  P26  1  0.17696163  0.35724246  0.79773664  1
  P  P27  1  0.17696232  0.79773688  0.35724244  1
  P  P28  1  0.53323938  0.69381195  0.93439943  1
  P  P29  1  0.53323991  0.93439956  0.69381217  1
  P  P30  1  0.46676057  0.30618772  0.06560119  1
  P  P31  1  0.82303828  0.64275720  0.20226303  1
  Cr  Cr32  1  0.00000011  0.49999952  0.00000008  1
  Cr  Cr33  1  0.00000085  0.00000037  0.49999959  1
