# generated using pymatgen
data_Be(N3O7)2
_symmetry_space_group_name_H-M   'P 1'
_cell_length_a   6.35788935
_cell_length_b   7.58798933
_cell_length_c   12.88429801
_cell_angle_alpha   84.06695662
_cell_angle_beta   75.71589721
_cell_angle_gamma   65.23204707
_symmetry_Int_Tables_number   1
_chemical_formula_structural   Be(N3O7)2
_chemical_formula_sum   'Be2 N12 O28'
_cell_volume   546.95742937
_cell_formula_units_Z   2
loop_
 _symmetry_equiv_pos_site_id
 _symmetry_equiv_pos_as_xyz
  1  'x, y, z'
loop_
 _atom_site_type_symbol
 _atom_site_label
 _atom_site_symmetry_multiplicity
 _atom_site_fract_x
 _atom_site_fract_y
 _atom_site_fract_z
 _atom_site_occupancy
  Be  Be0  1  0.09764146  0.00000000  0.00000000  1
  Be  Be1  1  0.84764146  0.50000000  0.50000000  1
  N  N2  1  0.77239565  0.19042954  0.88675413  1
  N  N3  1  0.84957932  0.80957046  0.11324587  1
  N  N4  1  0.71282520  0.30957046  0.38675413  1
  N  N5  1  0.40914978  0.69042954  0.61324587  1
  N  N6  1  0.21077917  0.19780705  0.11124917  1
  N  N7  1  0.51983539  0.80219295  0.88875083  1
  N  N8  1  0.15858622  0.30219295  0.61124917  1
  N  N9  1  0.07202834  0.69780705  0.38875083  1
  N  N10  1  0.97429712  -0.04806775  0.63867396  1
  N  N11  1  0.56490333  1.04806775  0.36132604  1
  N  N12  1  0.67622937  0.54806775  0.13867396  1
  N  N13  1  0.36297108  0.45193225  0.86132604  1
  O  O14  1  0.98177114  0.06359365  0.89061265  1
  O  O15  1  0.93597744  0.93640635  0.10938735  1
  O  O16  1  0.79536479  0.43640635  0.39061265  1
  O  O17  1  0.62238379  0.56359365  0.60938735  1
  O  O18  1  0.61880156  0.26253638  0.97019998  1
  O  O19  1  0.85153791  0.73746362  0.02980002  1
  O  O20  1  0.63133793  0.23746362  0.47019998  1
  O  O21  1  0.33900153  0.76253638  0.52980002  1
  O  O22  1  0.72706773  0.23745954  0.79526281  1
  O  O23  1  0.75979008  0.76254046  0.20473719  1
  O  O24  1  0.71452727  0.26254046  0.29526281  1
  O  O25  1  0.27233054  0.73745954  0.70473719  1
  O  O26  1  0.10039191  0.19880297  0.03466838  1
  O  O27  1  0.33386326  0.80119703  0.96533162  1
  O  O28  1  0.04919488  0.30119703  0.53466838  1
  O  O29  1  0.88506030  0.69880297  0.46533162  1
  O  O30  1  0.32225620  0.03886040  0.15050541  1
  O  O31  1  0.51162201  0.96113960  0.84949459  1
  O  O32  1  0.11111660  0.46113960  0.65050541  1
  O  O33  1  0.22276161  0.53886040  0.34949459  1
  O  O34  1  0.19420413  0.35591329  0.13675262  1
  O  O35  1  0.68687004  0.64408671  0.86324738  1
  O  O36  1  0.30011742  0.14408671  0.63675262  1
  O  O37  1  0.08095674  0.85591329  0.36324738  1
  O  O38  1  0.83089021  0.90038840  0.64444632  1
  O  O39  1  0.37572494  0.09961160  0.35555368  1
  O  O40  1  0.48127861  0.59961160  0.14444632  1
  O  O41  1  0.22533654  0.40038840  0.85555368  1
