# generated using pymatgen
data_LiCoPO4
_symmetry_space_group_name_H-M   'P 1'
_cell_length_a   7.46653843
_cell_length_b   7.46654600
_cell_length_c   9.51520378
_cell_angle_alpha   89.99988011
_cell_angle_beta   90.00009836
_cell_angle_gamma   120.00015065
_symmetry_Int_Tables_number   1
_chemical_formula_structural   LiCoPO4
_chemical_formula_sum   'Li6 Co6 P6 O24'
_cell_volume   459.39590116
_cell_formula_units_Z   6
loop_
 _symmetry_equiv_pos_site_id
 _symmetry_equiv_pos_as_xyz
  1  'x, y, z'
loop_
 _atom_site_type_symbol
 _atom_site_label
 _atom_site_symmetry_multiplicity
 _atom_site_fract_x
 _atom_site_fract_y
 _atom_site_fract_z
 _atom_site_occupancy
  Li  Li0  1  0.20860170  0.95197417  0.25204914  1
  Li  Li1  1  0.95197921  0.20860317  0.75204959  1
  Li  Li2  1  0.79139597  0.74337142  0.75204911  1
  Li  Li3  1  0.74337618  0.79139544  0.25205017  1
  Li  Li4  1  0.25662394  0.04802013  0.75204950  1
  Li  Li5  1  0.04802049  0.25662462  0.25204868  1
  O  O6  1  0.11450849  0.50279907  0.82127410  1
  O  O7  1  0.66666651  0.33333017  0.84248446  1
  O  O8  1  0.89750378  0.77492402  0.94181000  1
  O  O9  1  0.83282246  0.55007739  0.62430858  1
  O  O10  1  0.71725828  0.16717158  0.62430619  1
  O  O11  1  0.88548921  0.38829082  0.32127329  1
  O  O12  1  0.10249386  0.87742043  0.44180969  1
  O  O13  1  0.16717674  0.71725943  0.12430602  1
  O  O14  1  0.28274433  0.44991708  0.12430611  1
  O  O15  1  0.38829135  0.88549118  0.82127421  1
  O  O16  1  0.33333010  0.66666912  0.60358431  1
  O  O17  1  0.66666835  0.33333885  0.10358421  1
  O  O18  1  0.33333486  0.66666643  0.34248468  1
  O  O19  1  0.00000201  0.99999921  0.16215087  1
  O  O20  1  0.12257656  0.22507793  0.44181185  1
  O  O21  1  0.87742244  0.10249972  0.94181160  1
  O  O22  1  0.55008691  0.83282664  0.12430697  1
  O  O23  1  0.22507955  0.12258153  0.94181014  1
  O  O24  1  0.49720239  0.61170851  0.82127056  1
  O  O25  1  0.44991090  0.28273796  0.62430443  1
  O  O26  1  0.77491929  0.89750160  0.44181038  1
  O  O27  1  0.61170775  0.49720020  0.32127422  1
  O  O28  1  0.50279538  0.11450484  0.32127087  1
  O  O29  1  0.99999762  0.99999763  0.66215162  1
  P  P30  1  0.33333239  0.66666934  0.77221889  1
  P  P31  1  0.33333765  0.66666797  0.17647806  1
  P  P32  1  0.00000075  0.00000003  0.00017442  1
  P  P33  1  0.99999661  0.99999792  0.50017304  1
  P  P34  1  0.66667061  0.33333983  0.27221864  1
  P  P35  1  0.66667351  0.33333589  0.67647853  1
  Co  Co36  1  0.95010919  0.54160833  0.97816131  1
  Co  Co37  1  0.59150199  0.04989569  0.97816087  1
  Co  Co38  1  0.45839511  0.40850221  0.97816032  1
  Co  Co39  1  0.40849843  0.45839321  0.47816130  1
  Co  Co40  1  0.54160474  0.95010727  0.47815974  1
  Co  Co41  1  0.04989165  0.59149982  0.47816143  1
