# generated using pymatgen
data_Ni3(P2O7)2
_symmetry_space_group_name_H-M   'P 1'
_cell_length_a   7.27933119
_cell_length_b   7.92654932
_cell_length_c   9.43742854
_cell_angle_alpha   90.00000000
_cell_angle_beta   110.54551561
_cell_angle_gamma   90.00000000
_symmetry_Int_Tables_number   1
_chemical_formula_structural   Ni3(P2O7)2
_chemical_formula_sum   'Ni6 P8 O28'
_cell_volume   509.90327371
_cell_formula_units_Z   2
loop_
 _symmetry_equiv_pos_site_id
 _symmetry_equiv_pos_as_xyz
  1  'x, y, z'
loop_
 _atom_site_type_symbol
 _atom_site_label
 _atom_site_symmetry_multiplicity
 _atom_site_fract_x
 _atom_site_fract_y
 _atom_site_fract_z
 _atom_site_occupancy
  O  O0  1  0.72919441  0.38529736  0.86448389  1
  O  O1  1  1.00088181  0.29092727  0.13046355  1
  O  O2  1  0.96583801  0.92019044  0.11102344  1
  O  O3  1  0.85937784  0.62110889  0.12214547  1
  O  O4  1  1.00088145  0.20907269  0.63046380  1
  O  O5  1  0.96583765  0.57980946  0.61102370  1
  O  O6  1  -0.00088153  0.70907266  0.86953647  1
  O  O7  1  0.03416227  0.07980949  0.88897658  1
  O  O8  1  0.14062093  0.37889104  0.87785415  1
  O  O9  1  -0.00088268  0.79092724  0.36953581  1
  O  O10  1  0.03416264  0.42019047  0.38897632  1
  O  O11  1  0.32748573  0.13965958  0.81280283  1
  O  O12  1  0.36863270  0.83592213  0.91104448  1
  O  O13  1  0.14062129  0.12110893  0.37785389  1
  O  O14  1  0.27080552  0.88529732  0.63551638  1
  O  O15  1  0.38205135  0.47510761  0.68118614  1
  O  O16  1  0.32748609  0.36034038  0.31280365  1
  O  O17  1  0.63136607  0.16407780  0.08895514  1
  O  O18  1  0.27080588  0.61470257  0.13551612  1
  O  O19  1  0.61794857  0.97510758  0.81881414  1
  O  O20  1  0.38205172  0.02489235  0.18118588  1
  O  O21  1  0.67251456  0.86034035  0.18719719  1
  O  O22  1  0.63136723  0.33592216  0.58895580  1
  O  O23  1  0.67251420  0.63965955  0.68719637  1
  O  O24  1  0.61794893  0.52489232  0.31881388  1
  O  O25  1  0.72919326  0.11470261  0.36448324  1
  O  O26  1  0.85937899  0.87889100  0.62214613  1
  O  O27  1  0.36863306  0.66407777  0.41104422  1
  P  P28  1  0.11540619  0.29096575  0.30198619  1
  P  P29  1  0.40168031  0.95210371  0.79178031  1
  P  P30  1  0.40168067  0.54789619  0.29178006  1
  P  P31  1  0.59831962  0.45210374  0.70821996  1
  P  P32  1  0.59831998  0.04789622  0.20821971  1
  P  P33  1  0.88459410  0.70903418  0.69801490  1
  P  P34  1  0.11540734  0.20903421  0.80198577  1
  P  P35  1  0.88459295  0.79096572  0.19801425  1
  Ni  Ni36  1  0.81434953  0.37176406  0.47439712  1
  Ni  Ni37  1  0.81435069  0.12823591  0.97439671  1
  Ni  Ni38  1  0.18564960  0.87176402  0.02560331  1
  Ni  Ni39  1  0.00000000  0.49999997  0.00000000  1
  Ni  Ni40  1  0.18564924  0.62823587  0.52560249  1
  Ni  Ni41  1  0.99999964  0.00000000  0.50000025  1
