# generated using pymatgen
data_Na10Fe4O9
_symmetry_space_group_name_H-M   'P 1'
_cell_length_a   8.82443542
_cell_length_b   8.80055591
_cell_length_c   8.80055545
_cell_angle_alpha   78.07532792
_cell_angle_beta   77.25862735
_cell_angle_gamma   77.25862802
_symmetry_Int_Tables_number   1
_chemical_formula_structural   Na10Fe4O9
_chemical_formula_sum   'Na20 Fe8 O18'
_cell_volume   641.17805666
_cell_formula_units_Z   2
loop_
 _symmetry_equiv_pos_site_id
 _symmetry_equiv_pos_as_xyz
  1  'x, y, z'
loop_
 _atom_site_type_symbol
 _atom_site_label
 _atom_site_symmetry_multiplicity
 _atom_site_fract_x
 _atom_site_fract_y
 _atom_site_fract_z
 _atom_site_occupancy
  Fe  Fe0  1  0.09393382  0.08858016  0.08858016  1
  Fe  Fe1  1  0.17880350  0.46734280  0.46734280  1
  Fe  Fe2  1  0.46430620  0.17292136  0.47190267  1
  Fe  Fe3  1  0.46430620  0.47190267  0.17292136  1
  Fe  Fe4  1  0.53205134  0.82328543  0.53580484  1
  Fe  Fe5  1  0.53205134  0.53580484  0.82328543  1
  Fe  Fe6  1  0.83457040  0.53231328  0.53231328  1
  Fe  Fe7  1  0.92375676  0.90283659  0.90283659  1
  Na  Na8  1  0.01963689  0.73770787  0.26757345  1
  Na  Na9  1  0.11602177  0.12569492  0.43406170  1
  Na  Na10  1  0.11602177  0.43406170  0.12569492  1
  Na  Na11  1  0.26958332  0.98987208  0.72975532  1
  Na  Na12  1  0.26958332  0.72975532  0.98987208  1
  Na  Na13  1  0.18620597  0.53675236  0.79800388  1
  Na  Na14  1  0.18620597  0.79800388  0.53675236  1
  Na  Na15  1  0.43805672  0.14319628  0.14319628  1
  Na  Na16  1  0.39149567  0.22039365  0.83868703  1
  Na  Na17  1  0.39149567  0.83868703  0.22039365  1
  Na  Na18  1  0.49593433  0.50198543  0.50198543  1
  Na  Na19  1  0.73571013  0.26140362  0.99475761  1
  Na  Na20  1  0.74577456  0.14604382  0.69150843  1
  Na  Na21  1  0.74577456  0.69150843  0.14604382  1
  Na  Na22  1  0.56850637  0.88056153  0.88056153  1
  Na  Na23  1  0.84874109  0.28392532  0.28392532  1
  Na  Na24  1  0.73571013  0.99475761  0.26140362  1
  Na  Na25  1  0.86339432  0.55807721  0.87252153  1
  Na  Na26  1  0.86339432  0.87252153  0.55807721  1
  Na  Na27  1  0.01963689  0.26757345  0.73770787  1
  O  O28  1  0.00946886  0.69518319  0.00721527  1
  O  O29  1  0.00946886  0.00721527  0.69518319  1
  O  O30  1  0.00990330  0.61096776  0.61096776  1
  O  O31  1  0.29713136  0.61374276  0.30263665  1
  O  O32  1  0.29713136  0.30263665  0.61374276  1
  O  O33  1  0.37947965  0.40655884  0.99242509  1
  O  O34  1  0.37947965  0.99242509  0.40655884  1
  O  O35  1  0.71196495  -0.00003436  -0.00003436  1
  O  O36  1  0.38552733  0.69482205  0.69482205  1
  O  O37  1  0.59160441  0.27422620  0.27422620  1
  O  O38  1  0.30426132  0.99295048  0.99295048  1
  O  O39  1  0.59332314  0.62060911  0.00318143  1
  O  O40  1  0.59332314  0.00318143  0.62060911  1
  O  O41  1  0.72305521  0.71934521  0.40019899  1
  O  O42  1  0.72305521  0.40019899  0.71934521  1
  O  O43  1  0.00570814  0.39219503  0.39219503  1
  O  O44  1  0.98832539  0.29655088  1.00165524  1
  O  O45  1  0.98832539  1.00165524  0.29655088  1
