# generated using pymatgen
data_Pr2UTe4
_symmetry_space_group_name_H-M   'P 1'
_cell_length_a   8.23548319
_cell_length_b   8.23548350
_cell_length_c   8.23548302
_cell_angle_alpha   109.37931114
_cell_angle_beta   109.65520318
_cell_angle_gamma   109.37930344
_symmetry_Int_Tables_number   1
_chemical_formula_structural   Pr2UTe4
_chemical_formula_sum   'Pr4 U2 Te8'
_cell_volume   429.97382367
_cell_formula_units_Z   2
loop_
 _symmetry_equiv_pos_site_id
 _symmetry_equiv_pos_as_xyz
  1  'x, y, z'
loop_
 _atom_site_type_symbol
 _atom_site_label
 _atom_site_symmetry_multiplicity
 _atom_site_fract_x
 _atom_site_fract_y
 _atom_site_fract_z
 _atom_site_occupancy
  Pr  Pr0  1  0.25000000  0.62467544  0.37467544  1
  Pr  Pr1  1  0.75000000  0.87532456  0.12532456  1
  Pr  Pr2  1  0.62532456  0.37532456  0.25000000  1
  Pr  Pr3  1  0.87467544  0.12467544  0.75000000  1
  Te  Te4  1  0.15549860  0.14955724  0.15457993  1
  Te  Te5  1  0.34450140  0.49908133  0.99405865  1
  Te  Te6  1  0.49405865  0.99908133  0.84450140  1
  Te  Te7  1  0.65457993  0.64955724  0.65549860  1
  Te  Te8  1  0.49497732  0.00091867  0.34542007  1
  Te  Te9  1  0.00594135  0.85044276  0.50502268  1
  Te  Te10  1  0.84542007  0.50091867  0.99497732  1
  Te  Te11  1  0.00502268  0.35044276  0.50594135  1
  U  U12  1  0.12500000  0.75000000  0.87500000  1
  U  U13  1  0.37500000  0.25000000  0.62500000  1
