# generated using pymatgen
data_La2CuO4
_symmetry_space_group_name_H-M   'P 1'
_cell_length_a   5.35630431
_cell_length_b   5.54339192
_cell_length_c   7.07448531
_cell_angle_alpha   90.00000000
_cell_angle_beta   112.15905922
_cell_angle_gamma   90.00000000
_symmetry_Int_Tables_number   1
_chemical_formula_structural   La2CuO4
_chemical_formula_sum   'La4 Cu2 O8'
_cell_volume   194.54159663
_cell_formula_units_Z   2
loop_
 _symmetry_equiv_pos_site_id
 _symmetry_equiv_pos_as_xyz
  1  'x, y, z'
loop_
 _atom_site_type_symbol
 _atom_site_label
 _atom_site_symmetry_multiplicity
 _atom_site_fract_x
 _atom_site_fract_y
 _atom_site_fract_z
 _atom_site_occupancy
  Cu  Cu0  1  0.00000000  0.00000000  0.00000000  1
  Cu  Cu1  1  0.50000000  0.50000000  0.00000000  1
  La  La2  1  0.63813239  0.01465368  0.27797718  1
  La  La3  1  0.36186761  0.98534632  0.72202282  1
  La  La4  1  0.13813239  0.48534632  0.27797718  1
  La  La5  1  0.86186761  0.51465368  0.72202282  1
  O  O6  1  0.23864359  0.25017068  0.97753260  1
  O  O7  1  0.18756823  0.05978863  0.37356071  1
  O  O8  1  0.31243177  0.55978863  0.62643929  1
  O  O9  1  0.26135641  0.75017068  0.02246740  1
  O  O10  1  0.73864359  0.24982932  0.97753260  1
  O  O11  1  0.68756823  0.44021137  0.37356071  1
  O  O12  1  0.81243177  0.94021137  0.62643929  1
  O  O13  1  0.76135641  0.74982932  0.02246740  1
