# generated using pymatgen
data_La2UTe4
_symmetry_space_group_name_H-M   'P 1'
_cell_length_a   8.28828859
_cell_length_b   8.28828830
_cell_length_c   8.28828806
_cell_angle_alpha   109.33205310
_cell_angle_beta   109.74991227
_cell_angle_gamma   109.33205247
_symmetry_Int_Tables_number   1
_chemical_formula_structural   La2UTe4
_chemical_formula_sum   'La4 U2 Te8'
_cell_volume   438.29343943
_cell_formula_units_Z   2
loop_
 _symmetry_equiv_pos_site_id
 _symmetry_equiv_pos_as_xyz
  1  'x, y, z'
loop_
 _atom_site_type_symbol
 _atom_site_label
 _atom_site_symmetry_multiplicity
 _atom_site_fract_x
 _atom_site_fract_y
 _atom_site_fract_z
 _atom_site_occupancy
  La  La0  1  0.25000000  0.62589597  0.37589597  1
  La  La1  1  0.75000000  0.87410403  0.12410403  1
  La  La2  1  0.62410403  0.37410403  0.25000000  1
  La  La3  1  0.87589597  0.12589597  0.75000000  1
  Te  Te4  1  0.00630276  0.35038635  0.50657382  1
  Te  Te5  1  0.15618747  0.14961365  0.15591641  1
  Te  Te6  1  0.34381253  0.49972894  0.99342618  1
  Te  Te7  1  0.49342618  -0.00027106  0.84381253  1
  Te  Te8  1  0.65591641  0.64961365  0.65618747  1
  Te  Te9  1  0.49369724  1.00027106  0.34408359  1
  Te  Te10  1  0.00657382  0.85038635  0.50630276  1
  Te  Te11  1  0.84408359  0.50027106  0.99369724  1
  U  U12  1  0.12500000  0.75000000  0.87500000  1
  U  U13  1  0.37500000  0.25000000  0.62500000  1
