# generated using pymatgen
data_Li4V3O8
_symmetry_space_group_name_H-M   'P 1'
_cell_length_a   4.02228058
_cell_length_b   6.22566212
_cell_length_c   11.78693077
_cell_angle_alpha   99.99209463
_cell_angle_beta   90.00000000
_cell_angle_gamma   90.00000000
_symmetry_Int_Tables_number   1
_chemical_formula_structural   Li4V3O8
_chemical_formula_sum   'Li8 V6 O16'
_cell_volume   290.68368832
_cell_formula_units_Z   2
loop_
 _symmetry_equiv_pos_site_id
 _symmetry_equiv_pos_as_xyz
  1  'x, y, z'
loop_
 _atom_site_type_symbol
 _atom_site_label
 _atom_site_symmetry_multiplicity
 _atom_site_fract_x
 _atom_site_fract_y
 _atom_site_fract_z
 _atom_site_occupancy
  Li  Li0  1  0.74999972  0.81294912  0.40470180  1
  Li  Li1  1  0.25000075  0.18705114  0.59529768  1
  Li  Li2  1  0.74999972  0.99066039  0.68332630  1
  Li  Li3  1  0.25000075  0.54894368  0.30573442  1
  Li  Li4  1  0.74999972  0.57155659  0.93917516  1
  Li  Li5  1  0.25000075  0.42844367  0.06082432  1
  Li  Li6  1  0.25000075  0.00933987  0.31667318  1
  Li  Li7  1  0.74999972  0.45105648  0.69426589  1
  O  O8  1  0.25000075  0.51778449  0.69077958  1
  O  O9  1  0.74999972  0.48221577  0.30921990  1
  O  O10  1  0.25000075  0.18974923  0.17725784  1
  O  O11  1  0.74999972  0.81024927  0.82274225  1
  O  O12  1  0.25000075  0.37101090  0.45370532  1
  O  O13  1  0.74999972  0.62898926  0.54629499  1
  O  O14  1  0.25000075  0.05552667  0.93310009  1
  O  O15  1  0.74999972  0.35919860  0.05684878  1
  O  O16  1  0.25000075  0.92601591  0.68265092  1
  O  O17  1  0.74999972  0.07398435  0.31734856  1
  O  O18  1  0.25000075  0.72779438  0.18042534  1
  O  O19  1  0.74999972  0.27220578  0.81957497  1
  O  O20  1  0.25000075  0.81896532  0.43779177  1
  O  O21  1  0.74999972  0.18103484  0.56220855  1
  O  O22  1  0.25000075  0.64080166  0.94315070  1
  O  O23  1  0.74999972  0.94447359  0.06689939  1
  V  V24  1  0.74999972  0.23034986  0.19156091  1
  V  V25  1  0.25000075  0.76965030  0.80843940  1
  V  V26  1  0.74999972  0.11279024  0.92281306  1
  V  V27  1  0.25000075  0.88720992  0.07718725  1
  V  V28  1  0.74999972  0.32986958  0.44657561  1
  V  V29  1  0.25000075  0.67013058  0.55342471  1
