# generated using pymatgen
data_Tb6CdS10
_symmetry_space_group_name_H-M   'P 1'
_cell_length_a   7.26718669
_cell_length_b   7.23316030
_cell_length_c   36.43362548
_cell_angle_alpha   109.47739512
_cell_angle_beta   110.08980343
_cell_angle_gamma   108.79818043
_symmetry_Int_Tables_number   1
_chemical_formula_structural   Tb6CdS10
_chemical_formula_sum   'Tb24 Cd4 S40'
_cell_volume   1474.99994320
_cell_formula_units_Z   4
loop_
 _symmetry_equiv_pos_site_id
 _symmetry_equiv_pos_as_xyz
  1  'x, y, z'
loop_
 _atom_site_type_symbol
 _atom_site_label
 _atom_site_symmetry_multiplicity
 _atom_site_fract_x
 _atom_site_fract_y
 _atom_site_fract_z
 _atom_site_occupancy
  Cd  Cd0  1  0.63411863  0.38351153  0.85090465  1
  Cd  Cd1  1  0.87777068  0.12307268  0.94907851  1
  Cd  Cd2  1  0.87872458  0.12750298  0.75090990  1
  Cd  Cd3  1  0.87325804  0.11699549  0.54721482  1
  S  S4  1  0.01277134  0.87474647  0.90055887  1
  S  S5  1  1.00123077  0.36961760  0.89902560  1
  S  S6  1  0.99399206  0.85759462  0.69830798  1
  S  S7  1  0.11663068  0.12628477  0.82448113  1
  S  S8  1  0.01188674  0.37291193  0.69797094  1
  S  S9  1  0.37827706  0.50815039  0.80157931  1
  S  S10  1  0.49328525  0.99593298  0.97416366  1
  S  S11  1  0.63244266  0.61513409  0.92495261  1
  S  S12  1  0.00057043  0.86880887  0.50035349  1
  S  S13  1  0.14720509  0.13716820  0.62738995  1
  S  S14  1  0.50426236  0.99303013  0.87493987  1
  S  S15  1  0.01566060  0.35788910  0.49958394  1
  S  S16  1  0.38714414  0.52087464  0.60383828  1
  S  S17  1  0.62967839  0.62119433  0.72695154  1
  S  S18  1  0.48988277  0.00387466  0.77458231  1
  S  S19  1  0.99944784  0.86709324  0.30009491  1
  S  S20  1  0.87403426  0.49997941  0.79871300  1
  S  S21  1  0.52246355  0.01658694  0.67727587  1
  S  S22  1  0.11594215  0.12460051  0.42587602  1
  S  S23  1  0.99563836  0.36145736  0.29798295  1
  S  S24  1  0.34707801  0.50297125  0.39890463  1
  S  S25  1  0.47505657  0.99594095  0.57388536  1
  S  S26  1  0.99601051  0.84565601  0.10042552  1
  S  S27  1  0.63638762  0.64326420  0.53198307  1
  S  S28  1  0.86400408  0.48213279  0.59877440  1
  S  S29  1  0.49407472  0.99241109  0.47366987  1
  S  S30  1  0.98776848  0.35845683  0.09942025  1
  S  S31  1  0.13633816  0.13758389  0.22748773  1
  S  S32  1  0.34901070  0.50513861  0.20158487  1
  S  S33  1  0.49883973  0.99304202  0.36803277  1
  S  S34  1  0.63990261  0.62850263  0.32531915  1
  S  S35  1  0.86729778  0.50869308  0.39813960  1
  S  S36  1  0.50176165  0.00951178  0.27280362  1
  S  S37  1  0.12673970  0.14165756  0.02236261  1
  S  S38  1  0.38553702  0.51782315  0.00141420  1
  S  S39  1  0.49603850  0.98752461  0.17299588  1
  S  S40  1  0.64872334  0.65651795  0.13022657  1
  S  S41  1  0.86897833  0.50458559  0.20214977  1
  S  S42  1  0.49799824  0.99677713  0.07068109  1
  S  S43  1  0.86813293  0.49970564  0.00133987  1
  Tb  Tb44  1  0.11842292  0.74727657  0.97442557  1
  Tb  Tb45  1  0.25183822  0.61168932  0.87316601  1
  Tb  Tb46  1  0.11313994  0.75100729  0.77302331  1
  Tb  Tb47  1  0.39597563  0.24976410  0.92901699  1
  Tb  Tb48  1  0.25775254  0.62181440  0.67224124  1
  Tb  Tb49  1  0.07728233  0.72463040  0.56506862  1
  Tb  Tb50  1  0.75205447  0.89338198  0.82891943  1
  Tb  Tb51  1  0.38366699  0.24744846  0.72842929  1
  Tb  Tb52  1  0.25280520  0.60630143  0.47239841  1
  Tb  Tb53  1  0.13165738  0.75685222  0.37474694  1
  Tb  Tb54  1  0.75347166  0.88794357  0.62458434  1
  Tb  Tb55  1  0.62261408  0.37107317  0.65004632  1
  Tb  Tb56  1  0.37652479  0.24956760  0.52560838  1
  Tb  Tb57  1  0.25753335  0.63093079  0.27555882  1
  Tb  Tb58  1  0.11816602  0.74540205  0.17406449  1
  Tb  Tb59  1  0.74303225  0.89325407  0.42948587  1
  Tb  Tb60  1  0.38911203  0.25867635  0.33006024  1
  Tb  Tb61  1  0.25253184  0.63857995  0.07814022  1
  Tb  Tb62  1  0.73758287  0.84782835  0.22029426  1
  Tb  Tb63  1  0.61290779  0.36656835  0.24628905  1
  Tb  Tb64  1  0.87593804  0.13245912  0.35077193  1
  Tb  Tb65  1  0.77013713  0.89443981  0.02972083  1
  Tb  Tb66  1  0.61109862  0.37182074  0.05257803  1
  Tb  Tb67  1  0.87275679  0.12438024  0.14803044  1
