# generated using pymatgen
data_TaO2
_symmetry_space_group_name_H-M   'P 1'
_cell_length_a   6.02363055
_cell_length_b   10.22754723
_cell_length_c   10.22755819
_cell_angle_alpha   85.02539295
_cell_angle_beta   72.87460553
_cell_angle_gamma   72.87452540
_symmetry_Int_Tables_number   1
_chemical_formula_structural   TaO2
_chemical_formula_sum   'Ta16 O32'
_cell_volume   575.45420866
_cell_formula_units_Z   16
loop_
 _symmetry_equiv_pos_site_id
 _symmetry_equiv_pos_as_xyz
  1  'x, y, z'
loop_
 _atom_site_type_symbol
 _atom_site_label
 _atom_site_symmetry_multiplicity
 _atom_site_fract_x
 _atom_site_fract_y
 _atom_site_fract_z
 _atom_site_occupancy
  Ta  Ta0  1  0.10632528  0.49281946  0.24244958  1
  Ta  Ta1  1  0.34877403  0.25755219  0.49282358  1
  Ta  Ta2  1  0.09915359  0.24244774  0.00718281  1
  Ta  Ta3  1  0.84159100  0.00717754  0.25755256  1
  Ta  Ta4  1  0.89367472  0.50718054  0.75755042  1
  Ta  Ta5  1  0.65122597  0.74244781  0.50717642  1
  Ta  Ta6  1  0.90084641  0.75755226  0.99281719  1
  Ta  Ta7  1  0.15840900  0.99282246  0.74244744  1
  Ta  Ta8  1  0.63973533  0.50884134  0.26193414  1
  Ta  Ta9  1  0.90167719  0.23805504  0.50884417  1
  Ta  Ta10  1  0.64859100  0.26193061  0.99114995  1
  Ta  Ta11  1  0.41053358  0.99115188  0.23805765  1
  Ta  Ta12  1  0.36026467  0.49115866  0.73806586  1
  Ta  Ta13  1  0.09832281  0.76194496  0.49115583  1
  Ta  Ta14  1  0.35140900  0.73806939  0.00885005  1
  Ta  Ta15  1  0.58946642  0.00884812  0.76194235  1
  O  O16  1  0.75597704  0.36215748  0.11325057  1
  O  O17  1  0.86922794  0.38675167  0.36216662  1
  O  O18  1  0.61813148  0.11326302  0.13784713  1
  O  O19  1  0.23141995  0.13784264  0.38674048  1
  O  O20  1  0.24402296  0.63784252  0.88674943  1
  O  O21  1  0.13077206  0.61324833  0.63783338  1
  O  O22  1  0.38186852  0.88673698  0.86215287  1
  O  O23  1  0.76858005  0.86215736  0.61325952  1
  O  O24  1  0.27507269  0.35094212  0.10046005  1
  O  O25  1  0.37554560  0.39953650  0.35093544  1
  O  O26  1  0.12601606  0.10045570  0.14905589  1
  O  O27  1  0.72645968  0.14906538  0.39954034  1
  O  O28  1  0.72492731  0.64905788  0.89953995  1
  O  O29  1  0.62445440  0.60046350  0.64906456  1
  O  O30  1  0.87398394  0.89954430  0.85094411  1
  O  O31  1  0.27354032  0.85093462  0.60045966  1
  O  O32  1  0.97179107  0.13939541  0.88613537  1
  O  O33  1  0.85791611  0.61387180  0.13940134  1
  O  O34  1  0.61117472  0.88613819  0.36061393  1
  O  O35  1  0.99730910  0.36060914  0.61386667  1
  O  O36  1  0.02820893  0.86060459  0.11386463  1
  O  O37  1  0.14208389  0.38612820  0.86059866  1
  O  O38  1  0.38882528  0.11386181  0.63938607  1
  O  O39  1  0.00269090  0.63939086  0.38613333  1
  O  O40  1  0.47855347  0.15089855  0.90367420  1
  O  O41  1  0.38224571  0.59632274  0.15089209  1
  O  O42  1  0.12946698  0.90366492  0.34909940  1
  O  O43  1  0.53312045  0.34910621  0.59633198  1
  O  O44  1  0.52144653  0.84910145  0.09632580  1
  O  O45  1  0.61775429  0.40367726  0.84910791  1
  O  O46  1  0.87053302  0.09633508  0.65090060  1
  O  O47  1  0.46687955  0.65089379  0.40366802  1
