# generated using pymatgen
data_Rb2Te
_symmetry_space_group_name_H-M   'P 1'
_cell_length_a   6.14293717
_cell_length_b   8.14847051
_cell_length_c   10.63825699
_cell_angle_alpha   90.00000000
_cell_angle_beta   90.00000000
_cell_angle_gamma   90.00000000
_symmetry_Int_Tables_number   1
_chemical_formula_structural   Rb2Te
_chemical_formula_sum   'Rb8 Te4'
_cell_volume   532.50372355
_cell_formula_units_Z   4
loop_
 _symmetry_equiv_pos_site_id
 _symmetry_equiv_pos_as_xyz
  1  'x, y, z'
loop_
 _atom_site_type_symbol
 _atom_site_label
 _atom_site_symmetry_multiplicity
 _atom_site_fract_x
 _atom_site_fract_y
 _atom_site_fract_z
 _atom_site_occupancy
  Rb  Rb0  1  0.75000000  0.99963093  0.75118531  1
  Rb  Rb1  1  0.25000000  0.00036907  0.24881469  1
  Rb  Rb2  1  0.75000000  0.49963093  0.74881469  1
  Rb  Rb3  1  0.25000000  0.50036907  0.25118531  1
  Rb  Rb4  1  0.75000000  0.75168053  0.41667759  1
  Rb  Rb5  1  0.25000000  0.24831947  0.58332241  1
  Rb  Rb6  1  0.75000000  0.25168053  0.08332241  1
  Rb  Rb7  1  0.25000000  0.74831947  0.91667759  1
  Te  Te8  1  0.75000000  0.75005020  0.08346028  1
  Te  Te9  1  0.25000000  0.24994980  0.91653972  1
  Te  Te10  1  0.75000000  0.25005020  0.41653972  1
  Te  Te11  1  0.25000000  0.74994980  0.58346028  1
