# generated using pymatgen
data_Al24Zn3O40
_symmetry_space_group_name_H-M   'P 1'
_cell_length_a   5.69424552
_cell_length_b   5.72387513
_cell_length_c   28.35292854
_cell_angle_alpha   59.68864168
_cell_angle_beta   59.69589650
_cell_angle_gamma   59.82772409
_symmetry_Int_Tables_number   1
_chemical_formula_structural   Al24Zn3O40
_chemical_formula_sum   'Al24 Zn3 O40'
_cell_volume   649.54634344
_cell_formula_units_Z   1
loop_
 _symmetry_equiv_pos_site_id
 _symmetry_equiv_pos_as_xyz
  1  'x, y, z'
loop_
 _atom_site_type_symbol
 _atom_site_label
 _atom_site_symmetry_multiplicity
 _atom_site_fract_x
 _atom_site_fract_y
 _atom_site_fract_z
 _atom_site_occupancy
  Al  Al0  1  0.49852439  0.49906229  0.00067021  1
  Al  Al1  1  0.49643852  0.49766416  0.10221625  1
  Al  Al2  1  0.49643852  0.99481606  0.10221625  1
  Al  Al3  1  0.13472723  0.11480368  0.42713308  1
  Al  Al4  1  0.99304732  0.49749265  0.10239347  1
  Al  Al5  1  0.49980491  0.50101661  0.29784240  1
  Al  Al6  1  0.88124436  0.88367415  0.17028147  1
  Al  Al7  1  0.49980491  0.00996650  0.29784240  1
  Al  Al8  1  0.47349594  0.50339610  0.40394237  1
  Al  Al9  1  0.00584960  0.50086479  0.29848416  1
  Al  Al10  1  0.51013439  0.50440380  0.49853055  1
  Al  Al11  1  0.49469710  0.98917729  0.70425872  1
  Al  Al12  1  0.51013439  0.99280909  0.49853055  1
  Al  Al13  1  0.50778128  0.49350037  0.60104359  1
  Al  Al14  1  0.86540777  0.88126286  0.37441330  1
  Al  Al15  1  0.12164297  0.11943335  0.82789807  1
  Al  Al16  1  0.49469710  0.49483202  0.70425872  1
  Al  Al17  1  0.86274152  0.87800081  0.57625137  1
  Al  Al18  1  0.99066506  0.49428567  0.70415272  1
  Al  Al19  1  0.50454478  0.50322634  0.89464430  1
  Al  Al20  1  0.88306160  0.88284159  0.77025104  1
  Al  Al21  1  0.50454478  0.01900736  0.89464430  1
  Al  Al22  1  0.02024280  0.50395088  0.89437109  1
  Al  Al23  1  0.87794047  0.87907803  0.97278069  1
  O  O24  1  0.26659440  0.26819758  0.05167205  1
  O  O25  1  0.26186340  0.26243457  0.14265349  1
  O  O26  1  0.26659440  0.70684776  0.05167205  1
  O  O27  1  0.70690652  0.26735803  0.05167548  1
  O  O28  1  0.24156097  0.24522123  0.25989596  1
  O  O29  1  0.26521577  0.76249244  0.14195987  1
  O  O30  1  0.74539065  0.74663315  0.05226861  1
  O  O31  1  0.25055132  0.25282769  0.34875866  1
  O  O32  1  0.24156097  0.71373798  0.25989596  1
  O  O33  1  0.76090733  0.26625800  0.14213930  1
  O  O34  1  0.76090733  0.76213816  0.14213930  1
  O  O35  1  0.71281111  0.24419959  0.25975794  1
  O  O36  1  0.28543126  0.23812456  0.44852931  1
  O  O37  1  0.26753212  0.74172751  0.34980257  1
  O  O38  1  0.30110814  0.24392491  0.54220841  1
  O  O39  1  0.73663668  0.28179710  0.34851610  1
  O  O40  1  0.74064362  0.74635994  0.25332730  1
  O  O41  1  0.28543126  0.73379764  0.44852931  1
  O  O42  1  0.73663668  0.73898573  0.34851610  1
  O  O43  1  0.73976835  0.25496206  0.45006150  1
  O  O44  1  0.26328215  0.26479120  0.65493183  1
  O  O45  1  0.26553128  0.74596347  0.54850836  1
  O  O46  1  0.25294012  0.24954712  0.74959313  1
  O  O47  1  0.72800061  0.75746326  0.45141457  1
  O  O48  1  0.26328215  0.69726748  0.65493183  1
  O  O49  1  0.71057076  0.26377366  0.55289118  1
  O  O50  1  0.70520911  0.26170094  0.65427780  1
  O  O51  1  0.71057076  0.76119966  0.55289118  1
  O  O52  1  0.24016552  0.23923913  0.85587071  1
  O  O53  1  0.26457180  0.75899785  0.74348650  1
  O  O54  1  0.24016552  0.74124182  0.85587071  1
  O  O55  1  0.74300653  0.74028191  0.65528593  1
  O  O56  1  0.75973055  0.26327830  0.74362317  1
  O  O57  1  0.26837168  0.26821370  0.93904019  1
  O  O58  1  0.74205776  0.23906572  0.85596216  1
  O  O59  1  0.75973055  0.75887529  0.74362317  1
  O  O60  1  0.27757235  0.74112563  0.94803528  1
  O  O61  1  0.74671768  0.74606808  0.85222923  1
  O  O62  1  0.74063081  0.27807699  0.94805362  1
  O  O63  1  0.74063081  0.74102411  0.94805362  1
  Zn  Zn64  1  0.12472959  0.12302140  0.02584552  1
  Zn  Zn65  1  0.12536888  0.12430826  0.22520292  1
  Zn  Zn66  1  0.12549901  0.11888294  0.62734702  1
