# generated using pymatgen
data_BaLa2TiCr2O9
_symmetry_space_group_name_H-M   'P 1'
_cell_length_a   3.96347802
_cell_length_b   35.67655159
_cell_length_c   5.62714660
_cell_angle_alpha   44.78376376
_cell_angle_beta   90.00000000
_cell_angle_gamma   90.00000000
_symmetry_Int_Tables_number   1
_chemical_formula_structural   BaLa2TiCr2O9
_chemical_formula_sum   'Ba3 La6 Ti3 Cr6 O27'
_cell_volume   560.51509397
_cell_formula_units_Z   3
loop_
 _symmetry_equiv_pos_site_id
 _symmetry_equiv_pos_as_xyz
  1  'x, y, z'
loop_
 _atom_site_type_symbol
 _atom_site_label
 _atom_site_symmetry_multiplicity
 _atom_site_fract_x
 _atom_site_fract_y
 _atom_site_fract_z
 _atom_site_occupancy
  Ba  Ba0  1  0.00000000  0.99718145  0.01268709  1
  Ba  Ba1  1  0.00000000  0.11111100  -0.00000097  1
  Ba  Ba2  1  0.00000000  0.22504055  0.98732017  1
  Cr  Cr3  1  0.50000000  0.33552745  0.49008233  1
  Cr  Cr4  1  0.50000000  0.44617109  0.49223343  1
  Cr  Cr5  1  0.50000000  0.55586501  0.49861158  1
  Cr  Cr6  1  0.50000000  0.66635799  0.50139264  1
  Cr  Cr7  1  0.50000000  0.77605091  0.50777720  1
  Cr  Cr8  1  0.50000000  0.88669455  0.50983237  1
  La  La9  1  0.00000000  0.33879126  0.97544305  1
  La  La10  1  0.00000000  0.44439112  0.00022975  1
  La  La11  1  0.00000000  0.55717131  0.99273933  1
  La  La12  1  0.00000000  0.66505169  0.00727712  1
  La  La13  1  0.00000000  0.77783088  0.99975386  1
  La  La14  1  0.00000000  0.88343074  0.02456740  1
  O  O15  1  0.00000000  0.88035594  0.53839922  1
  O  O16  1  0.50000000  0.05411837  0.50708201  1
  O  O17  1  0.50000000  0.16810583  0.49291119  1
  O  O18  1  0.50000000  0.28221652  0.46585086  1
  O  O19  1  0.50000000  0.50097121  0.49528800  1
  O  O20  1  0.50000000  0.39069609  0.49231440  1
  O  O21  1  0.50000000  0.61112881  0.49984674  1
  O  O22  1  0.50000000  0.72121983  0.50500124  1
  O  O23  1  0.50000000  0.83154497  0.50750713  1
  O  O24  1  0.50000000  0.93999728  0.53421011  1
  O  O25  1  0.50000000  0.05411717  0.00586063  1
  O  O26  1  0.50000000  0.16810463  0.99414334  1
  O  O27  1  0.50000000  0.28222472  0.99418960  1
  O  O28  1  0.50000000  0.39067703  0.99141490  1
  O  O29  1  0.50000000  0.50100217  -0.00401826  1
  O  O30  1  0.50000000  0.72125079  1.00402887  1
  O  O31  1  0.50000000  0.61109319  1.00000699  1
  O  O32  1  0.50000000  0.94000548  0.00579756  1
  O  O33  1  0.50000000  0.83152591  0.00857819  1
  O  O34  1  0.00000000  0.99486787  0.52309673  1
  O  O35  1  0.00000000  0.11111100  0.50000065  1
  O  O36  1  0.00000000  0.22735413  0.47690751  1
  O  O37  1  0.00000000  0.34186606  0.46160165  1
  O  O38  1  0.00000000  0.44394634  0.50224742  1
  O  O39  1  0.00000000  0.55786424  0.48960916  1
  O  O40  1  0.00000000  0.66435876  0.51038333  1
  O  O41  1  0.00000000  0.77827566  0.49776844  1
  Ti  Ti42  1  0.50000000  0.99657798  0.51540808  1
  Ti  Ti43  1  0.50000000  0.11111100  0.50000802  1
  Ti  Ti44  1  0.50000000  0.22564402  0.48460995  1
