# generated using pymatgen
data_MgAl6O10
_symmetry_space_group_name_H-M   'P 1'
_cell_length_a   5.69555441
_cell_length_b   5.72580467
_cell_length_c   28.55500146
_cell_angle_alpha   59.91466661
_cell_angle_beta   59.95889993
_cell_angle_gamma   59.82176159
_symmetry_Int_Tables_number   1
_chemical_formula_structural   MgAl6O10
_chemical_formula_sum   'Mg4 Al24 O40'
_cell_volume   656.95654370
_cell_formula_units_Z   4
loop_
 _symmetry_equiv_pos_site_id
 _symmetry_equiv_pos_as_xyz
  1  'x, y, z'
loop_
 _atom_site_type_symbol
 _atom_site_label
 _atom_site_symmetry_multiplicity
 _atom_site_fract_x
 _atom_site_fract_y
 _atom_site_fract_z
 _atom_site_occupancy
  Al  Al0  1  0.97980662  0.99646152  0.00546861  1
  Al  Al1  1  0.26041005  0.24713318  0.04907547  1
  Al  Al2  1  0.59332229  0.62701549  0.03054063  1
  Al  Al3  1  0.62558759  0.12431983  0.12506189  1
  Al  Al4  1  0.13293197  0.62495749  0.32342434  1
  Al  Al5  1  0.62564027  0.62475536  0.12507167  1
  Al  Al6  1  0.98978767  0.00932423  0.19834889  1
  Al  Al7  1  0.64671132  0.61907950  0.22302686  1
  Al  Al8  1  0.62769594  0.12911198  0.32363007  1
  Al  Al9  1  0.12133674  0.62528092  0.52562881  1
  Al  Al10  1  0.62773648  0.62504894  0.32362264  1
  Al  Al11  1  0.62692323  0.62570407  0.42432123  1
  Al  Al12  1  0.24097228  0.24043177  0.65564904  1
  Al  Al13  1  0.62557566  0.12089779  0.52564433  1
  Al  Al14  1  0.62556576  0.62530214  0.52564184  1
  Al  Al15  1  0.10573298  0.62488801  0.72888355  1
  Al  Al16  1  0.62526519  0.62523808  0.62485824  1
  Al  Al17  1  0.62359250  0.10638771  0.72895819  1
  Al  Al18  1  0.25399345  0.25260761  0.84814395  1
  Al  Al19  1  0.62355971  0.62521148  0.72895471  1
  Al  Al20  1  0.11661380  0.63076040  0.92435960  1
  Al  Al21  1  0.62962495  0.12075713  0.92400751  1
  Al  Al22  1  0.63229393  0.63343013  0.82014308  1
  Al  Al23  1  0.62960767  0.62956710  0.92401165  1
  Mg  Mg24  1  0.27236078  0.25802365  0.24231308  1
  Mg  Mg25  1  0.25086856  0.24847365  0.45044935  1
  Mg  Mg26  1  0.00451970  0.00512756  0.39703099  1
  Mg  Mg27  1  -0.00057602  0.00155952  0.59948874  1
  O  O28  1  0.41530945  0.36576528  0.06900252  1
  O  O29  1  0.41532789  0.87393429  0.06900908  1
  O  O30  1  0.42009792  0.38830941  0.16066462  1
  O  O31  1  0.87138658  0.38684061  0.07098778  1
  O  O32  1  0.38785280  0.87079157  0.17412887  1
  O  O33  1  0.38577879  0.38560595  0.27890052  1
  O  O34  1  0.84553668  0.87641668  0.08033517  1
  O  O35  1  0.83646084  0.38711389  0.17857843  1
  O  O36  1  0.39116911  0.38429904  0.36805364  1
  O  O37  1  0.38577400  0.83408938  0.27889542  1
  O  O38  1  0.83643666  0.88364763  0.17858164  1
  O  O39  1  0.84455072  0.38190642  0.27832084  1
  O  O40  1  0.38471260  0.38527902  0.48039537  1
  O  O41  1  0.41975932  0.85987634  0.37209659  1
  O  O42  1  0.87227008  0.86809610  0.27830701  1
  O  O43  1  0.86145105  0.41857832  0.37234135  1
  O  O44  1  0.38471118  0.82808260  0.48039018  1
  O  O45  1  0.37450072  0.37310912  0.57587634  1
  O  O46  1  0.86144244  0.85819398  0.37234512  1
  O  O47  1  0.82926332  0.38389170  0.48058711  1
  O  O48  1  0.41522126  0.86088327  0.57261019  1
  O  O49  1  0.38428376  0.38491547  0.67663326  1
  O  O50  1  0.86250402  0.86315535  0.48223047  1
  O  O51  1  0.86088937  0.41591210  0.57271719  1
  O  O52  1  0.38425301  0.84768379  0.67663301  1
  O  O53  1  0.38352636  0.38333067  0.76994841  1
  O  O54  1  0.86088200  0.85962396  0.57271623  1
  O  O55  1  0.84757002  0.38443541  0.67671801  1
  O  O56  1  0.38156490  0.38247059  0.87635669  1
  O  O57  1  0.41200448  0.86435390  0.77185113  1
  O  O58  1  0.86365131  0.86511194  0.68121443  1
  O  O59  1  0.38154942  0.85411613  0.87636117  1
  O  O60  1  0.86326885  0.41424596  0.77188381  1
  O  O61  1  0.38759482  0.38943325  0.96670628  1
  O  O62  1  0.85397319  0.38243726  0.87621722  1
  O  O63  1  0.86326780  0.86295747  0.77188930  1
  O  O64  1  0.38303577  0.87082369  0.97507208  1
  O  O65  1  0.84823350  0.85475473  0.88843986  1
  O  O66  1  0.87323255  0.39206906  0.97262212  1
  O  O67  1  0.87324037  0.87160237  0.97262262  1
