# generated using pymatgen
data_Zr3Sc4O12
_symmetry_space_group_name_H-M   'P 1'
_cell_length_a   6.20367449
_cell_length_b   6.24155653
_cell_length_c   31.01104640
_cell_angle_alpha   99.49454516
_cell_angle_beta   99.40920456
_cell_angle_gamma   99.68721722
_symmetry_Int_Tables_number   1
_chemical_formula_structural   Zr3Sc4O12
_chemical_formula_sum   'Zr15 Sc20 O60'
_cell_volume   1144.62209659
_cell_formula_units_Z   5
loop_
 _symmetry_equiv_pos_site_id
 _symmetry_equiv_pos_as_xyz
  1  'x, y, z'
loop_
 _atom_site_type_symbol
 _atom_site_label
 _atom_site_symmetry_multiplicity
 _atom_site_fract_x
 _atom_site_fract_y
 _atom_site_fract_z
 _atom_site_occupancy
  O  O0  1  0.06268785  0.67115823  0.98424229  1
  O  O1  1  0.09677052  0.94068331  0.86372079  1
  O  O2  1  0.06620497  0.67320622  0.78445232  1
  O  O3  1  0.17845049  0.42109174  0.91366265  1
  O  O4  1  0.09450859  0.93972725  0.66354444  1
  O  O5  1  0.06631640  0.67272029  0.58475571  1
  O  O6  1  0.32167736  0.09560538  0.98794466  1
  O  O7  1  0.18019128  0.42775420  0.71417581  1
  O  O8  1  0.09511739  0.93963096  0.46349796  1
  O  O9  1  0.41787091  0.82005097  0.91590572  1
  O  O10  1  0.41902387  0.57142494  0.83608184  1
  O  O11  1  0.06611600  0.67276761  0.38478669  1
  O  O12  1  0.32786579  0.07532042  0.78664610  1
  O  O13  1  0.18014473  0.42781889  0.51435237  1
  O  O14  1  0.10071315  0.94292270  0.26332579  1
  O  O15  1  0.42167390  0.82085594  0.71515536  1
  O  O16  1  0.57863399  0.41920737  0.96384614  1
  O  O17  1  0.41785816  0.56910111  0.63598360  1
  O  O18  1  0.57390608  0.17814558  0.88428208  1
  O  O19  1  0.06264851  0.67031558  0.18455891  1
  O  O20  1  0.32732648  0.07502958  0.58670800  1
  O  O21  1  0.18158438  0.42958663  0.31462044  1
  O  O22  1  0.68118901  0.89981470  0.81235680  1
  O  O23  1  0.10297723  0.94423589  0.06366406  1
  O  O24  1  0.42221583  0.82079348  0.51531453  1
  O  O25  1  0.57113742  0.42477072  0.76393849  1
  O  O26  1  0.41827474  0.56980360  0.43604237  1
  O  O27  1  0.57255800  0.17916319  0.68500924  1
  O  O28  1  0.32784238  0.07582013  0.38704522  1
  O  O29  1  0.82096466  0.58428709  0.88521791  1
  O  O30  1  0.17987414  0.42250544  0.11407619  1
  O  O31  1  0.68186754  0.89970093  0.61262489  1
  O  O32  1  0.42094399  0.82229474  0.31549215  1
  O  O33  1  0.57154262  0.42475439  0.56401679  1
  O  O34  1  0.42090360  0.57276550  0.23643937  1
  O  O35  1  0.57305680  0.17923320  0.48510126  1
  O  O36  1  0.91805221  0.06509887  0.93467263  1
  O  O37  1  0.32162319  0.09666434  0.18839741  1
  O  O38  1  0.82156284  0.58405477  0.68533501  1
  O  O39  1  0.68191746  0.90029436  0.41262496  1
  O  O40  1  0.93339224  0.31830464  0.81867222  1
  O  O41  1  0.41715142  0.82149250  0.11624051  1
  O  O42  1  0.57202050  0.42506860  0.36415527  1
  O  O43  1  0.42059074  0.57326403  0.03641972  1
  O  O44  1  0.57395745  0.18111642  0.28531502  1
  O  O45  1  0.92843035  0.07188071  0.73493605  1
  O  O46  1  0.82162990  0.58407763  0.48540955  1
  O  O47  1  0.67738693  0.89897013  0.21200993  1
  O  O48  1  0.93192164  0.31678823  0.61864140  1
  O  O49  1  0.58018871  0.41967808  0.16410555  1
  O  O50  1  0.57527748  0.18004444  0.08450097  1
  O  O51  1  0.92817025  0.07128425  0.53482974  1
  O  O52  1  0.82410253  0.58749181  0.28525053  1
  O  O53  1  0.67660573  0.89806547  0.01169254  1
  O  O54  1  0.93254205  0.31673363  0.41881254  1
  O  O55  1  0.92940212  0.07137751  0.33444912  1
  O  O56  1  0.82339007  0.58798383  0.08512053  1
  O  O57  1  0.93851719  0.31342196  0.22070499  1
  O  O58  1  0.91839281  0.06439820  0.13414621  1
  O  O59  1  0.93877324  0.31522120  0.02052427  1
  Sc  Sc60  1  0.99589236  0.00218437  0.59884050  1
  Sc  Sc61  1  0.39534206  0.67834654  0.97223489  1
  Sc  Sc62  1  0.68527627  0.86282466  0.87871698  1
  Sc  Sc63  1  0.60803842  0.31248326  0.82841591  1
  Sc  Sc64  1  0.69638325  0.86865232  0.67942189  1
  Sc  Sc65  1  0.85756748  0.39439336  0.93573260  1
  Sc  Sc66  1  0.60656169  0.31247253  0.62899108  1
  Sc  Sc67  1  0.39666694  0.67886515  0.17282250  1
  Sc  Sc68  1  0.69622271  0.86842008  0.47932919  1
  Sc  Sc69  1  0.85658764  0.39243510  0.73694811  1
  Sc  Sc70  1  0.60773536  0.31278693  0.42915224  1
  Sc  Sc71  1  0.68877279  0.86643508  0.27869742  1
  Sc  Sc72  1  0.99691100  0.00278378  0.79940016  1
  Sc  Sc73  1  0.85597653  0.39171596  0.53686014  1
  Sc  Sc74  1  0.60642438  0.31921814  0.22940284  1
  Sc  Sc75  1  0.67780808  0.86072023  0.07791636  1
  Sc  Sc76  1  0.85616394  0.39171533  0.33633688  1
  Sc  Sc77  1  0.60609345  0.31839456  0.02841980  1
  Sc  Sc78  1  0.99533829  0.00214842  0.39859080  1
  Sc  Sc79  1  0.85694384  0.39406671  0.13494255  1
  Zr  Zr80  1  0.13106748  0.61037422  0.86082763  1
  Zr  Zr81  1  0.12787431  0.60811243  0.65934456  1
  Zr  Zr82  1  0.31423685  0.14071178  0.92224567  1
  Zr  Zr83  1  0.39272217  0.69546524  0.77324356  1
  Zr  Zr84  1  0.12805463  0.60825078  0.45945468  1
  Zr  Zr85  1  0.30555172  0.14053421  0.72220874  1
  Zr  Zr86  1  0.39391891  0.69510941  0.57347681  1
  Zr  Zr87  1  0.13391350  0.60963928  0.25964896  1
  Zr  Zr88  1  0.30578891  0.14042630  0.52222914  1
  Zr  Zr89  1  0.39346386  0.69581304  0.37378150  1
  Zr  Zr90  1  0.13634852  0.61115140  0.06108464  1
  Zr  Zr91  1  0.99141345  0.99451768  0.99830174  1
  Zr  Zr92  1  0.30780404  0.14370551  0.32293906  1
  Zr  Zr93  1  0.31779161  0.14447407  0.12308634  1
  Zr  Zr94  1  0.98970569  0.99380860  0.19739844  1
