# generated using pymatgen
data_Eu2GeSe4
_symmetry_space_group_name_H-M   'P 1'
_cell_length_a   7.00886469
_cell_length_b   7.02367269
_cell_length_c   8.43232931
_cell_angle_alpha   90.00000000
_cell_angle_beta   107.80755834
_cell_angle_gamma   90.00000000
_symmetry_Int_Tables_number   1
_chemical_formula_structural   Eu2GeSe4
_chemical_formula_sum   'Eu4 Ge2 Se8'
_cell_volume   395.21832529
_cell_formula_units_Z   2
loop_
 _symmetry_equiv_pos_site_id
 _symmetry_equiv_pos_as_xyz
  1  'x, y, z'
loop_
 _atom_site_type_symbol
 _atom_site_label
 _atom_site_symmetry_multiplicity
 _atom_site_fract_x
 _atom_site_fract_y
 _atom_site_fract_z
 _atom_site_occupancy
  Eu  Eu0  1  0.72841942  0.25000000  0.05630967  1
  Eu  Eu1  1  0.27158058  0.75000000  0.94369033  1
  Eu  Eu2  1  0.24818778  0.75000000  0.43669684  1
  Eu  Eu3  1  0.75181222  0.25000000  0.56330316  1
  Ge  Ge4  1  0.26926162  0.25000000  0.19667876  1
  Ge  Ge5  1  0.73073838  0.75000000  0.80332124  1
  Se  Se6  1  0.50151040  0.50874871  0.25769060  1
  Se  Se7  1  0.08631924  0.25000000  0.90719137  1
  Se  Se8  1  0.91368076  0.75000000  0.09280863  1
  Se  Se9  1  0.50151040  0.99125129  0.25769060  1
  Se  Se10  1  0.92466637  0.75000000  0.61454451  1
  Se  Se11  1  0.49848960  0.00874871  0.74230940  1
  Se  Se12  1  0.49848960  0.49125129  0.74230940  1
  Se  Se13  1  0.07533363  0.25000000  0.38545549  1
