# generated using pymatgen
data_LiMo(PO4)2
_symmetry_space_group_name_H-M   'P 1'
_cell_length_a   5.01842866
_cell_length_b   17.23862979
_cell_length_c   7.14381119
_cell_angle_alpha   90.00000000
_cell_angle_beta   97.60656205
_cell_angle_gamma   90.00000000
_symmetry_Int_Tables_number   1
_chemical_formula_structural   LiMo(PO4)2
_chemical_formula_sum   'Li4 Mo4 P8 O32'
_cell_volume   612.57875071
_cell_formula_units_Z   4
loop_
 _symmetry_equiv_pos_site_id
 _symmetry_equiv_pos_as_xyz
  1  'x, y, z'
loop_
 _atom_site_type_symbol
 _atom_site_label
 _atom_site_symmetry_multiplicity
 _atom_site_fract_x
 _atom_site_fract_y
 _atom_site_fract_z
 _atom_site_occupancy
  Li  Li0  1  0.70520919  0.61241992  -0.00530630  1
  Li  Li1  1  0.20520919  0.88758008  0.49469370  1
  Li  Li2  1  0.79479081  0.11241992  0.50530630  1
  Li  Li3  1  0.29479081  0.38758008  0.00530630  1
  Mo  Mo4  1  0.30198393  0.36981215  0.49879801  1
  Mo  Mo5  1  0.80198393  0.13018785  0.99879801  1
  Mo  Mo6  1  0.69801607  0.63018785  0.50120199  1
  Mo  Mo7  1  0.19801607  0.86981215  0.00120199  1
  P  P8  1  0.13990216  0.71248303  0.26239779  1
  P  P9  1  0.25599279  0.03786292  0.77857774  1
  P  P10  1  0.75599279  0.46213708  0.27857774  1
  P  P11  1  0.24400721  0.53786292  0.72142226  1
  P  P12  1  0.63990216  0.78751697  0.76239779  1
  P  P13  1  0.74400721  0.96213708  0.22142226  1
  P  P14  1  0.36009784  0.21248303  0.23760221  1
  P  P15  1  0.86009784  0.28751697  0.73760221  1
  O  O16  1  0.49871001  0.80004196  0.94510573  1
  O  O17  1  0.01102578  0.66984866  0.09381254  1
  O  O18  1  0.11705671  0.06828787  0.94859032  1
  O  O19  1  0.35187236  0.30254139  0.27178397  1
  O  O20  1  0.26517483  0.94646146  0.79618146  1
  O  O21  1  0.36998132  0.56391338  0.91047862  1
  O  O22  1  0.44195989  0.93385728  0.17903104  1
  O  O23  1  0.38294329  0.56828787  0.55140968  1
  O  O24  1  0.73482517  0.05353854  0.20381854  1
  O  O25  1  0.50128999  0.19995804  0.05489427  1
  O  O26  1  0.98897422  0.33015134  0.90618746  1
  O  O27  1  0.13001868  0.06391338  0.58952138  1
  O  O28  1  0.55804011  0.06614272  0.82096896  1
  O  O29  1  0.61705671  0.43171213  0.44859032  1
  O  O30  1  -0.00128999  0.69995804  0.44510573  1
  O  O31  1  0.63001868  0.43608662  0.08952138  1
  O  O32  1  0.85187236  0.19745861  0.77178397  1
  O  O33  1  0.14812764  0.80254139  0.22821603  1
  O  O34  1  0.55575408  0.31161276  0.67703227  1
  O  O35  1  0.51102578  0.83015134  0.59381254  1
  O  O36  1  0.48897422  0.16984866  0.40618746  1
  O  O37  1  0.64812764  0.69745861  0.72821603  1
  O  O38  1  0.05804011  0.43385728  0.32096896  1
  O  O39  1  0.94195989  0.56614272  0.67903104  1
  O  O40  1  0.88294329  0.93171213  0.05140968  1
  O  O41  1  0.44424592  0.68838724  0.32296773  1
  O  O42  1  0.86998132  0.93608662  0.41047862  1
  O  O43  1  0.05575408  0.18838724  0.17703227  1
  O  O44  1  0.23482517  0.44646146  0.70381854  1
  O  O45  1  0.00128999  0.30004196  0.55489427  1
  O  O46  1  0.76517483  0.55353854  0.29618146  1
  O  O47  1  0.94424592  0.81161276  0.82296773  1
