# generated using pymatgen
data_Li4FeP2O9
_symmetry_space_group_name_H-M   'P 1'
_cell_length_a   6.78820922
_cell_length_b   7.97283998
_cell_length_c   7.10971112
_cell_angle_alpha   89.31580945
_cell_angle_beta   90.00000000
_cell_angle_gamma   64.80449166
_symmetry_Int_Tables_number   1
_chemical_formula_structural   Li4FeP2O9
_chemical_formula_sum   'Li8 Fe2 P4 O18'
_cell_volume   348.14807518
_cell_formula_units_Z   2
loop_
 _symmetry_equiv_pos_site_id
 _symmetry_equiv_pos_as_xyz
  1  'x, y, z'
loop_
 _atom_site_type_symbol
 _atom_site_label
 _atom_site_symmetry_multiplicity
 _atom_site_fract_x
 _atom_site_fract_y
 _atom_site_fract_z
 _atom_site_occupancy
  Li  Li0  1  0.24593138  0.00000000  -0.00000000  1
  Li  Li1  1  0.10390969  0.79218062  0.23563467  1
  Li  Li2  1  0.37076178  0.25847745  0.29599121  1
  Li  Li3  1  0.75406862  0.00000000  -0.00000000  1
  Li  Li4  1  0.89609031  0.20781938  0.76436533  1
  Li  Li5  1  0.62923822  0.74152255  0.70400879  1
  Li  Li6  1  -0.00000000  0.50000000  0.50000000  1
  Li  Li7  1  0.50000000  0.50000000  0.50000000  1
  Fe  Fe8  1  0.50000000  0.50000000  -0.00000000  1
  Fe  Fe9  1  -0.00000000  0.50000000  -0.00000000  1
  P  P10  1  0.12362184  0.75275532  0.70621252  1
  P  P11  1  0.60175159  0.79649681  0.24582453  1
  P  P12  1  0.87637816  0.24724468  0.29378748  1
  P  P13  1  0.39824841  0.20350319  0.75417547  1
  O  O14  1  0.76342215  0.47315470  0.89715690  1
  O  O15  1  0.01166814  0.35976736  0.23669673  1
  O  O16  1  0.96907103  0.06185695  0.19083185  1
  O  O17  1  0.98833186  0.64023264  0.76330327  1
  O  O18  1  0.12705755  0.74588390  0.49228345  1
  O  O19  1  0.50402778  0.99194443  0.76172123  1
  O  O20  1  0.03092897  0.93814305  0.80916815  1
  O  O21  1  0.23657785  0.52684530  0.10284310  1
  O  O22  1  0.43916297  0.74191146  0.12954824  1
  O  O23  1  0.56083703  0.25808854  0.87045176  1
  O  O24  1  0.65288768  0.69422364  0.43632324  1
  O  O25  1  0.34711232  0.30577636  0.56367676  1
  O  O26  1  0.87294245  0.25411610  0.50771655  1
  O  O27  1  0.62856450  0.35976736  0.23669673  1
  O  O28  1  0.37143550  0.64023264  0.76330327  1
  O  O29  1  0.18107443  0.25808854  0.87045176  1
  O  O30  1  0.49597222  0.00805557  0.23827877  1
  O  O31  1  0.81892557  0.74191146  0.12954824  1
