# generated using pymatgen
data_BaYb2NiO5
_symmetry_space_group_name_H-M   'P 1'
_cell_length_a   5.64831852
_cell_length_b   7.02993951
_cell_length_c   12.13034951
_cell_angle_alpha   90.00000000
_cell_angle_beta   90.00000000
_cell_angle_gamma   90.00000000
_symmetry_Int_Tables_number   1
_chemical_formula_structural   BaYb2NiO5
_chemical_formula_sum   'Ba4 Yb8 Ni4 O20'
_cell_volume   481.66388234
_cell_formula_units_Z   4
loop_
 _symmetry_equiv_pos_site_id
 _symmetry_equiv_pos_as_xyz
  1  'x, y, z'
loop_
 _atom_site_type_symbol
 _atom_site_label
 _atom_site_symmetry_multiplicity
 _atom_site_fract_x
 _atom_site_fract_y
 _atom_site_fract_z
 _atom_site_occupancy
  O  O0  1  0.24999900  0.44181764  0.60293002  1
  O  O1  1  0.75000000  0.55818236  0.39706998  1
  O  O2  1  0.75000000  0.94181864  0.89706998  1
  O  O3  1  0.24999900  0.05818136  0.10293002  1
  O  O4  1  0.01623199  0.84482367  0.26539450  1
  O  O5  1  0.51623199  0.15517833  0.73460550  1
  O  O6  1  0.98376801  0.34482267  0.23460550  1
  O  O7  1  0.48376701  0.65517733  0.76539450  1
  O  O8  1  0.98376801  0.15517833  0.73460550  1
  O  O9  1  0.48376701  0.84482367  0.26539450  1
  O  O10  1  0.01623199  0.65517733  0.76539450  1
  O  O11  1  0.51623199  0.34482267  0.23460550  1
  O  O12  1  0.47827971  0.68202164  0.06570255  1
  O  O13  1  0.97827871  0.31797836  0.93429745  1
  O  O14  1  0.52171929  0.18202064  0.43429745  1
  O  O15  1  0.02172029  0.81797936  0.56570255  1
  O  O16  1  0.97827871  0.18202064  0.43429745  1
  O  O17  1  0.47827971  0.81797936  0.56570255  1
  O  O18  1  0.52171929  0.31797836  0.93429745  1
  O  O19  1  0.02172029  0.68202164  0.06570255  1
  Ni  Ni20  1  0.24999900  0.80048011  0.15511904  1
  Ni  Ni21  1  0.75000000  0.19951989  0.84487996  1
  Ni  Ni22  1  0.75000000  0.30048111  0.34487996  1
  Ni  Ni23  1  0.24999900  0.69951889  0.65511904  1
  Ba  Ba24  1  0.75000000  0.06796883  0.10369601  1
  Ba  Ba25  1  0.75000000  0.43203117  0.60369601  1
  Ba  Ba26  1  0.24999900  0.56796883  0.39630399  1
  Ba  Ba27  1  0.24999900  0.93203117  0.89630399  1
  Yb  Yb28  1  0.24999900  0.39247863  0.07550119  1
  Yb  Yb29  1  0.75000000  0.61429349  0.20396270  1
  Yb  Yb30  1  0.75000000  0.88570551  0.70396270  1
  Yb  Yb31  1  0.24999900  0.11429449  0.29603730  1
  Yb  Yb32  1  0.75000000  0.60752137  0.92449881  1
  Yb  Yb33  1  0.75000000  0.89247863  0.42449881  1
  Yb  Yb34  1  0.24999900  0.10752137  0.57550119  1
  Yb  Yb35  1  0.24999900  0.38570551  0.79603730  1
