# generated using pymatgen
data_Cr2(PO4)3
_symmetry_space_group_name_H-M   'P 1'
_cell_length_a   8.35921983
_cell_length_b   8.36272059
_cell_length_c   8.68514383
_cell_angle_alpha   118.04619268
_cell_angle_beta   89.95867721
_cell_angle_gamma   60.16493381
_symmetry_Int_Tables_number   1
_chemical_formula_structural   Cr2(PO4)3
_chemical_formula_sum   'Cr4 P6 O24'
_cell_volume   442.45564914
_cell_formula_units_Z   2
loop_
 _symmetry_equiv_pos_site_id
 _symmetry_equiv_pos_as_xyz
  1  'x, y, z'
loop_
 _atom_site_type_symbol
 _atom_site_label
 _atom_site_symmetry_multiplicity
 _atom_site_fract_x
 _atom_site_fract_y
 _atom_site_fract_z
 _atom_site_occupancy
  Cr  Cr0  1  0.35247458  0.78213010  0.92141569  1
  Cr  Cr1  1  0.14678470  0.21289981  0.56528178  1
  Cr  Cr2  1  0.64752542  0.21786990  0.07858431  1
  Cr  Cr3  1  0.85321530  0.78710019  0.43471822  1
  P  P4  1  0.25271694  0.28018813  0.25141074  1
  P  P5  1  0.74728306  0.71981187  0.74858926  1
  P  P6  1  0.03035355  0.00549670  0.75346798  1
  P  P7  1  0.46883106  0.28277729  0.74263247  1
  P  P8  1  0.53116894  0.71722271  0.25736753  1
  P  P9  1  0.96964645  0.99450330  0.24653202  1
  O  O10  1  0.28729788  0.23055382  0.40448537  1
  O  O11  1  0.28840042  0.07825005  0.07397280  1
  O  O12  1  0.01030446  0.16603428  0.70218841  1
  O  O13  1  0.60080015  0.66998388  0.77854417  1
  O  O14  1  0.98905359  0.84170542  0.61381372  1
  O  O15  1  0.04637290  0.47655433  0.30473944  1
  O  O16  1  0.29886624  0.25393770  0.72927363  1
  O  O17  1  0.35466122  0.89880033  0.43026579  1
  O  O18  1  0.01094641  0.15829458  0.38618628  1
  O  O19  1  0.51932552  0.29498347  0.91566267  1
  O  O20  1  0.95362710  0.52344567  0.69526056  1
  O  O21  1  0.88621033  0.14189887  0.94633077  1
  O  O22  1  0.71270212  0.76944618  0.59551463  1
  O  O23  1  0.98969554  0.83396572  0.29781159  1
  O  O24  1  0.64533878  0.10119967  0.56973421  1
  O  O25  1  0.71159958  0.92174995  0.92602720  1
  O  O26  1  0.60002718  0.49965337  0.24162842  1
  O  O27  1  0.23709211  0.86989343  0.75885450  1
  O  O28  1  0.39919985  0.33001612  0.22145583  1
  O  O29  1  0.76290789  0.13010657  0.24114550  1
  O  O30  1  0.48067448  0.70501653  0.08433733  1
  O  O31  1  0.70113376  0.74606230  0.27072637  1
  O  O32  1  0.39997282  0.50034663  0.75837158  1
  O  O33  1  0.11378967  0.85810113  0.05366923  1
