# generated using pymatgen
data_U(MoO4)2
_symmetry_space_group_name_H-M   'P 1'
_cell_length_a   4.14283575
_cell_length_b   7.45515043
_cell_length_c   20.36956204
_cell_angle_alpha   90.00000000
_cell_angle_beta   90.00000000
_cell_angle_gamma   90.00000000
_symmetry_Int_Tables_number   1
_chemical_formula_structural   U(MoO4)2
_chemical_formula_sum   'U4 Mo8 O32'
_cell_volume   629.12336944
_cell_formula_units_Z   4
loop_
 _symmetry_equiv_pos_site_id
 _symmetry_equiv_pos_as_xyz
  1  'x, y, z'
loop_
 _atom_site_type_symbol
 _atom_site_label
 _atom_site_symmetry_multiplicity
 _atom_site_fract_x
 _atom_site_fract_y
 _atom_site_fract_z
 _atom_site_occupancy
  U  U0  1  0.00000000  0.75000000  0.01259529  1
  U  U1  1  0.00000000  0.75000000  0.48740471  1
  U  U2  1  0.00000000  0.25000000  0.98740471  1
  U  U3  1  0.00000000  0.25000000  0.51259529  1
  Mo  Mo4  1  0.91214378  0.50140351  0.83951341  1
  Mo  Mo5  1  0.91214378  0.99859649  0.66048659  1
  Mo  Mo6  1  0.08785622  0.50140351  0.66048659  1
  Mo  Mo7  1  0.08785622  0.99859649  0.83951341  1
  Mo  Mo8  1  0.08785622  0.49859649  0.16048659  1
  Mo  Mo9  1  0.08785622  0.00140351  0.33951341  1
  Mo  Mo10  1  0.91214378  0.49859649  0.33951341  1
  Mo  Mo11  1  0.91214378  0.00140351  0.16048659  1
  O  O12  1  0.00000000  0.75000000  0.37113095  1
  O  O13  1  0.00000000  0.75000000  0.12886905  1
  O  O14  1  0.00000000  0.25000000  0.62886905  1
  O  O15  1  0.00000000  0.25000000  0.87113095  1
  O  O16  1  0.00000000  0.56369676  0.25000000  1
  O  O17  1  0.00000000  0.93630324  0.25000000  1
  O  O18  1  0.00000000  0.43630324  0.75000000  1
  O  O19  1  0.00000000  0.06369676  0.75000000  1
  O  O20  1  0.50761240  0.50038466  0.65909717  1
  O  O21  1  0.50761240  0.99961534  0.84090283  1
  O  O22  1  0.49238760  0.50038466  0.84090283  1
  O  O23  1  0.49238760  0.99961534  0.65909717  1
  O  O24  1  0.49238760  0.49961534  0.34090283  1
  O  O25  1  0.49238760  0.00038466  0.15909717  1
  O  O26  1  0.50761240  0.49961534  0.15909717  1
  O  O27  1  0.50761240  0.00038466  0.34090283  1
  O  O28  1  0.00000000  0.75000000  0.67416359  1
  O  O29  1  0.00000000  0.75000000  0.82583641  1
  O  O30  1  0.00000000  0.25000000  0.32583641  1
  O  O31  1  0.00000000  0.25000000  0.17416359  1
  O  O32  1  0.50000000  0.75000000  0.48572001  1
  O  O33  1  0.50000000  0.75000000  0.01427999  1
  O  O34  1  0.50000000  0.25000000  0.51427999  1
  O  O35  1  0.50000000  0.25000000  0.98572001  1
  O  O36  1  0.99170134  0.96000762  0.56158776  1
  O  O37  1  0.99170134  0.53999238  0.93841224  1
  O  O38  1  0.00829866  0.96000762  0.93841224  1
  O  O39  1  0.00829866  0.53999238  0.56158776  1
  O  O40  1  0.00829866  0.03999238  0.43841224  1
  O  O41  1  0.00829866  0.46000762  0.06158776  1
  O  O42  1  0.99170134  0.03999238  0.06158776  1
  O  O43  1  0.99170134  0.46000762  0.43841224  1
