# generated using pymatgen
data_VPO5
_symmetry_space_group_name_H-M   'P 1'
_cell_length_a   5.18614064
_cell_length_b   10.11193463
_cell_length_c   7.36793875
_cell_angle_alpha   70.28422274
_cell_angle_beta   69.39043286
_cell_angle_gamma   75.14803882
_symmetry_Int_Tables_number   1
_chemical_formula_structural   VPO5
_chemical_formula_sum   'V4 P4 O20'
_cell_volume   336.28344626
_cell_formula_units_Z   4
loop_
 _symmetry_equiv_pos_site_id
 _symmetry_equiv_pos_as_xyz
  1  'x, y, z'
loop_
 _atom_site_type_symbol
 _atom_site_label
 _atom_site_symmetry_multiplicity
 _atom_site_fract_x
 _atom_site_fract_y
 _atom_site_fract_z
 _atom_site_occupancy
  O  O0  1  0.28629265  0.07406606  0.30879139  1
  O  O1  1  0.24091988  0.40363815  0.19513807  1
  O  O2  1  0.05472038  0.84690681  0.39922028  1
  O  O3  1  0.28065024  0.84114775  0.01915237  1
  O  O4  1  0.28559525  0.59834182  0.32051934  1
  O  O5  1  0.29548323  0.09833579  0.82053325  1
  O  O6  1  0.35898816  0.34115076  0.51918765  1
  O  O7  1  0.19917555  0.34687575  0.89924361  1
  O  O8  1  0.75908112  0.09636185  0.30486193  1
  O  O9  1  0.16890944  0.92590267  0.69128091  1
  O  O10  1  0.71370835  0.42593394  0.19120961  1
  O  O11  1  0.33986109  0.59629826  0.80503863  1
  O  O12  1  0.80082345  0.15312425  0.60075739  1
  O  O13  1  0.64101084  0.15884924  0.98081335  1
  O  O14  1  0.83109056  0.57409833  0.80871909  1
  O  O15  1  0.71440575  0.90165718  0.17948066  1
  O  O16  1  0.71934976  0.65885325  0.48084763  1
  O  O17  1  0.94528062  0.65309219  0.10077972  1
  O  O18  1  0.66013991  0.90370074  0.69496037  1
  O  O19  1  0.70451777  0.40166421  0.67946675  1
  P  P20  1  0.60108524  0.05722982  0.19311115  1
  P  P21  1  0.39891576  0.44277118  0.30688885  1
  P  P22  1  0.35128767  0.94277364  0.80684522  1
  P  P23  1  0.64871333  0.55722736  0.69315478  1
  V  V24  1  0.03305898  0.49998176  0.00003660  1
  V  V25  1  0.00000000  0.75000000  0.25000000  1
  V  V26  1  0.50000000  0.24999900  0.75000000  1
  V  V27  1  0.96694202  0.00001824  0.49996340  1
