# generated using pymatgen
data_Cr2(PO4)3
_symmetry_space_group_name_H-M   'P 1'
_cell_length_a   8.57350307
_cell_length_b   12.01558754
_cell_length_c   8.58508861
_cell_angle_alpha   90.00000000
_cell_angle_beta   90.00000000
_cell_angle_gamma   90.00000000
_symmetry_Int_Tables_number   1
_chemical_formula_structural   Cr2(PO4)3
_chemical_formula_sum   'Cr8 P12 O48'
_cell_volume   884.39871236
_cell_formula_units_Z   4
loop_
 _symmetry_equiv_pos_site_id
 _symmetry_equiv_pos_as_xyz
  1  'x, y, z'
loop_
 _atom_site_type_symbol
 _atom_site_label
 _atom_site_symmetry_multiplicity
 _atom_site_fract_x
 _atom_site_fract_y
 _atom_site_fract_z
 _atom_site_occupancy
  Cr  Cr0  1  0.24859341  0.11795077  0.46561395  1
  Cr  Cr1  1  0.24859341  0.88204923  0.03438605  1
  Cr  Cr2  1  0.25140659  0.38204923  0.96561395  1
  Cr  Cr3  1  0.25140659  0.61795077  0.53438605  1
  Cr  Cr4  1  0.74859341  0.38204923  0.46561395  1
  Cr  Cr5  1  0.74859341  0.61795077  0.03438605  1
  Cr  Cr6  1  0.75140659  0.11795077  0.96561395  1
  Cr  Cr7  1  0.75140659  0.88204923  0.53438605  1
  O  O8  1  0.06429378  0.42185997  0.85214879  1
  O  O9  1  0.06429378  0.57814003  0.64785121  1
  O  O10  1  0.07190342  0.15666846  0.59370267  1
  O  O11  1  0.07190342  0.84333154  0.90629733  1
  O  O12  1  0.14168306  0.42516664  0.15303934  1
  O  O13  1  0.14168306  0.57483336  0.34696066  1
  O  O14  1  0.14781703  0.17266260  0.27969611  1
  O  O15  1  0.14781703  0.82733740  0.22030389  1
  O  O16  1  0.16295666  0.02945831  0.06215270  1
  O  O17  1  0.16295666  0.97054169  0.43784730  1
  O  O18  1  0.17651746  0.23045309  0.99472090  1
  O  O19  1  0.17651746  0.76954691  0.50527910  1
  O  O20  1  0.32348254  0.26954691  0.49472090  1
  O  O21  1  0.32348254  0.73045309  0.00527910  1
  O  O22  1  0.33704334  0.47054169  0.56215270  1
  O  O23  1  0.33704334  0.52945831  0.93784730  1
  O  O24  1  0.35218297  0.32733740  0.77969611  1
  O  O25  1  0.35218297  0.67266260  0.72030389  1
  O  O26  1  0.35831694  0.07483336  0.65303934  1
  O  O27  1  0.35831694  0.92516664  0.84696066  1
  O  O28  1  0.42809658  0.34333154  0.09370267  1
  O  O29  1  0.42809658  0.65666846  0.40629733  1
  O  O30  1  0.43570622  0.07814003  0.35214879  1
  O  O31  1  0.43570622  0.92185997  0.14785121  1
  O  O32  1  0.56429378  0.07814003  0.85214879  1
  O  O33  1  0.56429378  0.92185997  0.64785121  1
  O  O34  1  0.57190342  0.34333154  0.59370267  1
  O  O35  1  0.57190342  0.65666846  0.90629733  1
  O  O36  1  0.64168306  0.07483336  0.15303934  1
  O  O37  1  0.64168306  0.92516664  0.34696066  1
  O  O38  1  0.64781703  0.32733740  0.27969611  1
  O  O39  1  0.64781703  0.67266260  0.22030389  1
  O  O40  1  0.66295666  0.47054169  0.06215270  1
  O  O41  1  0.66295666  0.52945831  0.43784730  1
  O  O42  1  0.67651746  0.26954691  0.99472090  1
  O  O43  1  0.67651746  0.73045309  0.50527910  1
  O  O44  1  0.82348254  0.23045309  0.49472090  1
  O  O45  1  0.82348254  0.76954691  0.00527910  1
  O  O46  1  0.83704334  0.02945831  0.56215270  1
  O  O47  1  0.83704334  0.97054169  0.93784730  1
  O  O48  1  0.85218297  0.17266260  0.77969611  1
  O  O49  1  0.85218297  0.82733740  0.72030389  1
  O  O50  1  0.85831694  0.42516664  0.65303934  1
  O  O51  1  0.85831694  0.57483336  0.84696066  1
  O  O52  1  0.92809658  0.15666846  0.09370267  1
  O  O53  1  0.92809658  0.84333154  0.40629733  1
  O  O54  1  0.93570622  0.42185997  0.35214879  1
  O  O55  1  0.93570622  0.57814003  0.14785121  1
  P  P56  1  0.03334057  0.50000000  0.25000000  1
  P  P57  1  0.10725854  0.14504508  0.10944290  1
  P  P58  1  0.10725854  0.85495492  0.39055710  1
  P  P59  1  0.39274146  0.35495492  0.60944290  1
  P  P60  1  0.39274146  0.64504508  0.89055710  1
  P  P61  1  0.46665943  0.00000000  0.75000000  1
  P  P62  1  0.53334057  0.00000000  0.25000000  1
  P  P63  1  0.60725854  0.35495492  0.10944290  1
  P  P64  1  0.60725854  0.64504508  0.39055710  1
  P  P65  1  0.89274146  0.14504508  0.60944290  1
  P  P66  1  0.89274146  0.85495492  0.89055710  1
  P  P67  1  0.96665943  0.50000000  0.75000000  1
