# generated using pymatgen
data_U2CoO6
_symmetry_space_group_name_H-M   'P 1'
_cell_length_a   9.13682075
_cell_length_b   9.13682127
_cell_length_c   5.05472975
_cell_angle_alpha   90.00000000
_cell_angle_beta   90.00000000
_cell_angle_gamma   120.00000192
_symmetry_Int_Tables_number   1
_chemical_formula_structural   U2CoO6
_chemical_formula_sum   'U6 Co3 O18'
_cell_volume   365.44228577
_cell_formula_units_Z   3
loop_
 _symmetry_equiv_pos_site_id
 _symmetry_equiv_pos_as_xyz
  1  'x, y, z'
loop_
 _atom_site_type_symbol
 _atom_site_label
 _atom_site_symmetry_multiplicity
 _atom_site_fract_x
 _atom_site_fract_y
 _atom_site_fract_z
 _atom_site_occupancy
  Co  Co0  1  0.00000000  0.00000000  0.00000000  1
  Co  Co1  1  0.33333300  0.66666700  0.50328321  1
  Co  Co2  1  0.66666700  0.33333300  0.49671679  1
  U  U3  1  0.65111704  0.00000000  0.00000000  1
  U  U4  1  1.00000000  0.65111704  0.00000000  1
  U  U5  1  0.34888296  0.34888296  0.00000000  1
  U  U6  1  0.32079429  0.00000000  0.50000000  1
  U  U7  1  1.00000000  0.32079429  0.50000000  1
  U  U8  1  0.67920571  0.67920571  0.50000000  1
  O  O9  1  0.10659302  0.88192436  0.77437618  1
  O  O10  1  0.11807564  0.22466866  0.77437618  1
  O  O11  1  0.77533134  0.89340698  0.77437618  1
  O  O12  1  0.22466866  0.11807564  0.22562382  1
  O  O13  1  0.89340698  0.77533134  0.22562382  1
  O  O14  1  0.88192436  0.10659302  0.22562382  1
  O  O15  1  0.45368868  0.56043527  0.74076719  1
  O  O16  1  0.43956473  0.89325341  0.74076719  1
  O  O17  1  0.10674659  0.54631132  0.74076719  1
  O  O18  1  0.89325341  0.43956473  0.25923281  1
  O  O19  1  0.54631132  0.10674659  0.25923281  1
  O  O20  1  0.56043527  0.45368868  0.25923281  1
  O  O21  1  0.21687513  0.77864594  0.26841915  1
  O  O22  1  0.22135406  0.43822919  0.26841915  1
  O  O23  1  0.56177081  0.78312487  0.26841915  1
  O  O24  1  0.43822919  0.22135406  0.73158085  1
  O  O25  1  0.78312487  0.56177081  0.73158085  1
  O  O26  1  0.77864594  0.21687513  0.73158085  1
