# generated using pymatgen
data_Eu3BrO4
_symmetry_space_group_name_H-M   'P 1'
_cell_length_a   4.17905723
_cell_length_b   6.48227072
_cell_length_c   11.91130498
_cell_angle_alpha   90.00000000
_cell_angle_beta   90.00000000
_cell_angle_gamma   108.80480983
_symmetry_Int_Tables_number   1
_chemical_formula_structural   Eu3BrO4
_chemical_formula_sum   'Eu6 Br2 O8'
_cell_volume   305.45097408
_cell_formula_units_Z   2
loop_
 _symmetry_equiv_pos_site_id
 _symmetry_equiv_pos_as_xyz
  1  'x, y, z'
loop_
 _atom_site_type_symbol
 _atom_site_label
 _atom_site_symmetry_multiplicity
 _atom_site_fract_x
 _atom_site_fract_y
 _atom_site_fract_z
 _atom_site_occupancy
  Eu  Eu0  1  0.17881907  0.35763813  0.40062556  1
  Eu  Eu1  1  0.82118093  0.64236187  0.59937444  1
  Eu  Eu2  1  0.82118093  0.64236187  0.90062556  1
  Eu  Eu3  1  0.17881907  0.35763813  0.09937444  1
  Eu  Eu4  1  0.12093859  0.24187718  0.75000000  1
  Eu  Eu5  1  0.87906141  0.75812282  0.25000000  1
  O  O6  1  0.69583140  0.39166280  0.75000000  1
  O  O7  1  0.30416860  0.60833720  0.25000000  1
  O  O8  1  0.93279272  0.86558545  0.75000000  1
  O  O9  1  0.06720728  0.13441455  0.25000000  1
  Br  Br10  1  0.50000000  0.00000000  0.00000000  1
  Br  Br11  1  0.50000000  0.00000000  0.50000000  1
  O  O12  1  0.23367196  0.46734393  0.91238586  1
  O  O13  1  0.76632804  0.53265607  0.08761414  1
  O  O14  1  0.76632804  0.53265607  0.41238586  1
  O  O15  1  0.23367196  0.46734393  0.58761414  1
