# generated using pymatgen
data_LiMnP2O7
_symmetry_space_group_name_H-M   'P 1'
_cell_length_a   8.78471133
_cell_length_b   4.97799037
_cell_length_c   8.09275193
_cell_angle_alpha   72.08553926
_cell_angle_beta   70.42996975
_cell_angle_gamma   89.99037043
_symmetry_Int_Tables_number   1
_chemical_formula_structural   LiMnP2O7
_chemical_formula_sum   'Li2 Mn2 P4 O14'
_cell_volume   315.19186598
_cell_formula_units_Z   2
loop_
 _symmetry_equiv_pos_site_id
 _symmetry_equiv_pos_as_xyz
  1  'x, y, z'
loop_
 _atom_site_type_symbol
 _atom_site_label
 _atom_site_symmetry_multiplicity
 _atom_site_fract_x
 _atom_site_fract_y
 _atom_site_fract_z
 _atom_site_occupancy
  Li  Li0  1  0.54159403  0.87111803  0.09873677  1
  Li  Li1  1  0.04162453  0.52991810  0.09869724  1
  O  O2  1  0.84901988  0.60042415  0.69226215  1
  O  O3  1  0.14717376  0.76472824  0.85512033  1
  O  O4  1  0.92791641  0.73240679  0.31396500  1
  O  O5  1  0.87488927  0.23486947  0.15111659  1
  O  O6  1  0.64621950  0.82485558  0.30721129  1
  O  O7  1  0.06051060  0.22795020  0.68769991  1
  O  O8  1  0.75893301  0.03252824  0.50127830  1
  O  O9  1  0.64705441  0.88038495  0.85503375  1
  O  O10  1  0.42796498  0.45355660  0.31394167  1
  O  O11  1  0.34905162  0.20745545  0.69228021  1
  O  O12  1  0.37489662  0.11387228  0.15118406  1
  O  O13  1  0.25903193  0.96620562  0.50135155  1
  O  O14  1  0.14623058  0.36785051  0.30727969  1
  O  O15  1  0.56048960  0.58446979  0.68764023  1
  P  P16  1  0.19756631  0.03699970  0.70046795  1
  P  P17  1  0.30738089  0.23123927  0.30478162  1
  P  P18  1  0.80734097  0.96395484  0.30472955  1
  P  P19  1  0.69749125  0.76267162  0.70041866  1
  Mn  Mn20  1  0.99303089  0.47851504  0.50528015  1
  Mn  Mn21  1  0.49309998  0.51613555  0.50523032  1
