# generated using pymatgen
data_AuCS2Cl3
_symmetry_space_group_name_H-M   'P 1'
_cell_length_a   9.43306941
_cell_length_b   9.43306962
_cell_length_c   11.61999019
_cell_angle_alpha   65.70167189
_cell_angle_beta   65.70167129
_cell_angle_gamma   69.19375661
_symmetry_Int_Tables_number   1
_chemical_formula_structural   AuCS2Cl3
_chemical_formula_sum   'Au4 C4 S8 Cl12'
_cell_volume   837.12215080
_cell_formula_units_Z   4
loop_
 _symmetry_equiv_pos_site_id
 _symmetry_equiv_pos_as_xyz
  1  'x, y, z'
loop_
 _atom_site_type_symbol
 _atom_site_label
 _atom_site_symmetry_multiplicity
 _atom_site_fract_x
 _atom_site_fract_y
 _atom_site_fract_z
 _atom_site_occupancy
  Au  Au0  1  0.95411638  0.70882874  0.53839764  1
  Au  Au1  1  0.04588362  0.29117126  0.46160236  1
  Au  Au2  1  0.70882874  0.95411638  0.03839764  1
  Au  Au3  1  0.29117126  0.04588362  0.96160236  1
  C  C4  1  0.24810134  0.70153317  0.54909369  1
  C  C5  1  0.75189866  0.29846683  0.45090631  1
  C  C6  1  0.29846683  0.75189866  0.95090631  1
  C  C7  1  0.70153317  0.24810134  0.04909369  1
  S  S8  1  0.86308016  0.43254742  0.33997106  1
  S  S9  1  0.43254742  0.86308016  0.83997106  1
  S  S10  1  0.16068140  0.83301317  0.06894960  1
  S  S11  1  0.16698683  0.83931860  0.43105040  1
  S  S12  1  0.13691984  0.56745258  0.66002894  1
  S  S13  1  0.56745258  0.13691984  0.16002894  1
  S  S14  1  0.83301317  0.16068140  0.56894960  1
  S  S15  1  0.83931860  0.16698683  0.93105040  1
  Cl  Cl16  1  0.23307410  0.44993845  0.33126980  1
  Cl  Cl17  1  0.30212687  0.57517997  0.94546623  1
  Cl  Cl18  1  0.55006155  0.76692590  0.16873020  1
  Cl  Cl19  1  0.19600405  0.12361113  0.60456395  1
  Cl  Cl20  1  0.76692590  0.55006155  0.66873020  1
  Cl  Cl21  1  0.57517997  0.30212687  0.44546623  1
  Cl  Cl22  1  0.87638887  0.80399595  0.89543605  1
  Cl  Cl23  1  0.42482003  0.69787313  0.55453377  1
  Cl  Cl24  1  0.44993845  0.23307410  0.83126980  1
  Cl  Cl25  1  0.12361113  0.19600405  0.10456395  1
  Cl  Cl26  1  0.80399595  0.87638887  0.39543605  1
  Cl  Cl27  1  0.69787313  0.42482003  0.05453377  1
