# generated using pymatgen
data_Lu2O3
_symmetry_space_group_name_H-M   'P 1'
_cell_length_a   3.39182560
_cell_length_b   7.09097110
_cell_length_c   8.41996611
_cell_angle_alpha   100.16283597
_cell_angle_beta   90.00000000
_cell_angle_gamma   103.83726904
_symmetry_Int_Tables_number   1
_chemical_formula_structural   Lu2O3
_chemical_formula_sum   'Lu6 O9'
_cell_volume   193.36044233
_cell_formula_units_Z   3
loop_
 _symmetry_equiv_pos_site_id
 _symmetry_equiv_pos_as_xyz
  1  'x, y, z'
loop_
 _atom_site_type_symbol
 _atom_site_label
 _atom_site_symmetry_multiplicity
 _atom_site_fract_x
 _atom_site_fract_y
 _atom_site_fract_z
 _atom_site_occupancy
  Lu  Lu0  1  0.36479874  0.72959749  0.51235137  1
  Lu  Lu1  1  0.69175713  0.38351425  0.13715889  1
  Lu  Lu2  1  0.96820302  0.93640604  0.18539890  1
  Lu  Lu3  1  0.63520126  0.27040251  0.48764863  1
  Lu  Lu4  1  0.03179698  0.06359396  0.81460110  1
  Lu  Lu5  1  0.30824287  0.61648575  0.86284111  1
  O  O6  1  0.79257727  0.58515455  0.37765198  1
  O  O7  1  0.87275879  0.74551759  0.71909970  1
  O  O8  1  0.82575410  0.65150819  0.03176170  1
  O  O9  1  0.53040684  0.06081367  0.65755203  1
  O  O10  1  0.17424590  0.34849181  0.96823830  1
  O  O11  1  0.12724121  0.25448241  0.28090030  1
  O  O12  1  0.20742273  0.41484545  0.62234802  1
  O  O13  1  0.50000000  0.00000000  0.00000000  1
  O  O14  1  0.46959316  0.93918633  0.34244797  1
