# generated using pymatgen
data_SrMgF4
_symmetry_space_group_name_H-M   'P 1'
_cell_length_a   7.84083057
_cell_length_b   8.15628376
_cell_length_c   16.83228531
_cell_angle_alpha   90.00000000
_cell_angle_beta   90.00000000
_cell_angle_gamma   105.09107799
_symmetry_Int_Tables_number   1
_chemical_formula_structural   SrMgF4
_chemical_formula_sum   'Sr12 Mg12 F48'
_cell_volume   1039.33532606
_cell_formula_units_Z   12
loop_
 _symmetry_equiv_pos_site_id
 _symmetry_equiv_pos_as_xyz
  1  'x, y, z'
loop_
 _atom_site_type_symbol
 _atom_site_label
 _atom_site_symmetry_multiplicity
 _atom_site_fract_x
 _atom_site_fract_y
 _atom_site_fract_z
 _atom_site_occupancy
  Sr  Sr0  1  0.84219513  0.83564227  0.08177855  1
  Sr  Sr1  1  0.15780487  0.16435773  0.58177855  1
  Sr  Sr2  1  0.83956227  0.83454681  0.75000000  1
  Sr  Sr3  1  0.16115418  0.66550660  0.91523195  1
  Sr  Sr4  1  0.84662550  0.33685121  0.75000000  1
  Sr  Sr5  1  0.83884582  0.33449340  0.41523195  1
  Sr  Sr6  1  0.16043773  0.16545319  0.25000000  1
  Sr  Sr7  1  0.16115418  0.66550660  0.58476805  1
  Sr  Sr8  1  0.84219513  0.83564227  0.41822145  1
  Sr  Sr9  1  0.83884582  0.33449340  0.08476805  1
  Sr  Sr10  1  0.15337450  0.66314879  0.25000000  1
  Sr  Sr11  1  0.15780487  0.16435773  0.91822145  1
  Mg  Mg12  1  0.67421452  0.04331326  0.25000000  1
  Mg  Mg13  1  0.67731992  0.54429221  0.91720032  1
  Mg  Mg14  1  0.67552021  0.04402434  0.58328920  1
  Mg  Mg15  1  0.32447979  0.95597566  0.08328920  1
  Mg  Mg16  1  0.32958212  0.45741917  0.75000000  1
  Mg  Mg17  1  0.67041788  0.54258083  0.25000000  1
  Mg  Mg18  1  0.32268008  0.45570779  0.41720032  1
  Mg  Mg19  1  0.32447979  0.95597566  0.41671080  1
  Mg  Mg20  1  0.32268008  0.45570779  0.08279968  1
  Mg  Mg21  1  0.67552021  0.04402434  0.91671080  1
  Mg  Mg22  1  0.67731992  0.54429221  0.58279968  1
  Mg  Mg23  1  0.32578548  0.95668674  0.75000000  1
  F  F24  1  0.12875194  0.40946995  0.49970327  1
  F  F25  1  0.29947506  0.69988798  0.41525551  1
  F  F26  1  0.50627943  0.50964936  0.66748200  1
  F  F27  1  0.30800575  0.20221159  0.75000000  1
  F  F28  1  0.12540647  0.40652574  0.33466398  1
  F  F29  1  0.87124806  0.59053005  0.99970327  1
  F  F30  1  0.12875194  0.40946995  0.00029673  1
  F  F31  1  0.87114692  0.09292852  0.83418605  1
  F  F32  1  0.29250012  0.19796434  0.41928032  1
  F  F33  1  0.69199425  0.79778841  0.25000000  1
  F  F34  1  0.49937810  0.00736708  0.16651486  1
  F  F35  1  0.70749988  0.80203566  0.91928032  1
  F  F36  1  0.50062190  0.99263292  0.66651486  1
  F  F37  1  0.87459353  0.59347426  0.66533602  1
  F  F38  1  0.70052494  0.30011202  0.58474449  1
  F  F39  1  0.12977830  0.90988054  0.83229216  1
  F  F40  1  0.87120192  0.09507964  0.50066078  1
  F  F41  1  0.49372057  0.49035064  0.33251800  1
  F  F42  1  0.12885308  0.90707148  0.16581395  1
  F  F43  1  0.12885308  0.90707148  0.33418605  1
  F  F44  1  0.13369156  0.40605021  0.83243007  1
  F  F45  1  0.86630844  0.59394979  0.16756993  1
  F  F46  1  0.70052494  0.30011202  0.91525551  1
  F  F47  1  0.70677889  0.30174642  0.25000000  1
  F  F48  1  0.87022170  0.09011946  0.16770784  1
  F  F49  1  0.50000000  0.50000000  -0.00000000  1
  F  F50  1  0.87459353  0.59347426  0.83466398  1
  F  F51  1  0.50062190  0.99263292  0.83348514  1
  F  F52  1  0.86630844  0.59394979  0.33243007  1
  F  F53  1  0.70749988  0.80203566  0.58071968  1
  F  F54  1  0.12977830  0.90988054  0.66770784  1
  F  F55  1  0.13369156  0.40605021  0.66756993  1
  F  F56  1  0.87022170  0.09011946  0.33229216  1
  F  F57  1  0.12879808  0.90492036  0.49933922  1
  F  F58  1  0.87120192  0.09507964  0.99933922  1
  F  F59  1  0.29947506  0.69988798  0.08474449  1
  F  F60  1  0.29250012  0.19796434  0.08071968  1
  F  F61  1  0.12879808  0.90492036  0.00066078  1
  F  F62  1  0.49937810  0.00736708  0.33348514  1
  F  F63  1  0.50000000  0.50000000  0.50000000  1
  F  F64  1  0.50627943  0.50964936  0.83251800  1
  F  F65  1  0.12540647  0.40652574  0.16533602  1
  F  F66  1  0.49372057  0.49035064  0.16748200  1
  F  F67  1  0.87114692  0.09292852  0.66581395  1
  F  F68  1  0.29322111  0.69825358  0.75000000  1
  F  F69  1  0.50000000  -0.00000000  0.50000000  1
  F  F70  1  0.87124806  0.59053005  0.50029673  1
  F  F71  1  0.50000000  -0.00000000  -0.00000000  1
