# generated using pymatgen
data_Al2(WO4)3
_symmetry_space_group_name_H-M   'P 1'
_cell_length_a   9.22166884
_cell_length_b   9.31193042
_cell_length_c   12.89973159
_cell_angle_alpha   90.00000000
_cell_angle_beta   89.96799650
_cell_angle_gamma   90.00000000
_symmetry_Int_Tables_number   1
_chemical_formula_structural   Al2(WO4)3
_chemical_formula_sum   'Al8 W12 O48'
_cell_volume   1107.71962565
_cell_formula_units_Z   4
loop_
 _symmetry_equiv_pos_site_id
 _symmetry_equiv_pos_as_xyz
  1  'x, y, z'
loop_
 _atom_site_type_symbol
 _atom_site_label
 _atom_site_symmetry_multiplicity
 _atom_site_fract_x
 _atom_site_fract_y
 _atom_site_fract_z
 _atom_site_occupancy
  Al  Al0  1  0.74939229  0.46636197  0.88162485  1
  Al  Al1  1  0.75060771  0.96636197  0.61837515  1
  Al  Al2  1  0.25060771  0.53363803  0.11837515  1
  Al  Al3  1  0.24939229  0.03363803  0.38162485  1
  Al  Al4  1  0.25007406  0.46830786  0.61812040  1
  Al  Al5  1  0.24992594  0.96830786  0.88187960  1
  Al  Al6  1  0.74992594  0.53169214  0.38187960  1
  Al  Al7  1  0.75007406  0.03169214  0.11812040  1
  W  W8  1  0.97474427  0.25001723  0.50032690  1
  W  W9  1  0.52525573  0.75001723  0.99967310  1
  W  W10  1  0.02525573  0.74998277  0.49967310  1
  W  W11  1  0.47474427  0.24998277  0.00032690  1
  W  W12  1  0.89321662  0.11660028  0.85526585  1
  W  W13  1  0.60678338  0.61660028  0.64473415  1
  W  W14  1  0.10678338  0.88339972  0.14473415  1
  W  W15  1  0.39321662  0.38339972  0.35526585  1
  W  W16  1  0.39398633  0.11731181  0.64428218  1
  W  W17  1  0.10601367  0.61731181  0.85571782  1
  W  W18  1  0.60601267  0.88268819  0.35571782  1
  W  W19  1  0.89398733  0.38268819  0.14428218  1
  O  O20  1  0.86642481  0.11958124  0.56907223  1
  O  O21  1  0.63357519  0.61958124  0.93092777  1
  O  O22  1  0.13357519  0.88041876  0.43092777  1
  O  O23  1  0.36642481  0.38041876  0.06907223  1
  O  O24  1  0.85826363  0.37443671  0.43299816  1
  O  O25  1  0.64173637  0.87443671  0.06700184  1
  O  O26  1  0.14173637  0.62556329  0.56700184  1
  O  O27  1  0.35826363  0.12556329  0.93299816  1
  O  O28  1  0.08940062  0.16225572  0.40545373  1
  O  O29  1  0.41059938  0.66225572  0.09454627  1
  O  O30  1  0.91059938  0.83774428  0.59454627  1
  O  O31  1  0.58940062  0.33774428  0.90545373  1
  O  O32  1  0.08741359  0.34457712  0.59292769  1
  O  O33  1  0.41258641  0.84457712  0.90707231  1
  O  O34  1  0.91258641  0.65542288  0.40707231  1
  O  O35  1  0.58741359  0.15542288  0.09292769  1
  O  O36  1  0.86031922  0.30643044  0.83448492  1
  O  O37  1  0.63968078  0.80643044  0.66551508  1
  O  O38  1  0.13968078  0.69356956  0.16551508  1
  O  O39  1  0.36031922  0.19356956  0.33448492  1
  O  O40  1  0.08712677  0.08881700  0.86028821  1
  O  O41  1  0.41287323  0.58881700  0.63971179  1
  O  O42  1  0.91287323  0.91118300  0.13971179  1
  O  O43  1  0.58712677  0.41118300  0.36028821  1
  O  O44  1  0.81491929  0.06682665  0.97833162  1
  O  O45  1  0.68508071  0.56682665  0.52166838  1
  O  O46  1  0.18508071  0.93317335  0.02166838  1
  O  O47  1  0.31491929  0.43317335  0.47833162  1
  O  O48  1  0.81329047  0.00750866  0.75411552  1
  O  O49  1  0.68670953  0.50750866  0.74588448  1
  O  O50  1  0.18670953  0.99249134  0.24588448  1
  O  O51  1  0.31329047  0.49249134  0.25411552  1
  O  O52  1  0.58809541  0.08950830  0.63704847  1
  O  O53  1  0.91190459  0.58950830  0.86295153  1
  O  O54  1  0.41190459  0.91049170  0.36295153  1
  O  O55  1  0.08809541  0.41049170  0.13704847  1
  O  O56  1  0.31603104  0.00941764  0.74683586  1
  O  O57  1  0.18396896  0.50941764  0.75316414  1
  O  O58  1  0.68396896  0.99058236  0.25316414  1
  O  O59  1  0.81603104  0.49058236  0.24683586  1
  O  O60  1  0.31217383  0.06724919  0.52237337  1
  O  O61  1  0.18782617  0.56724919  0.97762663  1
  O  O62  1  0.68782617  0.93275081  0.47762663  1
  O  O63  1  0.81217383  0.43275081  0.02237337  1
  O  O64  1  0.35919373  0.30673266  0.66516255  1
  O  O65  1  0.14080627  0.80673266  0.83483745  1
  O  O66  1  0.64080627  0.69326734  0.33483745  1
  O  O67  1  0.85919373  0.19326734  0.16516255  1
