# generated using pymatgen
data_Tl(CoS)2
_symmetry_space_group_name_H-M   'P 1'
_cell_length_a   3.73238059
_cell_length_b   3.73238058
_cell_length_c   7.06651462
_cell_angle_alpha   105.31284075
_cell_angle_beta   105.31284073
_cell_angle_gamma   89.99999999
_symmetry_Int_Tables_number   1
_chemical_formula_structural   Tl(CoS)2
_chemical_formula_sum   'Tl1 Co2 S2'
_cell_volume   91.31792162
_cell_formula_units_Z   1
loop_
 _symmetry_equiv_pos_site_id
 _symmetry_equiv_pos_as_xyz
  1  'x, y, z'
loop_
 _atom_site_type_symbol
 _atom_site_label
 _atom_site_symmetry_multiplicity
 _atom_site_fract_x
 _atom_site_fract_y
 _atom_site_fract_z
 _atom_site_occupancy
  S  S0  1  0.65940166  0.65940166  0.31880333  1
  S  S1  1  0.34059834  0.34059834  0.68119667  1
  Co  Co2  1  0.25000000  0.75000000  0.50000000  1
  Co  Co3  1  0.75000000  0.25000000  0.50000000  1
  Tl  Tl4  1  0.00000000  0.00000000  0.00000000  1
