# generated using pymatgen
data_SbS2NCl6
_symmetry_space_group_name_H-M   'P 1'
_cell_length_a   7.27515060
_cell_length_b   7.35138846
_cell_length_c   7.35138834
_cell_angle_alpha   67.70341090
_cell_angle_beta   60.34246415
_cell_angle_gamma   60.34246079
_symmetry_Int_Tables_number   1
_chemical_formula_structural   SbS2NCl6
_chemical_formula_sum   'Sb1 S2 N1 Cl6'
_cell_volume   292.15435135
_cell_formula_units_Z   1
loop_
 _symmetry_equiv_pos_site_id
 _symmetry_equiv_pos_as_xyz
  1  'x, y, z'
loop_
 _atom_site_type_symbol
 _atom_site_label
 _atom_site_symmetry_multiplicity
 _atom_site_fract_x
 _atom_site_fract_y
 _atom_site_fract_z
 _atom_site_occupancy
  Sb  Sb0  1  0.00000000  0.00000000  0.00000000  1
  S  S1  1  0.50000000  0.68272366  0.31727634  1
  S  S2  1  0.50000000  0.31727634  0.68272366  1
  N  N3  1  0.50000000  0.50000000  0.50000000  1
  Cl  Cl4  1  0.93625644  0.82684147  0.82684147  1
  Cl  Cl5  1  1.00000000  0.70644036  0.29355964  1
  Cl  Cl6  1  0.58993938  0.17315853  0.17315853  1
  Cl  Cl7  1  0.00000000  0.29355964  0.70644036  1
  Cl  Cl8  1  0.06374356  0.17315853  0.17315853  1
  Cl  Cl9  1  0.41006062  0.82684147  0.82684147  1
