# generated using pymatgen
data_Na6CoS4
_symmetry_space_group_name_H-M   'P 1'
_cell_length_a   8.91390121
_cell_length_b   8.91390120
_cell_length_c   6.91809092
_cell_angle_alpha   90.00000000
_cell_angle_beta   90.00000000
_cell_angle_gamma   119.99999999
_symmetry_Int_Tables_number   1
_chemical_formula_structural   Na6CoS4
_chemical_formula_sum   'Na12 Co2 S8'
_cell_volume   476.04995677
_cell_formula_units_Z   2
loop_
 _symmetry_equiv_pos_site_id
 _symmetry_equiv_pos_as_xyz
  1  'x, y, z'
loop_
 _atom_site_type_symbol
 _atom_site_label
 _atom_site_symmetry_multiplicity
 _atom_site_fract_x
 _atom_site_fract_y
 _atom_site_fract_z
 _atom_site_occupancy
  Na  Na0  1  0.14725713  0.85274287  0.53976065  1
  Na  Na1  1  0.29451427  0.14725713  0.03976065  1
  Na  Na2  1  0.85274287  0.70548573  0.03976065  1
  Na  Na3  1  0.14725713  0.29451427  0.53976065  1
  Na  Na4  1  0.70548573  0.85274287  0.53976065  1
  Na  Na5  1  0.85274287  0.14725713  0.03976065  1
  Na  Na6  1  0.53098486  0.46901514  0.36738159  1
  Na  Na7  1  0.06196973  0.53098486  0.86738159  1
  Na  Na8  1  0.46901514  0.93803027  0.86738159  1
  Na  Na9  1  0.53098486  0.06196973  0.36738159  1
  Na  Na10  1  0.93803027  0.46901514  0.36738159  1
  Na  Na11  1  0.46901514  0.53098486  0.86738159  1
  S  S12  1  0.80968642  0.19031358  0.64602590  1
  S  S13  1  0.61937284  0.80968642  0.14602590  1
  S  S14  1  0.33333333  0.66666667  0.58770518  1
  S  S15  1  0.66666667  0.33333333  0.08770518  1
  S  S16  1  0.19031358  0.80968642  0.14602590  1
  S  S17  1  0.38062716  0.19031358  0.64602590  1
  S  S18  1  0.80968642  0.61937284  0.64602590  1
  S  S19  1  0.19031358  0.38062716  0.14602590  1
  Co  Co20  1  0.66666667  0.33333333  0.75249043  1
  Co  Co21  1  0.33333333  0.66666667  0.25249043  1
