# generated using pymatgen
data_CaSO4
_symmetry_space_group_name_H-M   'P 1'
_cell_length_a   5.39580243
_cell_length_b   6.88518963
_cell_length_c   7.90395762
_cell_angle_alpha   90.00000000
_cell_angle_beta   90.00000000
_cell_angle_gamma   90.00000000
_symmetry_Int_Tables_number   1
_chemical_formula_structural   CaSO4
_chemical_formula_sum   'Ca4 S4 O16'
_cell_volume   293.64090123
_cell_formula_units_Z   4
loop_
 _symmetry_equiv_pos_site_id
 _symmetry_equiv_pos_as_xyz
  1  'x, y, z'
loop_
 _atom_site_type_symbol
 _atom_site_label
 _atom_site_symmetry_multiplicity
 _atom_site_fract_x
 _atom_site_fract_y
 _atom_site_fract_z
 _atom_site_occupancy
  Ca  Ca0  1  0.25000000  0.17576202  0.19056637  1
  Ca  Ca1  1  0.75000000  0.82423798  0.80943363  1
  Ca  Ca2  1  0.25000000  0.32423798  0.69056637  1
  Ca  Ca3  1  0.75000000  0.67576202  0.30943363  1
  S  S4  1  0.75000000  0.32454018  0.94687038  1
  S  S5  1  0.25000000  0.82454018  0.55312962  1
  S  S6  1  0.75000000  0.17545982  0.44687038  1
  S  S7  1  0.25000000  0.67545982  0.05312962  1
  O  O8  1  0.25000000  0.92479271  0.38882113  1
  O  O9  1  0.75000000  0.07520729  0.61117887  1
  O  O10  1  0.47683008  0.80146696  0.06487558  1
  O  O11  1  0.25000000  0.53711055  0.19752269  1
  O  O12  1  0.75000000  0.42479271  0.11117887  1
  O  O13  1  0.02316992  0.80146696  0.06487558  1
  O  O14  1  0.25000000  0.57520729  0.88882113  1
  O  O15  1  0.97683008  0.30146696  0.43512442  1
  O  O16  1  0.97683008  0.19853304  0.93512442  1
  O  O17  1  0.75000000  0.03711055  0.30247731  1
  O  O18  1  0.02316992  0.69853304  0.56487558  1
  O  O19  1  0.75000000  0.46288945  0.80247731  1
  O  O20  1  0.52316992  0.19853304  0.93512442  1
  O  O21  1  0.25000000  0.96288945  0.69752269  1
  O  O22  1  0.47683008  0.69853304  0.56487558  1
  O  O23  1  0.52316992  0.30146696  0.43512442  1
