# generated using pymatgen
data_AsC3N3F8
_symmetry_space_group_name_H-M   'P 1'
_cell_length_a   8.40816080
_cell_length_b   8.40737675
_cell_length_c   13.59392798
_cell_angle_alpha   101.16050631
_cell_angle_beta   105.89840824
_cell_angle_gamma   104.13724505
_symmetry_Int_Tables_number   1
_chemical_formula_structural   AsC3N3F8
_chemical_formula_sum   'As4 C12 N12 F32'
_cell_volume   860.55244417
_cell_formula_units_Z   4
loop_
 _symmetry_equiv_pos_site_id
 _symmetry_equiv_pos_as_xyz
  1  'x, y, z'
loop_
 _atom_site_type_symbol
 _atom_site_label
 _atom_site_symmetry_multiplicity
 _atom_site_fract_x
 _atom_site_fract_y
 _atom_site_fract_z
 _atom_site_occupancy
  As  As0  1  0.13324213  0.26505065  0.94327988  1
  As  As1  1  0.82192676  0.19033000  0.55667883  1
  As  As2  1  0.17807324  0.80967000  0.44332117  1
  As  As3  1  0.86675787  0.73494935  0.05672012  1
  C  C4  1  0.23408616  0.80201246  0.02832654  1
  C  C5  1  0.01895218  0.72292354  0.86906519  1
  C  C6  1  0.29464438  0.79018105  0.87964644  1
  C  C7  1  0.76591384  0.19798754  0.97167346  1
  C  C8  1  0.70535562  0.20981895  0.12035356  1
  C  C9  1  0.58944900  0.58518253  0.37969854  1
  C  C10  1  0.27363360  0.20543693  0.47163345  1
  C  C11  1  0.35385122  0.14968494  0.63094223  1
  C  C12  1  0.98104782  0.27707646  0.13093481  1
  C  C13  1  0.64614878  0.85031506  0.36905777  1
  C  C14  1  0.41055100  0.41481747  0.62030146  1
  C  C15  1  0.72636640  0.79456307  0.52836655  1
  N  N16  1  0.27721977  0.08396391  0.52400597  1
  N  N17  1  0.87039821  0.25972991  0.18295560  1
  N  N18  1  0.12960179  0.74027009  0.81704440  1
  N  N19  1  0.57678971  0.68757299  0.31706667  1
  N  N20  1  0.93976374  0.24671273  0.02399068  1
  N  N21  1  0.64382040  0.17837787  0.01532348  1
  N  N22  1  0.66303038  0.62874575  0.48472804  1
  N  N23  1  0.72278023  0.91603609  0.47599403  1
  N  N24  1  0.35617960  0.82162213  0.98467652  1
  N  N25  1  0.42321029  0.31242701  0.68293333  1
  N  N26  1  0.33696962  0.37125425  0.51527196  1
  N  N27  1  0.06023626  0.75328727  0.97600932  1
  F  F28  1  0.99212974  0.06755001  0.85537307  1
  F  F29  1  0.91874869  0.21142929  0.45866518  1
  F  F30  1  0.52062336  0.41976704  0.33150369  1
  F  F31  1  0.47937664  0.58023296  0.66849631  1
  F  F32  1  0.28481638  0.83335513  0.13221977  1
  F  F33  1  0.99370384  0.85053292  0.36806554  1
  F  F34  1  0.41181915  0.81086099  0.83143033  1
  F  F35  1  0.01717550  0.37419048  0.86802489  1
  F  F36  1  0.62634635  0.19979082  0.47179877  1
  F  F37  1  0.71229096  0.13710252  0.64456057  1
  F  F38  1  0.20106609  0.15222829  0.36775642  1
  F  F39  1  0.00787026  0.93244999  0.14462693  1
  F  F40  1  0.71518362  0.16664487  0.86778023  1
  F  F41  1  0.00629616  0.14946708  0.63193446  1
  F  F42  1  0.98282450  0.62580952  0.13197511  1
  F  F43  1  0.37365365  0.80020918  0.52820123  1
  F  F44  1  0.28770904  0.86289748  0.35543943  1
  F  F45  1  0.79893391  0.84777171  0.63224358  1
  F  F46  1  0.77240410  0.84565712  0.97184810  1
  F  F47  1  0.22759590  0.15434288  0.02815190  1
  F  F48  1  0.58818085  0.18913901  0.16856967  1
  F  F49  1  0.10078164  0.59278160  0.37885488  1
  F  F50  1  0.25234643  0.45990028  0.04132208  1
  F  F51  1  0.85270329  0.67163496  0.81258858  1
  F  F52  1  0.28567807  0.27794872  0.87884148  1
  F  F53  1  0.35910394  0.03994760  0.68743387  1
  F  F54  1  0.71432193  0.72205128  0.12115852  1
  F  F55  1  0.74765357  0.54009972  0.95867792  1
  F  F56  1  0.64089606  0.96005240  0.31256613  1
  F  F57  1  0.14729671  0.32836504  0.18741142  1
  F  F58  1  0.08125131  0.78857071  0.54133482  1
  F  F59  1  0.89921836  0.40721840  0.62114512  1
