# generated using pymatgen
data_K2Th(MoO4)3
_symmetry_space_group_name_H-M   'P 1'
_cell_length_a   5.53415840
_cell_length_b   11.13803824
_cell_length_c   11.13803820
_cell_angle_alpha   66.08127815
_cell_angle_beta   79.82364623
_cell_angle_gamma   79.82364468
_symmetry_Int_Tables_number   1
_chemical_formula_structural   K2Th(MoO4)3
_chemical_formula_sum   'K4 Th2 Mo6 O24'
_cell_volume   613.48831780
_cell_formula_units_Z   2
loop_
 _symmetry_equiv_pos_site_id
 _symmetry_equiv_pos_as_xyz
  1  'x, y, z'
loop_
 _atom_site_type_symbol
 _atom_site_label
 _atom_site_symmetry_multiplicity
 _atom_site_fract_x
 _atom_site_fract_y
 _atom_site_fract_z
 _atom_site_occupancy
  Th  Th0  1  0.25000000  0.86841780  0.13158220  1
  Th  Th1  1  0.75000000  0.13158220  0.86841780  1
  Mo  Mo2  1  0.25000000  0.59713731  0.40286269  1
  Mo  Mo3  1  0.75000000  0.40286269  0.59713731  1
  Mo  Mo4  1  0.87219423  0.74672049  0.95737629  1
  Mo  Mo5  1  0.62780577  0.04262371  0.25327951  1
  Mo  Mo6  1  0.12780577  0.25327951  0.04262371  1
  Mo  Mo7  1  0.37219423  0.95737629  0.74672049  1
  K  K8  1  0.50869785  0.56897013  0.80106123  1
  K  K9  1  0.99130215  0.19893877  0.43102987  1
  K  K10  1  0.49130215  0.43102987  0.19893877  1
  K  K11  1  0.00869785  0.80106123  0.56897013  1
  O  O12  1  0.63121253  0.88520676  0.97949416  1
  O  O13  1  0.86878747  0.02050584  0.11479324  1
  O  O14  1  0.36878747  0.11479324  0.02050584  1
  O  O15  1  0.13121253  0.97949416  0.88520676  1
  O  O16  1  0.13534187  0.45501155  0.40696381  1
  O  O17  1  0.36465813  0.59303619  0.54498845  1
  O  O18  1  0.86465813  0.54498845  0.59303619  1
  O  O19  1  0.63534187  0.40696381  0.45501155  1
  O  O20  1  0.08355877  0.77460041  0.81015039  1
  O  O21  1  0.41644123  0.18984961  0.22539959  1
  O  O22  1  0.91644123  0.22539959  0.18984961  1
  O  O23  1  0.58355877  0.81015039  0.77460041  1
  O  O24  1  0.75063630  0.59830237  -0.00011281  1
  O  O25  1  0.74936370  1.00011281  0.40169763  1
  O  O26  1  0.24936370  0.40169763  1.00011281  1
  O  O27  1  0.25063630  -0.00011281  0.59830237  1
  O  O28  1  0.46276912  0.66134214  0.24887099  1
  O  O29  1  0.03723088  0.75112901  0.33865786  1
  O  O30  1  0.53723088  0.33865786  0.75112901  1
  O  O31  1  0.96276912  0.24887099  0.66134214  1
  O  O32  1  0.92592432  0.28265064  0.91926591  1
  O  O33  1  0.57407568  0.08073409  0.71734936  1
  O  O34  1  0.07407568  0.71734936  0.08073409  1
  O  O35  1  0.42592432  0.91926591  0.28265064  1
