# generated using pymatgen
data_Cu2BH5O6
_symmetry_space_group_name_H-M   'P 1'
_cell_length_a   5.92000045
_cell_length_b   8.83074495
_cell_length_c   9.50155582
_cell_angle_alpha   90.00000000
_cell_angle_beta   90.00000000
_cell_angle_gamma   90.00000000
_symmetry_Int_Tables_number   1
_chemical_formula_structural   Cu2BH5O6
_chemical_formula_sum   'Cu8 B4 H20 O24'
_cell_volume   496.72246892
_cell_formula_units_Z   4
loop_
 _symmetry_equiv_pos_site_id
 _symmetry_equiv_pos_as_xyz
  1  'x, y, z'
loop_
 _atom_site_type_symbol
 _atom_site_label
 _atom_site_symmetry_multiplicity
 _atom_site_fract_x
 _atom_site_fract_y
 _atom_site_fract_z
 _atom_site_occupancy
  Cu  Cu0  1  0.99899362  0.42330383  0.24865496  1
  Cu  Cu1  1  0.00100638  0.92330383  0.25134504  1
  Cu  Cu2  1  0.49899362  0.57669617  0.75134504  1
  Cu  Cu3  1  0.50100638  0.07669617  0.74865496  1
  Cu  Cu4  1  0.49899362  0.92330383  0.25134504  1
  Cu  Cu5  1  0.50100638  0.42330383  0.24865496  1
  Cu  Cu6  1  0.99899362  0.07669617  0.74865496  1
  Cu  Cu7  1  0.00100638  0.57669617  0.75134504  1
  B  B8  1  0.25000000  0.16945694  0.00706800  1
  B  B9  1  0.75000000  0.83054306  0.99293200  1
  B  B10  1  0.25000000  0.33054306  0.50706800  1
  B  B11  1  0.75000000  0.66945694  0.49293200  1
  H  H12  1  0.92285864  0.17255120  0.01385778  1
  H  H13  1  0.75000000  0.01151140  0.45068393  1
  H  H14  1  0.42285864  0.67255120  0.48614222  1
  H  H15  1  0.42285864  0.82744880  0.98614222  1
  H  H16  1  0.75000000  0.21603341  0.34344237  1
  H  H17  1  0.75000000  0.28396659  0.84344237  1
  H  H18  1  0.57714136  0.17255120  0.01385778  1
  H  H19  1  0.25000000  0.38416264  0.84839888  1
  H  H20  1  0.25000000  0.11583736  0.34839888  1
  H  H21  1  0.75000000  0.48848860  0.95068393  1
  H  H22  1  0.25000000  0.71603341  0.15655763  1
  H  H23  1  0.75000000  0.88416264  0.65160112  1
  H  H24  1  0.57714136  0.32744880  0.51385778  1
  H  H25  1  0.25000000  0.98848860  0.54931607  1
  H  H26  1  0.92285864  0.32744880  0.51385778  1
  H  H27  1  0.25000000  0.78396659  0.65655763  1
  H  H28  1  0.07714136  0.82744880  0.98614222  1
  H  H29  1  0.75000000  0.61583736  0.15160112  1
  H  H30  1  0.25000000  0.51151140  0.04931607  1
  H  H31  1  0.07714136  0.67255120  0.48614222  1
  O  O32  1  0.25000000  0.52826008  0.15353771  1
  O  O33  1  0.25000000  0.33859982  0.36267605  1
  O  O34  1  0.75000000  0.17080331  0.86204332  1
  O  O35  1  0.25000000  1.00556317  0.36557811  1
  O  O36  1  0.05007481  0.17617795  0.08246529  1
  O  O37  1  0.75000000  0.50556317  0.13442189  1
  O  O38  1  0.25000000  0.16140018  0.86267605  1
  O  O39  1  0.94992519  0.67617795  0.41753471  1
  O  O40  1  0.05007481  0.32382205  0.58246529  1
  O  O41  1  0.55007481  0.67617795  0.41753471  1
  O  O42  1  0.75000000  0.47173992  0.84646229  1
  O  O43  1  0.44992519  0.17617795  0.08246529  1
  O  O44  1  0.94992519  0.82382205  0.91753471  1
  O  O45  1  0.25000000  0.67080331  0.63795668  1
  O  O46  1  0.75000000  -0.00556317  0.63442189  1
  O  O47  1  0.25000000  0.82919669  0.13795668  1
  O  O48  1  0.75000000  0.83859982  0.13732395  1
  O  O49  1  0.44992519  0.32382205  0.58246529  1
  O  O50  1  0.25000000  0.97173992  0.65353771  1
  O  O51  1  0.75000000  0.02826008  0.34646229  1
  O  O52  1  0.25000000  0.49443683  0.86557811  1
  O  O53  1  0.75000000  0.32919669  0.36204332  1
  O  O54  1  0.55007481  0.82382205  0.91753471  1
  O  O55  1  0.75000000  0.66140018  0.63732395  1
