# generated using pymatgen
data_Al2(WO4)3
_symmetry_space_group_name_H-M   'P 1'
_cell_length_a   9.22254174
_cell_length_b   9.31104364
_cell_length_c   12.89263915
_cell_angle_alpha   90.00000000
_cell_angle_beta   89.96425259
_cell_angle_gamma   90.00000000
_symmetry_Int_Tables_number   1
_chemical_formula_structural   Al2(WO4)3
_chemical_formula_sum   'Al8 W12 O48'
_cell_volume   1107.10990009
_cell_formula_units_Z   4
loop_
 _symmetry_equiv_pos_site_id
 _symmetry_equiv_pos_as_xyz
  1  'x, y, z'
loop_
 _atom_site_type_symbol
 _atom_site_label
 _atom_site_symmetry_multiplicity
 _atom_site_fract_x
 _atom_site_fract_y
 _atom_site_fract_z
 _atom_site_occupancy
  Al  Al0  1  0.00160123  0.46752133  0.13226411  1
  Al  Al1  1  0.49825895  0.46754465  0.86954850  1
  Al  Al2  1  0.50235432  0.53418699  0.36910710  1
  Al  Al3  1  0.99823313  0.53275390  0.63257107  1
  Al  Al4  1  0.50174105  0.96754465  0.13045150  1
  Al  Al5  1  0.00176687  0.03275390  0.36742893  1
  Al  Al6  1  0.49764568  0.03418699  0.63089290  1
  Al  Al7  1  0.99839877  0.96752133  0.86773589  1
  W  W8  1  0.14510575  0.38315919  0.39554705  1
  W  W9  1  0.64252789  0.38475953  0.60649272  1
  W  W10  1  0.85489425  0.88315919  0.60445295  1
  W  W11  1  0.22334789  0.25039554  0.75016520  1
  W  W12  1  0.64294254  0.11658910  0.89317653  1
  W  W13  1  0.14492966  0.11792921  0.10407185  1
  W  W14  1  0.77665211  0.75039554  0.24983480  1
  W  W15  1  0.85507034  0.61792921  0.89592815  1
  W  W16  1  0.35747211  0.88475953  0.39350728  1
  W  W17  1  0.27412178  0.75050565  0.75065626  1
  W  W18  1  0.72587822  0.25050565  0.24934374  1
  W  W19  1  0.35705746  0.61658910  0.10682347  1
  O  O20  1  0.33663628  0.34280766  0.84348655  1
  O  O21  1  0.56486736  0.49482579  0.50499020  1
  O  O22  1  0.43611826  0.93487696  0.27043386  1
  O  O23  1  0.43513264  0.99482579  0.49500980  1
  O  O24  1  0.15899686  0.83955315  0.84468247  1
  O  O25  1  0.10784186  0.37697526  0.68421334  1
  O  O26  1  0.39316743  0.80520721  0.08403921  1
  O  O27  1  0.56063937  0.06720275  0.77123617  1
  O  O28  1  0.83954237  0.15696719  0.34181673  1
  O  O29  1  0.38345858  0.87938001  0.68091463  1
  O  O30  1  0.56388174  0.43487696  0.72956614  1
  O  O31  1  0.16336367  0.91050959  0.38806268  1
  O  O32  1  0.33863002  0.08751845  0.10676677  1
  O  O33  1  0.88606100  0.62020039  0.18198873  1
  O  O34  1  0.06078470  0.01064845  0.00358947  1
  O  O35  1  0.93486172  0.99050041  0.50229450  1
  O  O36  1  0.43195961  0.50569632  0.00480209  1
  O  O37  1  0.66306050  0.66200834  0.34513942  1
  O  O38  1  0.88891478  0.69333592  0.58417930  1
  O  O39  1  0.60683257  0.30520721  0.91596079  1
  O  O40  1  0.06859659  0.06860921  0.22786895  1
  O  O41  1  0.84100314  0.33955315  0.15531753  1
  O  O42  1  0.83717831  0.09180391  0.88483647  1
  O  O43  1  0.89215814  0.87697526  0.31578666  1
  O  O44  1  0.66090533  0.91220513  0.61051840  1
  O  O45  1  0.88665100  0.80841243  0.91537864  1
  O  O46  1  0.16282169  0.59180391  0.11516353  1
  O  O47  1  0.39207049  0.69556000  0.41524185  1
  O  O48  1  0.93552629  0.93270715  0.72685227  1
  O  O49  1  0.11108522  0.19333592  0.41582070  1
  O  O50  1  0.56804039  0.00569632  0.99519791  1
  O  O51  1  0.83663633  0.41050959  0.61193732  1
  O  O52  1  0.11393900  0.12020039  0.81801127  1
  O  O53  1  0.93921530  0.51064845  0.99641053  1
  O  O54  1  0.93140341  0.56860921  0.77213105  1
  O  O55  1  0.16045763  0.65696719  0.65818327  1
  O  O56  1  0.43936063  0.56720275  0.22876383  1
  O  O57  1  0.11334900  0.30841243  0.08462136  1
  O  O58  1  0.66136998  0.58751845  0.89323323  1
  O  O59  1  0.06513828  0.49050041  0.49770550  1
  O  O60  1  0.61654142  0.37938001  0.31908537  1
  O  O61  1  0.06447371  0.43270715  0.27314773  1
  O  O62  1  0.33693950  0.16200834  0.65486058  1
  O  O63  1  0.33909467  0.41220513  0.38948160  1
  O  O64  1  0.61127586  0.12524322  0.18080880  1
  O  O65  1  0.38872414  0.62524322  0.81919120  1
  O  O66  1  0.60792951  0.19556000  0.58475815  1
  O  O67  1  0.66336372  0.84280766  0.15651345  1
