# generated using pymatgen
data_BaWO4
_symmetry_space_group_name_H-M   'P 1'
_cell_length_a   4.01427190
_cell_length_b   6.05210459
_cell_length_c   7.75974365
_cell_angle_alpha   90.00000000
_cell_angle_beta   104.99057698
_cell_angle_gamma   90.00000000
_symmetry_Int_Tables_number   1
_chemical_formula_structural   BaWO4
_chemical_formula_sum   'Ba2 W2 O8'
_cell_volume   182.10568098
_cell_formula_units_Z   2
loop_
 _symmetry_equiv_pos_site_id
 _symmetry_equiv_pos_as_xyz
  1  'x, y, z'
loop_
 _atom_site_type_symbol
 _atom_site_label
 _atom_site_symmetry_multiplicity
 _atom_site_fract_x
 _atom_site_fract_y
 _atom_site_fract_z
 _atom_site_occupancy
  Ba  Ba0  1  0.15188931  0.49105415  0.30377861  1
  Ba  Ba1  1  0.84811069  0.99105415  0.69622139  1
  W  W2  1  0.40956314  0.48927659  0.81912627  1
  W  W3  1  0.59043686  0.98927659  0.18087373  1
  O  O4  1  0.50052148  0.73819413  0.00104296  1
  O  O5  1  0.67763448  0.20723872  0.35526896  1
  O  O6  1  0.07949786  0.98843179  0.15899572  1
  O  O7  1  0.92050214  0.48843179  0.84100428  1
  O  O8  1  0.67867951  0.77350462  0.35735903  1
  O  O9  1  0.32132049  0.27350462  0.64264097  1
  O  O10  1  0.32236552  0.70723872  0.64473104  1
  O  O11  1  0.49947852  0.23819413  0.99895704  1
