# generated using pymatgen
data_Na4U(MoO4)4
_symmetry_space_group_name_H-M   'P 1'
_cell_length_a   10.09910592
_cell_length_b   10.09910555
_cell_length_c   10.09910529
_cell_angle_alpha   106.65707502
_cell_angle_beta   110.89635983
_cell_angle_gamma   110.89635262
_symmetry_Int_Tables_number   1
_chemical_formula_structural   Na4U(MoO4)4
_chemical_formula_sum   'Na8 U2 Mo8 O32'
_cell_volume   791.48966937
_cell_formula_units_Z   2
loop_
 _symmetry_equiv_pos_site_id
 _symmetry_equiv_pos_as_xyz
  1  'x, y, z'
loop_
 _atom_site_type_symbol
 _atom_site_label
 _atom_site_symmetry_multiplicity
 _atom_site_fract_x
 _atom_site_fract_y
 _atom_site_fract_z
 _atom_site_occupancy
  Na  Na0  1  0.41114051  0.68240429  0.03966829  1
  Na  Na1  1  0.08885949  0.12852778  0.27126378  1
  Na  Na2  1  0.91114051  0.87147222  0.72873622  1
  Na  Na3  1  0.64273600  0.46033171  0.37147222  1
  Na  Na4  1  0.14273600  0.77126378  0.18240429  1
  Na  Na5  1  0.85726400  0.22873622  0.81759571  1
  Na  Na6  1  0.35726400  0.53966829  0.62852778  1
  Na  Na7  1  0.58885949  0.31759571  0.96033171  1
  U  U8  1  0.75000000  0.12500000  0.37500000  1
  U  U9  1  0.25000000  0.87500000  0.62500000  1
  Mo  Mo10  1  0.83988684  0.78007784  0.29972263  1
  Mo  Mo11  1  0.98035521  0.44019000  0.28007784  1
  Mo  Mo12  1  0.51964479  0.79972263  0.45983579  1
  Mo  Mo13  1  0.33988684  0.04016421  0.05981000  1
  Mo  Mo14  1  0.48035521  0.20027737  0.54016421  1
  Mo  Mo15  1  0.01964479  0.55981000  0.71992216  1
  Mo  Mo16  1  0.66011316  0.95983579  0.94019000  1
  Mo  Mo17  1  0.16011316  0.21992216  0.70027737  1
  O  O18  1  0.87009377  0.35262088  0.06722595  1
  O  O19  1  0.80163668  0.08089442  0.15824414  1
  O  O20  1  0.69836332  0.85660846  0.27925774  1
  O  O21  1  0.37009377  0.30286882  0.51747289  1
  O  O22  1  0.99005155  0.85164335  0.51313702  1
  O  O23  1  0.83850733  0.36159180  0.35164335  1
  O  O24  1  0.63863634  0.29738117  0.74303930  1
  O  O25  1  0.50994845  0.02308447  0.86159180  1
  O  O26  1  0.62990623  0.69713118  0.48252711  1
  O  O27  1  0.12990623  0.64737912  0.93277405  1
  O  O28  1  0.28539593  0.43277405  0.80286882  1
  O  O29  1  0.36136366  0.70261883  0.25696070  1
  O  O30  1  0.21460407  0.01747289  0.14737912  1
  O  O31  1  0.00994845  0.14835665  0.48686298  1
  O  O32  1  0.55434188  0.75696070  0.89559704  1
  O  O33  1  0.44565812  0.24303930  0.10440296  1
  O  O34  1  0.78539593  0.98252711  0.85262088  1
  O  O35  1  0.42264928  0.77925774  0.58089442  1
  O  O36  1  0.86136366  0.60440296  0.65874483  1
  O  O37  1  0.05434188  0.15874483  0.79738117  1
  O  O38  1  0.16149267  0.63840820  0.64835665  1
  O  O39  1  0.66149267  0.01313702  0.52308447  1
  O  O40  1  0.33850733  0.98686298  0.47691553  1
  O  O41  1  0.30163668  0.14339154  0.72074226  1
  O  O42  1  0.57735072  0.22074226  0.41910558  1
  O  O43  1  0.94565812  0.84125517  0.20261883  1
  O  O44  1  0.49005155  0.97691553  0.13840820  1
  O  O45  1  0.13863634  0.39559704  0.34125517  1
  O  O46  1  0.07735072  0.65824414  0.35660846  1
  O  O47  1  0.71460407  0.56722595  0.19713118  1
  O  O48  1  0.19836332  0.91910558  0.84175586  1
  O  O49  1  0.92264928  0.34175586  0.64339154  1
