# generated using pymatgen
data_Cs3W2Cl9
_symmetry_space_group_name_H-M   'P 1'
_cell_length_a   7.55488946
_cell_length_b   7.55488985
_cell_length_c   18.21011236
_cell_angle_alpha   90.00000000
_cell_angle_beta   90.00000000
_cell_angle_gamma   119.99999828
_symmetry_Int_Tables_number   1
_chemical_formula_structural   Cs3W2Cl9
_chemical_formula_sum   'Cs6 W4 Cl18'
_cell_volume   900.11814393
_cell_formula_units_Z   2
loop_
 _symmetry_equiv_pos_site_id
 _symmetry_equiv_pos_as_xyz
  1  'x, y, z'
loop_
 _atom_site_type_symbol
 _atom_site_label
 _atom_site_symmetry_multiplicity
 _atom_site_fract_x
 _atom_site_fract_y
 _atom_site_fract_z
 _atom_site_occupancy
  Cs  Cs0  1  0.33333300  0.66666700  0.07229009  1
  Cs  Cs1  1  0.00000000  0.00000000  0.25000000  1
  Cs  Cs2  1  0.33333300  0.66666700  0.42770991  1
  Cs  Cs3  1  0.00000000  0.00000000  0.75000000  1
  Cs  Cs4  1  0.66666700  0.33333300  0.57229009  1
  Cs  Cs5  1  0.66666700  0.33333300  0.92770991  1
  W  W6  1  0.33333300  0.66666700  0.67366230  1
  W  W7  1  0.33333300  0.66666700  0.82633770  1
  W  W8  1  0.66666700  0.33333300  0.17366230  1
  W  W9  1  0.66666700  0.33333300  0.32633770  1
  Cl  Cl10  1  0.49195891  0.50804109  0.75000000  1
  Cl  Cl11  1  0.98391782  0.49195891  0.25000000  1
  Cl  Cl12  1  0.50804109  0.49195891  0.25000000  1
  Cl  Cl13  1  0.63620644  0.81810322  0.59785268  1
  Cl  Cl14  1  0.81810322  0.63620644  0.40214732  1
  Cl  Cl15  1  0.50804109  0.01608218  0.25000000  1
  Cl  Cl16  1  0.18189678  0.81810322  0.59785268  1
  Cl  Cl17  1  0.18189678  0.81810322  0.90214732  1
  Cl  Cl18  1  0.81810322  0.18189678  0.09785268  1
  Cl  Cl19  1  0.18189678  0.36379356  0.90214732  1
  Cl  Cl20  1  0.36379356  0.18189678  0.09785268  1
  Cl  Cl21  1  0.81810322  0.63620644  0.09785268  1
  Cl  Cl22  1  0.18189678  0.36379356  0.59785268  1
  Cl  Cl23  1  0.49195891  0.98391782  0.75000000  1
  Cl  Cl24  1  0.01608218  0.50804109  0.75000000  1
  Cl  Cl25  1  0.36379356  0.18189678  0.40214732  1
  Cl  Cl26  1  0.63620644  0.81810322  0.90214732  1
  Cl  Cl27  1  0.81810322  0.18189678  0.40214732  1
