# generated using pymatgen
data_PC2N3Cl4
_symmetry_space_group_name_H-M   'P 1'
_cell_length_a   7.57686880
_cell_length_b   7.60433765
_cell_length_c   9.07872539
_cell_angle_alpha   90.00000000
_cell_angle_beta   90.00000000
_cell_angle_gamma   119.88057913
_symmetry_Int_Tables_number   1
_chemical_formula_structural   PC2N3Cl4
_chemical_formula_sum   'P2 C4 N6 Cl8'
_cell_volume   453.55298423
_cell_formula_units_Z   2
loop_
 _symmetry_equiv_pos_site_id
 _symmetry_equiv_pos_as_xyz
  1  'x, y, z'
loop_
 _atom_site_type_symbol
 _atom_site_label
 _atom_site_symmetry_multiplicity
 _atom_site_fract_x
 _atom_site_fract_y
 _atom_site_fract_z
 _atom_site_occupancy
  P  P0  1  0.94214148  0.88428295  0.25000000  1
  P  P1  1  0.05785852  0.11571705  0.75000000  1
  C  C2  1  0.22536524  0.45073048  0.62452241  1
  C  C3  1  0.77463476  0.54926952  0.12452241  1
  C  C4  1  0.77463476  0.54926952  0.37547759  1
  C  C5  1  0.22536524  0.45073048  0.87547759  1
  N  N6  1  0.27908566  0.55817131  0.75000000  1
  N  N7  1  0.12653203  0.25306406  0.60138429  1
  N  N8  1  0.12653203  0.25306406  0.89861571  1
  N  N9  1  0.87346797  0.74693594  0.39861571  1
  N  N10  1  0.72091434  0.44182869  0.25000000  1
  N  N11  1  0.87346797  0.74693594  0.10138429  1
  Cl  Cl12  1  0.30009869  0.60019738  0.03353205  1
  Cl  Cl13  1  0.69990131  0.39980262  0.53353205  1
  Cl  Cl14  1  0.82748913  0.06939498  0.25000000  1
  Cl  Cl15  1  0.69990131  0.39980262  0.96646795  1
  Cl  Cl16  1  0.30009869  0.60019738  0.46646795  1
  Cl  Cl17  1  0.17251087  0.93060502  0.75000000  1
  Cl  Cl18  1  0.24190585  0.06939498  0.25000000  1
  Cl  Cl19  1  0.75809415  0.93060502  0.75000000  1
