# generated using pymatgen
data_SnH16C4(Br3N)2
_symmetry_space_group_name_H-M   'P 1'
_cell_length_a   7.74246793
_cell_length_b   7.77723559
_cell_length_c   15.13975953
_cell_angle_alpha   90.00000000
_cell_angle_beta   90.00000000
_cell_angle_gamma   90.00000000
_symmetry_Int_Tables_number   1
_chemical_formula_structural   SnH16C4(Br3N)2
_chemical_formula_sum   'Sn2 H32 C8 Br12 N4'
_cell_volume   911.64057679
_cell_formula_units_Z   2
loop_
 _symmetry_equiv_pos_site_id
 _symmetry_equiv_pos_as_xyz
  1  'x, y, z'
loop_
 _atom_site_type_symbol
 _atom_site_label
 _atom_site_symmetry_multiplicity
 _atom_site_fract_x
 _atom_site_fract_y
 _atom_site_fract_z
 _atom_site_occupancy
  Sn  Sn0  1  0.50000000  0.50000000  0.50000000  1
  Sn  Sn1  1  0.00000000  0.00000000  0.00000000  1
  H  H2  1  0.61552750  0.85442267  0.73906476  1
  H  H3  1  0.60632420  0.13843293  0.10047155  1
  H  H4  1  0.61552750  0.14557733  0.26093524  1
  H  H5  1  0.00000000  0.91903117  0.43203509  1
  H  H6  1  0.89367580  0.36156707  0.60047155  1
  H  H7  1  0.88400253  0.08136060  0.67054821  1
  H  H8  1  0.50000000  0.03707277  0.78187468  1
  H  H9  1  0.50000000  0.96292723  0.21812532  1
  H  H10  1  0.50000000  0.41903117  0.06796491  1
  H  H11  1  0.11599747  0.91863940  0.32945179  1
  H  H12  1  0.38400253  0.41863940  0.17054821  1
  H  H13  1  0.89367580  0.63843293  0.39952845  1
  H  H14  1  0.11552750  0.64557733  0.23906476  1
  H  H15  1  0.39367580  0.86156707  0.89952845  1
  H  H16  1  0.00000000  0.46292723  0.28187468  1
  H  H17  1  0.61599747  0.41863940  0.17054821  1
  H  H18  1  0.38447250  0.14557733  0.26093524  1
  H  H19  1  0.11599747  0.08136060  0.67054821  1
  H  H20  1  0.10632420  0.63843293  0.39952845  1
  H  H21  1  0.50000000  0.58096883  0.93203509  1
  H  H22  1  0.61599747  0.58136060  0.82945179  1
  H  H23  1  0.38447250  0.85442267  0.73906476  1
  H  H24  1  0.00000000  0.08096883  0.56796491  1
  H  H25  1  0.88447250  0.35442267  0.76093524  1
  H  H26  1  0.39367580  0.13843293  0.10047155  1
  H  H27  1  0.10632420  0.36156707  0.60047155  1
  H  H28  1  0.88400253  0.91863940  0.32945179  1
  H  H29  1  0.11552750  0.35442267  0.76093524  1
  H  H30  1  0.00000000  0.53707277  0.71812532  1
  H  H31  1  0.38400253  0.58136060  0.82945179  1
  H  H32  1  0.60632420  0.86156707  0.89952845  1
  H  H33  1  0.88447250  0.64557733  0.23906476  1
  C  C34  1  0.50000000  0.89711136  0.77455086  1
  C  C35  1  0.00000000  0.87370433  0.36368968  1
  C  C36  1  0.00000000  0.12629567  0.63631032  1
  C  C37  1  0.00000000  0.39711136  0.72544914  1
  C  C38  1  0.50000000  0.37370433  0.13631032  1
  C  C39  1  0.50000000  0.62629567  0.86368968  1
  C  C40  1  0.50000000  0.10288864  0.22544914  1
  C  C41  1  0.00000000  0.60288864  0.27455086  1
  Br  Br42  1  0.00000000  0.18327126  0.14789689  1
  Br  Br43  1  0.25302693  0.69947686  0.56593200  1
  Br  Br44  1  0.74697307  0.30052314  0.43406800  1
  Br  Br45  1  0.50000000  0.31672874  0.64789689  1
  Br  Br46  1  0.24697307  0.19947686  0.93406800  1
  Br  Br47  1  0.50000000  0.68327126  0.35210311  1
  Br  Br48  1  0.75302693  0.19947686  0.93406800  1
  Br  Br49  1  0.24697307  0.80052314  0.06593200  1
  Br  Br50  1  0.75302693  0.80052314  0.06593200  1
  Br  Br51  1  0.00000000  0.81672874  0.85210311  1
  Br  Br52  1  0.25302693  0.30052314  0.43406800  1
  Br  Br53  1  0.74697307  0.69947686  0.56593200  1
  N  N54  1  0.00000000  0.68187145  0.36435017  1
  N  N55  1  0.00000000  0.31812855  0.63564983  1
  N  N56  1  0.50000000  0.81812855  0.86435017  1
  N  N57  1  0.50000000  0.18187145  0.13564983  1
