# generated using pymatgen
data_La2AlNi9H2
_symmetry_space_group_name_H-M   'P 1'
_cell_length_a   5.05424275
_cell_length_b   5.03022943
_cell_length_c   8.11158421
_cell_angle_alpha   90.97779362
_cell_angle_beta   88.97292100
_cell_angle_gamma   118.63321949
_symmetry_Int_Tables_number   1
_chemical_formula_structural   La2AlNi9H2
_chemical_formula_sum   'La2 Al1 Ni9 H2'
_cell_volume   180.97069348
_cell_formula_units_Z   1
loop_
 _symmetry_equiv_pos_site_id
 _symmetry_equiv_pos_as_xyz
  1  'x, y, z'
loop_
 _atom_site_type_symbol
 _atom_site_label
 _atom_site_symmetry_multiplicity
 _atom_site_fract_x
 _atom_site_fract_y
 _atom_site_fract_z
 _atom_site_occupancy
  La  La0  1  0.00383593  0.99662776  0.00868210  1
  La  La1  1  0.99377265  0.00467403  0.48455269  1
  Al  Al2  1  0.50290802  0.49743405  0.75279083  1
  Ni  Ni3  1  0.67035860  0.33082530  -0.00000111  1
  Ni  Ni4  1  0.65878394  0.33620942  0.50070709  1
  Ni  Ni5  1  0.51514712  0.50886052  0.24864260  1
  Ni  Ni6  1  0.34257786  0.67260804  0.00079098  1
  Ni  Ni7  1  0.52119136  0.00793711  0.75417924  1
  Ni  Ni8  1  0.99276933  0.50656764  0.25029045  1
  Ni  Ni9  1  0.50149515  0.00344061  0.25002769  1
  Ni  Ni10  1  0.34660986  0.67035976  0.49927151  1
  Ni  Ni11  1  0.99705317  0.48713512  0.75320131  1
  H  H12  1  0.16109981  0.31204518  0.24832844  1
  H  H13  1  0.21549719  0.79487545  0.65483617  1
