# generated using pymatgen
data_H8C2I3N
_symmetry_space_group_name_H-M   'P 1'
_cell_length_a   6.59731125
_cell_length_b   10.10922065
_cell_length_c   14.95699817
_cell_angle_alpha   90.00000000
_cell_angle_beta   90.00000000
_cell_angle_gamma   90.00000000
_symmetry_Int_Tables_number   1
_chemical_formula_structural   H8C2I3N
_chemical_formula_sum   'H32 C8 I12 N4'
_cell_volume   997.53717676
_cell_formula_units_Z   4
loop_
 _symmetry_equiv_pos_site_id
 _symmetry_equiv_pos_as_xyz
  1  'x, y, z'
loop_
 _atom_site_type_symbol
 _atom_site_label
 _atom_site_symmetry_multiplicity
 _atom_site_fract_x
 _atom_site_fract_y
 _atom_site_fract_z
 _atom_site_occupancy
  H  H0  1  0.48366946  0.36546491  0.36328496  1
  H  H1  1  0.33507716  0.60949206  0.54841944  1
  H  H2  1  0.16492284  0.89050794  0.54841944  1
  H  H3  1  0.81727168  0.31981167  0.31281559  1
  H  H4  1  0.83507716  0.39050794  0.95158056  1
  H  H5  1  0.51633054  0.63453509  0.63671504  1
  H  H6  1  0.01633054  0.36546491  0.86328496  1
  H  H7  1  0.68272832  0.31981167  0.81281559  1
  H  H8  1  0.83507716  0.10949206  0.45158056  1
  H  H9  1  0.66492284  0.39050794  0.45158056  1
  H  H10  1  0.51400255  0.25750452  0.94967329  1
  H  H11  1  0.48599745  0.74249548  0.05032671  1
  H  H12  1  0.51400255  0.24249548  0.44967329  1
  H  H13  1  0.16492284  0.60949206  0.04841944  1
  H  H14  1  0.01400255  0.75750452  0.05032671  1
  H  H15  1  0.31727168  0.68018833  0.18718441  1
  H  H16  1  0.98366946  0.63453509  0.13671504  1
  H  H17  1  0.18272832  0.81981167  0.18718441  1
  H  H18  1  0.66492284  0.10949206  0.95158056  1
  H  H19  1  0.31727168  0.81981167  0.68718441  1
  H  H20  1  0.81727168  0.18018833  0.81281559  1
  H  H21  1  0.98366946  0.86546491  0.63671504  1
  H  H22  1  0.48366946  0.13453509  0.86328496  1
  H  H23  1  0.18272832  0.68018833  0.68718441  1
  H  H24  1  0.98599745  0.25750452  0.44967329  1
  H  H25  1  0.01633054  0.13453509  0.36328496  1
  H  H26  1  0.68272832  0.18018833  0.31281559  1
  H  H27  1  0.98599745  0.24249548  0.94967329  1
  H  H28  1  0.01400255  0.74249548  0.55032671  1
  H  H29  1  0.48599745  0.75750452  0.55032671  1
  H  H30  1  0.33507716  0.89050794  0.04841944  1
  H  H31  1  0.51633054  0.86546491  0.13671504  1
  C  C32  1  0.59085601  0.31708523  0.40875751  1
  C  C33  1  0.09085601  0.68291477  0.09124249  1
  C  C34  1  0.40914399  0.81708523  0.09124249  1
  C  C35  1  0.90914399  0.31708523  0.90875751  1
  C  C36  1  0.40914399  0.68291477  0.59124249  1
  C  C37  1  0.59085601  0.18291477  0.90875751  1
  C  C38  1  0.09085601  0.81708523  0.59124249  1
  C  C39  1  0.90914399  0.18291477  0.40875751  1
  I  I40  1  0.57918225  0.44685938  0.15063758  1
  I  I41  1  0.25000000  0.25000000  0.14672086  1
  I  I42  1  0.07918225  0.94685938  0.84936242  1
  I  I43  1  0.92081775  0.05314062  0.15063758  1
  I  I44  1  0.57918225  0.05314062  0.65063758  1
  I  I45  1  0.75000000  0.75000000  0.85327914  1
  I  I46  1  0.25000000  0.25000000  0.64672086  1
  I  I47  1  0.42081775  0.94685938  0.34936242  1
  I  I48  1  0.92081775  0.44685938  0.65063758  1
  I  I49  1  0.75000000  0.75000000  0.35327914  1
  I  I50  1  0.42081775  0.55314062  0.84936242  1
  I  I51  1  0.07918225  0.55314062  0.34936242  1
  N  N52  1  0.25000000  0.75000000  0.64587259  1
  N  N53  1  0.75000000  0.25000000  0.35412741  1
  N  N54  1  0.25000000  0.75000000  0.14587259  1
  N  N55  1  0.75000000  0.25000000  0.85412741  1
