# generated using pymatgen
data_ZnH16C4(Br2N)2
_symmetry_space_group_name_H-M   'P 1'
_cell_length_a   9.04537470
_cell_length_b   12.40624623
_cell_length_c   14.21892217
_cell_angle_alpha   90.00000000
_cell_angle_beta   89.93692578
_cell_angle_gamma   90.00000000
_symmetry_Int_Tables_number   1
_chemical_formula_structural   ZnH16C4(Br2N)2
_chemical_formula_sum   'Zn4 H64 C16 Br16 N8'
_cell_volume   1595.63433215
_cell_formula_units_Z   4
loop_
 _symmetry_equiv_pos_site_id
 _symmetry_equiv_pos_as_xyz
  1  'x, y, z'
loop_
 _atom_site_type_symbol
 _atom_site_label
 _atom_site_symmetry_multiplicity
 _atom_site_fract_x
 _atom_site_fract_y
 _atom_site_fract_z
 _atom_site_occupancy
  Zn  Zn0  1  0.32211489  0.70032983  0.41929368  1
  Zn  Zn1  1  0.67788511  0.29967017  0.58070632  1
  Zn  Zn2  1  0.82211489  0.79967017  0.91929368  1
  Zn  Zn3  1  0.17788511  0.20032983  0.08070632  1
  H  H4  1  0.36596652  0.80091722  0.07208561  1
  H  H5  1  0.45857785  0.50955962  0.75874770  1
  H  H6  1  0.07322893  0.18398495  0.36490892  1
  H  H7  1  0.04142215  0.00955962  0.74125230  1
  H  H8  1  0.57322893  0.31601505  0.86490892  1
  H  H9  1  0.90951333  0.59877956  0.31465974  1
  H  H10  1  0.79020244  0.92274369  0.28975378  1
  H  H11  1  0.78767202  0.45576977  0.81832564  1
  H  H12  1  0.66116398  0.57348460  0.36917181  1
  H  H13  1  0.63371660  0.78484853  0.54438897  1
  H  H14  1  0.59048667  0.09877956  0.18534026  1
  H  H15  1  0.22436560  0.52391539  0.05692864  1
  H  H16  1  0.86596652  0.69908278  0.57208561  1
  H  H17  1  0.83883602  0.07348460  0.13082819  1
  H  H18  1  0.13371660  0.71515147  0.04438897  1
  H  H19  1  0.61304380  0.32464648  0.98871069  1
  H  H20  1  0.86628340  0.28484853  0.95561103  1
  H  H21  1  0.59445531  0.02315318  0.07796280  1
  H  H22  1  0.21232798  0.54423023  0.18167436  1
  H  H23  1  0.40951333  0.90122044  0.81465974  1
  H  H24  1  0.11304380  0.17535352  0.48871069  1
  H  H25  1  0.69783885  0.56732183  0.19978390  1
  H  H26  1  0.09445531  0.47684682  0.57796280  1
  H  H27  1  0.94996353  0.44351823  0.89022899  1
  H  H28  1  0.44996353  0.05648177  0.39022899  1
  H  H29  1  0.30216115  0.43267817  0.80021610  1
  H  H30  1  0.83273204  0.27245747  0.83924732  1
  H  H31  1  0.93253313  0.45452069  0.31235957  1
  H  H32  1  0.81575023  0.93907426  0.12378521  1
  H  H33  1  0.72436460  0.97608461  0.55692864  1
  H  H34  1  0.92677107  0.81601505  0.63509108  1
  H  H35  1  0.36628340  0.21515147  0.45561103  1
  H  H36  1  0.63403348  0.19908278  0.92791439  1
  H  H37  1  0.88695620  0.82464648  0.51128931  1
  H  H38  1  0.70979756  0.42274369  0.21024622  1
  H  H39  1  0.68424977  0.43907426  0.37621479  1
  H  H40  1  0.20979756  0.07725631  0.71024622  1
  H  H41  1  0.55003647  0.94351823  0.60977101  1
  H  H42  1  0.33883602  0.42651540  0.63082819  1
  H  H43  1  0.90554469  0.52315318  0.42203720  1
  H  H44  1  0.27563540  0.02391539  0.44307136  1
  H  H45  1  0.56746687  0.95452069  0.18764043  1
  H  H46  1  0.13403348  0.30091722  0.42791439  1
  H  H47  1  0.95857785  0.99044038  0.25874770  1
  H  H48  1  0.33273204  0.22754253  0.33924732  1
  H  H49  1  0.28767202  0.04423023  0.31832564  1
  H  H50  1  0.71232798  0.95576977  0.68167436  1
  H  H51  1  0.18424977  0.06092574  0.87621479  1
  H  H52  1  0.80216115  0.06732183  0.30021610  1
  H  H53  1  0.31575023  0.56092574  0.62378521  1
  H  H54  1  0.16726796  0.72754253  0.16075268  1
  H  H55  1  0.40554469  0.97684682  0.92203720  1
  H  H56  1  0.43253313  0.04547931  0.81235957  1
  H  H57  1  0.66726796  0.77245747  0.66075268  1
  H  H58  1  0.29020244  0.57725631  0.78975378  1
  H  H59  1  0.16116398  0.92651540  0.86917181  1
  H  H60  1  0.09048667  0.40122044  0.68534026  1
  H  H61  1  0.19783885  0.93267817  0.69978390  1
  H  H62  1  0.06746687  0.54547931  0.68764043  1
  H  H63  1  0.54142215  0.49044038  0.24125230  1
  H  H64  1  0.77563540  0.47608461  0.94307136  1
  H  H65  1  0.42677107  0.68398495  0.13509108  1
  H  H66  1  0.05003647  0.55648177  0.10977101  1
  H  H67  1  0.38695620  0.67535352  0.01128931  1
  C  C68  1  0.33804195  0.50351979  0.75994047  1
  C  C69  1  0.37732410  0.97773675  0.84733770  1
  C  C70  1  0.83804195  0.99648021  0.25994047  1
  C  C71  1  0.64396493  0.28671795  0.92198471  1
  C  C72  1  0.62267590  0.02226325  0.15266230  1
  C  C73  1  0.12267590  0.47773675  0.65266230  1
  C  C74  1  0.66945870  0.93046998  0.61293381  1
  C  C75  1  0.87732410  0.52226325  0.34733770  1
  C  C76  1  0.33054130  0.06953002  0.38706619  1
  C  C77  1  0.16195805  0.00351979  0.74005953  1
  C  C78  1  0.16945870  0.56953002  0.11293381  1
  C  C79  1  0.35603507  0.71328205  0.07801529  1
  C  C80  1  0.66195805  0.49648021  0.24005953  1
  C  C81  1  0.85603507  0.78671795  0.57801529  1
  C  C82  1  0.83054130  0.43046998  0.88706619  1
  C  C83  1  0.14396493  0.21328205  0.42198471  1
  Br  Br84  1  0.36202386  0.28603500  0.17929151  1
  Br  Br85  1  0.20251635  0.25249361  0.91553884  1
  Br  Br86  1  0.29748365  0.75249361  0.58446116  1
  Br  Br87  1  0.70251635  0.24750639  0.41553884  1
  Br  Br88  1  0.07456425  0.73869401  0.87589493  1
  Br  Br89  1  0.19160700  0.00652868  0.09734253  1
  Br  Br90  1  0.79748365  0.74750639  0.08446116  1
  Br  Br91  1  0.80839300  0.99347132  0.90265747  1
  Br  Br92  1  0.13797614  0.78603500  0.32070849  1
  Br  Br93  1  0.30839300  0.50652868  0.40265747  1
  Br  Br94  1  0.63797614  0.71396500  0.82070849  1
  Br  Br95  1  0.86202386  0.21396500  0.67929151  1
  Br  Br96  1  0.92543575  0.26130599  0.12410507  1
  Br  Br97  1  0.69160700  0.49347132  0.59734253  1
  Br  Br98  1  0.57456425  0.76130599  0.37589493  1
  Br  Br99  1  0.42543575  0.23869401  0.62410507  1
  N  N100  1  0.28554718  0.49224685  0.66125486  1
  N  N101  1  0.80110059  0.31310815  0.90035473  1
  N  N102  1  0.78554718  0.00775315  0.16125486  1
  N  N103  1  0.30110059  0.18689185  0.40035473  1
  N  N104  1  0.19889941  0.68689185  0.09964527  1
  N  N105  1  0.21445282  0.99224685  0.83874514  1
  N  N106  1  0.69889941  0.81310815  0.59964527  1
  N  N107  1  0.71445282  0.50775315  0.33874514  1
