# generated using pymatgen
data_Zr(WO4)2
_symmetry_space_group_name_H-M   'P 1'
_cell_length_a   9.00167043
_cell_length_b   9.30058764
_cell_length_c   27.56398625
_cell_angle_alpha   90.00000000
_cell_angle_beta   90.00000000
_cell_angle_gamma   90.00000000
_symmetry_Int_Tables_number   1
_chemical_formula_structural   Zr(WO4)2
_chemical_formula_sum   'Zr12 W24 O96'
_cell_volume   2307.67966199
_cell_formula_units_Z   12
loop_
 _symmetry_equiv_pos_site_id
 _symmetry_equiv_pos_as_xyz
  1  'x, y, z'
loop_
 _atom_site_type_symbol
 _atom_site_label
 _atom_site_symmetry_multiplicity
 _atom_site_fract_x
 _atom_site_fract_y
 _atom_site_fract_z
 _atom_site_occupancy
  Zr  Zr0  1  0.72705412  0.77697116  0.57569842  1
  Zr  Zr1  1  0.23183239  0.75736521  0.74595976  1
  Zr  Zr2  1  0.17667234  0.71156356  0.07753596  1
  Zr  Zr3  1  0.77294588  0.22302884  0.07569842  1
  Zr  Zr4  1  0.26816761  0.24263479  0.24595976  1
  Zr  Zr5  1  0.82332766  0.21156356  0.42246404  1
  Zr  Zr6  1  0.67667234  0.78843644  0.92246404  1
  Zr  Zr7  1  0.22705412  0.72302884  0.42430158  1
  Zr  Zr8  1  0.73183239  0.74263479  0.25404024  1
  Zr  Zr9  1  0.27294588  0.27697116  0.92430158  1
  Zr  Zr10  1  0.76816761  0.25736521  0.75404024  1
  Zr  Zr11  1  0.32332766  0.28843644  0.57753596  1
  W  W12  1  0.22468432  0.11967253  0.37812256  1
  W  W13  1  0.58581074  0.90025669  0.37510455  1
  W  W14  1  0.96095203  0.10163649  0.55220173  1
  W  W15  1  0.77531568  0.61967253  0.12187744  1
  W  W16  1  0.64803357  0.85637184  0.71641893  1
  W  W17  1  0.85196643  0.14362816  0.21641893  1
  W  W18  1  0.41418926  0.40025669  0.12489545  1
  W  W19  1  0.03904797  0.60163649  0.94779827  1
  W  W20  1  0.08581074  0.59974331  0.62489545  1
  W  W21  1  0.31001070  0.87611537  0.55367747  1
  W  W22  1  0.91418926  0.09974331  0.87510455  1
  W  W23  1  0.11711476  0.12624586  0.68466257  1
  W  W24  1  0.46095203  0.39836351  0.44779827  1
  W  W25  1  0.38288524  0.87375414  0.18466257  1
  W  W26  1  0.68998930  0.37611537  0.94632253  1
  W  W27  1  0.88288524  0.62624586  0.81533743  1
  W  W28  1  0.35196643  0.35637184  0.78358107  1
  W  W29  1  0.81001070  0.62388463  0.44632253  1
  W  W30  1  0.61711476  0.37375414  0.31533743  1
  W  W31  1  0.72468432  0.38032747  0.62187744  1
  W  W32  1  0.27531568  0.88032747  0.87812256  1
  W  W33  1  0.18998930  0.12388463  0.05367747  1
  W  W34  1  0.14803357  0.64362816  0.28358107  1
  W  W35  1  0.53904797  0.89836351  0.05220173  1
  O  O36  1  0.71840443  0.29336031  0.00642447  1
  O  O37  1  0.29973032  0.52271530  0.43253502  1
  O  O38  1  0.94805182  0.45868249  0.63774035  1
  O  O39  1  0.25580773  0.76521883  0.24727936  1
  O  O40  1  0.79973032  0.97728470  0.56746498  1
  O  O41  1  0.82305378  0.25758865  0.58113920  1
  O  O42  1  0.59731527  0.54254154  0.45876805  1
  O  O43  1  0.73507738  0.72190942  0.39491002  1
  O  O44  1  0.09739877  0.64261678  0.01043626  1
  O  O45  1  0.19499449  0.67090519  0.34650570  1
  O  O46  1  0.01307582  0.06842584  0.63204508  1
  O  O47  1  0.64030817  0.85148943  0.31272716  1
  O  O48  1  0.32727829  0.04635113  0.21286755  1
  O  O49  1  0.17272171  0.95364887  0.71286755  1
  O  O50  1  0.55194818  0.54131751  0.13774035  1
  O  O51  1  0.96399737  0.68485339  0.10831002  1
  O  O52  1  0.67694622  0.74241135  0.08113920  1
  O  O53  1  0.81746730  0.95577053  0.23331104  1
  O  O54  1  0.17694622  0.75758865  0.91886080  1
  O  O55  1  0.28159557  0.79336031  0.49357553  1
  O  O56  1  0.96588198  0.21689587  0.71806631  1
  O  O57  1  0.90260123  0.14261678  0.48956374  1
  O  O58  1  0.45249769  0.80845561  0.72355812  1
  O  O59  1  0.53600263  0.31514661  0.60831002  1
  O  O60  1  0.19133265  0.93785804  0.39957378  1
  O  O61  1  0.22762668  0.49271758  0.59289372  1
  O  O62  1  0.28825278  0.85114375  0.81197964  1
  O  O63  1  0.85830791  0.43189778  0.43642065  1
  O  O64  1  0.05194818  0.95868249  0.86225965  1
  O  O65  1  0.35830791  0.06810222  0.56357935  1
  O  O66  1  0.44805182  0.04131751  0.36225965  1
  O  O67  1  0.69133265  0.56214196  0.60042622  1
  O  O68  1  0.82727829  0.45364887  0.78713245  1
  O  O69  1  0.54760380  0.28606112  0.09354925  1
  O  O70  1  0.03600263  0.18485339  0.39168998  1
  O  O71  1  0.69499449  0.82909481  0.65349430  1
  O  O72  1  0.04760380  0.21393888  0.90645075  1
  O  O73  1  0.24225750  0.77263064  0.15118425  1
  O  O74  1  0.75774250  0.27263064  0.34881575  1
  O  O75  1  0.46399737  0.81514661  0.89168998  1
  O  O76  1  0.21840443  0.20663969  0.99357553  1
  O  O77  1  0.14169209  0.93189778  0.06357935  1
  O  O78  1  0.21174722  0.14885625  0.31197964  1
  O  O79  1  0.99315040  0.18637961  0.06047476  1
  O  O80  1  0.46588198  0.28310413  0.28193369  1
  O  O81  1  0.26492262  0.22190942  0.10508998  1
  O  O82  1  0.67272171  0.54635113  0.28713245  1
  O  O83  1  0.78825278  0.64885625  0.18802036  1
  O  O84  1  0.70026968  0.02271530  0.06746498  1
  O  O85  1  0.11021749  0.24136656  0.55737181  1
  O  O86  1  0.68253270  0.04422947  0.73331104  1
  O  O87  1  0.00684960  0.68637961  0.43952524  1
  O  O88  1  0.80866735  0.43785804  0.10042622  1
  O  O89  1  0.61021749  0.25863344  0.44262819  1
  O  O90  1  0.03411802  0.71689587  0.78193369  1
  O  O91  1  0.09731527  0.95745846  0.54123195  1
  O  O92  1  0.30500551  0.32909481  0.84650570  1
  O  O93  1  0.04750231  0.19154439  0.22355812  1
  O  O94  1  0.80500551  0.17090519  0.15349430  1
  O  O95  1  0.23507738  0.77809058  0.60508998  1
  O  O96  1  0.35969183  0.35148943  0.18727284  1
  O  O97  1  0.90268473  0.45745846  0.95876805  1
  O  O98  1  0.49315040  0.31362039  0.93952524  1
  O  O99  1  0.31746730  0.54422947  0.76668896  1
  O  O100  1  0.53411802  0.78310413  0.21806631  1
  O  O101  1  0.24419227  0.23478117  0.74727936  1
  O  O102  1  0.18253270  0.45577053  0.26668896  1
  O  O103  1  0.14030817  0.64851057  0.68727284  1
  O  O104  1  0.75580773  0.73478117  0.75272064  1
  O  O105  1  0.77237332  0.99271758  0.90710628  1
  O  O106  1  0.40260123  0.35738322  0.51043626  1
  O  O107  1  0.59739877  0.85738322  0.98956374  1
  O  O108  1  0.32305378  0.24241135  0.41886080  1
  O  O109  1  0.45239620  0.78606112  0.40645075  1
  O  O110  1  0.20026968  0.47728570  0.93253502  1
  O  O111  1  0.54750231  0.30845561  0.77644188  1
  O  O112  1  0.98692418  0.56842584  0.86795492  1
  O  O113  1  0.64169209  0.56810222  0.93642065  1
  O  O114  1  0.74419227  0.26521883  0.25272064  1
  O  O115  1  0.25774250  0.22736936  0.65118425  1
  O  O116  1  0.72762668  0.00728242  0.40710628  1
  O  O117  1  0.38978251  0.75863344  0.05737181  1
  O  O118  1  0.50684960  0.81362039  0.56047476  1
  O  O119  1  0.76492262  0.27809058  0.89491002  1
  O  O120  1  0.30866735  0.06214196  0.89957378  1
  O  O121  1  0.40268473  0.04254154  0.04123195  1
  O  O122  1  0.95239620  0.71393888  0.59354925  1
  O  O123  1  0.48692418  0.93157416  0.13204508  1
  O  O124  1  0.51307582  0.43157416  0.36795492  1
  O  O125  1  0.88978251  0.74136656  0.94262819  1
  O  O126  1  0.74225750  0.72736936  0.84881575  1
  O  O127  1  0.95249769  0.69154439  0.27644188  1
  O  O128  1  0.85969183  0.14851057  0.81272716  1
  O  O129  1  0.27237332  0.50728242  0.09289372  1
  O  O130  1  0.71174722  0.35114375  0.68802036  1
  O  O131  1  0.78159557  0.70663969  0.50642447  1
