# generated using pymatgen
data_Na2YbMoPO8
_symmetry_space_group_name_H-M   'P 1'
_cell_length_a   6.97915651
_cell_length_b   11.53277497
_cell_length_c   11.53277529
_cell_angle_alpha   64.41528461
_cell_angle_beta   72.38741370
_cell_angle_gamma   72.38741811
_symmetry_Int_Tables_number   1
_chemical_formula_structural   Na2YbMoPO8
_chemical_formula_sum   'Na8 Yb4 Mo4 P4 O32'
_cell_volume   781.87871860
_cell_formula_units_Z   4
loop_
 _symmetry_equiv_pos_site_id
 _symmetry_equiv_pos_as_xyz
  1  'x, y, z'
loop_
 _atom_site_type_symbol
 _atom_site_label
 _atom_site_symmetry_multiplicity
 _atom_site_fract_x
 _atom_site_fract_y
 _atom_site_fract_z
 _atom_site_occupancy
  Yb  Yb0  1  0.75000000  0.31909169  0.18090831  1
  Yb  Yb1  1  0.25000000  0.18090831  0.31909169  1
  Yb  Yb2  1  0.75000000  0.81909169  0.68090831  1
  Yb  Yb3  1  0.25000000  0.68090831  0.81909169  1
  Na  Na4  1  0.84196936  0.21574994  0.58535023  1
  Na  Na5  1  0.64306953  0.28425006  0.91464977  1
  Na  Na6  1  0.15803064  0.78425006  0.41464977  1
  Na  Na7  1  0.14306953  0.41464977  0.78425006  1
  Na  Na8  1  0.34196936  0.08535023  0.71574994  1
  Na  Na9  1  0.85693047  0.58535023  0.21574994  1
  Na  Na10  1  0.35693047  0.71574994  0.08535023  1
  Na  Na11  1  0.65803064  0.91464977  0.28425006  1
  Mo  Mo12  1  0.67828766  0.57171234  0.57171234  1
  Mo  Mo13  1  0.32171234  0.42828766  0.42828766  1
  Mo  Mo14  1  0.82171234  0.92828766  0.92828766  1
  Mo  Mo15  1  0.17828766  0.07171234  0.07171234  1
  P  P16  1  0.25000000  0.43227031  0.06772969  1
  P  P17  1  0.25000000  0.93227031  0.56772969  1
  P  P18  1  0.75000000  0.56772969  0.93227031  1
  P  P19  1  0.75000000  0.06772969  0.43227031  1
  O  O20  1  0.56398137  0.65487138  0.86694937  1
  O  O21  1  0.43601863  0.34512862  0.13305063  1
  O  O22  1  0.19862953  0.57398746  0.06344254  1
  O  O23  1  0.80137047  0.42601254  0.93655746  1
  O  O24  1  0.66394047  0.06344254  0.57398746  1
  O  O25  1  0.06398138  0.36694937  0.15487138  1
  O  O26  1  0.80467840  0.10232272  0.86234348  1
  O  O27  1  0.66789059  0.89456530  0.84995176  1
  O  O28  1  0.93601862  0.63305063  0.84512862  1
  O  O29  1  0.16394047  0.07398746  0.56344254  1
  O  O30  1  0.76934459  0.39767728  0.63765652  1
  O  O31  1  0.58759235  0.39456530  0.34995176  1
  O  O32  1  0.33605953  0.93655746  0.42601254  1
  O  O33  1  0.41240765  0.60543470  0.65004824  1
  O  O34  1  0.41419787  0.86694937  0.65487138  1
  O  O35  1  0.33210941  0.10543470  0.15004824  1
  O  O36  1  0.16789059  0.34995176  0.39456530  1
  O  O37  1  0.83210941  0.65004824  0.60543470  1
  O  O38  1  0.26934459  0.13765652  0.89767728  1
  O  O39  1  0.69532160  0.63765652  0.39767728  1
  O  O40  1  0.91240765  0.15004824  0.10543470  1
  O  O41  1  0.58580213  0.13305063  0.34512862  1
  O  O42  1  0.69862953  0.56344254  0.07398746  1
  O  O43  1  0.23065541  0.60232272  0.36234348  1
  O  O44  1  0.73065541  0.86234348  0.10232272  1
  O  O45  1  0.19532160  0.89767728  0.13765652  1
  O  O46  1  0.08580213  0.84512862  0.63305063  1
  O  O47  1  0.91419787  0.15487138  0.36694937  1
  O  O48  1  0.83605953  0.92601254  0.43655746  1
  O  O49  1  0.30467840  0.36234348  0.60232272  1
  O  O50  1  0.30137047  0.43655746  0.92601254  1
  O  O51  1  0.08759235  0.84995176  0.89456530  1
