# generated using pymatgen
data_H24RuC8(S2Cl)2
_symmetry_space_group_name_H-M   'P 1'
_cell_length_a   8.56896775
_cell_length_b   14.32864377
_cell_length_c   15.01950329
_cell_angle_alpha   90.00000000
_cell_angle_beta   90.00000000
_cell_angle_gamma   90.00000000
_symmetry_Int_Tables_number   1
_chemical_formula_structural   H24RuC8(S2Cl)2
_chemical_formula_sum   'H96 Ru4 C32 S16 Cl8'
_cell_volume   1844.11994233
_cell_formula_units_Z   4
loop_
 _symmetry_equiv_pos_site_id
 _symmetry_equiv_pos_as_xyz
  1  'x, y, z'
loop_
 _atom_site_type_symbol
 _atom_site_label
 _atom_site_symmetry_multiplicity
 _atom_site_fract_x
 _atom_site_fract_y
 _atom_site_fract_z
 _atom_site_occupancy
  H  H0  1  0.96327537  0.70876307  0.10020011  1
  H  H1  1  0.33386475  0.40784093  0.37401639  1
  H  H2  1  0.72082553  0.71044165  0.65264262  1
  H  H3  1  0.58271170  0.69601201  0.86047703  1
  H  H4  1  0.66576171  0.38661268  0.19363552  1
  H  H5  1  0.11587150  0.95078544  0.58159423  1
  H  H6  1  0.89939044  0.99776290  0.30949529  1
  H  H7  1  0.50817025  0.13673803  0.29670713  1
  H  H8  1  0.80350088  0.61604754  0.24726639  1
  H  H9  1  0.63316180  0.07393074  0.90628628  1
  H  H10  1  0.61587150  0.95078544  0.91840577  1
  H  H11  1  0.60060956  0.49776290  0.30949529  1
  H  H12  1  0.22082553  0.78955835  0.34735738  1
  H  H13  1  0.68038583  0.33099712  0.85657100  1
  H  H14  1  0.30350088  0.61604754  0.25273361  1
  H  H15  1  0.81961417  0.83099712  0.85657100  1
  H  H16  1  0.46327537  0.70876307  0.39979989  1
  H  H17  1  0.99182975  0.86326197  0.79670713  1
  H  H18  1  0.38412850  0.04921456  0.08159423  1
  H  H19  1  0.53672463  0.29123693  0.60020011  1
  H  H20  1  0.86683820  0.57393074  0.90628628  1
  H  H21  1  0.77917447  0.28955835  0.15264262  1
  H  H22  1  0.83386475  0.40784093  0.12598361  1
  H  H23  1  0.08271170  0.80398799  0.13952297  1
  H  H24  1  0.88412850  0.45078544  0.91840577  1
  H  H25  1  0.63316180  0.42606926  0.40628628  1
  H  H26  1  0.86683820  0.92606926  0.40628628  1
  H  H27  1  0.22082553  0.71044165  0.84735738  1
  H  H28  1  0.91728830  0.30398799  0.36047703  1
  H  H29  1  0.16613525  0.90784093  0.37401639  1
  H  H30  1  0.13316180  0.42606926  0.09371372  1
  H  H31  1  0.38948761  0.24101331  0.52893742  1
  H  H32  1  0.80350088  0.88395246  0.74726639  1
  H  H33  1  0.91728830  0.19601201  0.86047703  1
  H  H34  1  0.38412850  0.45078544  0.58159423  1
  H  H35  1  0.10060956  0.49776290  0.19050471  1
  H  H36  1  0.66613525  0.59215907  0.62598361  1
  H  H37  1  0.72082553  0.78955835  0.15264262  1
  H  H38  1  0.46327537  0.79123693  0.89979989  1
  H  H39  1  0.41728830  0.19601201  0.63952297  1
  H  H40  1  0.36683820  0.57393074  0.59371372  1
  H  H41  1  0.99182975  0.63673803  0.29670713  1
  H  H42  1  0.30350088  0.88395246  0.75273361  1
  H  H43  1  0.31961417  0.83099712  0.64342900  1
  H  H44  1  0.49182975  0.63673803  0.20329287  1
  H  H45  1  0.89939044  0.50223710  0.80949529  1
  H  H46  1  0.41728830  0.30398799  0.13952297  1
  H  H47  1  0.27917447  0.28955835  0.34735738  1
  H  H48  1  0.33423829  0.61338732  0.80636448  1
  H  H49  1  0.00817025  0.36326197  0.70329287  1
  H  H50  1  0.38948761  0.25898669  0.02893742  1
  H  H51  1  0.33386475  0.09215907  0.87401639  1
  H  H52  1  0.60060956  0.00223710  0.80949529  1
  H  H53  1  0.39939044  0.99776290  0.19050471  1
  H  H54  1  0.88412850  0.04921456  0.41840577  1
  H  H55  1  0.77917447  0.21044165  0.65264262  1
  H  H56  1  0.16613525  0.59215907  0.87401639  1
  H  H57  1  0.49182975  0.86326197  0.70329287  1
  H  H58  1  0.39939044  0.50223710  0.69050471  1
  H  H59  1  0.66576171  0.11338732  0.69363552  1
  H  H60  1  0.19649912  0.11604754  0.25273361  1
  H  H61  1  0.61051239  0.74101331  0.97106258  1
  H  H62  1  0.68038583  0.16900288  0.35657100  1
  H  H63  1  0.81961417  0.66900288  0.35657100  1
  H  H64  1  0.08271170  0.69601201  0.63952297  1
  H  H65  1  0.66613525  0.90784093  0.12598361  1
  H  H66  1  0.33423829  0.88661268  0.30636448  1
  H  H67  1  0.88948761  0.24101331  0.97106258  1
  H  H68  1  0.96327537  0.79123693  0.60020011  1
  H  H69  1  0.03672463  0.29123693  0.89979989  1
  H  H70  1  0.36683820  0.92606926  0.09371372  1
  H  H71  1  0.11051239  0.74101331  0.52893742  1
  H  H72  1  0.00817025  0.13673803  0.20329287  1
  H  H73  1  0.16576171  0.38661268  0.30636448  1
  H  H74  1  0.53672463  0.20876307  0.10020011  1
  H  H75  1  0.83423829  0.88661268  0.19363552  1
  H  H76  1  0.16576171  0.11338732  0.80636448  1
  H  H77  1  0.19649912  0.38395246  0.75273361  1
  H  H78  1  0.27917447  0.21044165  0.84735738  1
  H  H79  1  0.61587150  0.54921456  0.41840577  1
  H  H80  1  0.11051239  0.75898669  0.02893742  1
  H  H81  1  0.50817025  0.36326197  0.79670713  1
  H  H82  1  0.61051239  0.75898669  0.47106258  1
  H  H83  1  0.69649912  0.11604754  0.24726639  1
  H  H84  1  0.58271170  0.80398799  0.36047703  1
  H  H85  1  0.83423829  0.61338732  0.69363552  1
  H  H86  1  0.03672463  0.20876307  0.39979989  1
  H  H87  1  0.18038583  0.16900288  0.14342900  1
  H  H88  1  0.83386475  0.09215907  0.62598361  1
  H  H89  1  0.11587150  0.54921456  0.08159423  1
  H  H90  1  0.18038583  0.33099712  0.64342900  1
  H  H91  1  0.88948761  0.25898669  0.47106258  1
  H  H92  1  0.69649912  0.38395246  0.74726639  1
  H  H93  1  0.10060956  0.00223710  0.69050471  1
  H  H94  1  0.31961417  0.66900288  0.14342900  1
  H  H95  1  0.13316180  0.07393074  0.59371372  1
  Ru  Ru96  1  0.00000000  0.50000000  0.50000000  1
  Ru  Ru97  1  0.50000000  0.50000000  0.00000000  1
  Ru  Ru98  1  0.00000000  0.00000000  0.00000000  1
  Ru  Ru99  1  0.50000000  0.00000000  0.50000000  1
  C  C100  1  0.76341345  0.63980042  0.63820856  1
  C  C101  1  0.73658655  0.36019958  0.13820856  1
  C  C102  1  0.02452194  0.77289201  0.08162946  1
  C  C103  1  0.62985449  0.38156541  0.80992788  1
  C  C104  1  0.65797126  0.49340452  0.37484671  1
  C  C105  1  0.97547806  0.22710799  0.91837054  1
  C  C106  1  0.87014551  0.88156541  0.80992788  1
  C  C107  1  0.73658655  0.13980042  0.63820856  1
  C  C108  1  0.52452194  0.72710799  0.91837054  1
  C  C109  1  0.52452194  0.77289201  0.41837054  1
  C  C110  1  0.23658655  0.13980042  0.86179144  1
  C  C111  1  0.47547806  0.27289201  0.08162946  1
  C  C112  1  0.84202874  0.99340452  0.37484671  1
  C  C113  1  0.37014551  0.61843459  0.19007212  1
  C  C114  1  0.37014551  0.88156541  0.69007212  1
  C  C115  1  0.12985449  0.11843459  0.19007212  1
  C  C116  1  0.23658655  0.36019958  0.36179144  1
  C  C117  1  0.15797126  0.00659548  0.62515329  1
  C  C118  1  0.26341345  0.63980042  0.86179144  1
  C  C119  1  0.47547806  0.22710799  0.58162946  1
  C  C120  1  0.62985449  0.11843459  0.30992788  1
  C  C121  1  0.02452194  0.72710799  0.58162946  1
  C  C122  1  0.26341345  0.86019958  0.36179144  1
  C  C123  1  0.34202874  0.50659548  0.62515329  1
  C  C124  1  0.97547806  0.27289201  0.41837054  1
  C  C125  1  0.65797126  0.00659548  0.87484671  1
  C  C126  1  0.76341345  0.86019958  0.13820856  1
  C  C127  1  0.84202874  0.50659548  0.87484671  1
  C  C128  1  0.15797126  0.49340452  0.12515329  1
  C  C129  1  0.12985449  0.38156541  0.69007212  1
  C  C130  1  0.87014551  0.61843459  0.30992788  1
  C  C131  1  0.34202874  0.99340452  0.12515329  1
  S  S132  1  0.86748543  0.50326740  0.36042647  1
  S  S133  1  0.13251457  0.00326740  0.13957353  1
  S  S134  1  0.36748543  0.99673260  0.63957353  1
  S  S135  1  0.13251457  0.49673260  0.63957353  1
  S  S136  1  0.11752278  0.35476872  0.46141010  1
  S  S137  1  0.36748543  0.50326740  0.13957353  1
  S  S138  1  0.38247722  0.85476872  0.46141010  1
  S  S139  1  0.11752278  0.14523128  0.96141010  1
  S  S140  1  0.38247722  0.64523128  0.96141010  1
  S  S141  1  0.63251457  0.49673260  0.86042647  1
  S  S142  1  0.61752278  0.35476872  0.03858990  1
  S  S143  1  0.88247722  0.64523128  0.53858990  1
  S  S144  1  0.86748543  0.99673260  0.86042647  1
  S  S145  1  0.63251457  0.00326740  0.36042647  1
  S  S146  1  0.61752278  0.14523128  0.53858990  1
  S  S147  1  0.88247722  0.85476872  0.03858990  1
  Cl  Cl148  1  0.28800919  0.08550258  0.42706392  1
  Cl  Cl149  1  0.28800919  0.41449742  0.92706392  1
  Cl  Cl150  1  0.21199081  0.58550258  0.42706392  1
  Cl  Cl151  1  0.21199081  0.91449742  0.92706392  1
  Cl  Cl152  1  0.78800919  0.41449742  0.57293608  1
  Cl  Cl153  1  0.71199081  0.91449742  0.57293608  1
  Cl  Cl154  1  0.78800919  0.08550258  0.07293608  1
  Cl  Cl155  1  0.71199081  0.58550258  0.07293608  1
