# generated using pymatgen
data_RbU2H5C4O15
_symmetry_space_group_name_H-M   'P 1'
_cell_length_a   5.73160172
_cell_length_b   9.57018189
_cell_length_c   13.94114388
_cell_angle_alpha   90.00000000
_cell_angle_beta   90.00000000
_cell_angle_gamma   96.61748874
_symmetry_Int_Tables_number   1
_chemical_formula_structural   RbU2H5C4O15
_chemical_formula_sum   'Rb2 U4 H10 C8 O30'
_cell_volume   759.61143977
_cell_formula_units_Z   2
loop_
 _symmetry_equiv_pos_site_id
 _symmetry_equiv_pos_as_xyz
  1  'x, y, z'
loop_
 _atom_site_type_symbol
 _atom_site_label
 _atom_site_symmetry_multiplicity
 _atom_site_fract_x
 _atom_site_fract_y
 _atom_site_fract_z
 _atom_site_occupancy
  Rb  Rb0  1  0.85557291  0.40214375  0.25000000  1
  Rb  Rb1  1  0.14442709  0.59785625  0.75000000  1
  U  U2  1  0.71510644  0.23636487  0.90808589  1
  U  U3  1  0.28489356  0.76363513  0.09191411  1
  U  U4  1  0.71510644  0.23636487  0.59191411  1
  U  U5  1  0.28489356  0.76363513  0.40808589  1
  H  H6  1  0.70460319  0.81927749  0.80551510  1
  H  H7  1  0.46924315  0.11850208  0.75000000  1
  H  H8  1  0.53075685  0.88149792  0.25000000  1
  H  H9  1  0.29539681  0.18072251  0.30551510  1
  H  H10  1  0.36602893  0.88585076  0.75000000  1
  H  H11  1  0.88100856  0.05254895  0.25000000  1
  H  H12  1  0.63397107  0.11414924  0.25000000  1
  H  H13  1  0.29539681  0.18072251  0.19448490  1
  H  H14  1  0.70460319  0.81927749  0.69448490  1
  H  H15  1  0.11899144  0.94745105  0.75000000  1
  C  C16  1  0.54126340  0.48057795  0.44998392  1
  C  C17  1  0.98527443  0.95737659  0.54664794  1
  C  C18  1  0.98527443  0.95737659  0.95335206  1
  C  C19  1  0.01472557  0.04262341  0.45335206  1
  C  C20  1  0.45873660  0.51942205  0.94998392  1
  C  C21  1  0.45873660  0.51942205  0.55001608  1
  C  C22  1  0.01472557  0.04262341  0.04664794  1
  C  C23  1  0.54126340  0.48057795  0.05001608  1
  O  O24  1  0.44320114  0.13569278  0.55733601  1
  O  O25  1  0.87628228  0.01018247  0.88526824  1
  O  O26  1  0.51722139  0.44527450  0.88079709  1
  O  O27  1  0.98134041  0.34323744  0.62845419  1
  O  O28  1  0.01865959  0.65676256  0.12845419  1
  O  O29  1  0.55679886  0.86430722  0.05733601  1
  O  O30  1  0.48277861  0.55472550  0.11920291  1
  O  O31  1  0.01865959  0.65676256  0.37154581  1
  O  O32  1  0.93006821  0.15847212  0.45143738  1
  O  O33  1  0.06993179  0.84152788  0.54856262  1
  O  O34  1  0.38886879  0.80935965  0.25000000  1
  O  O35  1  0.33979038  0.62227648  0.55466231  1
  O  O36  1  0.12371772  0.98981753  0.11473176  1
  O  O37  1  0.67140241  0.75721571  0.75000000  1
  O  O38  1  0.66020962  0.37772352  0.05466231  1
  O  O39  1  0.28842158  0.97094246  0.75000000  1
  O  O40  1  0.12371772  0.98981753  0.38526824  1
  O  O41  1  0.06993179  0.84152788  0.95143738  1
  O  O42  1  0.33979038  0.62227648  0.94533769  1
  O  O43  1  0.66020962  0.37772352  0.44533769  1
  O  O44  1  0.71157842  0.02905754  0.25000000  1
  O  O45  1  0.55679886  0.86430722  0.44266399  1
  O  O46  1  0.93006821  0.15847212  0.04856262  1
  O  O47  1  0.48277861  0.55472550  0.38079709  1
  O  O48  1  0.32859759  0.24278429  0.25000000  1
  O  O49  1  0.61113121  0.19064035  0.75000000  1
  O  O50  1  0.98134041  0.34323744  0.87154581  1
  O  O51  1  0.51722139  0.44527450  0.61920291  1
  O  O52  1  0.87628228  0.01018247  0.61473176  1
  O  O53  1  0.44320114  0.13569278  0.94266399  1
