# generated using pymatgen
data_Cs3SrCu2C7(SN)7
_symmetry_space_group_name_H-M   'P 1'
_cell_length_a   10.99308809
_cell_length_b   10.99308740
_cell_length_c   12.76558528
_cell_angle_alpha   115.50065440
_cell_angle_beta   115.50065382
_cell_angle_gamma   90.00682758
_symmetry_Int_Tables_number   1
_chemical_formula_structural   Cs3SrCu2C7(SN)7
_chemical_formula_sum   'Cs6 Sr2 Cu4 C14 S14 N14'
_cell_volume   1223.75548394
_cell_formula_units_Z   2
loop_
 _symmetry_equiv_pos_site_id
 _symmetry_equiv_pos_as_xyz
  1  'x, y, z'
loop_
 _atom_site_type_symbol
 _atom_site_label
 _atom_site_symmetry_multiplicity
 _atom_site_fract_x
 _atom_site_fract_y
 _atom_site_fract_z
 _atom_site_occupancy
  Cs  Cs0  1  0.93717352  0.46172932  0.39887046  1
  Cs  Cs1  1  0.46172932  0.93717352  0.39887045  1
  Cs  Cs2  1  0.49999191  -0.00000005  -0.00001398  1
  Cs  Cs3  1  0.53836241  0.53836242  0.60118223  1
  Cs  Cs4  1  -0.00000004  0.49999191  -0.00001397  1
  Cs  Cs5  1  0.06276016  0.06276017  0.60107378  1
  Sr  Sr6  1  0.90395431  0.90395431  0.80794788  1
  Sr  Sr7  1  0.09603500  0.09603500  0.19202629  1
  Cu  Cu8  1  0.45145067  0.45145065  0.19810777  1
  Cu  Cu9  1  0.25329714  0.54851063  0.80193932  1
  Cu  Cu10  1  0.74685404  0.74685404  0.19818834  1
  Cu  Cu11  1  0.54851066  0.25329712  0.80193934  1
  C  C12  1  0.53906322  0.92988531  0.70831304  1
  C  C13  1  0.29341670  0.29341670  0.58671433  1
  C  C14  1  0.20595255  0.20595254  0.99183087  1
  C  C15  1  0.46076007  0.22129378  0.29154172  1
  C  C16  1  0.92988530  0.53906320  0.70831302  1
  C  C17  1  0.83090199  0.07024892  0.29164011  1
  C  C18  1  0.79406087  0.21410031  0.00818832  1
  C  C19  1  0.77853533  0.16921339  0.70841375  1
  C  C20  1  0.78589108  0.78589108  0.99182264  1
  C  C21  1  0.16921338  0.77853533  0.70841374  1
  C  C22  1  0.70661398  0.70661399  0.41332544  1
  C  C23  1  0.22129376  0.46076006  0.29154172  1
  C  C24  1  0.07024892  0.83090201  0.29164011  1
  C  C25  1  0.21410029  0.79406088  0.00818831  1
  S  S26  1  0.57791698  0.32913303  0.30634431  1
  S  S27  1  0.97725444  0.72850585  0.30644309  1
  S  S28  1  0.30347741  0.30347742  0.97591242  1
  S  S29  1  0.32913303  0.57791700  0.30634431  1
  S  S30  1  0.37545477  0.37545476  0.75087379  1
  S  S31  1  0.69650103  0.32752122  0.02412445  1
  S  S32  1  0.27159312  0.67073746  0.69362447  1
  S  S33  1  0.67073746  0.27159311  0.69362446  1
  S  S34  1  0.72850585  0.97725443  0.30644308  1
  S  S35  1  0.42187857  0.02288287  0.69352895  1
  S  S36  1  0.62462257  0.62462256  0.24917794  1
  S  S37  1  0.67244967  0.67244967  0.97593814  1
  S  S38  1  0.02288288  0.42187857  0.69352895  1
  S  S39  1  0.32752121  0.69650102  0.02412447  1
  N  N40  1  0.86669581  0.13469117  1.00137271  1
  N  N41  1  0.13469119  0.86669579  1.00137272  1
  N  N42  1  0.23506105  0.23506105  0.47000273  1
  N  N43  1  0.85665285  0.09560437  0.71966139  1
  N  N44  1  0.37589990  0.14318247  0.28030465  1
  N  N45  1  0.13332885  0.13332886  -0.00137005  1
  N  N46  1  0.62396779  0.86305897  0.71962179  1
  N  N47  1  0.13710000  0.90449384  0.28036235  1
  N  N48  1  0.86305896  0.62396779  0.71962179  1
  N  N49  1  0.86531469  0.86531469  -0.00137906  1
  N  N50  1  0.90449384  0.13710002  0.28036234  1
  N  N51  1  0.76496269  0.76496269  0.53006273  1
  N  N52  1  0.14318248  0.37589992  0.28030465  1
  N  N53  1  0.09560437  0.85665284  0.71966139  1
