# generated using pymatgen
data_MnH14C3NCl3O2
_symmetry_space_group_name_H-M   'P 1'
_cell_length_a   7.50529381
_cell_length_b   8.39236106
_cell_length_c   17.08788538
_cell_angle_alpha   90.00000000
_cell_angle_beta   90.00000000
_cell_angle_gamma   90.00000000
_symmetry_Int_Tables_number   1
_chemical_formula_structural   MnH14C3NCl3O2
_chemical_formula_sum   'Mn4 H56 C12 N4 Cl12 O8'
_cell_volume   1076.31695209
_cell_formula_units_Z   4
loop_
 _symmetry_equiv_pos_site_id
 _symmetry_equiv_pos_as_xyz
  1  'x, y, z'
loop_
 _atom_site_type_symbol
 _atom_site_label
 _atom_site_symmetry_multiplicity
 _atom_site_fract_x
 _atom_site_fract_y
 _atom_site_fract_z
 _atom_site_occupancy
  Mn  Mn0  1  0.00000000  0.50000000  0.50000000  1
  Mn  Mn1  1  0.50000000  0.00000000  0.00000000  1
  Mn  Mn2  1  0.00000000  0.00000000  0.00000000  1
  Mn  Mn3  1  0.50000000  0.50000000  0.50000000  1
  H  H4  1  0.53085976  0.21235267  0.69203460  1
  H  H5  1  0.25000000  0.25237548  0.12976148  1
  H  H6  1  0.90227753  0.68098298  0.01794293  1
  H  H7  1  0.59772247  0.68098298  0.01794293  1
  H  H8  1  0.09703163  0.37055884  0.73567955  1
  H  H9  1  0.75000000  0.45185124  0.77600864  1
  H  H10  1  0.90296837  0.87055884  0.76432045  1
  H  H11  1  0.75000000  0.75237548  0.37023852  1
  H  H12  1  0.36991706  0.51548891  0.13440887  1
  H  H13  1  0.93780794  0.17934914  0.54230489  1
  H  H14  1  0.58468490  0.68017867  0.71654151  1
  H  H15  1  0.91531510  0.81982133  0.21654151  1
  H  H16  1  0.63008294  0.48451109  0.86559113  1
  H  H17  1  0.91531510  0.68017867  0.71654151  1
  H  H18  1  0.75000000  0.04814876  0.27600864  1
  H  H19  1  0.53085976  0.28764733  0.19203460  1
  H  H20  1  0.75000000  0.74762452  0.87023852  1
  H  H21  1  0.63008294  0.01548891  0.36559113  1
  H  H22  1  0.41531510  0.31982133  0.28345849  1
  H  H23  1  0.59703163  0.87055884  0.76432045  1
  H  H24  1  0.03085976  0.71235267  0.80796540  1
  H  H25  1  0.43780794  0.67934914  0.95769511  1
  H  H26  1  0.25000000  0.54814876  0.22399136  1
  H  H27  1  0.03085976  0.78764733  0.30796540  1
  H  H28  1  0.13008294  0.98451109  0.63440887  1
  H  H29  1  0.86991706  0.01548891  0.36559113  1
  H  H30  1  0.56219206  0.32065086  0.04230489  1
  H  H31  1  0.36991706  0.98451109  0.63440887  1
  H  H32  1  0.25000000  0.24762452  0.62976148  1
  H  H33  1  0.46914024  0.78764733  0.30796540  1
  H  H34  1  0.25000000  0.95185124  0.72399136  1
  H  H35  1  0.93780794  0.32065086  0.04230489  1
  H  H36  1  0.43780794  0.82065086  0.45769511  1
  H  H37  1  0.58468490  0.81982133  0.21654151  1
  H  H38  1  0.96914024  0.28764733  0.19203460  1
  H  H39  1  0.09772247  0.18098298  0.48205707  1
  H  H40  1  0.96914024  0.21235267  0.69203460  1
  H  H41  1  0.08468490  0.18017867  0.78345849  1
  H  H42  1  0.59772247  0.81901702  0.51794293  1
  H  H43  1  0.08468490  0.31982133  0.28345849  1
  H  H44  1  0.40296837  0.37055884  0.73567955  1
  H  H45  1  0.09703163  0.12944116  0.23567955  1
  H  H46  1  0.56219206  0.17934914  0.54230489  1
  H  H47  1  0.06219206  0.82065086  0.45769511  1
  H  H48  1  0.06219206  0.67934914  0.95769511  1
  H  H49  1  0.90227753  0.81901702  0.51794293  1
  H  H50  1  0.40227753  0.18098298  0.48205707  1
  H  H51  1  0.41531510  0.18017867  0.78345849  1
  H  H52  1  0.40296837  0.12944116  0.23567955  1
  H  H53  1  0.90296837  0.62944116  0.26432045  1
  H  H54  1  0.46914024  0.71235267  0.80796540  1
  H  H55  1  0.86991706  0.48451109  0.86559113  1
  H  H56  1  0.40227753  0.31901702  0.98205707  1
  H  H57  1  0.13008294  0.51548891  0.13440887  1
  H  H58  1  0.09772247  0.31901702  0.98205707  1
  H  H59  1  0.59703163  0.62944116  0.26432045  1
  C  C60  1  0.25000000  0.01465831  0.66784819  1
  C  C61  1  0.25000000  0.48534169  0.16784819  1
  C  C62  1  0.75000000  0.98534169  0.33215181  1
  C  C63  1  0.58711661  0.75824102  0.27299465  1
  C  C64  1  0.41288339  0.25824102  0.22700535  1
  C  C65  1  0.75000000  0.51465831  0.83215181  1
  C  C66  1  0.41288339  0.24175898  0.72700535  1
  C  C67  1  0.58711661  0.74175898  0.77299465  1
  C  C68  1  0.91288339  0.74175898  0.77299465  1
  C  C69  1  0.91288339  0.75824102  0.27299465  1
  C  C70  1  0.08711661  0.25824102  0.22700535  1
  C  C71  1  0.08711661  0.24175898  0.72700535  1
  N  N72  1  0.25000000  0.19008066  0.68342123  1
  N  N73  1  0.75000000  0.80991934  0.31657877  1
  N  N74  1  0.75000000  0.69008066  0.81657877  1
  N  N75  1  0.25000000  0.30991934  0.18342123  1
  Cl  Cl76  1  0.25000000  0.93666838  0.10032734  1
  Cl  Cl77  1  0.75000000  0.50109800  0.08710941  1
  Cl  Cl78  1  0.75000000  0.50048731  0.60042875  1
  Cl  Cl79  1  0.25000000  0.00109800  0.41289059  1
  Cl  Cl80  1  0.75000000  0.06333162  0.89967266  1
  Cl  Cl81  1  0.25000000  0.56333162  0.60032734  1
  Cl  Cl82  1  0.25000000  0.49890200  0.91289059  1
  Cl  Cl83  1  0.25000000  0.49951269  0.39957125  1
  Cl  Cl84  1  0.75000000  0.43666838  0.39967266  1
  Cl  Cl85  1  0.75000000  0.99951269  0.10042875  1
  Cl  Cl86  1  0.25000000  0.00048731  0.89957125  1
  Cl  Cl87  1  0.75000000  0.99890200  0.58710941  1
  O  O88  1  0.54092083  0.74394091  0.97580854  1
  O  O89  1  0.95907917  0.74394091  0.97580854  1
  O  O90  1  0.95907917  0.75605909  0.47580854  1
  O  O91  1  0.54092083  0.75605909  0.47580854  1
  O  O92  1  0.45907917  0.25605909  0.02419146  1
  O  O93  1  0.45907917  0.24394091  0.52419146  1
  O  O94  1  0.04092083  0.25605909  0.02419146  1
  O  O95  1  0.04092083  0.24394091  0.52419146  1
