# generated using pymatgen
data_Li2Fe3(P2O7)2
_symmetry_space_group_name_H-M   'P 1'
_cell_length_a   7.83607138
_cell_length_b   9.03612883
_cell_length_c   9.92891129
_cell_angle_alpha   90.00000000
_cell_angle_beta   119.13420257
_cell_angle_gamma   90.00000000
_symmetry_Int_Tables_number   1
_chemical_formula_structural   Li2Fe3(P2O7)2
_chemical_formula_sum   'Li4 Fe6 P8 O28'
_cell_volume   614.09599357
_cell_formula_units_Z   2
loop_
 _symmetry_equiv_pos_site_id
 _symmetry_equiv_pos_as_xyz
  1  'x, y, z'
loop_
 _atom_site_type_symbol
 _atom_site_label
 _atom_site_symmetry_multiplicity
 _atom_site_fract_x
 _atom_site_fract_y
 _atom_site_fract_z
 _atom_site_occupancy
  Li  Li0  1  0.57569064  0.52935499  0.84201671  1
  Li  Li1  1  0.42430936  0.47064501  0.15798329  1
  Li  Li2  1  0.07569064  0.97064501  0.34201671  1
  Li  Li3  1  0.92430936  0.02935499  0.65798329  1
  Fe  Fe4  1  0.05661818  0.71602006  0.54312972  1
  Fe  Fe5  1  0.94338182  0.28397994  0.45687028  1
  Fe  Fe6  1  0.44338182  0.21602006  0.95687028  1
  Fe  Fe7  1  0.55661818  0.78397994  0.04312972  1
  Fe  Fe8  1  0.00000000  0.00000000  0.00000000  1
  Fe  Fe9  1  0.50000000  0.50000000  0.50000000  1
  P  P10  1  0.14037182  0.29508331  0.24126569  1
  P  P11  1  0.85962818  0.70491669  0.75873431  1
  P  P12  1  0.84354546  0.52330049  0.21979236  1
  P  P13  1  0.15645454  0.47669951  0.78020764  1
  P  P14  1  0.65645454  0.02330049  0.28020764  1
  P  P15  1  0.64037182  0.20491669  0.74126569  1
  P  P16  1  0.34354546  0.97669951  0.71979236  1
  P  P17  1  0.35962818  0.79508331  0.25873431  1
  O  O18  1  0.30825677  0.41068294  0.93597590  1
  O  O19  1  0.47145005  0.07804745  0.67028721  1
  O  O20  1  0.75843799  0.92516363  0.21281475  1
  O  O21  1  0.97572400  0.63779929  0.33655895  1
  O  O22  1  0.33196606  0.38285088  0.29976228  1
  O  O23  1  0.47572400  0.86220071  0.83655895  1
  O  O24  1  0.10159268  0.19342531  0.10810355  1
  O  O25  1  0.52427600  0.13779929  0.16344105  1
  O  O26  1  0.25843799  0.57483637  0.71281475  1
  O  O27  1  0.60159268  0.30657469  0.60810355  1
  O  O28  1  0.66803394  0.61714912  0.70023772  1
  O  O29  1  0.83196606  0.11714912  0.79976228  1
  O  O30  1  0.88521350  0.78602617  0.63270598  1
  O  O31  1  0.19174323  0.91068294  0.56402410  1
  O  O32  1  0.02854995  0.57804745  0.82971279  1
  O  O33  1  0.39840732  0.69342531  0.39189645  1
  O  O34  1  0.80825677  0.08931706  0.43597590  1
  O  O35  1  0.38521350  0.71397383  0.13270598  1
  O  O36  1  0.97145005  0.42195255  0.17028721  1
  O  O37  1  0.02427600  0.36220071  0.66344105  1
  O  O38  1  0.69174323  0.58931706  0.06402410  1
  O  O39  1  0.61478650  0.28602617  0.86729402  1
  O  O40  1  0.89840732  0.80657469  0.89189645  1
  O  O41  1  0.16803394  0.88285088  0.20023772  1
  O  O42  1  0.52854995  0.92195255  0.32971279  1
  O  O43  1  0.24156201  0.07483637  0.78718525  1
  O  O44  1  0.11478650  0.21397383  0.36729402  1
  O  O45  1  0.74156201  0.42516363  0.28718525  1
