# generated using pymatgen
data_Cu8GeSe6
_symmetry_space_group_name_H-M   'P 1'
_cell_length_a   12.72122319
_cell_length_b   12.72122292
_cell_length_c   11.78547900
_cell_angle_alpha   90.00000000
_cell_angle_beta   90.00000000
_cell_angle_gamma   120.00000072
_symmetry_Int_Tables_number   1
_chemical_formula_structural   Cu8GeSe6
_chemical_formula_sum   'Cu48 Ge6 Se36'
_cell_volume   1651.71686168
_cell_formula_units_Z   6
loop_
 _symmetry_equiv_pos_site_id
 _symmetry_equiv_pos_as_xyz
  1  'x, y, z'
loop_
 _atom_site_type_symbol
 _atom_site_label
 _atom_site_symmetry_multiplicity
 _atom_site_fract_x
 _atom_site_fract_y
 _atom_site_fract_z
 _atom_site_occupancy
  Cu  Cu0  1  0.83893589  0.19466554  0.05530762  1
  Cu  Cu1  1  0.16106411  0.80533446  0.55530762  1
  Cu  Cu2  1  0.12914741  0.64074679  0.93015495  1
  Cu  Cu3  1  0.80533446  0.16106411  0.55530762  1
  Cu  Cu4  1  0.87085259  0.35925321  0.43015495  1
  Cu  Cu5  1  0.83893589  0.64427035  0.55530762  1
  Cu  Cu6  1  0.35572965  0.16106411  0.05530762  1
  Cu  Cu7  1  0.19466554  0.35572965  0.55530762  1
  Cu  Cu8  1  0.45941148  0.00000000  0.76925082  1
  Cu  Cu9  1  0.80533446  0.64427035  0.05530762  1
  Cu  Cu10  1  0.51159938  0.87085259  0.93015495  1
  Cu  Cu11  1  0.80867187  0.66621674  0.83610395  1
  Cu  Cu12  1  0.35925321  0.48840062  0.93015495  1
  Cu  Cu13  1  0.14245513  0.33378326  0.83610395  1
  Cu  Cu14  1  0.48840062  0.35925321  0.93015495  1
  Cu  Cu15  1  0.54058852  0.00000000  0.26925082  1
  Cu  Cu16  1  0.00000000  0.18696753  0.45822644  1
  Cu  Cu17  1  0.35925321  0.87085259  0.43015495  1
  Cu  Cu18  1  0.85754487  0.66621674  0.33610395  1
  Cu  Cu19  1  0.18696753  0.18696753  0.95822644  1
  Cu  Cu20  1  0.35572965  0.19466554  0.55530762  1
  Cu  Cu21  1  0.33378326  0.19132813  0.33610395  1
  Cu  Cu22  1  0.00000000  0.45941148  0.76925082  1
  Cu  Cu23  1  0.64427035  0.83893589  0.55530762  1
  Cu  Cu24  1  0.64074679  0.51159938  0.43015495  1
  Cu  Cu25  1  0.33378326  0.14245513  0.83610395  1
  Cu  Cu26  1  0.87085259  0.51159938  0.93015495  1
  Cu  Cu27  1  0.64074679  0.12914741  0.93015495  1
  Cu  Cu28  1  0.80867187  0.14245513  0.33610395  1
  Cu  Cu29  1  0.85754487  0.19132813  0.83610395  1
  Cu  Cu30  1  0.19132813  0.33378326  0.33610395  1
  Cu  Cu31  1  0.51159938  0.64074679  0.43015495  1
  Cu  Cu32  1  0.64427035  0.80533446  0.05530762  1
  Cu  Cu33  1  0.81303247  0.00000000  0.95822644  1
  Cu  Cu34  1  0.45941148  0.45941148  0.26925082  1
  Cu  Cu35  1  0.00000000  0.54058852  0.26925082  1
  Cu  Cu36  1  0.18696753  0.00000000  0.45822644  1
  Cu  Cu37  1  0.00000000  0.81303247  0.95822644  1
  Cu  Cu38  1  0.14245513  0.80867187  0.33610395  1
  Cu  Cu39  1  0.48840062  0.12914741  0.43015495  1
  Cu  Cu40  1  0.12914741  0.48840062  0.43015495  1
  Cu  Cu41  1  0.54058852  0.54058852  0.76925082  1
  Cu  Cu42  1  0.19466554  0.83893589  0.05530762  1
  Cu  Cu43  1  0.66621674  0.85754487  0.33610395  1
  Cu  Cu44  1  0.19132813  0.85754487  0.83610395  1
  Cu  Cu45  1  0.81303247  0.81303247  0.45822644  1
  Cu  Cu46  1  0.16106411  0.35572965  0.05530762  1
  Cu  Cu47  1  0.66621674  0.80867187  0.83610395  1
  Ge  Ge48  1  0.66666700  0.33333300  0.67313759  1
  Ge  Ge49  1  0.66666700  0.33333300  0.17313759  1
  Ge  Ge50  1  0.33333300  0.66666700  0.17313759  1
  Ge  Ge51  1  0.00000000  0.00000000  0.70048611  1
  Ge  Ge52  1  0.33333300  0.66666700  0.67313759  1
  Ge  Ge53  1  0.00000000  0.00000000  0.20048611  1
  Se  Se54  1  0.65163784  0.00000000  0.07867784  1
  Se  Se55  1  0.00000000  0.63997352  0.44499297  1
  Se  Se56  1  0.34836216  0.34836216  0.07867784  1
  Se  Se57  1  0.00000000  0.18252206  0.24669588  1
  Se  Se58  1  0.00000000  0.34836216  0.57867784  1
  Se  Se59  1  0.81747794  0.81747794  0.24669588  1
  Se  Se60  1  0.33333300  0.66666700  0.97144455  1
  Se  Se61  1  0.65163784  0.65163784  0.57867784  1
  Se  Se62  1  0.84368974  0.51856053  0.72339880  1
  Se  Se63  1  0.18252206  0.00000000  0.24669588  1
  Se  Se64  1  0.66666700  0.33333300  0.47144455  1
  Se  Se65  1  0.32512921  0.48143947  0.72339880  1
  Se  Se66  1  0.81747794  0.00000000  0.74669588  1
  Se  Se67  1  0.00000000  0.65163784  0.07867784  1
  Se  Se68  1  0.67487079  0.51856053  0.22339880  1
  Se  Se69  1  0.00000000  0.00000000  0.49922584  1
  Se  Se70  1  0.84368974  0.32512921  0.22339880  1
  Se  Se71  1  0.34836216  0.00000000  0.57867784  1
  Se  Se72  1  0.33333300  0.66666700  0.47144455  1
  Se  Se73  1  0.18252206  0.18252206  0.74669588  1
  Se  Se74  1  0.51856053  0.84368974  0.72339880  1
  Se  Se75  1  0.32512921  0.84368974  0.22339880  1
  Se  Se76  1  0.15631026  0.48143947  0.22339880  1
  Se  Se77  1  0.15631026  0.67487079  0.72339880  1
  Se  Se78  1  0.66666700  0.33333300  0.97144455  1
  Se  Se79  1  1.00000000  0.81747794  0.74669588  1
  Se  Se80  1  0.00000000  0.36002648  0.94499297  1
  Se  Se81  1  0.36002648  0.00000000  0.94499297  1
  Se  Se82  1  0.63997352  0.00000000  0.44499297  1
  Se  Se83  1  0.51856053  0.67487079  0.22339880  1
  Se  Se84  1  0.63997352  0.63997352  0.94499297  1
  Se  Se85  1  0.36002648  0.36002648  0.44499297  1
  Se  Se86  1  0.67487079  0.15631026  0.72339880  1
  Se  Se87  1  0.48143947  0.32512921  0.72339880  1
  Se  Se88  1  0.00000000  0.00000000  0.99922584  1
  Se  Se89  1  0.48143947  0.15631026  0.22339880  1
