# generated using pymatgen
data_Ni4P4O15
_symmetry_space_group_name_H-M   'P 1'
_cell_length_a   8.67158030
_cell_length_b   8.67158071
_cell_length_c   18.07094797
_cell_angle_alpha   82.22757341
_cell_angle_beta   97.77242499
_cell_angle_gamma   72.78828727
_symmetry_Int_Tables_number   1
_chemical_formula_structural   Ni4P4O15
_chemical_formula_sum   'Ni16 P16 O60'
_cell_volume   1263.84882835
_cell_formula_units_Z   4
loop_
 _symmetry_equiv_pos_site_id
 _symmetry_equiv_pos_as_xyz
  1  'x, y, z'
loop_
 _atom_site_type_symbol
 _atom_site_label
 _atom_site_symmetry_multiplicity
 _atom_site_fract_x
 _atom_site_fract_y
 _atom_site_fract_z
 _atom_site_occupancy
  Ni  Ni0  1  0.08577170  0.26789521  0.93406186  1
  Ni  Ni1  1  0.05227158  0.05227158  0.25000000  1
  Ni  Ni2  1  0.00000000  0.50000000  0.50000000  1
  Ni  Ni3  1  0.16625132  0.16625132  0.75000000  1
  Ni  Ni4  1  0.03942346  0.84998164  0.56825001  1
  Ni  Ni5  1  0.26789521  0.08577170  0.56593814  1
  Ni  Ni6  1  0.15001836  0.96057654  0.06825001  1
  Ni  Ni7  1  0.47826217  0.47826217  0.75000000  1
  Ni  Ni8  1  0.50000000  0.00000000  0.00000000  1
  Ni  Ni9  1  0.52173783  0.52173783  0.25000000  1
  Ni  Ni10  1  0.84998164  0.03942346  0.93174999  1
  Ni  Ni11  1  0.73210479  0.91422830  0.43406186  1
  Ni  Ni12  1  0.96057654  0.15001836  0.43174999  1
  Ni  Ni13  1  0.83374868  0.83374868  0.25000000  1
  Ni  Ni14  1  0.94772842  0.94772842  0.75000000  1
  Ni  Ni15  1  0.91422830  0.73210479  0.06593814  1
  P  P16  1  0.01324111  0.68584509  0.90132124  1
  P  P17  1  0.22104808  0.43987048  0.62488319  1
  P  P18  1  0.11342825  0.77431559  0.40318688  1
  P  P19  1  0.22568541  0.88657175  0.90318688  1
  P  P20  1  0.43987048  0.22104808  0.87511681  1
  P  P21  1  0.15628756  0.71973406  0.17974995  1
  P  P22  1  0.28026594  0.84371244  0.67974995  1
  P  P23  1  0.31415491  0.98675889  0.40132124  1
  P  P24  1  0.68584509  0.01324111  0.59867876  1
  P  P25  1  0.71973406  0.15628756  0.32025005  1
  P  P26  1  0.84371244  0.28026594  0.82025005  1
  P  P27  1  0.56012952  0.77895192  0.12488319  1
  P  P28  1  0.77431559  0.11342825  0.09681312  1
  P  P29  1  0.88657175  0.22568541  0.59681312  1
  P  P30  1  0.77895192  0.56012952  0.37511681  1
  P  P31  1  0.98675889  0.31415491  0.09867876  1
  O  O32  1  0.11118402  0.00227050  0.94935128  1
  O  O33  1  0.00227050  0.11118402  0.55064872  1
  O  O34  1  0.02085695  0.28754964  0.81759968  1
  O  O35  1  0.04240274  0.50697171  0.92808316  1
  O  O36  1  0.05029405  0.25395002  0.18330768  1
  O  O37  1  0.16200141  0.38402364  0.69651559  1
  O  O38  1  0.08817030  0.60410245  0.57952121  1
  O  O39  1  0.20848676  0.09764411  0.44958124  1
  O  O40  1  0.28754964  0.02085695  0.68240032  1
  O  O41  1  0.09764411  0.20848676  0.05041876  1
  O  O42  1  0.33087502  0.21359307  0.93738779  1
  O  O43  1  0.19287110  0.71435203  0.92080106  1
  O  O44  1  0.21359307  0.33087502  0.56261221  1
  O  O45  1  0.10300949  0.82971663  0.68325668  1
  O  O46  1  0.25395002  0.05029405  0.31669232  1
  O  O47  1  0.13323518  0.59711576  0.42941181  1
  O  O48  1  0.04834221  0.83778687  0.31674777  1
  O  O49  1  0.16221313  0.95165779  0.81674777  1
  O  O50  1  0.38402364  0.16200141  0.80348441  1
  O  O51  1  0.16392973  0.71728305  0.09264205  1
  O  O52  1  0.45580139  0.39151976  0.85163379  1
  O  O53  1  0.39151976  0.45580139  0.64836621  1
  O  O54  1  0.50697171  0.04240274  0.57191684  1
  O  O55  1  0.28271695  0.83607027  0.59264205  1
  O  O56  1  0.17028337  0.89699051  0.18325668  1
  O  O57  1  0.28602858  0.58523967  0.23680794  1
  O  O58  1  0.60410245  0.08817030  0.92047879  1
  O  O59  1  0.28564797  0.80712890  0.42080106  1
  O  O60  1  0.40288424  0.86676482  0.92941181  1
  O  O61  1  0.41476033  0.71397142  0.73680794  1
  O  O62  1  0.58523967  0.28602858  0.26319206  1
  O  O63  1  0.59711576  0.13323518  0.07058819  1
  O  O64  1  0.71435203  0.19287110  0.57919894  1
  O  O65  1  0.39589755  0.91182970  0.07952121  1
  O  O66  1  0.71397142  0.41476033  0.76319206  1
  O  O67  1  0.82971663  0.10300949  0.81674332  1
  O  O68  1  0.71728305  0.16392973  0.40735795  1
  O  O69  1  0.49302829  0.95759726  0.42808316  1
  O  O70  1  0.60848024  0.54419861  0.35163379  1
  O  O71  1  0.54419861  0.60848024  0.14836621  1
  O  O72  1  0.83607027  0.28271695  0.90735795  1
  O  O73  1  0.61597636  0.83799859  0.19651559  1
  O  O74  1  0.83778687  0.04834221  0.18325223  1
  O  O75  1  0.95165779  0.16221313  0.68325223  1
  O  O76  1  0.86676482  0.40288424  0.57058819  1
  O  O77  1  0.74604998  0.94970595  0.68330768  1
  O  O78  1  0.89699051  0.17028337  0.31674332  1
  O  O79  1  0.78640693  0.66912498  0.43738779  1
  O  O80  1  0.80712890  0.28564797  0.07919894  1
  O  O81  1  0.66912498  0.78640693  0.06261221  1
  O  O82  1  0.90235589  0.79151324  0.94958124  1
  O  O83  1  0.71245036  0.97914305  0.31759968  1
  O  O84  1  0.79151324  0.90235589  0.55041876  1
  O  O85  1  0.91182970  0.39589755  0.42047879  1
  O  O86  1  0.83799859  0.61597636  0.30348441  1
  O  O87  1  0.94970595  0.74604998  0.81669232  1
  O  O88  1  0.95759726  0.49302829  0.07191684  1
  O  O89  1  0.97914305  0.71245036  0.18240032  1
  O  O90  1  0.99772950  0.88881598  0.44935128  1
  O  O91  1  0.88881598  0.99772950  0.05064872  1
