# generated using pymatgen
data_NaSrMg6
_symmetry_space_group_name_H-M   'P 1'
_cell_length_a   7.01195225
_cell_length_b   6.64685464
_cell_length_c   5.42068185
_cell_angle_alpha   90.00000000
_cell_angle_beta   90.00000000
_cell_angle_gamma   118.29205723
_symmetry_Int_Tables_number   1
_chemical_formula_structural   NaSrMg6
_chemical_formula_sum   'Na1 Sr1 Mg6'
_cell_volume   222.46395361
_cell_formula_units_Z   1
loop_
 _symmetry_equiv_pos_site_id
 _symmetry_equiv_pos_as_xyz
  1  'x, y, z'
loop_
 _atom_site_type_symbol
 _atom_site_label
 _atom_site_symmetry_multiplicity
 _atom_site_fract_x
 _atom_site_fract_y
 _atom_site_fract_z
 _atom_site_occupancy
  Na  Na0  1  0.16239702  0.33119801  0.25000000  1
  Sr  Sr1  1  0.15466631  0.82733265  0.25000000  1
  Mg  Mg2  1  0.65586645  0.33217270  0.25000000  1
  Mg  Mg3  1  0.65586645  0.82369275  0.25000000  1
  Mg  Mg4  1  0.36202943  0.18738248  0.75000000  1
  Mg  Mg5  1  0.36202943  0.67464794  0.75000000  1
  Mg  Mg6  1  0.83217149  0.16608625  0.75000000  1
  Mg  Mg7  1  0.81497343  0.65748721  0.75000000  1
