# generated using pymatgen
data_H3NO4
_symmetry_space_group_name_H-M   'P 1'
_cell_length_a   5.54951165
_cell_length_b   9.82814029
_cell_length_c   6.19032705
_cell_angle_alpha   90.00000000
_cell_angle_beta   90.00000000
_cell_angle_gamma   90.00000000
_symmetry_Int_Tables_number   1
_chemical_formula_structural   H3NO4
_chemical_formula_sum   'H12 N4 O16'
_cell_volume   337.62897400
_cell_formula_units_Z   4
loop_
 _symmetry_equiv_pos_site_id
 _symmetry_equiv_pos_as_xyz
  1  'x, y, z'
loop_
 _atom_site_type_symbol
 _atom_site_label
 _atom_site_symmetry_multiplicity
 _atom_site_fract_x
 _atom_site_fract_y
 _atom_site_fract_z
 _atom_site_occupancy
  H  H0  1  0.70223592  0.39180211  0.66431427  1
  H  H1  1  0.20223592  0.60819789  0.33568573  1
  H  H2  1  0.20223592  0.89180211  0.83568573  1
  H  H3  1  0.70223592  0.10819789  0.16431427  1
  H  H4  1  0.62888705  0.20391524  0.88686512  1
  H  H5  1  0.38566614  0.20458822  0.01126987  1
  H  H6  1  0.12888705  0.79608476  0.11313488  1
  H  H7  1  0.88566614  0.79541178  0.98873013  1
  H  H8  1  0.12888705  0.70391524  0.61313488  1
  H  H9  1  0.88566614  0.70458822  0.48873013  1
  H  H10  1  0.62888705  0.29608476  0.38686512  1
  H  H11  1  0.38566614  0.29541178  0.51126987  1
  N  N12  1  0.02718835  0.40743042  0.78464575  1
  N  N13  1  0.52718835  0.59256958  0.21535425  1
  N  N14  1  0.52718835  0.90743042  0.71535425  1
  N  N15  1  0.02718835  0.09256958  0.28464575  1
  O  O16  1  0.81806920  0.46862776  0.71752925  1
  O  O17  1  0.31806920  0.53137224  0.28247075  1
  O  O18  1  0.31806920  0.96862776  0.78247075  1
  O  O19  1  0.81806920  0.03137224  0.21752925  1
  O  O20  1  0.20294433  0.48245971  0.79551146  1
  O  O21  1  0.70294433  0.51754029  0.20448854  1
  O  O22  1  0.70294433  0.98245971  0.70448854  1
  O  O23  1  0.20294433  0.01754029  0.29551146  1
  O  O24  1  0.02092449  0.28422967  0.82642768  1
  O  O25  1  0.52092449  0.71577033  0.17357232  1
  O  O26  1  0.52092449  0.78422967  0.67357232  1
  O  O27  1  0.02092449  0.21577033  0.32642768  1
  O  O28  1  0.55974051  0.21260089  0.03182449  1
  O  O29  1  0.05974051  0.78739911  0.96817551  1
  O  O30  1  0.05974051  0.71260089  0.46817551  1
  O  O31  1  0.55974051  0.28739911  0.53182449  1
