# generated using pymatgen
data_CaCuAs2O7
_symmetry_space_group_name_H-M   'P 1'
_cell_length_a   7.33780226
_cell_length_b   9.06198774
_cell_length_c   9.45469216
_cell_angle_alpha   90.00000000
_cell_angle_beta   109.25264519
_cell_angle_gamma   90.00000000
_symmetry_Int_Tables_number   1
_chemical_formula_structural   CaCuAs2O7
_chemical_formula_sum   'Ca4 Cu4 As8 O28'
_cell_volume   593.53018689
_cell_formula_units_Z   4
loop_
 _symmetry_equiv_pos_site_id
 _symmetry_equiv_pos_as_xyz
  1  'x, y, z'
loop_
 _atom_site_type_symbol
 _atom_site_label
 _atom_site_symmetry_multiplicity
 _atom_site_fract_x
 _atom_site_fract_y
 _atom_site_fract_z
 _atom_site_occupancy
  O  O0  1  0.84709482  0.31802818  0.03819127  1
  O  O1  1  0.15290518  0.81802818  0.46180873  1
  O  O2  1  0.15290518  0.68197182  0.96180873  1
  O  O3  1  0.84709482  0.18197182  0.53819127  1
  O  O4  1  0.35032251  0.41845769  0.72113078  1
  O  O5  1  0.64967749  0.91845769  0.77886922  1
  O  O6  1  0.64967749  0.58154231  0.27886922  1
  O  O7  1  0.35032251  0.08154231  0.22113078  1
  O  O8  1  0.43089734  0.13917071  0.89329482  1
  O  O9  1  0.56910266  0.63917071  0.60670518  1
  O  O10  1  0.56910266  0.86082929  0.10670518  1
  O  O11  1  0.43089734  0.36082929  0.39329482  1
  O  O12  1  0.25130148  0.13791513  0.58531262  1
  O  O13  1  0.74869852  0.63791513  0.91468738  1
  O  O14  1  0.74869852  0.86208487  0.41468738  1
  O  O15  1  0.25130148  0.36208487  0.08531262  1
  O  O16  1  0.00607769  0.08676078  0.30897587  1
  O  O17  1  0.99392231  0.58676078  0.19102413  1
  O  O18  1  0.99392231  0.91323922  0.69102413  1
  O  O19  1  0.00607769  0.41323922  0.80897587  1
  O  O20  1  0.63471323  0.27004432  0.20092518  1
  O  O21  1  0.36528677  0.77004432  0.29907482  1
  O  O22  1  0.36528677  0.72995568  0.79907482  1
  O  O23  1  0.63471323  0.22995568  0.70092518  1
  O  O24  1  0.01355152  0.38127746  0.41663475  1
  O  O25  1  0.98644848  0.88127746  0.08336525  1
  O  O26  1  0.98644848  0.61872254  0.58336525  1
  O  O27  1  0.01355152  0.11872254  0.91663475  1
  Ca  Ca28  1  0.24742100  0.93421108  0.93781670  1
  Ca  Ca29  1  0.75257900  0.43421108  0.56218330  1
  Ca  Ca30  1  0.75257900  0.06578892  0.06218330  1
  Ca  Ca31  1  0.24742100  0.56578892  0.43781670  1
  Cu  Cu32  1  0.78294089  0.05109861  0.67916791  1
  Cu  Cu33  1  0.21705911  0.55109861  0.82083209  1
  Cu  Cu34  1  0.21705911  0.94890139  0.32083209  1
  Cu  Cu35  1  0.78294089  0.44890139  0.17916791  1
  As  As36  1  0.42128294  0.23737942  0.73802250  1
  As  As37  1  0.57871706  0.73737942  0.76197750  1
  As  As38  1  0.57871706  0.76262058  0.26197750  1
  As  As39  1  0.42128294  0.26262058  0.23802250  1
  As  As40  1  0.02498094  0.30036586  0.95873226  1
  As  As41  1  0.97501906  0.80036586  0.54126774  1
  As  As42  1  0.97501906  0.69963414  0.04126774  1
  As  As43  1  0.02498094  0.19963414  0.45873226  1
