# generated using pymatgen
data_La4(CoO3)3
_symmetry_space_group_name_H-M   'P 1'
_cell_length_a   5.48657718
_cell_length_b   5.74537927
_cell_length_c   28.45083952
_cell_angle_alpha   90.00000000
_cell_angle_beta   90.00000000
_cell_angle_gamma   90.00000000
_symmetry_Int_Tables_number   1
_chemical_formula_structural   La4(CoO3)3
_chemical_formula_sum   'La16 Co12 O36'
_cell_volume   896.84064401
_cell_formula_units_Z   4
loop_
 _symmetry_equiv_pos_site_id
 _symmetry_equiv_pos_as_xyz
  1  'x, y, z'
loop_
 _atom_site_type_symbol
 _atom_site_label
 _atom_site_symmetry_multiplicity
 _atom_site_fract_x
 _atom_site_fract_y
 _atom_site_fract_z
 _atom_site_occupancy
  La  La0  1  0.75128887  0.97957734  0.67161505  1
  La  La1  1  0.25380751  0.48291801  0.95068375  1
  La  La2  1  0.24871113  0.02042266  0.32838495  1
  La  La3  1  0.25128887  0.52042266  0.67161505  1
  La  La4  1  0.74871113  0.47957734  0.32838495  1
  La  La5  1  0.75380751  0.01708199  0.95068375  1
  La  La6  1  0.74871113  0.47957734  0.17161505  1
  La  La7  1  0.24871113  0.02042266  0.17161505  1
  La  La8  1  0.24619249  0.98291801  0.45068375  1
  La  La9  1  0.74619249  0.51708199  0.04931625  1
  La  La10  1  0.74619249  0.51708199  0.45068375  1
  La  La11  1  0.75380751  0.01708199  0.54931625  1
  La  La12  1  0.24619249  0.98291801  0.04931625  1
  La  La13  1  0.25128887  0.52042266  0.82838495  1
  La  La14  1  0.25380751  0.48291801  0.54931625  1
  La  La15  1  0.75128887  0.97957734  0.82838495  1
  Co  Co16  1  0.29644923  0.05978838  0.75000000  1
  Co  Co17  1  0.24960547  0.50106869  0.39046180  1
  Co  Co18  1  0.75039453  0.49893131  0.89046180  1
  Co  Co19  1  0.25039453  0.00106869  0.89046180  1
  Co  Co20  1  0.79644923  0.44021162  0.75000000  1
  Co  Co21  1  0.24960547  0.50106869  0.10953820  1
  Co  Co22  1  0.74960547  0.99893131  0.39046180  1
  Co  Co23  1  0.20355077  0.55978838  0.25000000  1
  Co  Co24  1  0.74960547  0.99893131  0.10953820  1
  Co  Co25  1  0.70355077  0.94021162  0.25000000  1
  Co  Co26  1  0.25039453  0.00106869  0.60953820  1
  Co  Co27  1  0.75039453  0.49893131  0.60953820  1
  O  O28  1  0.99981235  0.75006012  0.38087870  1
  O  O29  1  0.26352598  0.42074859  0.18848195  1
  O  O30  1  0.73647402  0.57925141  0.68848195  1
  O  O31  1  0.23647402  0.92074859  0.81151805  1
  O  O32  1  0.75364347  0.93253672  0.47004372  1
  O  O33  1  0.50453143  0.75360507  0.60165739  1
  O  O34  1  0.50018765  0.25006012  0.88087870  1
  O  O35  1  0.24635653  0.06746328  0.52995628  1
  O  O36  1  0.74635653  0.43253672  0.52995628  1
  O  O37  1  0.66945382  0.11169492  0.75000000  1
  O  O38  1  0.49546857  0.24639493  0.10165739  1
  O  O39  1  0.49981235  0.74993988  0.38087870  1
  O  O40  1  0.76352598  0.07925141  0.31151805  1
  O  O41  1  0.76352598  0.07925141  0.18848195  1
  O  O42  1  0.00453143  0.74639493  0.60165739  1
  O  O43  1  0.75364347  0.93253672  0.02995628  1
  O  O44  1  0.25364347  0.56746328  0.02995628  1
  O  O45  1  0.50018765  0.25006012  0.61912130  1
  O  O46  1  0.00018765  0.24993988  0.88087870  1
  O  O47  1  0.99981235  0.75006012  0.11912130  1
  O  O48  1  0.00453143  0.74639493  0.89834261  1
  O  O49  1  0.99546857  0.25360507  0.10165739  1
  O  O50  1  0.33054618  0.88830508  0.25000000  1
  O  O51  1  0.16945382  0.38830508  0.75000000  1
  O  O52  1  0.25364347  0.56746328  0.47004372  1
  O  O53  1  0.83054618  0.61169492  0.25000000  1
  O  O54  1  0.49981235  0.74993988  0.11912130  1
  O  O55  1  0.74635653  0.43253672  0.97004372  1
  O  O56  1  0.99546857  0.25360507  0.39834261  1
  O  O57  1  0.24635653  0.06746328  0.97004372  1
  O  O58  1  0.00018765  0.24993988  0.61912130  1
  O  O59  1  0.49546857  0.24639493  0.39834261  1
  O  O60  1  0.50453143  0.75360507  0.89834261  1
  O  O61  1  0.23647402  0.92074859  0.68848195  1
  O  O62  1  0.73647402  0.57925141  0.81151805  1
  O  O63  1  0.26352598  0.42074859  0.31151805  1
