# generated using pymatgen
data_La6Mg22Al
_symmetry_space_group_name_H-M   'P 1'
_cell_length_a   10.30280034
_cell_length_b   10.30279094
_cell_length_c   10.30270029
_cell_angle_alpha   59.99864175
_cell_angle_beta   59.99819056
_cell_angle_gamma   59.99933047
_symmetry_Int_Tables_number   1
_chemical_formula_structural   La6Mg22Al
_chemical_formula_sum   'La6 Mg22 Al1'
_cell_volume   773.27442116
_cell_formula_units_Z   1
loop_
 _symmetry_equiv_pos_site_id
 _symmetry_equiv_pos_as_xyz
  1  'x, y, z'
loop_
 _atom_site_type_symbol
 _atom_site_label
 _atom_site_symmetry_multiplicity
 _atom_site_fract_x
 _atom_site_fract_y
 _atom_site_fract_z
 _atom_site_occupancy
  La  La0  1  0.21203151  0.21204240  0.78795284  1
  La  La1  1  0.21207042  0.78794122  0.21205620  1
  La  La2  1  0.78792825  0.21207475  0.21206647  1
  La  La3  1  0.78793724  0.78793761  0.21204735  1
  La  La4  1  0.21203080  0.78796278  0.78793018  1
  La  La5  1  0.78796537  0.21207525  0.78791859  1
  Mg  Mg6  1  0.13631385  0.62122371  0.62123387  1
  Mg  Mg7  1  0.17119219  0.48641949  0.17119135  1
  Mg  Mg8  1  0.62122163  0.13632991  0.62122709  1
  Mg  Mg9  1  0.00000687  0.50001041  0.49999125  1
  Mg  Mg10  1  0.50001693  -0.00001311  0.00000317  1
  Mg  Mg11  1  0.51359515  0.82879995  0.82879960  1
  Mg  Mg12  1  0.62123900  0.62123551  0.13628347  1
  Mg  Mg13  1  0.17119046  0.17119567  0.17119232  1
  Mg  Mg14  1  0.17119544  0.17119843  0.48640947  1
  Mg  Mg15  1  0.37876413  0.37875885  0.86371537  1
  Mg  Mg16  1  0.86368474  0.37876776  0.37877485  1
  Mg  Mg17  1  0.82880335  0.82880424  0.51358386  1
  Mg  Mg18  1  0.62123946  0.62123863  0.62124816  1
  Mg  Mg19  1  0.37876471  0.86370309  0.37876812  1
  Mg  Mg20  1  0.00002077  0.49999248  0.00000492  1
  Mg  Mg21  1  -0.00000542  -0.00001562  0.50001940  1
  Mg  Mg22  1  0.82880117  0.82880269  0.82879965  1
  Mg  Mg23  1  0.37875922  0.37875639  0.37876523  1
  Mg  Mg24  1  0.48641962  0.17119625  0.17119397  1
  Mg  Mg25  1  0.49999988  0.49998360  0.00001127  1
  Mg  Mg26  1  0.50000798  -0.00000931  0.50000836  1
  Mg  Mg27  1  0.82880096  0.51359251  0.82880096  1
  Al  Al28  1  0.50000434  0.49999447  0.50000266  1
