# generated using pymatgen
data_RbBiF4
_symmetry_space_group_name_H-M   'P 1'
_cell_length_a   8.53615403
_cell_length_b   8.53617222
_cell_length_c   8.53616485
_cell_angle_alpha   59.99928828
_cell_angle_beta   59.99923733
_cell_angle_gamma   59.99928521
_symmetry_Int_Tables_number   1
_chemical_formula_structural   RbBiF4
_chemical_formula_sum   'Rb4 Bi4 F16'
_cell_volume   439.81093437
_cell_formula_units_Z   4
loop_
 _symmetry_equiv_pos_site_id
 _symmetry_equiv_pos_as_xyz
  1  'x, y, z'
loop_
 _atom_site_type_symbol
 _atom_site_label
 _atom_site_symmetry_multiplicity
 _atom_site_fract_x
 _atom_site_fract_y
 _atom_site_fract_z
 _atom_site_occupancy
  Rb  Rb0  1  0.99996332  0.50011616  0.99996171  1
  Rb  Rb1  1  0.99996423  0.99995878  0.99995986  1
  Rb  Rb2  1  0.50011510  0.99996133  0.99995837  1
  Rb  Rb3  1  0.99995858  0.99996308  0.50011741  1
  Bi  Bi4  1  0.49999886  0.49999805  0.00000394  1
  Bi  Bi5  1  0.00000416  0.49999842  0.49999886  1
  Bi  Bi6  1  0.49999854  0.49999865  0.49999945  1
  Bi  Bi7  1  0.49999852  0.00000414  0.49999833  1
  F  F8  1  0.83766500  0.41233741  0.83766418  1
  F  F9  1  0.83766532  0.41233699  0.41233696  1
  F  F10  1  0.58767210  0.16232602  0.58767245  1
  F  F11  1  0.58767282  0.58767267  0.16232544  1
  F  F12  1  0.41233794  0.83766314  0.83766367  1
  F  F13  1  0.16232601  0.58767284  0.16232738  1
  F  F14  1  0.41233543  0.41233766  0.83766444  1
  F  F15  1  0.12499650  0.12500159  0.12499869  1
  F  F16  1  0.58767374  0.16232628  0.16232581  1
  F  F17  1  0.16232539  0.16232567  0.58767430  1
  F  F18  1  0.87500249  0.87500008  0.87500257  1
  F  F19  1  0.41233709  0.83766545  0.41233579  1
  F  F20  1  0.62500146  0.62500024  0.62500112  1
  F  F21  1  0.16232527  0.58767284  0.58767301  1
  F  F22  1  0.83766402  0.83766391  0.41233703  1
  F  F23  1  0.37499810  0.37499857  0.37499923  1
