# generated using pymatgen
data_V2HO4
_symmetry_space_group_name_H-M   'P 1'
_cell_length_a   4.63524641
_cell_length_b   4.89131289
_cell_length_c   2.94585731
_cell_angle_alpha   90.00000000
_cell_angle_beta   90.00000000
_cell_angle_gamma   92.74459567
_symmetry_Int_Tables_number   1
_chemical_formula_structural   V2HO4
_chemical_formula_sum   'V2 H1 O4'
_cell_volume   66.71316053
_cell_formula_units_Z   1
loop_
 _symmetry_equiv_pos_site_id
 _symmetry_equiv_pos_as_xyz
  1  'x, y, z'
loop_
 _atom_site_type_symbol
 _atom_site_label
 _atom_site_symmetry_multiplicity
 _atom_site_fract_x
 _atom_site_fract_y
 _atom_site_fract_z
 _atom_site_occupancy
  V  V0  1  0.48665946  0.52326761  0.50000000  1
  V  V1  1  0.02027118  0.99314307  0.00000000  1
  H  H2  1  0.59291149  0.04612944  0.50000000  1
  O  O3  1  0.76716208  0.17292061  0.50000000  1
  O  O4  1  0.23359450  0.82056882  0.50000000  1
  O  O5  1  0.28788500  0.31985859  0.00000000  1
  O  O6  1  0.71376229  0.69132185  0.00000000  1
