# generated using pymatgen
data_Ba(H2O3)2
_symmetry_space_group_name_H-M   'P 1'
_cell_length_a   6.71170869
_cell_length_b   6.37757517
_cell_length_c   6.79683501
_cell_angle_alpha   79.29261600
_cell_angle_beta   100.49122141
_cell_angle_gamma   86.34536394
_symmetry_Int_Tables_number   1
_chemical_formula_structural   Ba(H2O3)2
_chemical_formula_sum   'Ba2 H8 O12'
_cell_volume   279.65311915
_cell_formula_units_Z   2
loop_
 _symmetry_equiv_pos_site_id
 _symmetry_equiv_pos_as_xyz
  1  'x, y, z'
loop_
 _atom_site_type_symbol
 _atom_site_label
 _atom_site_symmetry_multiplicity
 _atom_site_fract_x
 _atom_site_fract_y
 _atom_site_fract_z
 _atom_site_occupancy
  Ba  Ba0  1  0.76601394  0.83765159  0.67716990  1
  Ba  Ba1  1  0.17554487  0.14290017  0.22261082  1
  H  H2  1  0.98100337  0.64761382  0.25616174  1
  H  H3  1  0.31770038  0.67808258  0.12907767  1
  H  H4  1  0.74122018  0.37194324  0.40630048  1
  H  H5  1  0.95795651  0.42932390  0.72789709  1
  H  H6  1  0.34165738  0.69843300  0.50324105  1
  H  H7  1  0.24641104  0.99666381  0.69618756  1
  H  H8  1  0.10891811  0.22405678  0.63724740  1
  H  H9  1  0.69506847  0.12363929  0.15638868  1
  O  O10  1  0.03097861  0.73611340  0.12804009  1
  O  O11  1  0.76430071  0.10623364  0.30253914  1
  O  O12  1  0.82219064  0.16217015  0.91436913  1
  O  O13  1  0.11494911  0.06995895  0.62026244  1
  O  O14  1  0.20160725  0.59073692  0.10644747  1
  O  O15  1  0.63990085  0.25324684  0.38701859  1
  O  O16  1  0.86779411  0.37207520  0.90354320  1
  O  O17  1  0.41452354  0.81895651  0.45524014  1
  O  O18  1  0.04556105  0.48200972  0.61544522  1
  O  O19  1  0.47390134  0.08172090  0.96982474  1
  O  O20  1  0.88875498  0.53639647  0.42325503  1
  O  O21  1  0.47093957  0.88250412  0.93932441  1
