# generated using pymatgen
data_H2W2O7
_symmetry_space_group_name_H-M   'P 1'
_cell_length_a   7.37322475
_cell_length_b   7.37057372
_cell_length_c   7.37132152
_cell_angle_alpha   60.02043961
_cell_angle_beta   59.98474825
_cell_angle_gamma   59.99481213
_symmetry_Int_Tables_number   1
_chemical_formula_structural   H2W2O7
_chemical_formula_sum   'H4 W4 O14'
_cell_volume   283.26246708
_cell_formula_units_Z   2
loop_
 _symmetry_equiv_pos_site_id
 _symmetry_equiv_pos_as_xyz
  1  'x, y, z'
loop_
 _atom_site_type_symbol
 _atom_site_label
 _atom_site_symmetry_multiplicity
 _atom_site_fract_x
 _atom_site_fract_y
 _atom_site_fract_z
 _atom_site_occupancy
  H  H0  1  0.56675766  0.58585093  0.77789925  1
  H  H1  1  0.58585093  0.56675766  0.56949317  1
  H  H2  1  0.43050683  0.22210075  0.41414907  1
  H  H3  1  0.22210075  0.43050683  0.43324234  1
  W  W4  1  0.99940896  0.49829848  0.00145801  1
  W  W5  1  0.99916546  0.99854199  0.50170152  1
  W  W6  1  0.49829848  0.99940896  0.00083454  1
  W  W7  1  0.99854199  0.99916546  0.00059104  1
  O  O8  1  0.69237010  0.05805213  0.05771961  1
  O  O9  1  0.05805213  0.69237010  0.69185816  1
  O  O10  1  0.05851040  0.05851040  0.69148960  1
  O  O11  1  0.69341948  0.69341948  0.05658052  1
  O  O12  1  0.05804662  0.69269196  0.05703021  1
  O  O13  1  0.69269196  0.05804662  0.69223122  1
  O  O14  1  0.30814184  0.94228039  0.94194787  1
  O  O15  1  0.94228039  0.30814184  0.30762990  1
  O  O16  1  0.94341948  0.94341948  0.30658052  1
  O  O17  1  0.30851040  0.30851040  0.94148960  1
  O  O18  1  0.94296979  0.30776878  0.94195338  1
  O  O19  1  0.30776878  0.94296979  0.30730804  1
  O  O20  1  0.63331228  0.63331228  0.61668772  1
  O  O21  1  0.38331228  0.38331228  0.36668772  1
