# generated using pymatgen
data_H2SO4
_symmetry_space_group_name_H-M   'P 1'
_cell_length_a   5.10455685
_cell_length_b   5.10455685
_cell_length_c   8.21903362
_cell_angle_alpha   70.05960541
_cell_angle_beta   109.94039459
_cell_angle_gamma   124.24883976
_symmetry_Int_Tables_number   1
_chemical_formula_structural   H2SO4
_chemical_formula_sum   'H4 S2 O8'
_cell_volume   163.31876877
_cell_formula_units_Z   2
loop_
 _symmetry_equiv_pos_site_id
 _symmetry_equiv_pos_as_xyz
  1  'x, y, z'
loop_
 _atom_site_type_symbol
 _atom_site_label
 _atom_site_symmetry_multiplicity
 _atom_site_fract_x
 _atom_site_fract_y
 _atom_site_fract_z
 _atom_site_occupancy
  H  H0  1  0.60789619  0.51630910  0.60482225  1
  H  H1  1  0.48369090  0.39210381  0.10482225  1
  H  H2  1  0.28096240  0.83634226  0.91710526  1
  H  H3  1  0.16365774  0.71903760  0.41710526  1
  S  S4  1  0.89813074  0.91458941  0.74709013  1
  S  S5  1  0.08541059  0.10186926  0.24709013  1
  O  O6  1  0.72914064  0.69660038  0.88841284  1
  O  O7  1  0.73474294  0.75434593  0.57818764  1
  O  O8  1  0.24565407  0.26525706  0.07818764  1
  O  O9  1  0.30339962  0.27085936  0.38841284  1
  O  O10  1  0.24864286  0.95726825  0.79734139  1
  O  O11  1  0.94309005  0.23299549  0.68043150  1
  O  O12  1  0.76700451  0.05690995  0.18043150  1
  O  O13  1  0.04273175  0.75135714  0.29734139  1
