# generated using pymatgen
data_H3ClO5
_symmetry_space_group_name_H-M   'P 1'
_cell_length_a   9.02457506
_cell_length_b   5.59796792
_cell_length_c   7.26262941
_cell_angle_alpha   90.00000000
_cell_angle_beta   90.00000000
_cell_angle_gamma   90.00000000
_symmetry_Int_Tables_number   1
_chemical_formula_structural   H3ClO5
_chemical_formula_sum   'H12 Cl4 O20'
_cell_volume   366.90282088
_cell_formula_units_Z   4
loop_
 _symmetry_equiv_pos_site_id
 _symmetry_equiv_pos_as_xyz
  1  'x, y, z'
loop_
 _atom_site_type_symbol
 _atom_site_label
 _atom_site_symmetry_multiplicity
 _atom_site_fract_x
 _atom_site_fract_y
 _atom_site_fract_z
 _atom_site_occupancy
  H  H0  1  0.14810566  0.89529496  0.11277636  1
  H  H1  1  0.14810566  0.60470504  0.11277636  1
  H  H2  1  0.26061171  0.75000000  0.25391863  1
  H  H3  1  0.76061171  0.75000000  0.24608137  1
  H  H4  1  0.64810566  0.60470504  0.38722364  1
  H  H5  1  0.64810566  0.89529496  0.38722364  1
  H  H6  1  0.73938829  0.25000000  0.74608137  1
  H  H7  1  0.85189434  0.10470504  0.88722364  1
  H  H8  1  0.85189434  0.39529496  0.88722364  1
  H  H9  1  0.23938829  0.25000000  0.75391863  1
  H  H10  1  0.35189434  0.39529496  0.61277636  1
  H  H11  1  0.35189434  0.10470504  0.61277636  1
  Cl  Cl12  1  0.91615452  0.25000000  0.29484074  1
  Cl  Cl13  1  0.41615452  0.25000000  0.20515926  1
  Cl  Cl14  1  0.08384548  0.75000000  0.70515926  1
  Cl  Cl15  1  0.58384548  0.75000000  0.79484074  1
  O  O16  1  0.78717884  0.25000000  0.41753675  1
  O  O17  1  0.28717884  0.25000000  0.08246325  1
  O  O18  1  0.21282116  0.75000000  0.58246325  1
  O  O19  1  0.71282116  0.75000000  0.91753675  1
  O  O20  1  0.05258143  0.25000000  0.39749890  1
  O  O21  1  0.55258143  0.25000000  0.10250110  1
  O  O22  1  0.94741857  0.75000000  0.60250110  1
  O  O23  1  0.44741857  0.75000000  0.89749890  1
  O  O24  1  0.90845231  0.03709799  0.17507964  1
  O  O25  1  0.40845231  0.46290201  0.32492036  1
  O  O26  1  0.09154769  0.53709799  0.82492036  1
  O  O27  1  0.59154769  0.96290201  0.67507964  1
  O  O28  1  0.09154769  0.96290201  0.82492036  1
  O  O29  1  0.59154769  0.53709799  0.67507964  1
  O  O30  1  0.90845231  0.46290201  0.17507964  1
  O  O31  1  0.40845231  0.03709799  0.32492036  1
  O  O32  1  0.16361819  0.75000000  0.18858091  1
  O  O33  1  0.66361819  0.75000000  0.31141909  1
  O  O34  1  0.83638181  0.25000000  0.81141909  1
  O  O35  1  0.33638181  0.25000000  0.68858091  1
