# generated using pymatgen
data_LiCu4(PO4)3
_symmetry_space_group_name_H-M   'P 1'
_cell_length_a   7.39972981
_cell_length_b   7.77096836
_cell_length_c   9.55720892
_cell_angle_alpha   109.53229809
_cell_angle_beta   111.70946760
_cell_angle_gamma   92.46479981
_symmetry_Int_Tables_number   1
_chemical_formula_structural   LiCu4(PO4)3
_chemical_formula_sum   'Li2 Cu8 P6 O24'
_cell_volume   472.40710538
_cell_formula_units_Z   2
loop_
 _symmetry_equiv_pos_site_id
 _symmetry_equiv_pos_as_xyz
  1  'x, y, z'
loop_
 _atom_site_type_symbol
 _atom_site_label
 _atom_site_symmetry_multiplicity
 _atom_site_fract_x
 _atom_site_fract_y
 _atom_site_fract_z
 _atom_site_occupancy
  Li  Li0  1  0.36193423  0.14444703  0.37556214  1
  Li  Li1  1  0.63806577  0.85555297  0.62443786  1
  Cu  Cu2  1  0.98467122  0.20938252  0.54719699  1
  Cu  Cu3  1  0.73138132  0.47169261  0.07874189  1
  Cu  Cu4  1  0.73372017  0.10495113  0.09937354  1
  Cu  Cu5  1  0.26627983  0.89504887  0.90062646  1
  Cu  Cu6  1  0.26861868  0.52830739  0.92125811  1
  Cu  Cu7  1  0.29490278  0.60737211  0.28470301  1
  Cu  Cu8  1  0.01532878  0.79061748  0.45280301  1
  Cu  Cu9  1  0.70509722  0.39262789  0.71529699  1
  P  P10  1  0.69237775  0.45240089  0.39196295  1
  P  P11  1  0.98066183  0.75236264  0.05968829  1
  P  P12  1  0.01933817  0.24763736  0.94031171  1
  P  P13  1  0.39141634  0.13613750  0.74374442  1
  P  P14  1  0.30762225  0.54759911  0.60803705  1
  P  P15  1  0.60858366  0.86386250  0.25625558  1
  O  O16  1  0.58268419  0.66267086  0.13848044  1
  O  O17  1  0.81108399  0.65399378  0.49181402  1
  O  O18  1  0.18608488  0.42434567  0.05216562  1
  O  O19  1  0.81391512  0.57565433  0.94783438  1
  O  O20  1  0.46753127  0.43832890  0.33950187  1
  O  O21  1  0.74140509  0.36481882  0.23945497  1
  O  O22  1  0.25859491  0.63518118  0.76054503  1
  O  O23  1  0.07708783  0.73980259  0.23147057  1
  O  O24  1  0.13939186  0.74430418  0.98702865  1
  O  O25  1  0.52287535  0.12933390  0.64970984  1
  O  O26  1  0.53246873  0.56167110  0.66049813  1
  O  O27  1  0.54662333  0.99339766  0.15819834  1
  O  O28  1  0.90251847  0.92975776  0.07350453  1
  O  O29  1  0.16881800  0.05716822  0.62247534  1
  O  O30  1  0.92291217  0.26019741  0.76852943  1
  O  O31  1  0.18891601  0.34600622  0.50818598  1
  O  O32  1  0.09748153  0.07024224  0.92649547  1
  O  O33  1  0.75277776  0.32662494  0.49479907  1
  O  O34  1  0.47712465  0.87066610  0.35029016  1
  O  O35  1  0.86060814  0.25569582  0.01297135  1
  O  O36  1  0.41731581  0.33732914  0.86151956  1
  O  O37  1  0.45337667  0.00660234  0.84180166  1
  O  O38  1  0.24722224  0.67337506  0.50520093  1
  O  O39  1  0.83118200  0.94283178  0.37752466  1
