# generated using pymatgen
data_Si2Ni5P3
_symmetry_space_group_name_H-M   'P 1'
_cell_length_a   4.91299876
_cell_length_b   5.94242944
_cell_length_c   34.27215939
_cell_angle_alpha   90.00000000
_cell_angle_beta   90.00000000
_cell_angle_gamma   90.00000000
_symmetry_Int_Tables_number   1
_chemical_formula_structural   Si2Ni5P3
_chemical_formula_sum   'Si16 Ni40 P24'
_cell_volume   1000.58078178
_cell_formula_units_Z   8
loop_
 _symmetry_equiv_pos_site_id
 _symmetry_equiv_pos_as_xyz
  1  'x, y, z'
loop_
 _atom_site_type_symbol
 _atom_site_label
 _atom_site_symmetry_multiplicity
 _atom_site_fract_x
 _atom_site_fract_y
 _atom_site_fract_z
 _atom_site_occupancy
  Si  Si0  1  0.69591072  0.41766709  0.87620626  1
  Si  Si1  1  0.80408928  0.91766709  0.12379374  1
  Si  Si2  1  0.80408928  0.41766709  0.37620626  1
  Si  Si3  1  0.21952264  0.09011433  0.77301546  1
  Si  Si4  1  0.21952264  0.59011433  0.72698454  1
  Si  Si5  1  0.19591072  0.08233291  0.87620626  1
  Si  Si6  1  0.69591072  0.91766709  0.62379374  1
  Si  Si7  1  0.28047736  0.59011433  0.22698454  1
  Si  Si8  1  0.19591072  0.58233291  0.62379374  1
  Si  Si9  1  0.78047736  0.90988567  0.22698454  1
  Si  Si10  1  0.78047736  0.40988567  0.27301546  1
  Si  Si11  1  0.30408928  0.58233291  0.12379374  1
  Si  Si12  1  0.71952264  0.40988567  0.77301546  1
  Si  Si13  1  0.71952264  0.90988567  0.72698454  1
  Si  Si14  1  0.30408928  0.08233291  0.37620626  1
  Si  Si15  1  0.28047736  0.09011433  0.27301546  1
  Ni  Ni16  1  0.00466477  0.19916300  0.32619952  1
  Ni  Ni17  1  0.51155019  0.30061331  0.02402647  1
  Ni  Ni18  1  0.49202096  0.70519927  0.37197343  1
  Ni  Ni19  1  0.99202096  0.79480073  0.37197343  1
  Ni  Ni20  1  0.49981471  0.71810120  0.28093919  1
  Ni  Ni21  1  0.01155019  0.19938669  0.02402647  1
  Ni  Ni22  1  0.99202096  0.29480073  0.12802657  1
  Ni  Ni23  1  0.49872178  0.78880569  0.56782039  1
  Ni  Ni24  1  0.00797904  0.70519927  0.87197343  1
  Ni  Ni25  1  0.49533523  0.69916300  0.67380048  1
  Ni  Ni26  1  0.48844981  0.19938669  0.52402647  1
  Ni  Ni27  1  0.49872178  0.28880569  0.93217961  1
  Ni  Ni28  1  0.00018529  0.71810120  0.78093919  1
  Ni  Ni29  1  0.50466477  0.30083700  0.32619952  1
  Ni  Ni30  1  0.50127822  0.21119431  0.43217961  1
  Ni  Ni31  1  0.01155019  0.69938669  0.47597353  1
  Ni  Ni32  1  0.00018529  0.21810120  0.71906081  1
  Ni  Ni33  1  0.98844981  0.30061331  0.52402647  1
  Ni  Ni34  1  0.99533523  0.30083700  0.82619952  1
  Ni  Ni35  1  0.49981471  0.21810120  0.21906081  1
  Ni  Ni36  1  0.48844981  0.69938669  0.97597353  1
  Ni  Ni37  1  0.99981471  0.28189880  0.21906081  1
  Ni  Ni38  1  0.50018529  0.28189880  0.71906081  1
  Ni  Ni39  1  0.49202096  0.20519927  0.12802657  1
  Ni  Ni40  1  0.50797904  0.79480073  0.87197343  1
  Ni  Ni41  1  0.99981471  0.78189880  0.28093919  1
  Ni  Ni42  1  0.00127822  0.78880569  0.06782039  1
  Ni  Ni43  1  0.00127822  0.28880569  0.43217961  1
  Ni  Ni44  1  0.99872178  0.71119431  0.56782039  1
  Ni  Ni45  1  0.50127822  0.71119431  0.06782039  1
  Ni  Ni46  1  0.50018529  0.78189880  0.78093919  1
  Ni  Ni47  1  0.50466477  0.80083700  0.17380048  1
  Ni  Ni48  1  0.98844981  0.80061331  0.97597353  1
  Ni  Ni49  1  0.49533523  0.19916300  0.82619952  1
  Ni  Ni50  1  0.99533523  0.80083700  0.67380048  1
  Ni  Ni51  1  0.00797904  0.20519927  0.62802657  1
  Ni  Ni52  1  0.99872178  0.21119431  0.93217961  1
  Ni  Ni53  1  0.51155019  0.80061331  0.47597353  1
  Ni  Ni54  1  0.50797904  0.29480073  0.62802657  1
  Ni  Ni55  1  0.00466477  0.69916300  0.17380048  1
  P  P56  1  0.20536454  0.07258739  0.57450936  1
  P  P57  1  0.68596395  0.93660893  0.32664761  1
  P  P58  1  0.81329062  0.43445390  0.97666465  1
  P  P59  1  0.18596395  0.06339107  0.17335239  1
  P  P60  1  0.68596395  0.43660893  0.17335239  1
  P  P61  1  0.31403605  0.06339107  0.67335239  1
  P  P62  1  0.68670938  0.93445390  0.02333535  1
  P  P63  1  0.70536454  0.92741261  0.92549064  1
  P  P64  1  0.81329062  0.93445390  0.52333535  1
  P  P65  1  0.18670938  0.06554610  0.47666465  1
  P  P66  1  0.18596395  0.56339107  0.32664761  1
  P  P67  1  0.79463546  0.42741261  0.07450936  1
  P  P68  1  0.20536454  0.57258739  0.92549064  1
  P  P69  1  0.70536454  0.42741261  0.57450936  1
  P  P70  1  0.31329062  0.06554610  0.97666465  1
  P  P71  1  0.29463546  0.57258739  0.42549064  1
  P  P72  1  0.81403605  0.43660893  0.67335239  1
  P  P73  1  0.29463546  0.07258739  0.07450936  1
  P  P74  1  0.18670938  0.56554610  0.02333535  1
  P  P75  1  0.68670938  0.43445390  0.47666465  1
  P  P76  1  0.31329062  0.56554610  0.52333535  1
  P  P77  1  0.79463546  0.92741261  0.42549064  1
  P  P78  1  0.31403605  0.56339107  0.82664761  1
  P  P79  1  0.81403605  0.93660893  0.82664761  1
