# generated using pymatgen
data_Sn(PO3)3
_symmetry_space_group_name_H-M   'P 1'
_cell_length_a   6.72545890
_cell_length_b   6.72543770
_cell_length_c   10.29463469
_cell_angle_alpha   90.00474131
_cell_angle_beta   90.00508935
_cell_angle_gamma   59.99456279
_symmetry_Int_Tables_number   1
_chemical_formula_structural   Sn(PO3)3
_chemical_formula_sum   'Sn2 P6 O18'
_cell_volume   403.23688334
_cell_formula_units_Z   2
loop_
 _symmetry_equiv_pos_site_id
 _symmetry_equiv_pos_as_xyz
  1  'x, y, z'
loop_
 _atom_site_type_symbol
 _atom_site_label
 _atom_site_symmetry_multiplicity
 _atom_site_fract_x
 _atom_site_fract_y
 _atom_site_fract_z
 _atom_site_occupancy
  Sn  Sn0  1  0.66668594  0.66655267  0.50000268  1
  Sn  Sn1  1  0.66656076  0.66667727  0.00000439  1
  P  P2  1  0.96014428  0.27450364  0.74999820  1
  P  P3  1  0.96011527  0.76539087  0.25002719  1
  P  P4  1  0.27450457  0.96014371  0.25005655  1
  P  P5  1  0.27449143  0.76533036  0.74994966  1
  P  P6  1  0.76533429  0.27448661  0.24999213  1
  P  P7  1  0.76539340  0.96011557  0.74997288  1
  O  O8  1  0.76800223  0.19770596  0.75028978  1
  O  O9  1  0.65745397  0.94322993  0.87506372  1
  O  O10  1  0.94408408  0.65731376  0.37442989  1
  O  O11  1  0.94430166  0.39860334  0.62559584  1
  O  O12  1  0.39855964  0.65715868  0.62553816  1
  O  O13  1  0.19756919  0.03423898  0.75020282  1
  O  O14  1  0.65735843  0.94411020  0.62551646  1
  O  O15  1  0.39931226  0.94345249  0.12496501  1
  O  O16  1  0.39925224  0.65736559  0.87506062  1
  O  O17  1  0.94325360  0.65750346  0.12488744  1
  O  O18  1  0.65721629  0.39854652  0.37443503  1
  O  O19  1  0.76814382  0.03430485  0.24974248  1
  O  O20  1  0.65730351  0.39926512  0.12491061  1
  O  O21  1  0.94352324  0.39925366  0.87510964  1
  O  O22  1  0.19770248  0.76800188  0.24980516  1
  O  O23  1  0.03430275  0.76814543  0.75022763  1
  O  O24  1  0.03423738  0.19757139  0.24971858  1
  O  O25  1  0.39854029  0.94437506  0.37447747  1
