# generated using pymatgen
data_BaH2C2O5
_symmetry_space_group_name_H-M   'P 1'
_cell_length_a   6.53543497
_cell_length_b   6.53543497
_cell_length_c   7.03253883
_cell_angle_alpha   65.20109448
_cell_angle_beta   114.79890552
_cell_angle_gamma   104.38156622
_symmetry_Int_Tables_number   1
_chemical_formula_structural   BaH2C2O5
_chemical_formula_sum   'Ba2 H4 C4 O10'
_cell_volume   246.57131419
_cell_formula_units_Z   2
loop_
 _symmetry_equiv_pos_site_id
 _symmetry_equiv_pos_as_xyz
  1  'x, y, z'
loop_
 _atom_site_type_symbol
 _atom_site_label
 _atom_site_symmetry_multiplicity
 _atom_site_fract_x
 _atom_site_fract_y
 _atom_site_fract_z
 _atom_site_occupancy
  Ba  Ba0  1  0.78327218  0.21672782  0.68183084  1
  Ba  Ba1  1  0.21672782  0.78327218  0.31816916  1
  H  H2  1  0.65052109  0.55672919  0.82075857  1
  H  H3  1  0.44327081  0.34947891  0.82075857  1
  H  H4  1  0.34947891  0.44327081  0.17924143  1
  H  H5  1  0.55672919  0.65052109  0.17924143  1
  C  C6  1  0.04149150  0.76263504  0.76054952  1
  C  C7  1  0.23736496  0.95850850  0.76054952  1
  C  C8  1  0.95850850  0.23736496  0.23945048  1
  C  C9  1  0.76263504  0.04149150  0.23945048  1
  O  O10  1  0.92034666  0.74439358  0.86948342  1
  O  O11  1  0.25560642  0.07965334  0.86948342  1
  O  O12  1  0.07965334  0.25560642  0.13051658  1
  O  O13  1  0.74439358  0.92034666  0.13051658  1
  O  O14  1  0.01968801  0.64175296  0.65092840  1
  O  O15  1  0.35824704  0.98031199  0.65092840  1
  O  O16  1  0.98031199  0.35824704  0.34907160  1
  O  O17  1  0.64175296  0.01968801  0.34907160  1
  O  O18  1  0.52329139  0.47670861  0.73098637  1
  O  O19  1  0.47670861  0.52329139  0.26901363  1
