# generated using pymatgen
data_Y2Se3
_symmetry_space_group_name_H-M   'P 1'
_cell_length_a   22.65325781
_cell_length_b   8.72141017
_cell_length_c   8.72141047
_cell_angle_alpha   90.00000000
_cell_angle_beta   54.72553848
_cell_angle_gamma   54.72553761
_symmetry_Int_Tables_number   1
_chemical_formula_structural   Y2Se3
_chemical_formula_sum   'Y16 Se24'
_cell_volume   994.32284576
_cell_formula_units_Z   8
loop_
 _symmetry_equiv_pos_site_id
 _symmetry_equiv_pos_as_xyz
  1  'x, y, z'
loop_
 _atom_site_type_symbol
 _atom_site_label
 _atom_site_symmetry_multiplicity
 _atom_site_fract_x
 _atom_site_fract_y
 _atom_site_fract_z
 _atom_site_occupancy
  Y  Y0  1  0.08167146  0.62749232  0.37749232  1
  Y  Y1  1  0.16666700  0.25000000  0.63198729  1
  Y  Y2  1  0.33730199  0.37785106  0.25271358  1
  Y  Y3  1  0.25166154  0.87250768  0.12250768  1
  Y  Y4  1  0.33730199  0.11024196  0.73537943  1
  Y  Y5  1  0.16666700  0.75000000  0.86801271  1
  Y  Y6  1  0.49603101  0.26462057  0.62214894  1
  Y  Y7  1  0.66666700  0.36801271  0.25000000  1
  Y  Y8  1  0.58167146  0.87749232  0.12749232  1
  Y  Y9  1  0.49603101  0.74728642  0.88975804  1
  Y  Y10  1  0.66666700  0.13198729  0.75000000  1
  Y  Y11  1  0.75166154  0.62250768  0.37250768  1
  Y  Y12  1  0.83730199  0.23537943  0.61024196  1
  Y  Y13  1  0.99603101  0.38975804  0.24728642  1
  Y  Y14  1  0.83730199  0.75271358  0.87785106  1
  Y  Y15  1  0.99603101  0.12214894  0.76462057  1
  Se  Se16  1  0.04798291  0.99911629  0.36132622  1
  Se  Se17  1  0.12591814  0.49097336  0.99400749  1
  Se  Se18  1  0.04798291  0.35693399  0.49472406  1
  Se  Se19  1  0.28535009  0.14306601  0.13867378  1
  Se  Se20  1  0.28535009  0.50088371  0.00527594  1
  Se  Se21  1  0.12591814  0.63127122  0.62823709  1
  Se  Se22  1  0.38174869  0.00186255  0.34790817  1
  Se  Se23  1  0.20741486  0.86872878  0.50599251  1
  Se  Se24  1  0.45158531  0.49315323  0.99813745  1
  Se  Se25  1  0.38174869  0.35289239  0.50684677  1
  Se  Se26  1  0.20741486  0.00902664  0.87176291  1
  Se  Se27  1  0.62591814  0.12823709  0.13127122  1
  Se  Se28  1  0.62591814  0.49400749  0.99097336  1
  Se  Se29  1  0.45158531  0.65209183  0.64710761  1
  Se  Se30  1  0.70741486  0.00599251  0.36872878  1
  Se  Se31  1  0.54798291  0.86132622  0.49911629  1
  Se  Se32  1  0.78535009  0.50527594  0.00088371  1
  Se  Se33  1  0.70741486  0.37176291  0.50902664  1
  Se  Se34  1  0.54798291  0.99472406  0.85693399  1
  Se  Se35  1  0.95158531  0.14710761  0.15209183  1
  Se  Se36  1  0.95158531  0.49813745  0.99315323  1
  Se  Se37  1  0.78535009  0.63867378  0.64306601  1
  Se  Se38  1  0.88174869  0.84790817  0.50186255  1
  Se  Se39  1  0.88174869  0.00684677  0.85289239  1
