# generated using pymatgen
data_Cu5Si(SbO6)2
_symmetry_space_group_name_H-M   'P 1'
_cell_length_a   9.51221752
_cell_length_b   9.71793190
_cell_length_c   19.19981204
_cell_angle_alpha   90.00000000
_cell_angle_beta   90.00000000
_cell_angle_gamma   90.00000000
_symmetry_Int_Tables_number   1
_chemical_formula_structural   Cu5Si(SbO6)2
_chemical_formula_sum   'Cu40 Si8 Sb16 O96'
_cell_volume   1774.81300104
_cell_formula_units_Z   8
loop_
 _symmetry_equiv_pos_site_id
 _symmetry_equiv_pos_as_xyz
  1  'x, y, z'
loop_
 _atom_site_type_symbol
 _atom_site_label
 _atom_site_symmetry_multiplicity
 _atom_site_fract_x
 _atom_site_fract_y
 _atom_site_fract_z
 _atom_site_occupancy
  Cu  Cu0  1  0.74568939  0.50051971  0.37687349  1
  Cu  Cu1  1  0.97817721  0.72503726  0.37598887  1
  Cu  Cu2  1  0.50000000  0.45759694  0.75000000  1
  Cu  Cu3  1  0.50000000  0.04240306  0.25000000  1
  Cu  Cu4  1  0.02182279  0.72503726  0.12401113  1
  Cu  Cu5  1  0.97817721  0.27496274  0.87598887  1
  Cu  Cu6  1  0.24674137  0.75543213  0.25054373  1
  Cu  Cu7  1  0.74568939  0.49948029  0.87687349  1
  Cu  Cu8  1  0.25431061  0.00051971  0.37687349  1
  Cu  Cu9  1  0.21710320  0.75000000  0.50000000  1
  Cu  Cu10  1  0.74568939  0.99948029  0.62312651  1
  Cu  Cu11  1  0.24674137  0.74456787  0.74945627  1
  Cu  Cu12  1  0.25431061  0.50051971  0.12312651  1
  Cu  Cu13  1  0.02182279  0.77496274  0.87598887  1
  Cu  Cu14  1  0.72090508  0.75000000  0.50000000  1
  Cu  Cu15  1  0.75325863  0.24456787  0.74945627  1
  Cu  Cu16  1  0.27909492  0.25000000  0.50000000  1
  Cu  Cu17  1  0.24674137  0.24456787  0.75054373  1
  Cu  Cu18  1  0.25431061  0.99948029  0.87687349  1
  Cu  Cu19  1  0.75325863  0.74456787  0.75054373  1
  Cu  Cu20  1  0.97817721  0.77496274  0.62401113  1
  Cu  Cu21  1  0.74568939  0.00051971  0.12312651  1
  Cu  Cu22  1  0.75325863  0.75543213  0.24945627  1
  Cu  Cu23  1  0.72090508  0.25000000  0.00000000  1
  Cu  Cu24  1  0.78289680  0.25000000  0.50000000  1
  Cu  Cu25  1  0.24674137  0.25543213  0.24945627  1
  Cu  Cu26  1  0.27909492  0.75000000  0.00000000  1
  Cu  Cu27  1  0.78289680  0.75000000  0.00000000  1
  Cu  Cu28  1  0.75325863  0.25543213  0.25054373  1
  Cu  Cu29  1  0.50000000  0.50000000  0.00000000  1
  Cu  Cu30  1  0.21710320  0.25000000  0.00000000  1
  Cu  Cu31  1  0.50000000  0.54240306  0.25000000  1
  Cu  Cu32  1  0.50000000  0.00000000  0.00000000  1
  Cu  Cu33  1  0.50000000  0.50000000  0.50000000  1
  Cu  Cu34  1  0.25431061  0.49948029  0.62312651  1
  Cu  Cu35  1  0.02182279  0.22503726  0.37598887  1
  Cu  Cu36  1  0.02182279  0.27496274  0.62401113  1
  Cu  Cu37  1  0.50000000  0.00000000  0.50000000  1
  Cu  Cu38  1  0.50000000  0.95759694  0.75000000  1
  Cu  Cu39  1  0.97817721  0.22503726  0.12401113  1
  Si  Si40  1  0.25339193  0.99230470  0.62683267  1
  Si  Si41  1  0.74660807  0.00769530  0.37316733  1
  Si  Si42  1  0.25339193  0.49230470  0.87316733  1
  Si  Si43  1  0.25339193  0.50769530  0.37316733  1
  Si  Si44  1  0.74660807  0.99230470  0.87316733  1
  Si  Si45  1  0.74660807  0.49230470  0.62683267  1
  Si  Si46  1  0.74660807  0.50769530  0.12683267  1
  Si  Si47  1  0.25339193  0.00769530  0.12683267  1
  Sb  Sb48  1  0.00000000  0.03920832  0.75000000  1
  Sb  Sb49  1  0.51581074  0.22652030  0.62453482  1
  Sb  Sb50  1  0.51581074  0.77347970  0.12453482  1
  Sb  Sb51  1  0.48418926  0.27347970  0.12453482  1
  Sb  Sb52  1  0.48418926  0.22652030  0.87546518  1
  Sb  Sb53  1  0.00000000  0.50000000  0.00000000  1
  Sb  Sb54  1  0.48418926  0.72652030  0.62453482  1
  Sb  Sb55  1  0.51581074  0.27347970  0.37546518  1
  Sb  Sb56  1  0.00000000  0.00000000  0.00000000  1
  Sb  Sb57  1  0.00000000  0.50000000  0.50000000  1
  Sb  Sb58  1  0.48418926  0.77347970  0.37546518  1
  Sb  Sb59  1  0.00000000  0.96079168  0.25000000  1
  Sb  Sb60  1  0.51581074  0.72652030  0.87546518  1
  Sb  Sb61  1  0.00000000  0.00000000  0.50000000  1
  Sb  Sb62  1  0.00000000  0.46079168  0.25000000  1
  Sb  Sb63  1  0.00000000  0.53920832  0.75000000  1
  O  O64  1  0.85621585  0.43420392  0.56943731  1
  O  O65  1  0.14378415  0.93420392  0.56943731  1
  O  O66  1  0.60234331  0.31306428  0.80323028  1
  O  O67  1  0.06652178  0.15531806  0.94361208  1
  O  O68  1  0.64576780  0.86606316  0.05378182  1
  O  O69  1  0.64576780  0.13393684  0.55378182  1
  O  O70  1  0.14284779  0.37633546  0.55301869  1
  O  O71  1  0.64576780  0.63393684  0.94621818  1
  O  O72  1  0.85621585  0.93420392  0.93056269  1
  O  O73  1  0.90523846  0.31388944  0.30686293  1
  O  O74  1  0.60234331  0.18693572  0.19676972  1
  O  O75  1  0.89070250  0.90206698  0.69144880  1
  O  O76  1  0.10929750  0.40206698  0.69144880  1
  O  O77  1  0.17026137  0.07490021  0.68805345  1
  O  O78  1  0.93347822  0.34468194  0.44361208  1
  O  O79  1  0.82973863  0.07490021  0.81194655  1
  O  O80  1  0.60667861  0.41118518  0.31000859  1
  O  O81  1  0.82973863  0.42509979  0.18805345  1
  O  O82  1  0.64576780  0.36606316  0.44621818  1
  O  O83  1  0.42897768  0.64734397  0.05507856  1
  O  O84  1  0.39332139  0.91118518  0.31000859  1
  O  O85  1  0.06652178  0.84468194  0.44361208  1
  O  O86  1  0.93347822  0.65531806  0.94361208  1
  O  O87  1  0.66505750  0.36052167  0.66020643  1
  O  O88  1  0.36323447  0.09675175  0.58978695  1
  O  O89  1  0.36323447  0.90324825  0.08978695  1
  O  O90  1  0.17026137  0.42509979  0.31194655  1
  O  O91  1  0.35423220  0.63393684  0.55378182  1
  O  O92  1  0.89070250  0.40206698  0.80855120  1
  O  O93  1  0.57102232  0.85265603  0.55507856  1
  O  O94  1  0.60234331  0.68693572  0.30323028  1
  O  O95  1  0.39332139  0.41118518  0.18999141  1
  O  O96  1  0.63676553  0.40324825  0.08978695  1
  O  O97  1  0.57102232  0.64734397  0.44492144  1
  O  O98  1  0.60234331  0.81306428  0.69676972  1
  O  O99  1  0.17026137  0.92509979  0.18805345  1
  O  O100  1  0.36323447  0.40324825  0.41021305  1
  O  O101  1  0.89070250  0.59793302  0.30855120  1
  O  O102  1  0.93347822  0.15531806  0.55638792  1
  O  O103  1  0.35423220  0.86606316  0.44621818  1
  O  O104  1  0.82973863  0.57490021  0.68805345  1
  O  O105  1  0.85621585  0.06579608  0.43056269  1
  O  O106  1  0.14284779  0.12366454  0.44698131  1
  O  O107  1  0.57102232  0.35265603  0.94492144  1
  O  O108  1  0.14378415  0.43420392  0.93056269  1
  O  O109  1  0.10929750  0.59793302  0.19144880  1
  O  O110  1  0.09476154  0.18611056  0.80686293  1
  O  O111  1  0.60667861  0.91118518  0.18999141  1
  O  O112  1  0.17026137  0.57490021  0.81194655  1
  O  O113  1  0.10929750  0.90206698  0.80855120  1
  O  O114  1  0.14284779  0.87633546  0.94698131  1
  O  O115  1  0.39332139  0.08881482  0.81000859  1
  O  O116  1  0.39765669  0.31306428  0.69676972  1
  O  O117  1  0.85621585  0.56579608  0.06943731  1
  O  O118  1  0.06652178  0.34468194  0.05638792  1
  O  O119  1  0.39765669  0.18693572  0.30323028  1
  O  O120  1  0.93347822  0.84468194  0.05638792  1
  O  O121  1  0.09476154  0.68611056  0.69313707  1
  O  O122  1  0.82973863  0.92509979  0.31194655  1
  O  O123  1  0.63676553  0.09675175  0.91021305  1
  O  O124  1  0.39765669  0.81306428  0.80323028  1
  O  O125  1  0.14284779  0.62366454  0.05301869  1
  O  O126  1  0.36323447  0.59675175  0.91021305  1
  O  O127  1  0.66505750  0.63947833  0.16020643  1
  O  O128  1  0.66505750  0.86052167  0.83979357  1
  O  O129  1  0.90523846  0.18611056  0.69313707  1
  O  O130  1  0.39332139  0.58881482  0.68999141  1
  O  O131  1  0.09476154  0.31388944  0.19313707  1
  O  O132  1  0.85715221  0.62366454  0.44698131  1
  O  O133  1  0.63676553  0.90324825  0.41021305  1
  O  O134  1  0.06652178  0.65531806  0.55638792  1
  O  O135  1  0.33494250  0.63947833  0.33979357  1
  O  O136  1  0.90523846  0.68611056  0.80686293  1
  O  O137  1  0.85715221  0.37633546  0.94698131  1
  O  O138  1  0.85715221  0.87633546  0.55301869  1
  O  O139  1  0.85715221  0.12366454  0.05301869  1
  O  O140  1  0.09476154  0.81388944  0.30686293  1
  O  O141  1  0.42897768  0.14734397  0.44492144  1
  O  O142  1  0.63676553  0.59675175  0.58978695  1
  O  O143  1  0.14378415  0.56579608  0.43056269  1
  O  O144  1  0.39765669  0.68693572  0.19676972  1
  O  O145  1  0.66505750  0.13947833  0.33979357  1
  O  O146  1  0.89070250  0.09793302  0.19144880  1
  O  O147  1  0.60667861  0.58881482  0.81000859  1
  O  O148  1  0.33494250  0.13947833  0.16020643  1
  O  O149  1  0.60667861  0.08881482  0.68999141  1
  O  O150  1  0.33494250  0.86052167  0.66020643  1
  O  O151  1  0.14378415  0.06579608  0.06943731  1
  O  O152  1  0.35423220  0.36606316  0.05378182  1
  O  O153  1  0.90523846  0.81388944  0.19313707  1
  O  O154  1  0.35423220  0.13393684  0.94621818  1
  O  O155  1  0.42897768  0.35265603  0.55507856  1
  O  O156  1  0.57102232  0.14734397  0.05507856  1
  O  O157  1  0.33494250  0.36052167  0.83979357  1
  O  O158  1  0.10929750  0.09793302  0.30855120  1
  O  O159  1  0.42897768  0.85265603  0.94492144  1
