# generated using pymatgen
data_CoH6(NCl)2
_symmetry_space_group_name_H-M   'P 1'
_cell_length_a   6.80928396
_cell_length_b   6.80928396
_cell_length_c   6.80928396
_cell_angle_alpha   107.95406473
_cell_angle_beta   107.77317709
_cell_angle_gamma   112.73664855
_symmetry_Int_Tables_number   1
_chemical_formula_structural   CoH6(NCl)2
_chemical_formula_sum   'Co2 H12 N4 Cl4'
_cell_volume   242.44634212
_cell_formula_units_Z   2
loop_
 _symmetry_equiv_pos_site_id
 _symmetry_equiv_pos_as_xyz
  1  'x, y, z'
loop_
 _atom_site_type_symbol
 _atom_site_label
 _atom_site_symmetry_multiplicity
 _atom_site_fract_x
 _atom_site_fract_y
 _atom_site_fract_z
 _atom_site_occupancy
  Co  Co0  1  0.75000000  0.74327624  0.99327624  1
  Co  Co1  1  0.25000000  0.25672376  0.00672376  1
  H  H2  1  0.43467791  0.84913031  0.78380822  1
  H  H3  1  0.93467791  0.15086969  0.58554760  1
  H  H4  1  0.56532209  0.15086969  0.21619178  1
  H  H5  1  0.06532209  0.84913031  0.41445240  1
  H  H6  1  0.55309952  0.77881286  0.61506800  1
  H  H7  1  0.83625514  0.22118714  0.77428666  1
  H  H8  1  0.05309952  0.43803152  0.77428666  1
  H  H9  1  0.33625514  0.56196848  0.61506800  1
  H  H10  1  0.44690048  0.22118714  0.38493200  1
  H  H11  1  0.16374486  0.77881286  0.22571334  1
  H  H12  1  0.94690048  0.56196848  0.22571334  1
  H  H13  1  0.66374486  0.43803152  0.38493200  1
  N  N14  1  0.48991623  0.73399711  0.72391334  1
  N  N15  1  0.98991623  0.26600289  0.75591912  1
  N  N16  1  0.51008377  0.26600289  0.27608666  1
  N  N17  1  0.01008377  0.73399711  0.24408088  1
  Cl  Cl18  1  0.49232801  0.28211071  0.78978269  1
  Cl  Cl19  1  0.50767199  0.71788929  0.21021731  1
  Cl  Cl20  1  0.99232801  0.20254532  0.21021731  1
  Cl  Cl21  1  0.00767199  0.79745468  0.78978269  1
