# generated using pymatgen
data_Ba5Bi5O13
_symmetry_space_group_name_H-M   'P 1'
_cell_length_a   6.21006435
_cell_length_b   30.65291918
_cell_length_c   6.37097371
_cell_angle_alpha   60.10468842
_cell_angle_beta   119.16527969
_cell_angle_gamma   90.00244877
_symmetry_Int_Tables_number   1
_chemical_formula_structural   Ba5Bi5O13
_chemical_formula_sum   'Ba10 Bi10 O26'
_cell_volume   869.56474871
_cell_formula_units_Z   2
loop_
 _symmetry_equiv_pos_site_id
 _symmetry_equiv_pos_as_xyz
  1  'x, y, z'
loop_
 _atom_site_type_symbol
 _atom_site_label
 _atom_site_symmetry_multiplicity
 _atom_site_fract_x
 _atom_site_fract_y
 _atom_site_fract_z
 _atom_site_occupancy
  Ba  Ba0  1  0.34421513  0.04709258  0.54692468  1
  Ba  Ba1  1  0.25946947  0.24808158  0.52122711  1
  Ba  Ba2  1  0.17730030  0.44688391  0.51022924  1
  Ba  Ba3  1  0.27518293  0.64854792  0.48217580  1
  Ba  Ba4  1  0.33911403  0.85428727  0.46284774  1
  Ba  Ba5  1  0.79290380  0.15153628  0.51692858  1
  Ba  Ba6  1  0.66702408  0.35331830  0.48988608  1
  Ba  Ba7  1  0.73757397  0.55182373  0.47920223  1
  Ba  Ba8  1  0.79693077  0.75289688  0.45311762  1
  Ba  Ba9  1  0.87721711  0.94572607  0.53852218  1
  Bi  Bi10  1  0.08925867  0.00331406  0.01539089  1
  Bi  Bi11  1  0.99674225  0.19962954  0.00324693  1
  Bi  Bi12  1  0.92060547  0.40003951  0.99974899  1
  Bi  Bi13  1  0.99333247  0.60042886  0.99648613  1
  Bi  Bi14  1  0.07408019  0.79666841  0.98483036  1
  Bi  Bi15  1  0.53526008  0.09592561  0.02251933  1
  Bi  Bi16  1  0.44201981  0.29736923  0.99476256  1
  Bi  Bi17  1  0.44715280  0.50273799  0.00461846  1
  Bi  Bi18  1  0.51296725  0.70404284  0.97757239  1
  Bi  Bi19  1  0.59943712  0.89999088  0.00004235  1
  O  O20  1  0.22211905  0.14783093  0.49410809  1
  O  O21  1  0.14786360  0.33882446  0.49009636  1
  O  O22  1  0.23197097  0.54864629  0.51546979  1
  O  O23  1  0.29398256  0.74944961  0.49412757  1
  O  O24  1  0.36176645  0.96282657  0.50264539  1
  O  O25  1  0.20875298  0.14011793  0.00134733  1
  O  O26  1  0.15852905  0.34792534  0.98743826  1
  O  O27  1  0.17045459  0.45226607  0.00984444  1
  O  O28  1  0.20657775  0.66008652  0.99718390  1
  O  O29  1  0.36113755  0.95078004  0.02378274  1
  O  O30  1  0.33762902  0.84918406  0.97353824  1
  O  O31  1  0.79774639  0.05052958  0.50613651  1
  O  O32  1  0.71371550  0.25130355  0.48427739  1
  O  O33  1  0.65597179  0.46120275  0.50911766  1
  O  O34  1  0.72674327  0.65214613  0.50554711  1
  O  O35  1  0.85768841  0.83713583  0.49739253  1
  O  O36  1  0.76760555  0.04573833  0.99396961  1
  O  O37  1  0.70867274  0.15816001  0.95810464  1
  O  O38  1  0.70243464  0.24757633  0.99160764  1
  O  O39  1  0.60425197  0.35950556  0.89116828  1
  O  O40  1  0.71386554  0.44052103  0.10943186  1
  O  O41  1  0.71152659  0.55230286  0.00972928  1
  O  O42  1  0.75183371  0.64165263  0.04407699  1
  O  O43  1  0.77483575  0.75403535  0.00790837  1
  O  O44  1  0.84140061  0.85693790  0.92819954  1
  O  O45  1  0.91313632  0.94297290  0.07347084  1
