# generated using pymatgen
data_PbWO4
_symmetry_space_group_name_H-M   'P 1'
_cell_length_a   5.13355047
_cell_length_b   5.97126525
_cell_length_c   6.95271304
_cell_angle_alpha   112.90478148
_cell_angle_beta   108.82198733
_cell_angle_gamma   96.11064983
_symmetry_Int_Tables_number   1
_chemical_formula_structural   PbWO4
_chemical_formula_sum   'Pb2 W2 O8'
_cell_volume   179.12420820
_cell_formula_units_Z   2
loop_
 _symmetry_equiv_pos_site_id
 _symmetry_equiv_pos_as_xyz
  1  'x, y, z'
loop_
 _atom_site_type_symbol
 _atom_site_label
 _atom_site_symmetry_multiplicity
 _atom_site_fract_x
 _atom_site_fract_y
 _atom_site_fract_z
 _atom_site_occupancy
  Pb  Pb0  1  0.61630594  0.36588378  0.22879803  1
  Pb  Pb1  1  0.38664359  0.63659102  0.76873954  1
  W  W2  1  0.15694090  0.90605538  0.30995841  1
  W  W3  1  0.84582378  0.09525487  0.68718177  1
  O  O4  1  0.83199472  0.65434072  0.10324404  1
  O  O5  1  0.56499897  0.24364624  0.56813172  1
  O  O6  1  0.43463899  0.75525846  0.42823538  1
  O  O7  1  0.27527019  0.95203084  0.10344678  1
  O  O8  1  0.99534846  0.17388425  0.42915012  1
  O  O9  1  0.17031805  0.34719344  0.89395758  1
  O  O10  1  0.72741129  0.04947558  0.89379709  1
  O  O11  1  0.00515112  0.82589843  0.56868254  1
