# generated using pymatgen
data_YbBiO3
_symmetry_space_group_name_H-M   'P 1'
_cell_length_a   8.55940430
_cell_length_b   8.49204059
_cell_length_c   9.90557888
_cell_angle_alpha   113.38152311
_cell_angle_beta   94.30268556
_cell_angle_gamma   102.89448749
_symmetry_Int_Tables_number   1
_chemical_formula_structural   YbBiO3
_chemical_formula_sum   'Yb8 Bi8 O24'
_cell_volume   633.35574608
_cell_formula_units_Z   8
loop_
 _symmetry_equiv_pos_site_id
 _symmetry_equiv_pos_as_xyz
  1  'x, y, z'
loop_
 _atom_site_type_symbol
 _atom_site_label
 _atom_site_symmetry_multiplicity
 _atom_site_fract_x
 _atom_site_fract_y
 _atom_site_fract_z
 _atom_site_occupancy
  Yb  Yb0  1  0.06670117  0.86789782  0.30466684  1
  Yb  Yb1  1  0.15746240  0.60835873  0.85992201  1
  Yb  Yb2  1  0.34521717  0.40329263  0.56453312  1
  Yb  Yb3  1  0.57837911  0.88951557  0.79521429  1
  Yb  Yb4  1  0.44637017  0.14560263  0.20680151  1
  Yb  Yb5  1  0.70977414  0.65441359  0.43533424  1
  Yb  Yb6  1  0.77063917  0.35239931  0.06015925  1
  Yb  Yb7  1  0.93301964  0.14807996  0.71879091  1
  Bi  Bi8  1  0.14399508  0.80240012  0.62693963  1
  Bi  Bi9  1  0.98989034  0.01789734  0.02168765  1
  Bi  Bi10  1  0.25424323  0.50347687  0.22303521  1
  Bi  Bi11  1  0.36320783  0.24580100  0.87622209  1
  Bi  Bi12  1  0.65818976  0.76509329  0.12802074  1
  Bi  Bi13  1  0.51882464  0.99777840  0.48268401  1
  Bi  Bi14  1  0.75758937  0.51192455  0.76074936  1
  Bi  Bi15  1  0.86133705  0.25883811  0.38087306  1
  O  O16  1  0.16644767  0.90311071  0.07784261  1
  O  O17  1  0.16440553  0.68384375  0.39313798  1
  O  O18  1  0.12056225  0.02010069  0.83492900  1
  O  O19  1  0.20869906  0.34047186  0.74082054  1
  O  O20  1  0.30658002  0.68865853  0.70285156  1
  O  O21  1  0.33625399  0.08876830  0.41195070  1
  O  O22  1  0.35794061  0.38261560  0.33198603  1
  O  O23  1  0.49545497  0.72648335  0.31705896  1
  O  O24  1  0.38062943  0.01363897  0.67340884  1
  O  O25  1  0.60236962  0.57554355  0.63168523  1
  O  O26  1  0.67557110  0.92666708  0.60303165  1
  O  O27  1  0.51868236  0.13202253  0.98488050  1
  O  O28  1  0.59223428  0.44209825  0.89350380  1
  O  O29  1  0.78293138  0.78184538  0.92281501  1
  O  O30  1  0.62782758  0.03447850  0.30268559  1
  O  O31  1  0.70809754  0.36257053  0.29053434  1
  O  O32  1  0.80959119  0.65871704  0.21987546  1
  O  O33  1  0.89520761  0.99324390  0.21385587  1
  O  O34  1  0.72558027  0.24603739  0.59116449  1
  O  O35  1  0.97019408  0.59729536  0.66441796  1
  O  O36  1  0.97667928  0.89133077  0.53092552  1
  O  O37  1  0.83142446  0.09629356  0.90513873  1
  O  O38  1  0.92501670  0.44851893  0.88449295  1
  O  O39  1  0.01687775  0.29287557  0.18147475  1
