# generated using pymatgen
data_NbAg7S6
_symmetry_space_group_name_H-M   'P 1'
_cell_length_a   7.73183338
_cell_length_b   7.55212113
_cell_length_c   7.64310565
_cell_angle_alpha   62.22749501
_cell_angle_beta   60.49047505
_cell_angle_gamma   59.39478730
_symmetry_Int_Tables_number   1
_chemical_formula_structural   NbAg7S6
_chemical_formula_sum   'Nb1 Ag7 S6'
_cell_volume   320.20092650
_cell_formula_units_Z   1
loop_
 _symmetry_equiv_pos_site_id
 _symmetry_equiv_pos_as_xyz
  1  'x, y, z'
loop_
 _atom_site_type_symbol
 _atom_site_label
 _atom_site_symmetry_multiplicity
 _atom_site_fract_x
 _atom_site_fract_y
 _atom_site_fract_z
 _atom_site_occupancy
  Nb  Nb0  1  0.48604716  0.49555722  0.49549984  1
  Ag  Ag1  1  0.25894696  0.62269137  0.11103476  1
  Ag  Ag2  1  0.19641419  0.25780883  0.91370314  1
  Ag  Ag3  1  0.71402849  0.34973617  0.93615164  1
  Ag  Ag4  1  0.63567003  0.99890406  0.32391686  1
  Ag  Ag5  1  0.19574580  0.88879527  0.69404985  1
  Ag  Ag6  1  0.97324720  0.12085015  0.38544860  1
  Ag  Ag7  1  0.01368569  0.41289184  0.50442701  1
  S  S8  1  0.00930924  0.00643649  0.02124456  1
  S  S9  1  0.28885840  0.23122025  0.22343012  1
  S  S10  1  0.11240273  0.62997877  0.63075316  1
  S  S11  1  0.60636578  0.12409104  0.61550835  1
  S  S12  1  0.59165271  0.61509047  0.13987925  1
  S  S13  1  0.61362460  0.63194507  0.61295184  1
