# generated using pymatgen
data_Al2CrS4
_symmetry_space_group_name_H-M   'P 1'
_cell_length_a   7.11322687
_cell_length_b   7.11322759
_cell_length_c   7.19456762
_cell_angle_alpha   59.62101050
_cell_angle_beta   59.62100708
_cell_angle_gamma   59.49702549
_symmetry_Int_Tables_number   1
_chemical_formula_structural   Al2CrS4
_chemical_formula_sum   'Al4 Cr2 S8'
_cell_volume   254.94837990
_cell_formula_units_Z   2
loop_
 _symmetry_equiv_pos_site_id
 _symmetry_equiv_pos_as_xyz
  1  'x, y, z'
loop_
 _atom_site_type_symbol
 _atom_site_label
 _atom_site_symmetry_multiplicity
 _atom_site_fract_x
 _atom_site_fract_y
 _atom_site_fract_z
 _atom_site_occupancy
  Al  Al0  1  0.99403326  0.99403326  0.00596674  1
  Al  Al1  1  0.25596674  0.25596674  0.24403326  1
  Al  Al2  1  0.62500000  0.62500000  0.12500000  1
  Al  Al3  1  0.62500000  0.62500000  0.62500000  1
  Cr  Cr4  1  0.12500000  0.62500000  0.62500000  1
  Cr  Cr5  1  0.62500000  0.12500000  0.62500000  1
  S  S6  1  0.38370260  0.38370260  0.38011797  1
  S  S7  1  0.38370260  0.38370260  0.85247684  1
  S  S8  1  0.38288489  0.85352476  0.38179517  1
  S  S9  1  0.85352476  0.38288489  0.38179517  1
  S  S10  1  0.39647524  0.86711511  0.86820483  1
  S  S11  1  0.86711511  0.39647524  0.86820483  1
  S  S12  1  0.86629740  0.86629740  0.39752316  1
  S  S13  1  0.86629740  0.86629740  0.86988203  1
