# generated using pymatgen
data_TiNb2Zn(PbO3)4
_symmetry_space_group_name_H-M   'P 1'
_cell_length_a   4.12070253
_cell_length_b   4.01837222
_cell_length_c   16.77234509
_cell_angle_alpha   89.77951001
_cell_angle_beta   89.53680515
_cell_angle_gamma   89.72501066
_symmetry_Int_Tables_number   1
_chemical_formula_structural   TiNb2Zn(PbO3)4
_chemical_formula_sum   'Ti1 Nb2 Zn1 Pb4 O12'
_cell_volume   277.71086512
_cell_formula_units_Z   1
loop_
 _symmetry_equiv_pos_site_id
 _symmetry_equiv_pos_as_xyz
  1  'x, y, z'
loop_
 _atom_site_type_symbol
 _atom_site_label
 _atom_site_symmetry_multiplicity
 _atom_site_fract_x
 _atom_site_fract_y
 _atom_site_fract_z
 _atom_site_occupancy
  Ti  Ti0  1  0.44527684  0.48326052  0.87065809  1
  Nb  Nb1  1  0.51613275  0.49539067  0.11837686  1
  Nb  Nb2  1  0.44596306  0.51443839  0.62263787  1
  Zn  Zn3  1  0.49541775  0.50449980  0.37332457  1
  Pb  Pb4  1  0.05545576  0.04639705  0.27035261  1
  Pb  Pb5  1  0.96101920  0.99648199  0.46772332  1
  Pb  Pb6  1  0.89392034  0.01356502  0.75230862  1
  Pb  Pb7  1  0.92320555  0.95916913  0.98339760  1
  O  O8  1  0.48541400  0.99567502  0.10782270  1
  O  O9  1  0.47811365  0.00036131  0.37289206  1
  O  O10  1  0.49850412  0.00718004  0.63579163  1
  O  O11  1  0.51348720  0.00075174  0.87070119  1
  O  O12  1  0.50748524  0.50624800  0.98779657  1
  O  O13  1  0.46785705  0.48268544  0.23130244  1
  O  O14  1  0.49558430  0.50607700  0.51130385  1
  O  O15  1  0.51782403  0.50084005  0.75353292  1
  O  O16  1  0.98148608  0.49794117  0.11059634  1
  O  O17  1  0.99069835  0.48428108  0.37306401  1
  O  O18  1  0.98934903  0.50663035  0.63166868  1
  O  O19  1  0.00640468  0.49812421  0.87189706  1
