# generated using pymatgen
data_Pr6MnS10
_symmetry_space_group_name_H-M   'P 1'
_cell_length_a   7.45521525
_cell_length_b   7.44239824
_cell_length_c   37.31590384
_cell_angle_alpha   109.38224546
_cell_angle_beta   110.27403088
_cell_angle_gamma   108.77543863
_symmetry_Int_Tables_number   1
_chemical_formula_structural   Pr6MnS10
_chemical_formula_sum   'Pr24 Mn4 S40'
_cell_volume   1593.27934420
_cell_formula_units_Z   4
loop_
 _symmetry_equiv_pos_site_id
 _symmetry_equiv_pos_as_xyz
  1  'x, y, z'
loop_
 _atom_site_type_symbol
 _atom_site_label
 _atom_site_symmetry_multiplicity
 _atom_site_fract_x
 _atom_site_fract_y
 _atom_site_fract_z
 _atom_site_occupancy
  Pr  Pr0  1  0.11932715  0.74303194  0.97425605  1
  Pr  Pr1  1  0.25821138  0.62571748  0.87394114  1
  Pr  Pr2  1  0.11896741  0.75000121  0.77561740  1
  Pr  Pr3  1  0.36007702  0.23771888  0.92366207  1
  Pr  Pr4  1  0.25994644  0.62616585  0.67417303  1
  Pr  Pr5  1  0.08939115  0.72992290  0.56885871  1
  Pr  Pr6  1  0.62887339  0.37143217  0.84928866  1
  Pr  Pr7  1  0.38415454  0.25826989  0.72783887  1
  Pr  Pr8  1  0.25235533  0.61286786  0.47559389  1
  Pr  Pr9  1  0.13463884  0.76247108  0.37605874  1
  Pr  Pr10  1  0.62617909  0.37562912  0.65050058  1
  Pr  Pr11  1  0.39201854  0.25866751  0.52711520  1
  Pr  Pr12  1  0.75888874  0.89206182  0.62667570  1
  Pr  Pr13  1  0.25586097  0.62928673  0.27552924  1
  Pr  Pr14  1  0.11870642  0.74574790  0.17350905  1
  Pr  Pr15  1  0.38738447  0.26007083  0.33021297  1
  Pr  Pr16  1  0.74903698  0.88809662  0.43054456  1
  Pr  Pr17  1  0.24580263  0.62712550  0.07546172  1
  Pr  Pr18  1  0.61372381  0.36645690  0.24601825  1
  Pr  Pr19  1  0.73849070  0.85211353  0.22076521  1
  Pr  Pr20  1  0.87719354  0.13388591  0.35136087  1
  Pr  Pr21  1  0.60821252  0.36588831  0.05047101  1
  Pr  Pr22  1  0.76393532  0.88350454  0.02606360  1
  Pr  Pr23  1  0.86952315  0.12425675  0.14713351  1
  Mn  Mn24  1  0.74052672  0.88960190  0.82779538  1
  Mn  Mn25  1  0.87771974  0.12958407  0.94875549  1
  Mn  Mn26  1  0.85789762  0.11263929  0.75186155  1
  Mn  Mn27  1  0.86898087  0.10138311  0.54332324  1
  S  S28  1  0.96571067  0.86081523  0.89283407  1
  S  S29  1  0.01032070  0.36998038  0.89933473  1
  S  S30  1  0.11361025  0.13379306  0.82276229  1
  S  S31  1  0.01526675  0.36961832  0.70002918  1
  S  S32  1  0.40350893  0.54236667  0.80494980  1
  S  S33  1  0.63690771  0.62370163  0.92725549  1
  S  S34  1  0.50380001  0.97958941  0.77483760  1
  S  S35  1  0.48025723  0.98887503  0.96928780  1
  S  S36  1  0.52147790  0.01967659  0.87705571  1
  S  S37  1  0.53633062  0.02265248  0.68011238  1
  S  S38  1  0.14913266  0.14882288  0.62753057  1
  S  S39  1  0.01409656  0.35162874  0.50187637  1
  S  S40  1  0.38039756  0.52389909  0.60396702  1
  S  S41  1  0.64473133  0.63218106  0.72835379  1
  S  S42  1  0.47903394  0.99610814  0.57323217  1
  S  S43  1  0.86288621  0.45497194  0.79604868  1
  S  S44  1  0.52049652  0.99725586  0.47815590  1
  S  S45  1  0.12711261  0.13356999  0.42860109  1
  S  S46  1  0.99627508  0.35381982  0.29851792  1
  S  S47  1  0.33988508  0.50254408  0.39959766  1
  S  S48  1  0.00075619  0.87280276  0.70326986  1
  S  S49  1  0.64987211  0.66153433  0.53357747  1
  S  S50  1  0.50385937  0.99554818  0.36816783  1
  S  S51  1  0.85915339  0.48006755  0.59940895  1
  S  S52  1  0.14422085  0.14676848  0.22907489  1
  S  S53  1  0.98732547  0.34950668  0.09829838  1
  S  S54  1  0.34278707  0.50543263  0.20096804  1
  S  S55  1  0.00728428  0.88746795  0.50552353  1
  S  S56  1  0.64953412  0.63695038  0.32719914  1
  S  S57  1  0.49671857  0.98808594  0.17075497  1
  S  S58  1  0.86402639  0.51319187  0.39961141  1
  S  S59  1  0.50001944  0.00724133  0.27097723  1
  S  S60  1  0.11128722  0.13771948  0.01652632  1
  S  S61  1  0.37103393  0.51100357  0.99988058  1
  S  S62  1  0.00064077  0.85885109  0.30049631  1
  S  S63  1  0.65401027  0.65817448  0.13013890  1
  S  S64  1  0.86201432  0.50460664  0.20163194  1
  S  S65  1  0.49125470  0.99078536  0.06727858  1
  S  S66  1  0.99241490  0.83704773  0.09838787  1
  S  S67  1  0.85452386  0.47274359  0.99710189  1
