# generated using pymatgen
data_CsTiCuOF5
_symmetry_space_group_name_H-M   'P 1'
_cell_length_a   7.45688929
_cell_length_b   7.29363371
_cell_length_c   7.45688863
_cell_angle_alpha   60.72161254
_cell_angle_beta   58.48251386
_cell_angle_gamma   60.72161314
_symmetry_Int_Tables_number   1
_chemical_formula_structural   CsTiCuOF5
_chemical_formula_sum   'Cs2 Ti2 Cu2 O2 F10'
_cell_volume   286.32828346
_cell_formula_units_Z   2
loop_
 _symmetry_equiv_pos_site_id
 _symmetry_equiv_pos_as_xyz
  1  'x, y, z'
loop_
 _atom_site_type_symbol
 _atom_site_label
 _atom_site_symmetry_multiplicity
 _atom_site_fract_x
 _atom_site_fract_y
 _atom_site_fract_z
 _atom_site_occupancy
  Cs  Cs0  1  0.37697773  0.37302227  0.37697773  1
  Cs  Cs1  1  0.62302227  0.62697773  0.62302227  1
  Ti  Ti2  1  0.50000000  0.00000000  0.00000000  1
  Ti  Ti3  1  0.00000000  0.00000000  0.50000000  1
  Cu  Cu4  1  0.00000000  0.00000000  0.00000000  1
  Cu  Cu5  1  0.00000000  0.50000000  0.00000000  1
  O  O6  1  0.29183027  0.95816973  0.29183027  1
  O  O7  1  0.70816973  0.04183027  0.70816973  1
  F  F8  1  0.08163218  0.06715906  0.66587881  1
  F  F9  1  0.06421632  0.68578368  0.06421632  1
  F  F10  1  0.08163218  0.68532995  0.66587881  1
  F  F11  1  0.66587881  0.06715906  0.08163218  1
  F  F12  1  0.33412119  0.31467005  0.91836782  1
  F  F13  1  0.66587881  0.68532995  0.08163218  1
  F  F14  1  0.91836782  0.31467005  0.33412119  1
  F  F15  1  0.33412119  0.93284094  0.91836782  1
  F  F16  1  0.91836782  0.93284094  0.33412119  1
  F  F17  1  0.93578368  0.31421632  0.93578368  1
