# generated using pymatgen
data_Sc20O19
_symmetry_space_group_name_H-M   'P 1'
_cell_length_a   31.67680403
_cell_length_b   8.37658737
_cell_length_c   16.45670652
_cell_angle_alpha   29.21248191
_cell_angle_beta   15.79335483
_cell_angle_gamma   40.88929645
_symmetry_Int_Tables_number   1
_chemical_formula_structural   Sc20O19
_chemical_formula_sum   'Sc20 O19'
_cell_volume   449.71785161
_cell_formula_units_Z   1
loop_
 _symmetry_equiv_pos_site_id
 _symmetry_equiv_pos_as_xyz
  1  'x, y, z'
loop_
 _atom_site_type_symbol
 _atom_site_label
 _atom_site_symmetry_multiplicity
 _atom_site_fract_x
 _atom_site_fract_y
 _atom_site_fract_z
 _atom_site_occupancy
  Sc  Sc0  1  0.99834984  0.99506318  0.00660271  1
  Sc  Sc1  1  0.04866936  0.49862130  0.00285158  1
  Sc  Sc2  1  0.15014039  0.50303820  0.99731752  1
  Sc  Sc3  1  0.09996076  0.00173614  0.99892415  1
  Sc  Sc4  1  0.24653141  0.49284503  0.00898592  1
  Sc  Sc5  1  0.19952907  0.00477951  0.99783862  1
  Sc  Sc6  1  0.35044186  0.50208674  0.99806206  1
  Sc  Sc7  1  0.30328031  0.00522276  0.99149877  1
  Sc  Sc8  1  0.45126499  0.50671830  0.99473897  1
  Sc  Sc9  1  0.39535629  0.99241237  0.01077334  1
  Sc  Sc10  1  0.54905742  0.49638991  0.00423095  1
  Sc  Sc11  1  0.50137977  0.99627589  0.00029079  1
  Sc  Sc12  1  0.65018672  0.50096103  0.99850833  1
  Sc  Sc13  1  0.60009779  0.00057884  -0.00070861  1
  Sc  Sc14  1  0.74963261  0.49884388  0.00075675  1
  Sc  Sc15  1  0.70111879  0.00349571  0.99476807  1
  Sc  Sc16  1  0.85010671  0.50363840  0.99762775  1
  Sc  Sc17  1  0.80093482  0.00403943  0.99684349  1
  Sc  Sc18  1  0.94862675  0.49948435  0.00286235  1
  Sc  Sc19  1  0.89889664  -0.00420048  0.00272237  1
  O  O20  1  0.05116763  0.00289018  0.49537528  1
  O  O21  1  0.00170589  0.49955542  0.49756843  1
  O  O22  1  0.15275558  0.00850495  0.49151294  1
  O  O23  1  0.09895539  0.49815030  0.50275122  1
  O  O24  1  0.25194467  0.00407840  0.49455288  1
  O  O25  1  0.20075856  0.50263261  0.49531763  1
  O  O26  1  0.35001729  0.00084146  0.49944413  1
  O  O27  1  0.30469685  0.50959447  0.48735760  1
  O  O28  1  0.44773678  0.99448130  0.50570920  1
  O  O29  1  0.39499798  0.49216545  0.51255072  1
  O  O30  1  0.49654443  0.49644880  0.50915798  1
  O  O31  1  0.59811263  0.49687838  0.50429538  1
  O  O32  1  0.54846644  0.99293038  0.50523264  1
  O  O33  1  0.69680653  0.50339984  0.50365608  1
  O  O34  1  0.64925647  0.99670514  0.50378315  1
  O  O35  1  0.79950165  0.50903915  0.49725576  1
  O  O36  1  0.95060997  0.00031564  0.49958488  1
  O  O37  1  0.75001959  0.00308583  0.49616753  1
  O  O38  1  0.89977437  0.49189782  0.50340269  1
