# generated using pymatgen
data_Li2V(PO4)2
_symmetry_space_group_name_H-M   'P 1'
_cell_length_a   4.89746649
_cell_length_b   17.38433149
_cell_length_c   6.59392297
_cell_angle_alpha   90.00000000
_cell_angle_beta   94.86504313
_cell_angle_gamma   90.00000000
_symmetry_Int_Tables_number   1
_chemical_formula_structural   Li2V(PO4)2
_chemical_formula_sum   'Li8 V4 P8 O32'
_cell_volume   559.37859855
_cell_formula_units_Z   4
loop_
 _symmetry_equiv_pos_site_id
 _symmetry_equiv_pos_as_xyz
  1  'x, y, z'
loop_
 _atom_site_type_symbol
 _atom_site_label
 _atom_site_symmetry_multiplicity
 _atom_site_fract_x
 _atom_site_fract_y
 _atom_site_fract_z
 _atom_site_occupancy
  Li  Li0  1  0.71332342  0.62018298  0.99240439  1
  Li  Li1  1  0.21637883  0.88296782  0.51245069  1
  Li  Li2  1  0.69037253  0.80487779  0.32041228  1
  Li  Li3  1  0.78667658  0.12018298  0.50759561  1
  Li  Li4  1  0.23394179  0.55507598  0.20156904  1
  Li  Li5  1  0.28362117  0.38296782  0.98754931  1
  Li  Li6  1  0.80962747  0.30487779  0.17958772  1
  Li  Li7  1  0.26605821  0.05507598  0.29843096  1
  V  V8  1  0.79016685  0.12966964  0.97824704  1
  V  V9  1  0.70983315  0.62966964  0.52175296  1
  V  V10  1  0.30697698  0.37290423  0.49726424  1
  V  V11  1  0.19302302  0.87290423  0.00273576  1
  P  P12  1  0.16956102  0.71304862  0.27904787  1
  P  P13  1  0.33043898  0.21304862  0.22095213  1
  P  P14  1  0.23176183  0.53626177  0.72540117  1
  P  P15  1  0.73160886  0.96290796  0.22507123  1
  P  P16  1  0.26823817  0.03626177  0.77459883  1
  P  P17  1  0.66698665  0.78590415  0.77962075  1
  P  P18  1  0.83301335  0.28590415  0.72037925  1
  P  P19  1  0.76839114  0.46290796  0.27492877  1
  O  O20  1  0.97910926  0.80805153  0.82203024  1
  O  O21  1  0.87109268  0.93196793  0.41787150  1
  O  O22  1  0.95417907  0.32361640  0.91226242  1
  O  O23  1  0.28224363  0.94617126  0.79505698  1
  O  O24  1  0.64859053  0.69596151  0.75651804  1
  O  O25  1  0.52089074  0.30805153  0.67796976  1
  O  O26  1  0.12655361  0.06986719  0.95936450  1
  O  O27  1  0.05899429  0.66542769  0.10135256  1
  O  O28  1  0.57455241  0.06484700  0.79571057  1
  O  O29  1  0.97767420  0.30796139  0.52537110  1
  O  O30  1  0.41876773  0.93800707  0.20861342  1
  O  O31  1  0.48543312  0.69625269  0.32640115  1
  O  O32  1  0.37344639  0.56986719  0.54063550  1
  O  O33  1  0.77467357  0.55346836  0.28717885  1
  O  O34  1  0.44100571  0.16542769  0.39864744  1
  O  O35  1  0.86893672  0.93170794  0.03647789  1
  O  O36  1  0.01865324  0.69516664  0.47389247  1
  O  O37  1  0.21775637  0.44617126  0.70494302  1
  O  O38  1  0.13109553  0.05929082  0.57203218  1
  O  O39  1  0.72532643  0.05346836  0.21282115  1
  O  O40  1  0.37134761  0.30207563  0.25393488  1
  O  O41  1  0.63106328  0.43170794  0.46352211  1
  O  O42  1  0.85140947  0.19596151  0.74348196  1
  O  O43  1  0.01456688  0.19625269  0.17359885  1
  O  O44  1  0.12865239  0.80207563  0.24606512  1
  O  O45  1  0.36890447  0.55929082  0.92796782  1
  O  O46  1  0.08123227  0.43800707  0.29138658  1
  O  O47  1  0.48134676  0.19516664  0.02610753  1
  O  O48  1  0.54582093  0.82361640  0.58773758  1
  O  O49  1  0.92544759  0.56484700  0.70428943  1
  O  O50  1  0.62890732  0.43196793  0.08212850  1
  O  O51  1  0.52232580  0.80796139  0.97462890  1
