# generated using pymatgen
data_Li10Mn21O48
_symmetry_space_group_name_H-M   'P 1'
_cell_length_a   5.86786450
_cell_length_b   5.85473896
_cell_length_c   35.04564761
_cell_angle_alpha   59.92182923
_cell_angle_beta   60.50866315
_cell_angle_gamma   60.07396781
_symmetry_Int_Tables_number   1
_chemical_formula_structural   Li10Mn21O48
_chemical_formula_sum   'Li10 Mn21 O48'
_cell_volume   854.54128507
_cell_formula_units_Z   1
loop_
 _symmetry_equiv_pos_site_id
 _symmetry_equiv_pos_as_xyz
  1  'x, y, z'
loop_
 _atom_site_type_symbol
 _atom_site_label
 _atom_site_symmetry_multiplicity
 _atom_site_fract_x
 _atom_site_fract_y
 _atom_site_fract_z
 _atom_site_occupancy
  Li  Li0  1  0.13313004  0.11404858  0.02312847  1
  Li  Li1  1  0.13311059  0.12896262  0.18482736  1
  Li  Li2  1  0.13493817  0.11758391  0.35498267  1
  Li  Li3  1  0.86686996  0.88595142  0.14353753  1
  Li  Li4  1  0.13302656  0.13204105  0.51714822  1
  Li  Li5  1  0.13126693  0.11563372  0.68957760  1
  Li  Li6  1  0.86873307  0.88436628  0.47708940  1
  Li  Li7  1  0.86697344  0.86795895  0.64951778  1
  Li  Li8  1  0.86506183  0.88241609  0.81168433  1
  Li  Li9  1  0.86688941  0.87103738  0.98183964  1
  Mn  Mn10  1  0.50000000  0.50000000  0.08333300  1
  Mn  Mn11  1  0.99770696  0.50089722  0.25008310  1
  Mn  Mn12  1  0.50000000  0.00000000  0.08333300  1
  Mn  Mn13  1  0.50605744  0.50453808  0.16414473  1
  Mn  Mn14  1  0.50036970  0.50070448  0.25010119  1
  Mn  Mn15  1  0.50036970  0.99831869  0.25010119  1
  Mn  Mn16  1  0.49592562  0.49607749  0.33531957  1
  Mn  Mn17  1  0.49867330  0.49961703  0.41662731  1
  Mn  Mn18  1  0.00000000  0.50000000  0.58333300  1
  Mn  Mn19  1  0.49867330  0.00194783  0.41662731  1
  Mn  Mn20  1  0.50703048  0.50498272  0.49716735  1
  Mn  Mn21  1  0.50000000  0.50000000  0.58333300  1
  Mn  Mn22  1  0.49296952  0.49501728  0.66949965  1
  Mn  Mn23  1  0.50000000  0.00000000  0.58333300  1
  Mn  Mn24  1  0.50132670  0.50038297  0.75003969  1
  Mn  Mn25  1  0.00229304  0.49910278  0.91658390  1
  Mn  Mn26  1  0.50407438  0.50392251  0.83134643  1
  Mn  Mn27  1  0.50132670  0.99805217  0.75003969  1
  Mn  Mn28  1  0.49963030  0.49929552  0.91656581  1
  Mn  Mn29  1  0.49394256  0.49546192  0.00252227  1
  Mn  Mn30  1  0.49963030  0.00168131  0.91656581  1
  O  O31  1  0.30663666  0.24656639  0.03850834  1
  O  O32  1  0.29498189  0.25015537  0.11745123  1
  O  O33  1  0.30663666  0.71574693  0.03850834  1
  O  O34  1  0.71688977  0.25928020  0.04409164  1
  O  O35  1  0.28311023  0.74071980  0.12257536  1
  O  O36  1  0.25831939  0.26268523  0.21171053  1
  O  O37  1  0.69336334  0.28425307  0.12815866  1
  O  O38  1  0.26697888  0.26331952  0.28439735  1
  O  O39  1  0.25831939  0.70873421  0.21171053  1
  O  O40  1  0.70501811  0.74984463  0.04921577  1
  O  O41  1  0.70631621  0.26493065  0.21063742  1
  O  O42  1  0.69336334  0.75343361  0.12815866  1
  O  O43  1  0.30034558  0.73550965  0.28810552  1
  O  O44  1  0.31000053  0.24376372  0.37160357  1
  O  O45  1  0.74053075  0.29754234  0.28715031  1
  O  O46  1  0.29385497  0.25159233  0.45049306  1
  O  O47  1  0.73373379  0.73877598  0.21478537  1
  O  O48  1  0.31000053  0.71661234  0.37160357  1
  O  O49  1  0.71630473  0.25922547  0.37754039  1
  O  O50  1  0.74053075  0.73902302  0.28715031  1
  O  O51  1  0.28276259  0.74014341  0.45615843  1
  O  O52  1  0.25686140  0.26223145  0.54529638  1
  O  O53  1  0.69421047  0.28477919  0.46142375  1
  O  O54  1  0.70637352  0.74513550  0.38389258  1
  O  O55  1  0.25653839  0.26474882  0.61899400  1
  O  O56  1  0.25686140  0.70912886  0.54529638  1
  O  O57  1  0.70663748  0.26430459  0.54412556  1
  O  O58  1  0.69421047  0.75246781  0.46142375  1
  O  O59  1  0.29336252  0.73569541  0.62254144  1
  O  O60  1  0.30578953  0.24753219  0.70524325  1
  O  O61  1  0.74313860  0.29087114  0.62137062  1
  O  O62  1  0.29362648  0.25486450  0.78277442  1
  O  O63  1  0.30578953  0.71522081  0.70524325  1
  O  O64  1  0.74346161  0.73525118  0.54767300  1
  O  O65  1  0.71723741  0.25985659  0.71050857  1
  O  O66  1  0.74313860  0.73776855  0.62137062  1
  O  O67  1  0.28369527  0.74077453  0.78912561  1
  O  O68  1  0.25946925  0.26097698  0.87951569  1
  O  O69  1  0.68999947  0.28338766  0.79506243  1
  O  O70  1  0.26626621  0.26122402  0.95188063  1
  O  O71  1  0.70614503  0.74840767  0.71617294  1
  O  O72  1  0.25946925  0.70245766  0.87951569  1
  O  O73  1  0.69965442  0.26449035  0.87856048  1
  O  O74  1  0.68999947  0.75623628  0.79506243  1
  O  O75  1  0.29368379  0.73506935  0.95602958  1
  O  O76  1  0.74168061  0.29126579  0.95495647  1
  O  O77  1  0.73302112  0.73668048  0.88226965  1
  O  O78  1  0.74168061  0.73731477  0.95495647  1
