# generated using pymatgen
data_H8C2SeS2(N2Cl)2
_symmetry_space_group_name_H-M   'P 1'
_cell_length_a   8.59996206
_cell_length_b   16.75984067
_cell_length_c   8.66881621
_cell_angle_alpha   90.00000000
_cell_angle_beta   123.27683236
_cell_angle_gamma   90.00000000
_symmetry_Int_Tables_number   1
_chemical_formula_structural   H8C2SeS2(N2Cl)2
_chemical_formula_sum   'H32 C8 Se4 S8 N16 Cl8'
_cell_volume   1044.59444074
_cell_formula_units_Z   4
loop_
 _symmetry_equiv_pos_site_id
 _symmetry_equiv_pos_as_xyz
  1  'x, y, z'
loop_
 _atom_site_type_symbol
 _atom_site_label
 _atom_site_symmetry_multiplicity
 _atom_site_fract_x
 _atom_site_fract_y
 _atom_site_fract_z
 _atom_site_occupancy
  H  H0  1  0.23040508  0.61411214  0.69705373  1
  H  H1  1  0.76959492  0.11411214  0.80294627  1
  H  H2  1  0.76959492  0.38588786  0.30294627  1
  H  H3  1  0.23040508  0.88588786  0.19705373  1
  H  H4  1  0.26664274  0.51682658  0.77986611  1
  H  H5  1  0.73335726  0.01682658  0.72013389  1
  H  H6  1  0.73335726  0.48317342  0.22013389  1
  H  H7  1  0.26664274  0.98317342  0.27986611  1
  H  H8  1  0.21745995  0.63986668  0.41053718  1
  H  H9  1  0.78254005  0.13986668  0.08946282  1
  H  H10  1  0.78254005  0.36013332  0.58946282  1
  H  H11  1  0.21745995  0.86013332  0.91053718  1
  H  H12  1  0.24713510  0.55834251  0.30203708  1
  H  H13  1  0.75286490  0.05834251  0.19796292  1
  H  H14  1  0.75286490  0.44165749  0.69796292  1
  H  H15  1  0.24713510  0.94165749  0.80203708  1
  H  H16  1  0.03982885  0.10377481  0.55333687  1
  H  H17  1  0.96017115  0.60377481  0.94666313  1
  H  H18  1  0.96017115  0.89622519  0.44666313  1
  H  H19  1  0.03982885  0.39622519  0.05333687  1
  H  H20  1  0.91198526  0.18201106  0.57071825  1
  H  H21  1  0.08801474  0.68201106  0.92928175  1
  H  H22  1  0.08801474  0.81798894  0.42928175  1
  H  H23  1  0.91198526  0.31798894  0.07071825  1
  H  H24  1  0.34652266  0.12636680  0.64475629  1
  H  H25  1  0.65347734  0.62636680  0.85524371  1
  H  H26  1  0.65347734  0.87363320  0.35524371  1
  H  H27  1  0.34652266  0.37363320  0.14475629  1
  H  H28  1  0.45126281  0.22135400  0.73062874  1
  H  H29  1  0.54873719  0.72135400  0.76937126  1
  H  H30  1  0.54873719  0.77864600  0.26937126  1
  H  H31  1  0.45126281  0.27864600  0.23062874  1
  C  C32  1  0.25717135  0.53055988  0.53823809  1
  C  C33  1  0.74282865  0.03055988  0.96176191  1
  C  C34  1  0.74282865  0.46944012  0.46176191  1
  C  C35  1  0.25717135  0.96944012  0.03823809  1
  C  C36  1  0.17962089  0.20932034  0.65154437  1
  C  C37  1  0.82037911  0.70932034  0.84845563  1
  C  C38  1  0.82037911  0.79067966  0.34845563  1
  C  C39  1  0.17962089  0.29067966  0.15154437  1
  Se  Se40  1  0.41037473  0.37245577  0.78261837  1
  Se  Se41  1  0.58962527  0.87245577  0.71738163  1
  Se  Se42  1  0.58962527  0.62754423  0.21738163  1
  Se  Se43  1  0.41037473  0.12754423  0.28261837  1
  S  S44  1  0.30457108  0.43113434  0.51148426  1
  S  S45  1  0.69542892  0.93113434  0.98851574  1
  S  S46  1  0.69542892  0.56886566  0.48851574  1
  S  S47  1  0.30457108  0.06886566  0.01148426  1
  S  S48  1  0.15178512  0.30633941  0.71003792  1
  S  S49  1  0.84821488  0.80633941  0.78996208  1
  S  S50  1  0.84821488  0.69366059  0.28996208  1
  S  S51  1  0.15178512  0.19366059  0.21003792  1
  N  N52  1  0.24580112  0.55451989  0.67711242  1
  N  N53  1  0.75419888  0.05451989  0.82288758  1
  N  N54  1  0.75419888  0.44548011  0.32288758  1
  N  N55  1  0.24580112  0.94548011  0.17711242  1
  N  N56  1  0.23413701  0.57917674  0.40652612  1
  N  N57  1  0.76586299  0.07917674  0.09347388  1
  N  N58  1  0.76586299  0.42082326  0.59347388  1
  N  N59  1  0.23413701  0.92082326  0.90652612  1
  N  N60  1  0.03137561  0.16255823  0.58189312  1
  N  N61  1  0.96862439  0.66255823  0.91810688  1
  N  N62  1  0.96862439  0.83744177  0.41810688  1
  N  N63  1  0.03137561  0.33744177  0.08189312  1
  N  N64  1  0.33893342  0.18431512  0.68020449  1
  N  N65  1  0.66106658  0.68431512  0.81979551  1
  N  N66  1  0.66106658  0.81568488  0.31979551  1
  N  N67  1  0.33893342  0.31568488  0.18020449  1
  Cl  Cl68  1  0.74505827  0.49669552  0.93688615  1
  Cl  Cl69  1  0.25494173  0.99669552  0.56311385  1
  Cl  Cl70  1  0.25494173  0.50330448  0.06311385  1
  Cl  Cl71  1  0.74505827  0.00330448  0.43688615  1
  Cl  Cl72  1  0.70835047  0.26918364  0.14850368  1
  Cl  Cl73  1  0.29164953  0.76918364  0.35149632  1
  Cl  Cl74  1  0.29164953  0.73081636  0.85149632  1
  Cl  Cl75  1  0.70835047  0.23081636  0.64850368  1
