# generated using pymatgen
data_Cr7Se8
_symmetry_space_group_name_H-M   'P 1'
_cell_length_a   7.49080082
_cell_length_b   7.12071165
_cell_length_c   8.79686375
_cell_angle_alpha   54.93315766
_cell_angle_beta   51.08188325
_cell_angle_gamma   75.26435529
_symmetry_Int_Tables_number   1
_chemical_formula_structural   Cr7Se8
_chemical_formula_sum   'Cr7 Se8'
_cell_volume   294.59517899
_cell_formula_units_Z   1
loop_
 _symmetry_equiv_pos_site_id
 _symmetry_equiv_pos_as_xyz
  1  'x, y, z'
loop_
 _atom_site_type_symbol
 _atom_site_label
 _atom_site_symmetry_multiplicity
 _atom_site_fract_x
 _atom_site_fract_y
 _atom_site_fract_z
 _atom_site_occupancy
  Cr  Cr0  1  0.50000000  0.50000000  0.50000000  1
  Cr  Cr1  1  0.50000000  0.00000000  0.00000000  1
  Cr  Cr2  1  0.00000000  0.50000000  0.50000000  1
  Cr  Cr3  1  0.76877125  0.76877125  0.73122875  1
  Cr  Cr4  1  0.23122875  0.23122875  0.26877125  1
  Cr  Cr5  1  0.76718117  0.23281883  0.24370977  1
  Cr  Cr6  1  0.23281883  0.76718117  0.75629023  1
  Se  Se7  1  0.95099863  0.04900137  0.71300782  1
  Se  Se8  1  0.04900137  0.95099863  0.28699218  1
  Se  Se9  1  0.46393078  0.53606922  0.20405856  1
  Se  Se10  1  0.53606922  0.46393078  0.79594144  1
  Se  Se11  1  0.47080406  0.04150493  0.69792054  1
  Se  Se12  1  0.04150493  0.47080406  0.78977046  1
  Se  Se13  1  0.95849507  0.52919594  0.21022954  1
  Se  Se14  1  0.52919594  0.95849507  0.30207946  1
