# generated using pymatgen
data_Li6Co5(P2O7)4
_symmetry_space_group_name_H-M   'P 1'
_cell_length_a   12.88677684
_cell_length_b   9.06973012
_cell_length_c   10.49413481
_cell_angle_alpha   65.84580084
_cell_angle_beta   87.79314469
_cell_angle_gamma   73.67232919
_symmetry_Int_Tables_number   1
_chemical_formula_structural   Li6Co5(P2O7)4
_chemical_formula_sum   'Li12 Co10 P16 O56'
_cell_volume   1069.91665723
_cell_formula_units_Z   2
loop_
 _symmetry_equiv_pos_site_id
 _symmetry_equiv_pos_as_xyz
  1  'x, y, z'
loop_
 _atom_site_type_symbol
 _atom_site_label
 _atom_site_symmetry_multiplicity
 _atom_site_fract_x
 _atom_site_fract_y
 _atom_site_fract_z
 _atom_site_occupancy
  Li  Li0  1  0.43075409  0.11366814  0.40344600  1
  Li  Li1  1  0.69073003  0.08360185  0.87130581  1
  Li  Li2  1  0.47443578  0.18216046  0.99046231  1
  Li  Li3  1  0.25000000  0.50000000  0.50000000  1
  Li  Li4  1  0.19572553  0.10467674  0.86230825  1
  Li  Li5  1  0.58038174  0.86882789  0.59765862  1
  Li  Li6  1  0.06924591  0.88633186  0.59655400  1
  Li  Li7  1  0.80926997  0.91639815  0.12869419  1
  Li  Li8  1  0.91961826  0.13117211  0.40234138  1
  Li  Li9  1  0.30427447  0.89532326  0.13769175  1
  Li  Li10  1  0.75000000  0.50000000  0.50000000  1
  Li  Li11  1  0.02556422  0.81783954  0.00953769  1
  Co  Co12  1  0.81640294  0.51287993  0.75501076  1
  Co  Co13  1  0.51195034  0.80551253  0.99103142  1
  Co  Co14  1  0.98804966  0.19448747  0.00896858  1
  Co  Co15  1  0.68359706  0.48712007  0.24498924  1
  Co  Co16  1  0.14488099  0.09824312  0.28958319  1
  Co  Co17  1  0.18175752  0.49850349  0.24133563  1
  Co  Co18  1  0.86019279  0.90221253  0.71369209  1
  Co  Co19  1  0.35511901  0.90175688  0.71041681  1
  Co  Co20  1  0.31824248  0.50149651  0.75866437  1
  Co  Co21  1  0.63980721  0.09778747  0.28630791  1
  P  P22  1  0.93983162  0.44569981  0.18985815  1
  P  P23  1  0.77922267  0.71597608  0.95929617  1
  P  P24  1  0.21724479  0.29009400  0.03956229  1
  P  P25  1  0.06346422  0.54376673  0.80644060  1
  P  P26  1  0.43653578  0.45623327  0.19355940  1
  P  P27  1  0.72077733  0.28402392  0.04070383  1
  P  P28  1  0.56016838  0.55430019  0.81014185  1
  P  P29  1  0.35116691  0.79719770  0.44907111  1
  P  P30  1  0.14883309  0.20280230  0.55092889  1
  P  P31  1  0.04100780  0.82084004  0.29965721  1
  P  P32  1  0.54073500  0.80745881  0.29670526  1
  P  P33  1  0.28275521  0.70990600  0.96043771  1
  P  P34  1  0.84866391  0.80793227  0.44506420  1
  P  P35  1  0.95926500  0.19254119  0.70329474  1
  P  P36  1  0.65133609  0.19206773  0.55493580  1
  P  P37  1  0.45899220  0.17915996  0.70034279  1
  O  O38  1  0.30619680  0.65920140  0.54729601  1
  O  O39  1  0.55006473  0.93607089  0.35291480  1
  O  O40  1  0.96010915  0.72023467  0.39418270  1
  O  O41  1  0.27994654  0.91152467  0.31112363  1
  O  O42  1  0.99360847  0.27012248  0.18691309  1
  O  O43  1  0.14549532  0.68661922  0.31134826  1
  O  O44  1  0.49011196  0.26946737  0.22508835  1
  O  O45  1  0.34745886  0.48083119  0.28810127  1
  O  O46  1  0.44640320  0.06391429  0.63161089  1
  O  O47  1  0.94993527  0.06392911  0.64708520  1
  O  O48  1  0.82308058  0.30412622  0.96439255  1
  O  O49  1  0.87275299  0.54646796  0.03740683  1
  O  O50  1  0.01783806  0.54234567  0.19135667  1
  O  O51  1  0.68543000  0.13715091  0.03789512  1
  O  O52  1  0.32703141  0.85448457  0.96038635  1
  O  O53  1  0.77534835  0.91551911  0.30761173  1
  O  O54  1  0.31871116  0.29503029  0.96213821  1
  O  O55  1  0.62724701  0.45353204  0.96259317  1
  O  O56  1  0.62714874  0.08125394  0.48954451  1
  O  O57  1  0.22744476  0.27623108  0.19030914  1
  O  O58  1  0.77293034  0.72835881  0.80818823  1
  O  O59  1  0.98565027  0.92686383  0.14735332  1
  O  O60  1  0.37900410  0.90331518  0.51717485  1
  O  O61  1  0.85204084  0.32520387  0.68570202  1
  O  O62  1  0.18128884  0.70496971  0.03786179  1
  O  O63  1  0.98174185  0.44240967  0.82640390  1
  O  O64  1  0.87285126  0.91874606  0.51045549  1
  O  O65  1  0.50639153  0.72987752  0.81308691  1
  O  O66  1  0.51434973  0.07313617  0.85264668  1
  O  O67  1  0.19380320  0.34079860  0.45270399  1
  O  O68  1  0.12099590  0.09668482  0.48282515  1
  O  O69  1  0.85665131  0.42996042  0.29850440  1
  O  O70  1  0.48216194  0.45765433  0.80864333  1
  O  O71  1  0.53989085  0.27976533  0.60581730  1
  O  O72  1  0.00988804  0.73053263  0.77491165  1
  O  O73  1  0.01656179  0.10258919  0.85465384  1
  O  O74  1  0.35450468  0.31338078  0.68865174  1
  O  O75  1  0.27255524  0.72376892  0.80969086  1
  O  O76  1  0.72465165  0.08448089  0.69238827  1
  O  O77  1  0.64334869  0.57003958  0.70149560  1
  O  O78  1  0.03738706  0.29240157  0.60087245  1
  O  O79  1  0.67691942  0.69587378  0.03560745  1
  O  O80  1  0.37447577  0.53505946  0.03719818  1
  O  O81  1  0.72706966  0.27164119  0.19181177  1
  O  O82  1  0.17296859  0.14551543  0.03961365  1
  O  O83  1  0.81457000  0.86284909  0.96210488  1
  O  O84  1  0.48343821  0.89741081  0.14534616  1
  O  O85  1  0.12552423  0.46494054  0.96280182  1
  O  O86  1  0.80853956  0.66398698  0.54469873  1
  O  O87  1  0.69146044  0.33601302  0.45530127  1
  O  O88  1  0.51825815  0.55759033  0.17359610  1
  O  O89  1  0.15254114  0.51916881  0.71189873  1
  O  O90  1  0.46261294  0.70759843  0.39912755  1
  O  O91  1  0.64795916  0.67479613  0.31429798  1
  O  O92  1  0.22005446  0.08847533  0.68887637  1
  O  O93  1  0.05359680  0.93608571  0.36838911  1
