# generated using pymatgen
data_H5C2NO
_symmetry_space_group_name_H-M   'P 1'
_cell_length_a   8.14137882
_cell_length_b   8.14137882
_cell_length_c   8.14137847
_cell_angle_alpha   90.90621700
_cell_angle_beta   90.90621700
_cell_angle_gamma   90.90621279
_symmetry_Int_Tables_number   1
_chemical_formula_structural   H5C2NO
_chemical_formula_sum   'H30 C12 N6 O6'
_cell_volume   539.42260077
_cell_formula_units_Z   6
loop_
 _symmetry_equiv_pos_site_id
 _symmetry_equiv_pos_as_xyz
  1  'x, y, z'
loop_
 _atom_site_type_symbol
 _atom_site_label
 _atom_site_symmetry_multiplicity
 _atom_site_fract_x
 _atom_site_fract_y
 _atom_site_fract_z
 _atom_site_occupancy
  H  H0  1  0.18087755  0.84003000  0.78591280  1
  H  H1  1  0.84003000  0.78591280  0.18087755  1
  H  H2  1  0.78591280  0.18087755  0.84003000  1
  H  H3  1  0.68087755  0.28591280  0.34003000  1
  H  H4  1  0.28591280  0.34003000  0.68087755  1
  H  H5  1  0.34003000  0.68087755  0.28591280  1
  H  H6  1  0.11348697  0.03058669  0.71101699  1
  H  H7  1  0.03058669  0.71101699  0.11348697  1
  H  H8  1  0.71101699  0.11348697  0.03058669  1
  H  H9  1  0.61348697  0.21101699  0.53058669  1
  H  H10  1  0.21101699  0.53058669  0.61348697  1
  H  H11  1  0.53058669  0.61348697  0.21101699  1
  H  H12  1  0.31177983  0.07029607  0.40253674  1
  H  H13  1  0.07029607  0.40253674  0.31177983  1
  H  H14  1  0.40253674  0.31177983  0.07029607  1
  H  H15  1  0.81177983  0.90253674  0.57029607  1
  H  H16  1  0.90253674  0.57029607  0.81177983  1
  H  H17  1  0.57029607  0.81177983  0.90253674  1
  H  H18  1  0.09976097  0.09389629  0.43735492  1
  H  H19  1  0.09389629  0.43735492  0.09976097  1
  H  H20  1  0.43735492  0.09976097  0.09389629  1
  H  H21  1  0.59976097  0.93735492  0.59389629  1
  H  H22  1  0.93735492  0.59389629  0.59976097  1
  H  H23  1  0.59389629  0.59976097  0.93735492  1
  H  H24  1  0.16676299  0.94912794  0.28575975  1
  H  H25  1  0.94912794  0.28575975  0.16676299  1
  H  H26  1  0.28575975  0.16676299  0.94912794  1
  H  H27  1  0.66676299  0.78575975  0.44912794  1
  H  H28  1  0.78575975  0.44912794  0.66676299  1
  H  H29  1  0.44912794  0.66676299  0.78575975  1
  C  C30  1  0.19335475  0.00342781  0.40725948  1
  C  C31  1  0.00342781  0.40725948  0.19335475  1
  C  C32  1  0.40725948  0.19335475  0.00342781  1
  C  C33  1  0.69335475  0.90725948  0.50342781  1
  C  C34  1  0.90725948  0.50342781  0.69335475  1
  C  C35  1  0.50342781  0.69335475  0.90725948  1
  C  C36  1  0.20468587  0.87212972  0.53607071  1
  C  C37  1  0.87212972  0.53607071  0.20468587  1
  C  C38  1  0.53607071  0.20468587  0.87212972  1
  C  C39  1  0.70468587  0.03607071  0.37212972  1
  C  C40  1  0.03607071  0.37212972  0.70468587  1
  C  C41  1  0.37212972  0.70468587  0.03607071  1
  N  N42  1  0.15896534  0.91554779  0.68770308  1
  N  N43  1  0.91554779  0.68770308  0.15896534  1
  N  N44  1  0.68770308  0.15896534  0.91554779  1
  N  N45  1  0.65896534  0.18770308  0.41554779  1
  N  N46  1  0.18770308  0.41554779  0.65896534  1
  N  N47  1  0.41554779  0.65896534  0.18770308  1
  O  O48  1  0.25779530  0.73107524  0.50149839  1
  O  O49  1  0.73107524  0.50149839  0.25779530  1
  O  O50  1  0.50149839  0.25779530  0.73107524  1
  O  O51  1  0.75779530  0.00149839  0.23107524  1
  O  O52  1  0.00149839  0.23107524  0.75779530  1
  O  O53  1  0.23107524  0.75779530  0.00149839  1
