# generated using pymatgen
data_Mn3(P2O7)2
_symmetry_space_group_name_H-M   'P 1'
_cell_length_a   5.33529379
_cell_length_b   6.49564063
_cell_length_c   16.28408431
_cell_angle_alpha   81.32794960
_cell_angle_beta   80.30372464
_cell_angle_gamma   72.56517319
_symmetry_Int_Tables_number   1
_chemical_formula_structural   Mn3(P2O7)2
_chemical_formula_sum   'Mn6 P8 O28'
_cell_volume   527.69720616
_cell_formula_units_Z   2
loop_
 _symmetry_equiv_pos_site_id
 _symmetry_equiv_pos_as_xyz
  1  'x, y, z'
loop_
 _atom_site_type_symbol
 _atom_site_label
 _atom_site_symmetry_multiplicity
 _atom_site_fract_x
 _atom_site_fract_y
 _atom_site_fract_z
 _atom_site_occupancy
  Mn  Mn0  1  0.17170490  0.28742756  0.58551969  1
  Mn  Mn1  1  0.95015324  0.39229383  0.17295902  1
  Mn  Mn2  1  0.25547173  0.97516703  0.32080691  1
  Mn  Mn3  1  0.04984676  0.60770617  0.82704098  1
  Mn  Mn4  1  0.74452827  0.02483297  0.67919309  1
  Mn  Mn5  1  0.82829510  0.71257244  0.41448031  1
  P  P6  1  0.55259160  0.22897305  0.07806174  1
  P  P7  1  0.28175422  0.78135934  0.54194379  1
  P  P8  1  0.60640303  0.56483096  0.68478083  1
  P  P9  1  0.16745925  0.10015404  0.79096534  1
  P  P10  1  0.71824578  0.21864066  0.45805621  1
  P  P11  1  0.83254075  0.89984596  0.20903466  1
  P  P12  1  0.39359697  0.43516904  0.31521917  1
  P  P13  1  0.44740840  0.77102695  0.92193826  1
  O  O14  1  0.74981395  0.67321597  0.91035334  1
  O  O15  1  0.33111630  0.13639235  0.70407447  1
  O  O16  1  0.35231449  0.85943800  0.00610606  1
  O  O17  1  0.39539234  0.97100169  0.84684678  1
  O  O18  1  0.20573664  0.65967003  0.33530090  1
  O  O19  1  0.66888370  0.86360765  0.29592553  1
  O  O20  1  0.57785331  0.15723939  0.54442636  1
  O  O21  1  0.79426336  0.34032997  0.66469910  1
  O  O22  1  0.53014798  0.68305753  0.59440613  1
  O  O23  1  0.99101486  0.95334452  0.78478332  1
  O  O24  1  0.01010324  0.31057338  0.82678404  1
  O  O25  1  0.76108713  0.69942834  0.71319937  1
  O  O26  1  0.98989676  0.68942662  0.17321596  1
  O  O27  1  0.35445250  0.54589876  0.73925216  1
  O  O28  1  0.09731545  0.97942289  0.58405633  1
  O  O29  1  0.42214669  0.84276061  0.45557364  1
  O  O30  1  0.29796296  0.61547189  0.90790040  1
  O  O31  1  0.00898514  0.04665548  0.21521668  1
  O  O32  1  0.90268455  0.02057711  0.41594367  1
  O  O33  1  0.23891287  0.30057166  0.28680063  1
  O  O34  1  0.86232909  0.38866780  0.45864093  1
  O  O35  1  0.70203704  0.38452811  0.09209960  1
  O  O36  1  0.13767091  0.61133220  0.54135907  1
  O  O37  1  0.64554750  0.45410124  0.26074784  1
  O  O38  1  0.46985202  0.31694247  0.40559387  1
  O  O39  1  0.64768551  0.14056200  0.99389394  1
  O  O40  1  0.25018605  0.32678403  0.08964666  1
  O  O41  1  0.60460766  0.02899831  0.15315322  1
