# generated using pymatgen
data_Cr(PO3)4
_symmetry_space_group_name_H-M   'P 1'
_cell_length_a   12.65142691
_cell_length_b   8.63373572
_cell_length_c   9.27173086
_cell_angle_alpha   90.00000000
_cell_angle_beta   90.00000000
_cell_angle_gamma   90.00000000
_symmetry_Int_Tables_number   1
_chemical_formula_structural   Cr(PO3)4
_chemical_formula_sum   'Cr4 P16 O48'
_cell_volume   1012.74259867
_cell_formula_units_Z   4
loop_
 _symmetry_equiv_pos_site_id
 _symmetry_equiv_pos_as_xyz
  1  'x, y, z'
loop_
 _atom_site_type_symbol
 _atom_site_label
 _atom_site_symmetry_multiplicity
 _atom_site_fract_x
 _atom_site_fract_y
 _atom_site_fract_z
 _atom_site_occupancy
  Cr  Cr0  1  0.50000000  0.86674913  0.75000000  1
  Cr  Cr1  1  0.50000000  0.13325087  0.25000000  1
  Cr  Cr2  1  0.00000000  0.63325087  0.25000000  1
  Cr  Cr3  1  0.00000000  0.36674913  0.75000000  1
  P  P4  1  0.84833216  0.46896492  0.48832154  1
  P  P5  1  0.84833216  0.53103508  0.98832254  1
  P  P6  1  0.85795275  0.19004444  0.99192053  1
  P  P7  1  0.65166784  0.96896492  0.48832154  1
  P  P8  1  0.14204725  0.19004444  0.50807947  1
  P  P9  1  0.14204725  0.80995556  0.00807947  1
  P  P10  1  0.15166784  0.46896492  0.01167846  1
  P  P11  1  0.15166784  0.53103508  0.51167846  1
  P  P12  1  0.34833216  0.03103508  0.51167846  1
  P  P13  1  0.34833216  0.96896492  0.01167846  1
  P  P14  1  0.35795275  0.30995556  0.00807947  1
  P  P15  1  0.35795275  0.69004444  0.50807947  1
  P  P16  1  0.64204725  0.30995556  0.49192053  1
  P  P17  1  0.64204725  0.69004444  0.99192053  1
  P  P18  1  0.65166784  0.03103508  0.98832254  1
  P  P19  1  0.85795275  0.80995556  0.49192053  1
  O  O20  1  0.93285224  0.79173508  0.36333910  1
  O  O21  1  0.93285224  0.20826492  0.86333910  1
  O  O22  1  0.93253625  0.52844203  0.87259620  1
  O  O23  1  0.93253625  0.47155697  0.37259620  1
  O  O24  1  0.06714776  0.20826492  0.63666090  1
  O  O25  1  0.06714776  0.79173508  0.13666090  1
  O  O26  1  0.06746375  0.47155697  0.12740380  1
  O  O27  1  0.06746375  0.52844203  0.62740380  1
  O  O28  1  0.10488393  0.11024928  0.37761947  1
  O  O29  1  0.10488393  0.88975072  0.87761947  1
  O  O30  1  0.12430192  0.38254762  0.87412561  1
  O  O31  1  0.12430192  0.61745238  0.37412561  1
  O  O32  1  0.19062516  0.36120728  0.47227622  1
  O  O33  1  0.19062516  0.63879372  0.97227622  1
  O  O34  1  0.24631902  0.11019330  0.57842806  1
  O  O35  1  0.24631902  0.88980570  0.07842806  1
  O  O36  1  0.25368098  0.38980570  0.07842806  1
  O  O37  1  0.25368098  0.61019430  0.57842806  1
  O  O38  1  0.30937484  0.13879372  0.97227622  1
  O  O39  1  0.30937484  0.86120728  0.47227622  1
  O  O40  1  0.37569708  0.11745338  0.37412561  1
  O  O41  1  0.37569708  0.88254762  0.87412561  1
  O  O42  1  0.39511607  0.38975072  0.87761947  1
  O  O43  1  0.39511607  0.61024928  0.37761947  1
  O  O44  1  0.43253625  0.02844303  0.62740380  1
  O  O45  1  0.43253625  0.97155697  0.12740380  1
  O  O46  1  0.43285224  0.29173508  0.13666090  1
  O  O47  1  0.43285224  0.70826492  0.63666090  1
  O  O48  1  0.56714776  0.29173508  0.36333910  1
  O  O49  1  0.56714776  0.70826492  0.86333910  1
  O  O50  1  0.56746375  0.02844303  0.87259620  1
  O  O51  1  0.56746375  0.97155697  0.37259620  1
  O  O52  1  0.60488393  0.38975072  0.62238053  1
  O  O53  1  0.60488393  0.61024928  0.12238053  1
  O  O54  1  0.62430192  0.11745338  0.12587439  1
  O  O55  1  0.62430192  0.88254762  0.62587439  1
  O  O56  1  0.69062516  0.13879372  0.52772378  1
  O  O57  1  0.69062516  0.86120728  0.02772378  1
  O  O58  1  0.74631902  0.38980570  0.42157194  1
  O  O59  1  0.74631902  0.61019430  0.92157194  1
  O  O60  1  0.75367998  0.11019330  0.92157194  1
  O  O61  1  0.75367998  0.88980570  0.42157194  1
  O  O62  1  0.80937484  0.36120728  0.02772378  1
  O  O63  1  0.80937484  0.63879372  0.52772378  1
  O  O64  1  0.87569708  0.38254762  0.62587439  1
  O  O65  1  0.87569708  0.61745238  0.12587439  1
  O  O66  1  0.89511607  0.88975072  0.62238053  1
  O  O67  1  0.89511607  0.11024928  0.12238053  1
