# generated using pymatgen
data_V8Ni2O15
_symmetry_space_group_name_H-M   'P 1'
_cell_length_a   5.52017746
_cell_length_b   5.52017723
_cell_length_c   27.66477944
_cell_angle_alpha   54.64806257
_cell_angle_beta   54.64806428
_cell_angle_gamma   54.99495685
_symmetry_Int_Tables_number   1
_chemical_formula_structural   V8Ni2O15
_chemical_formula_sum   'V16 Ni4 O30'
_cell_volume   523.38970751
_cell_formula_units_Z   2
loop_
 _symmetry_equiv_pos_site_id
 _symmetry_equiv_pos_as_xyz
  1  'x, y, z'
loop_
 _atom_site_type_symbol
 _atom_site_label
 _atom_site_symmetry_multiplicity
 _atom_site_fract_x
 _atom_site_fract_y
 _atom_site_fract_z
 _atom_site_occupancy
  V  V0  1  0.15227024  0.14985168  0.02834986  1
  V  V1  1  0.35712404  0.33339238  0.07177949  1
  V  V2  1  0.34718443  0.35059304  0.26948123  1
  V  V3  1  0.64287596  0.66660762  0.12822051  1
  V  V4  1  0.14940696  0.15281557  0.43051877  1
  V  V5  1  0.84772976  0.85014832  0.17165014  1
  V  V6  1  0.65259068  0.64540570  0.33073790  1
  V  V7  1  0.16660762  0.14287596  0.62822051  1
  V  V8  1  0.85459430  0.84740932  0.36926210  1
  V  V9  1  0.35014832  0.34772976  0.67165014  1
  V  V10  1  0.64985168  0.65227024  0.52834986  1
  V  V11  1  0.14540570  0.15259068  0.83073790  1
  V  V12  1  0.83339238  0.85712404  0.57177949  1
  V  V13  1  0.34740932  0.35459430  0.86926210  1
  V  V14  1  0.85059304  0.84718443  0.76948123  1
  V  V15  1  0.65281557  0.64940696  0.93051877  1
  Ni  Ni16  1  0.13980998  0.15127799  0.23041781  1
  Ni  Ni17  1  0.34872201  0.36019002  0.46958219  1
  Ni  Ni18  1  0.65127799  0.63980998  0.73041781  1
  Ni  Ni19  1  0.86019002  0.84872201  0.96958219  1
  O  O20  1  0.05641457  0.74549797  0.08848282  1
  O  O21  1  0.44562595  0.06572432  0.14815698  1
  O  O22  1  0.74568106  0.43707832  0.01153778  1
  O  O23  1  0.25431894  0.56292168  0.18846222  1
  O  O24  1  0.55437405  0.93427568  0.05184302  1
  O  O25  1  0.04892130  0.74165772  0.29044196  1
  O  O26  1  0.94358543  0.25450203  0.11151718  1
  O  O27  1  0.44409627  0.05590373  0.35000000  1
  O  O28  1  0.74280449  0.46048734  0.20839508  1
  O  O29  1  0.25902670  0.56703110  0.38531172  1
  O  O30  1  0.56710430  0.93778949  0.25182179  1
  O  O31  1  0.03951266  0.75719551  0.49160492  1
  O  O32  1  0.93296890  0.24097330  0.31468828  1
  O  O33  1  0.43427568  0.05437405  0.55184302  1
  O  O34  1  0.75834228  0.45107870  0.40955804  1
  O  O35  1  0.24549797  0.55641457  0.58848282  1
  O  O36  1  0.56221051  0.93289570  0.44817821  1
  O  O37  1  0.06292168  0.75431894  0.68846222  1
  O  O38  1  0.93707832  0.24568106  0.51153778  1
  O  O39  1  0.43778949  0.06710430  0.75182179  1
  O  O40  1  0.75450203  0.44358543  0.61151718  1
  O  O41  1  0.24165772  0.54892130  0.79044196  1
  O  O42  1  0.56572432  0.94562595  0.64815698  1
  O  O43  1  0.06703110  0.75902670  0.88531172  1
  O  O44  1  0.96048734  0.24280449  0.70839508  1
  O  O45  1  0.43289570  0.06221051  0.94817821  1
  O  O46  1  0.74097330  0.43296890  0.81468828  1
  O  O47  1  0.25719551  0.53951266  0.99160492  1
  O  O48  1  0.55590373  0.94409627  0.85000000  1
  O  O49  1  0.95107870  0.25834228  0.90955804  1
