# generated using pymatgen
data_CuH6Se2NClO6
_symmetry_space_group_name_H-M   'P 1'
_cell_length_a   9.06481915
_cell_length_b   12.27747844
_cell_length_c   7.42493707
_cell_angle_alpha   90.00000000
_cell_angle_beta   90.00000000
_cell_angle_gamma   90.00000000
_symmetry_Int_Tables_number   1
_chemical_formula_structural   CuH6Se2NClO6
_chemical_formula_sum   'Cu4 H24 Se8 N4 Cl4 O24'
_cell_volume   826.34442477
_cell_formula_units_Z   4
loop_
 _symmetry_equiv_pos_site_id
 _symmetry_equiv_pos_as_xyz
  1  'x, y, z'
loop_
 _atom_site_type_symbol
 _atom_site_label
 _atom_site_symmetry_multiplicity
 _atom_site_fract_x
 _atom_site_fract_y
 _atom_site_fract_z
 _atom_site_occupancy
  Cu  Cu0  1  0.50000000  0.00000000  0.50000000  1
  Cu  Cu1  1  0.00000000  0.50000000  0.00000000  1
  Cu  Cu2  1  0.50000000  0.50000000  0.50000000  1
  Cu  Cu3  1  0.00000000  0.00000000  0.00000000  1
  H  H4  1  0.94640420  0.07459176  0.38932574  1
  H  H5  1  0.44640420  0.42540824  0.11067426  1
  H  H6  1  0.05359580  0.57459176  0.61067426  1
  H  H7  1  0.55359580  0.92540824  0.88932574  1
  H  H8  1  0.05359580  0.92540824  0.61067426  1
  H  H9  1  0.55359580  0.57459176  0.88932574  1
  H  H10  1  0.94640420  0.42540824  0.38932574  1
  H  H11  1  0.44640420  0.07459176  0.11067426  1
  H  H12  1  0.71869703  0.25000000  0.31247284  1
  H  H13  1  0.21869703  0.25000000  0.18752716  1
  H  H14  1  0.28130297  0.75000000  0.68752716  1
  H  H15  1  0.78130297  0.75000000  0.81247284  1
  H  H16  1  0.57217148  0.25000000  0.17846391  1
  H  H17  1  0.07217148  0.25000000  0.32153609  1
  H  H18  1  0.42782852  0.75000000  0.82153609  1
  H  H19  1  0.92782852  0.75000000  0.67846391  1
  H  H20  1  0.72691752  0.31923450  0.12001058  1
  H  H21  1  0.22691752  0.18076550  0.37998942  1
  H  H22  1  0.27308248  0.81923450  0.87998942  1
  H  H23  1  0.77308248  0.68076550  0.62001058  1
  H  H24  1  0.27308248  0.68076550  0.87998942  1
  H  H25  1  0.77308248  0.81923450  0.62001058  1
  H  H26  1  0.72691752  0.18076550  0.12001058  1
  H  H27  1  0.22691752  0.31923450  0.37998942  1
  Se  Se28  1  0.80842470  0.07633033  0.65741418  1
  Se  Se29  1  0.30842470  0.42366967  0.84258582  1
  Se  Se30  1  0.19157530  0.57633033  0.34258582  1
  Se  Se31  1  0.69157530  0.92366967  0.15741418  1
  Se  Se32  1  0.19157530  0.92366967  0.34258582  1
  Se  Se33  1  0.69157530  0.57633033  0.15741418  1
  Se  Se34  1  0.80842470  0.42366967  0.65741418  1
  Se  Se35  1  0.30842470  0.07633033  0.84258582  1
  N  N36  1  0.68591569  0.25000000  0.18014865  1
  N  N37  1  0.18591569  0.25000000  0.31985135  1
  N  N38  1  0.31408431  0.75000000  0.81985135  1
  N  N39  1  0.81408431  0.75000000  0.68014865  1
  Cl  Cl40  1  0.52040778  0.25000000  0.54935185  1
  Cl  Cl41  1  0.02040778  0.25000000  0.95064815  1
  Cl  Cl42  1  0.47959222  0.75000000  0.45064815  1
  Cl  Cl43  1  0.97959222  0.75000000  0.04935185  1
  O  O44  1  0.70931799  0.97140462  0.55922215  1
  O  O45  1  0.20931799  0.52859538  0.94077785  1
  O  O46  1  0.29068201  0.47140462  0.44077785  1
  O  O47  1  0.79068201  0.02859538  0.05922215  1
  O  O48  1  0.29068201  0.02859538  0.44077785  1
  O  O49  1  0.79068201  0.47140462  0.05922215  1
  O  O50  1  0.70931799  0.52859538  0.55922215  1
  O  O51  1  0.20931799  0.97140462  0.94077785  1
  O  O52  1  0.95656871  0.00069273  0.73786045  1
  O  O53  1  0.45656871  0.49930727  0.76213955  1
  O  O54  1  0.04343129  0.50069273  0.26213955  1
  O  O55  1  0.54343129  0.99930727  0.23786045  1
  O  O56  1  0.04343129  0.99930727  0.26213955  1
  O  O57  1  0.54343129  0.50069273  0.23786045  1
  O  O58  1  0.95656871  0.49930727  0.73786045  1
  O  O59  1  0.45656871  0.00069273  0.76213955  1
  O  O60  1  0.89301549  0.13361514  0.46193498  1
  O  O61  1  0.39301549  0.36638486  0.03806502  1
  O  O62  1  0.10698451  0.63361514  0.53806502  1
  O  O63  1  0.60698451  0.86638486  0.96193498  1
  O  O64  1  0.10698451  0.86638486  0.53806502  1
  O  O65  1  0.60698451  0.63361514  0.96193498  1
  O  O66  1  0.89301549  0.36638486  0.46193498  1
  O  O67  1  0.39301549  0.13361514  0.03806502  1
