# generated using pymatgen
data_VO2
_symmetry_space_group_name_H-M   'P 1'
_cell_length_a   7.74858307
_cell_length_b   8.65068309
_cell_length_c   8.57163370
_cell_angle_alpha   90.00000000
_cell_angle_beta   90.00000000
_cell_angle_gamma   90.00663129
_symmetry_Int_Tables_number   1
_chemical_formula_structural   VO2
_chemical_formula_sum   'V16 O32'
_cell_volume   574.56120256
_cell_formula_units_Z   16
loop_
 _symmetry_equiv_pos_site_id
 _symmetry_equiv_pos_as_xyz
  1  'x, y, z'
loop_
 _atom_site_type_symbol
 _atom_site_label
 _atom_site_symmetry_multiplicity
 _atom_site_fract_x
 _atom_site_fract_y
 _atom_site_fract_z
 _atom_site_occupancy
  V  V0  1  0.87505773  0.95002807  0.23742914  1
  V  V1  1  0.62662740  0.75680313  0.45124724  1
  V  V2  1  0.12662740  0.75680313  0.04875276  1
  V  V3  1  0.12497655  0.05696746  0.75044802  1
  V  V4  1  0.62335601  0.75760572  0.04862528  1
  V  V5  1  0.37505773  0.95002807  0.26257086  1
  V  V6  1  0.62497655  0.05696746  0.74955198  1
  V  V7  1  0.12335601  0.75760572  0.45137472  1
  V  V8  1  0.87503105  0.25928195  0.94917002  1
  V  V9  1  0.37489665  0.24691531  0.96306565  1
  V  V10  1  0.87498009  0.55713014  0.24729565  1
  V  V11  1  0.62500539  0.45938254  0.75030942  1
  V  V12  1  0.37503105  0.25928195  0.55082998  1
  V  V13  1  0.12500539  0.45938254  0.74969058  1
  V  V14  1  0.87489665  0.24691531  0.53693435  1
  V  V15  1  0.37498009  0.55713014  0.25270435  1
  O  O16  1  0.12496676  0.59974815  0.24967330  1
  O  O17  1  0.11888101  0.25225988  0.59867974  1
  O  O18  1  0.87498613  0.40377649  0.75379147  1
  O  O19  1  0.63111519  0.25203905  0.59814853  1
  O  O20  1  0.37498613  0.40377649  0.74620853  1
  O  O21  1  0.12502910  0.89808539  0.24995261  1
  O  O22  1  0.37497239  0.10618160  0.74436083  1
  O  O23  1  0.87500369  0.75261274  0.09774909  1
  O  O24  1  0.61888101  0.25225988  0.90132026  1
  O  O25  1  0.37500369  0.75261274  0.40225091  1
  O  O26  1  0.87497873  0.74900195  0.39895884  1
  O  O27  1  0.62496676  0.59974815  0.25032670  1
  O  O28  1  0.62502910  0.89808539  0.25004739  1
  O  O29  1  0.13111519  0.25203905  0.90185147  1
  O  O30  1  0.37497873  0.74900195  0.10104116  1
  O  O31  1  0.87497239  0.10618160  0.75563917  1
  O  O32  1  0.87487191  0.40169189  0.08964007  1
  O  O33  1  0.37508980  0.08638218  0.40547642  1
  O  O34  1  0.87517456  0.08961545  0.41555506  1
  O  O35  1  0.62567331  0.58206793  0.59434254  1
  O  O36  1  0.37487191  0.40169189  0.41035993  1
  O  O37  1  0.12391726  0.90016878  0.58886171  1
  O  O38  1  0.62391726  0.90016878  0.91113829  1
  O  O39  1  0.12604613  0.89975050  0.91138447  1
  O  O40  1  0.37517456  0.08961545  0.08444494  1
  O  O41  1  0.62433455  0.58244064  0.90592444  1
  O  O42  1  0.87502859  0.40006307  0.41583329  1
  O  O43  1  0.12567331  0.58206793  0.90565746  1
  O  O44  1  0.12433455  0.58244064  0.59407556  1
  O  O45  1  0.62604613  0.89975050  0.58861553  1
  O  O46  1  0.87508980  0.08638218  0.09452358  1
  O  O47  1  0.37502859  0.40006307  0.08416671  1
