# generated using pymatgen
data_KPH2O3
_symmetry_space_group_name_H-M   'P 1'
_cell_length_a   8.00943957
_cell_length_b   8.64916564
_cell_length_c   12.95092208
_cell_angle_alpha   90.00000000
_cell_angle_beta   98.20264602
_cell_angle_gamma   90.00000000
_symmetry_Int_Tables_number   1
_chemical_formula_structural   KPH2O3
_chemical_formula_sum   'K8 P8 H16 O24'
_cell_volume   887.99631470
_cell_formula_units_Z   8
loop_
 _symmetry_equiv_pos_site_id
 _symmetry_equiv_pos_as_xyz
  1  'x, y, z'
loop_
 _atom_site_type_symbol
 _atom_site_label
 _atom_site_symmetry_multiplicity
 _atom_site_fract_x
 _atom_site_fract_y
 _atom_site_fract_z
 _atom_site_occupancy
  K  K0  1  0.99051916  0.57705718  0.74702341  1
  K  K1  1  0.00948084  0.07705718  0.75297659  1
  K  K2  1  0.00948084  0.42294282  0.25297659  1
  K  K3  1  0.99051916  0.92294282  0.24702341  1
  K  K4  1  0.48487602  0.26634808  0.99124544  1
  K  K5  1  0.51512398  0.76634808  0.50875456  1
  K  K6  1  0.51512398  0.73365192  0.00875456  1
  K  K7  1  0.48487602  0.23365192  0.49124544  1
  P  P8  1  0.55393127  0.49376188  0.76440258  1
  P  P9  1  0.44606873  0.99376188  0.73559742  1
  P  P10  1  0.44606873  0.50623812  0.23559742  1
  P  P11  1  0.55393127  0.00623812  0.26440258  1
  P  P12  1  0.94169846  0.37357678  0.97436693  1
  P  P13  1  0.05830154  0.87357678  0.52563307  1
  P  P14  1  0.05830154  0.62642322  0.02563307  1
  P  P15  1  0.94169846  0.12642322  0.47436693  1
  H  H16  1  0.60717601  0.69800183  0.28461739  1
  H  H17  1  0.39282399  0.19800183  0.21538261  1
  H  H18  1  0.39282399  0.30199817  0.71538261  1
  H  H19  1  0.60717601  0.80199817  0.78461739  1
  H  H20  1  0.16545658  0.41662569  0.49833124  1
  H  H21  1  0.83454342  0.91662569  0.00166876  1
  H  H22  1  0.83454342  0.58337431  0.50166876  1
  H  H23  1  0.16545658  0.08337431  0.99833124  1
  H  H24  1  0.68778470  0.38524181  0.78146106  1
  H  H25  1  0.31221530  0.88524181  0.71853894  1
  H  H26  1  0.31221530  0.61475819  0.21853894  1
  H  H27  1  0.68778470  0.11475819  0.28146106  1
  H  H28  1  0.82518596  0.49751618  0.50781885  1
  H  H29  1  0.17481404  0.99751618  0.99218115  1
  H  H30  1  0.17481404  0.50248382  0.49218115  1
  H  H31  1  0.82518596  0.00248382  0.00781885  1
  O  O32  1  0.61758254  0.63556248  0.71161151  1
  O  O33  1  0.38241746  0.13556248  0.78838849  1
  O  O34  1  0.38241746  0.36443752  0.28838849  1
  O  O35  1  0.61758254  0.86443752  0.21161151  1
  O  O36  1  0.48155920  0.51566558  0.86448547  1
  O  O37  1  0.51844080  0.01566558  0.63551453  1
  O  O38  1  0.51844080  0.48433442  0.13551453  1
  O  O39  1  0.48155920  0.98433442  0.36448547  1
  O  O40  1  0.42079211  0.40159962  0.68017269  1
  O  O41  1  0.57920789  0.90159962  0.81982731  1
  O  O42  1  0.57920789  0.59840038  0.31982731  1
  O  O43  1  0.42079211  0.09840038  0.18017269  1
  O  O44  1  0.84351544  0.28452786  0.04405820  1
  O  O45  1  0.15648456  0.78452786  0.45594180  1
  O  O46  1  0.15648456  0.71547214  0.95594180  1
  O  O47  1  0.84351544  0.21547214  0.54405820  1
  O  O48  1  0.97289396  0.31076821  0.87079470  1
  O  O49  1  0.02710604  0.81076821  0.62920530  1
  O  O50  1  0.02710604  0.68923179  0.12920530  1
  O  O51  1  0.97289396  0.18923179  0.37079470  1
  O  O52  1  0.12005387  0.44152737  0.04133287  1
  O  O53  1  0.87994613  0.94152737  0.45866713  1
  O  O54  1  0.87994613  0.55847263  0.95866713  1
  O  O55  1  0.12005387  0.05847263  0.54133287  1
