# generated using pymatgen
data_Fe2O3
_symmetry_space_group_name_H-M   'P 1'
_cell_length_a   5.14466553
_cell_length_b   5.28838446
_cell_length_c   7.51141766
_cell_angle_alpha   89.69687560
_cell_angle_beta   90.16386562
_cell_angle_gamma   90.12385136
_symmetry_Int_Tables_number   1
_chemical_formula_structural   Fe2O3
_chemical_formula_sum   'Fe8 O12'
_cell_volume   204.35874281
_cell_formula_units_Z   4
loop_
 _symmetry_equiv_pos_site_id
 _symmetry_equiv_pos_as_xyz
  1  'x, y, z'
loop_
 _atom_site_type_symbol
 _atom_site_label
 _atom_site_symmetry_multiplicity
 _atom_site_fract_x
 _atom_site_fract_y
 _atom_site_fract_z
 _atom_site_occupancy
  Fe  Fe0  1  0.25009594  0.97097865  0.88807872  1
  Fe  Fe1  1  0.25115445  0.53076193  0.11457104  1
  Fe  Fe2  1  0.75450226  0.03074347  0.11357117  1
  Fe  Fe3  1  0.25533234  0.02938682  0.38812803  1
  Fe  Fe4  1  0.75122043  0.53037757  0.38896984  1
  Fe  Fe5  1  0.74927250  0.96772558  0.61614991  1
  Fe  Fe6  1  0.75347076  0.47168346  0.89092200  1
  Fe  Fe7  1  0.25450443  0.46741093  0.61497247  1
  O  O8  1  0.44949309  0.74707664  0.49800325  1
  O  O9  1  0.54497551  0.24556970  0.49681510  1
  O  O10  1  0.04660291  0.25476242  0.99696508  1
  O  O11  1  0.94773324  0.75429223  0.99693147  1
  O  O12  1  0.89131780  0.89567425  0.34724956  1
  O  O13  1  0.10647239  0.39754984  0.34468542  1
  O  O14  1  0.39022691  0.90066547  0.15108552  1
  O  O15  1  0.60852773  0.39989384  0.15425305  1
  O  O16  1  0.10798499  0.09571820  0.65361474  1
  O  O17  1  0.60527231  0.10738865  0.84444916  1
  O  O18  1  0.89029765  0.59485666  0.65293209  1
  O  O19  1  0.39154237  0.60748371  0.84765239  1
