# generated using pymatgen
data_PH5NO4
_symmetry_space_group_name_H-M   'P 1'
_cell_length_a   4.50824764
_cell_length_b   8.07528899
_cell_length_c   10.78601194
_cell_angle_alpha   90.00000000
_cell_angle_beta   99.40575139
_cell_angle_gamma   90.00000000
_symmetry_Int_Tables_number   1
_chemical_formula_structural   PH5NO4
_chemical_formula_sum   'P4 H20 N4 O16'
_cell_volume   387.38996946
_cell_formula_units_Z   4
loop_
 _symmetry_equiv_pos_site_id
 _symmetry_equiv_pos_as_xyz
  1  'x, y, z'
loop_
 _atom_site_type_symbol
 _atom_site_label
 _atom_site_symmetry_multiplicity
 _atom_site_fract_x
 _atom_site_fract_y
 _atom_site_fract_z
 _atom_site_occupancy
  P  P0  1  0.00244875  0.33420418  0.67379533  1
  P  P1  1  0.99755125  0.83420418  0.82620467  1
  P  P2  1  0.99755125  0.66579582  0.32620467  1
  P  P3  1  0.00244875  0.16579582  0.17379533  1
  H  H4  1  0.16151841  0.64977931  0.70355453  1
  H  H5  1  0.83848159  0.14977931  0.79644547  1
  H  H6  1  0.83848159  0.35022069  0.29644547  1
  H  H7  1  0.16151841  0.85022069  0.20355453  1
  H  H8  1  0.45369429  0.94420143  0.85688532  1
  H  H9  1  0.54630571  0.44420143  0.64311468  1
  H  H10  1  0.54630571  0.05579857  0.14311468  1
  H  H11  1  0.45369429  0.55579857  0.35688532  1
  H  H12  1  0.40983156  0.43015545  0.87341647  1
  H  H13  1  0.59016844  0.93015545  0.62658353  1
  H  H14  1  0.59016844  0.56984455  0.12658353  1
  H  H15  1  0.40983156  0.06984455  0.37341647  1
  H  H16  1  0.34704747  0.34510305  0.01674758  1
  H  H17  1  0.65295253  0.84510305  0.48325242  1
  H  H18  1  0.65295253  0.65489695  0.98325242  1
  H  H19  1  0.34704747  0.15489695  0.51674758  1
  H  H20  1  0.71601726  0.37165641  0.98626347  1
  H  H21  1  0.28398274  0.87165641  0.51373653  1
  H  H22  1  0.28398274  0.62834359  0.01373653  1
  H  H23  1  0.71601726  0.12834359  0.48626347  1
  N  N24  1  0.49570167  0.41888774  0.97100666  1
  N  N25  1  0.50429833  0.91888774  0.52899334  1
  N  N26  1  0.50429833  0.58111226  0.02899334  1
  N  N27  1  0.49570167  0.08111226  0.47100666  1
  O  O28  1  0.07611684  0.19005948  0.59437954  1
  O  O29  1  0.92388316  0.69005948  0.90562046  1
  O  O30  1  0.92388316  0.80994052  0.40562046  1
  O  O31  1  0.07611684  0.30994052  0.09437954  1
  O  O32  1  0.10107592  0.77098609  0.70020718  1
  O  O33  1  0.89892408  0.27098609  0.79979282  1
  O  O34  1  0.89892408  0.22901391  0.29979282  1
  O  O35  1  0.10107592  0.72901391  0.20020718  1
  O  O36  1  0.27212752  0.93358654  0.90101079  1
  O  O37  1  0.72787248  0.43358654  0.59898921  1
  O  O38  1  0.72787248  0.06641346  0.09898921  1
  O  O39  1  0.27212752  0.56641346  0.40101079  1
  O  O40  1  0.26409313  0.45645051  0.71530057  1
  O  O41  1  0.73590687  0.95645051  0.78469943  1
  O  O42  1  0.73590687  0.54354949  0.28469943  1
  O  O43  1  0.26409313  0.04354949  0.21530057  1
