# generated using pymatgen
data_Al2P3H17C4(NO6)2
_symmetry_space_group_name_H-M   'P 1'
_cell_length_a   9.70055281
_cell_length_b   9.70055281
_cell_length_c   35.94680854
_cell_angle_alpha   82.05844471
_cell_angle_beta   97.94155529
_cell_angle_gamma   149.65599068
_symmetry_Int_Tables_number   1
_chemical_formula_structural   Al2P3H17C4(NO6)2
_chemical_formula_sum   'Al8 P12 H68 C16 N8 O48'
_cell_volume   1691.26812820
_cell_formula_units_Z   4
loop_
 _symmetry_equiv_pos_site_id
 _symmetry_equiv_pos_as_xyz
  1  'x, y, z'
loop_
 _atom_site_type_symbol
 _atom_site_label
 _atom_site_symmetry_multiplicity
 _atom_site_fract_x
 _atom_site_fract_y
 _atom_site_fract_z
 _atom_site_occupancy
  Al  Al0  1  0.49076407  0.06920269  0.87623317  1
  Al  Al1  1  0.06920269  0.49076407  0.62376683  1
  Al  Al2  1  0.50923593  0.93079731  0.12376683  1
  Al  Al3  1  0.93079731  0.50923593  0.37623317  1
  Al  Al4  1  0.11949631  0.31885468  0.89566770  1
  Al  Al5  1  0.31885468  0.11949631  0.60433230  1
  Al  Al6  1  0.88050369  0.68114532  0.10433230  1
  Al  Al7  1  0.68114532  0.88050369  0.39566770  1
  P  P8  1  0.24304378  0.15442348  0.86225881  1
  P  P9  1  0.15442348  0.24304378  0.63774119  1
  P  P10  1  0.75695622  0.84557652  0.13774119  1
  P  P11  1  0.84557652  0.75695622  0.36225881  1
  P  P12  1  0.56267050  0.86671571  0.93600543  1
  P  P13  1  0.86671571  0.56267050  0.56399457  1
  P  P14  1  0.43732950  0.13328429  0.06399457  1
  P  P15  1  0.13328429  0.43732950  0.43600543  1
  P  P16  1  0.04545651  0.52072152  0.83698155  1
  P  P17  1  0.52072152  0.04545651  0.66301845  1
  P  P18  1  0.95454349  0.47927848  0.16301845  1
  P  P19  1  0.47927848  0.95454349  0.33698155  1
  H  H20  1  0.66132506  0.03486303  0.73721044  1
  H  H21  1  0.03486303  0.66132506  0.76278956  1
  H  H22  1  0.33867494  0.96513697  0.26278956  1
  H  H23  1  0.96513697  0.33867494  0.23721044  1
  H  H24  1  0.87937583  0.24971741  0.77287000  1
  H  H25  1  0.24971741  0.87937583  0.72713000  1
  H  H26  1  0.12062417  0.75028259  0.22713000  1
  H  H27  1  0.75028259  0.12062417  0.27287000  1
  H  H28  1  0.31352490  0.56952530  0.99964258  1
  H  H29  1  0.56952530  0.31352490  0.50035742  1
  H  H30  1  0.68647510  0.43047470  0.00035742  1
  H  H31  1  0.43047470  0.68647510  0.49964258  1
  H  H32  1  0.97044216  0.23764582  0.99751145  1
  H  H33  1  0.23764582  0.97044216  0.50248855  1
  H  H34  1  0.02955784  0.76235418  0.00248855  1
  H  H35  1  0.76235418  0.02955784  0.49751145  1
  H  H36  1  0.64151673  0.56787350  0.83933243  1
  H  H37  1  0.56787350  0.64151673  0.66066757  1
  H  H38  1  0.35848327  0.43212650  0.16066757  1
  H  H39  1  0.43212650  0.35848327  0.33933243  1
  H  H40  1  0.11560094  0.39582879  0.71935309  1
  H  H41  1  0.39582879  0.11560094  0.78064691  1
  H  H42  1  0.88439906  0.60417121  0.28064691  1
  H  H43  1  0.60417121  0.88439906  0.21935309  1
  H  H44  1  0.17162161  0.31281305  0.75926706  1
  H  H45  1  0.31281305  0.17162161  0.74073294  1
  H  H46  1  0.82837839  0.68718695  0.24073294  1
  H  H47  1  0.68718695  0.82837839  0.25926706  1
  H  H48  1  0.93560235  0.08013445  0.72176275  1
  H  H49  1  0.08013445  0.93560235  0.77823725  1
  H  H50  1  0.06439765  0.91986555  0.27823725  1
  H  H51  1  0.91986555  0.06439765  0.22176275  1
  H  H52  1  0.49201532  0.79082364  0.79693170  1
  H  H53  1  0.79082364  0.49201532  0.70306830  1
  H  H54  1  0.50798468  0.20917636  0.20306830  1
  H  H55  1  0.20917636  0.50798468  0.29693170  1
  H  H56  1  0.55960190  0.71494911  0.76900309  1
  H  H57  1  0.71494911  0.55960190  0.73099691  1
  H  H58  1  0.44039810  0.28505089  0.23099691  1
  H  H59  1  0.28505089  0.44039810  0.26900309  1
  H  H60  1  0.79316453  0.94500184  0.80642406  1
  H  H61  1  0.94500184  0.79316453  0.69357594  1
  H  H62  1  0.20683547  0.05499816  0.19357594  1
  H  H63  1  0.05499816  0.20683547  0.30642406  1
  H  H64  1  0.06361095  0.52242979  0.02723884  1
  H  H65  1  0.52242979  0.06361095  0.47276116  1
  H  H66  1  0.93638905  0.47757021  0.97276116  1
  H  H67  1  0.47757021  0.93638905  0.52723884  1
  H  H68  1  0.91974002  0.26183548  0.05903939  1
  H  H69  1  0.26183548  0.91974002  0.44096061  1
  H  H70  1  0.08025998  0.73816452  0.94096061  1
  H  H71  1  0.73816452  0.08025998  0.55903939  1
  H  H72  1  0.27945165  0.60651255  0.06136030  1
  H  H73  1  0.60651255  0.27945165  0.43863970  1
  H  H74  1  0.72054835  0.39348745  0.93863970  1
  H  H75  1  0.39348745  0.72054835  0.56136030  1
  H  H76  1  0.22996641  0.25194195  0.01258520  1
  H  H77  1  0.25194195  0.22996641  0.48741480  1
  H  H78  1  0.77003359  0.74805805  0.98741480  1
  H  H79  1  0.74805805  0.77003359  0.51258520  1
  H  H80  1  0.37947455  0.44650127  0.05298688  1
  H  H81  1  0.44650127  0.37947455  0.44701312  1
  H  H82  1  0.62052545  0.55349873  0.94701312  1
  H  H83  1  0.55349873  0.62052545  0.55298688  1
  H  H84  1  0.02213325  0.10329920  0.05060364  1
  H  H85  1  0.10329920  0.02213325  0.44939636  1
  H  H86  1  0.97786675  0.89670080  0.94939636  1
  H  H87  1  0.89670080  0.97786675  0.55060364  1
  C  C88  1  0.02072337  0.23135591  0.73831497  1
  C  C89  1  0.23135591  0.02072337  0.76168503  1
  C  C90  1  0.97927663  0.76864409  0.26168503  1
  C  C91  1  0.76864409  0.97927663  0.23831497  1
  C  C92  1  0.65173701  0.87358775  0.78437871  1
  C  C93  1  0.87358775  0.65173701  0.71562129  1
  C  C94  1  0.34826299  0.12641225  0.21562129  1
  C  C95  1  0.12641225  0.34826299  0.28437871  1
  C  C96  1  0.09819643  0.44840046  0.04278934  1
  C  C97  1  0.44840046  0.09819643  0.45721066  1
  C  C98  1  0.90180357  0.55159954  0.95721066  1
  C  C99  1  0.55159954  0.90180357  0.54278934  1
  C  C100  1  0.19818797  0.29151648  0.03418517  1
  C  C101  1  0.29151648  0.19818797  0.46581483  1
  C  C102  1  0.80181203  0.70848352  0.96581483  1
  C  C103  1  0.70848352  0.80181203  0.53418517  1
  N  N104  1  0.79974986  0.10279944  0.75781456  1
  N  N105  1  0.10279944  0.79974986  0.74218544  1
  N  N106  1  0.20025014  0.89720056  0.24218544  1
  N  N107  1  0.89720056  0.20025014  0.25781456  1
  N  N108  1  0.14514815  0.39019841  0.01550767  1
  N  N109  1  0.39019841  0.14514815  0.48449233  1
  N  N110  1  0.85485185  0.60980159  0.98449233  1
  N  N111  1  0.60980159  0.85485185  0.51550767  1
  O  O112  1  0.96541365  0.90166524  0.84445216  1
  O  O113  1  0.90166524  0.96541365  0.65554784  1
  O  O114  1  0.03458635  0.09833476  0.15554784  1
  O  O115  1  0.09833476  0.03458635  0.34445216  1
  O  O116  1  0.63988711  0.92107178  0.97772373  1
  O  O117  1  0.92107178  0.63988711  0.52227627  1
  O  O118  1  0.36011289  0.07892822  0.02227627  1
  O  O119  1  0.07892822  0.36011289  0.47772373  1
  O  O120  1  0.30517595  0.55305080  0.93093408  1
  O  O121  1  0.55305080  0.30517595  0.56906592  1
  O  O122  1  0.69482405  0.44694920  0.06906592  1
  O  O123  1  0.44694920  0.69482405  0.43093408  1
  O  O124  1  0.82782027  0.38499265  0.86235153  1
  O  O125  1  0.38499265  0.82782027  0.63764847  1
  O  O126  1  0.17217973  0.61500735  0.13764847  1
  O  O127  1  0.61500735  0.17217973  0.36235153  1
  O  O128  1  0.95481138  0.45485148  0.79590199  1
  O  O129  1  0.45485148  0.95481138  0.70409801  1
  O  O130  1  0.04518862  0.54514852  0.20409801  1
  O  O131  1  0.54514852  0.04518862  0.29590199  1
  O  O132  1  0.11567535  0.42628536  0.85254812  1
  O  O133  1  0.42628536  0.11567535  0.64745188  1
  O  O134  1  0.88432465  0.57371464  0.14745188  1
  O  O135  1  0.57371464  0.88432465  0.35254812  1
  O  O136  1  0.78841525  0.00817464  0.91226782  1
  O  O137  1  0.00817464  0.78841525  0.58773218  1
  O  O138  1  0.21158475  0.99182536  0.08773218  1
  O  O139  1  0.99182536  0.21158475  0.41226782  1
  O  O140  1  0.35905408  0.11604113  0.88496960  1
  O  O141  1  0.11604113  0.35905408  0.61503040  1
  O  O142  1  0.64094592  0.88395887  0.11503040  1
  O  O143  1  0.88395887  0.64094592  0.38496960  1
  O  O144  1  0.49027116  0.95761115  0.91945627  1
  O  O145  1  0.95761115  0.49027116  0.58054373  1
  O  O146  1  0.50972884  0.04238885  0.08054373  1
  O  O147  1  0.04238885  0.50972884  0.41945627  1
  O  O148  1  0.30580296  0.83454253  0.84151734  1
  O  O149  1  0.83454253  0.30580296  0.65848266  1
  O  O150  1  0.69419704  0.16545747  0.15848266  1
  O  O151  1  0.16545747  0.69419704  0.34151734  1
  O  O152  1  0.26023024  0.27753749  0.89081598  1
  O  O153  1  0.27753749  0.26023024  0.60918402  1
  O  O154  1  0.73976976  0.72246251  0.10918402  1
  O  O155  1  0.72246251  0.73976976  0.39081598  1
  O  O156  1  0.45149443  0.38322830  0.83020159  1
  O  O157  1  0.38322830  0.45149443  0.66979841  1
  O  O158  1  0.54850557  0.61677170  0.16979841  1
  O  O159  1  0.61677170  0.54850557  0.33020159  1
