# generated using pymatgen
data_H9PtN2ClO2
_symmetry_space_group_name_H-M   'P 1'
_cell_length_a   8.02793942
_cell_length_b   4.39303277
_cell_length_c   17.85596842
_cell_angle_alpha   89.99995709
_cell_angle_beta   92.15231533
_cell_angle_gamma   89.99992505
_symmetry_Int_Tables_number   1
_chemical_formula_structural   H9PtN2ClO2
_chemical_formula_sum   'H36 Pt4 N8 Cl4 O8'
_cell_volume   629.28219541
_cell_formula_units_Z   4
loop_
 _symmetry_equiv_pos_site_id
 _symmetry_equiv_pos_as_xyz
  1  'x, y, z'
loop_
 _atom_site_type_symbol
 _atom_site_label
 _atom_site_symmetry_multiplicity
 _atom_site_fract_x
 _atom_site_fract_y
 _atom_site_fract_z
 _atom_site_occupancy
  H  H0  1  0.72095276  0.23266388  0.74037484  1
  H  H1  1  0.22095318  0.26733868  0.24037487  1
  H  H2  1  0.27904633  0.76733551  0.25962499  1
  H  H3  1  0.77904703  0.73266218  0.75962529  1
  H  H4  1  0.03878542  0.72568603  0.75664585  1
  H  H5  1  0.53878519  0.77431332  0.25664629  1
  H  H6  1  0.96121529  0.27431383  0.24335389  1
  H  H7  1  0.46121394  0.22568722  0.74335431  1
  H  H8  1  0.23009572  0.66141059  0.74412292  1
  H  H9  1  0.73009541  0.83858724  0.24412298  1
  H  H10  1  0.76990491  0.33858841  0.25587715  1
  H  H11  1  0.26990403  0.16141098  0.75587741  1
  H  H12  1  0.49313866  0.51121106  0.57539135  1
  H  H13  1  0.99313809  0.98878875  0.07539142  1
  H  H14  1  0.50686143  0.48878952  0.42460870  1
  H  H15  1  0.00686186  0.01121094  0.92460855  1
  H  H16  1  0.46180119  0.59928153  0.66295288  1
  H  H17  1  0.96180077  0.90071946  0.16295308  1
  H  H18  1  0.53819904  0.40071925  0.33704701  1
  H  H19  1  0.03819912  0.09928097  0.83704697  1
  H  H20  1  0.38448045  0.82013870  0.59385869  1
  H  H21  1  0.88447991  0.67986098  0.09385834  1
  H  H22  1  0.61551964  0.17986131  0.40614159  1
  H  H23  1  0.11551966  0.32013727  0.90614127  1
  H  H24  1  0.88242314  0.43951102  0.63093435  1
  H  H25  1  0.38242312  0.06048968  0.13093447  1
  H  H26  1  0.11757757  0.56048950  0.36906556  1
  H  H27  1  0.61757603  0.93951252  0.86906606  1
  H  H28  1  0.99381624  0.14311962  0.66380426  1
  H  H29  1  0.49381632  0.35688123  0.16380448  1
  H  H30  1  0.00618420  0.85688103  0.33619544  1
  H  H31  1  0.50618359  0.64311968  0.83619575  1
  H  H32  1  0.97387153  0.20292794  0.57218354  1
  H  H33  1  0.47387129  0.29707310  0.07218348  1
  H  H34  1  0.02612902  0.79707288  0.42781642  1
  H  H35  1  0.52612820  0.70292683  0.92781661  1
  Pt  Pt36  1  0.69916884  0.95300801  0.61583997  1
  Pt  Pt37  1  0.19916965  0.54699275  0.11583980  1
  Pt  Pt38  1  0.30083156  0.04699170  0.38415960  1
  Pt  Pt39  1  0.80083129  0.45300808  0.88415976  1
  N  N40  1  0.48564115  0.69209178  0.61169653  1
  N  N41  1  0.98564109  0.80790846  0.11169657  1
  N  N42  1  0.51435910  0.30790856  0.38830356  1
  N  N43  1  0.01435798  0.19209073  0.88830350  1
  N  N44  1  0.91225719  0.21504735  0.62170516  1
  N  N45  1  0.41225644  0.28495320  0.12170528  1
  N  N46  1  0.08774366  0.78495307  0.37829453  1
  N  N47  1  0.58774364  0.71504769  0.87829481  1
  Cl  Cl48  1  0.75765799  0.80503989  0.49465440  1
  Cl  Cl49  1  0.25765964  0.69496543  0.99465381  1
  Cl  Cl50  1  0.24233890  0.19496640  0.50534543  1
  Cl  Cl51  1  0.74234497  0.30503352  0.00534680  1
  O  O52  1  0.64293180  0.07009186  0.72299928  1
  O  O53  1  0.14293340  0.42990480  0.22299936  1
  O  O54  1  0.35706723  0.92990274  0.27700079  1
  O  O55  1  0.85706480  0.57009179  0.77700008  1
  O  O56  1  0.14649412  0.82910158  0.74410016  1
  O  O57  1  0.64649437  0.67090092  0.24410088  1
  O  O58  1  0.85350581  0.17089723  0.25589911  1
  O  O59  1  0.35350610  0.32909981  0.75589977  1
