# generated using pymatgen
data_ZnP2H11C2NO8
_symmetry_space_group_name_H-M   'P 1'
_cell_length_a   8.51163974
_cell_length_b   8.51163974
_cell_length_c   14.67617845
_cell_angle_alpha   83.05294949
_cell_angle_beta   96.94705051
_cell_angle_gamma   97.08380842
_symmetry_Int_Tables_number   1
_chemical_formula_structural   ZnP2H11C2NO8
_chemical_formula_sum   'Zn4 P8 H44 C8 N4 O32'
_cell_volume   1041.31172592
_cell_formula_units_Z   4
loop_
 _symmetry_equiv_pos_site_id
 _symmetry_equiv_pos_as_xyz
  1  'x, y, z'
loop_
 _atom_site_type_symbol
 _atom_site_label
 _atom_site_symmetry_multiplicity
 _atom_site_fract_x
 _atom_site_fract_y
 _atom_site_fract_z
 _atom_site_occupancy
  Zn  Zn0  1  0.77341806  0.98823100  0.92816584  1
  Zn  Zn1  1  0.01176900  0.22658194  0.42816584  1
  Zn  Zn2  1  0.52146205  0.21166146  0.49297433  1
  Zn  Zn3  1  0.78833854  0.47853795  0.99297433  1
  P  P4  1  0.02972436  0.76234790  0.88716479  1
  P  P5  1  0.23765210  0.97027564  0.38716479  1
  P  P6  1  0.29566856  0.45898491  0.53913151  1
  P  P7  1  0.54101509  0.70433144  0.03913151  1
  P  P8  1  0.65643665  0.30226537  0.81337582  1
  P  P9  1  0.69773463  0.34356335  0.31337582  1
  P  P10  1  0.83416432  0.09533444  0.61299711  1
  P  P11  1  0.90466556  0.16583568  0.11299711  1
  H  H12  1  0.19612546  0.85340278  0.67744775  1
  H  H13  1  0.36066053  0.96560013  0.62440733  1
  H  H14  1  0.14659722  0.80387454  0.17744775  1
  H  H15  1  0.03439987  0.63933947  0.12440733  1
  H  H16  1  0.37904399  0.65013449  0.73972445  1
  H  H17  1  0.19815778  0.37909489  0.92911463  1
  H  H18  1  0.54287586  0.77021463  0.69232539  1
  H  H19  1  0.55478218  0.70674229  0.81415872  1
  H  H20  1  0.10054666  0.23681855  0.85334325  1
  H  H21  1  0.34986551  0.62095601  0.23972445  1
  H  H22  1  0.62090511  0.80184222  0.42911463  1
  H  H23  1  0.22978537  0.45712414  0.19232539  1
  H  H24  1  0.31344478  0.28602516  0.86136851  1
  H  H25  1  0.29325771  0.44521782  0.31415872  1
  H  H26  1  0.76318145  0.89945334  0.35334325  1
  H  H27  1  0.71397484  0.68655522  0.36136851  1
  H  H28  1  0.71882023  0.63892957  0.57422508  1
  H  H29  1  0.25359697  0.05580813  0.69864318  1
  H  H30  1  0.36107043  0.28117977  0.07422508  1
  H  H31  1  0.92750545  0.62135493  0.59726752  1
  H  H32  1  0.81000592  0.52402028  0.50540482  1
  H  H33  1  0.94419187  0.74640303  0.19864318  1
  H  H34  1  0.37864507  0.07249455  0.09726752  1
  H  H35  1  0.47597972  0.18999408  0.00540482  1
  H  H36  1  0.06941135  0.57994119  0.80262393  1
  H  H37  1  0.34515845  0.86783622  0.82514757  1
  H  H38  1  0.49913304  0.98153992  0.78235821  1
  H  H39  1  0.42005881  0.93058865  0.30262393  1
  H  H40  1  0.13216378  0.65484155  0.32514757  1
  H  H41  1  0.28768646  0.70191569  0.47160680  1
  H  H42  1  0.01846008  0.50086696  0.28235821  1
  H  H43  1  0.24443237  0.39369594  0.68025741  1
  H  H44  1  0.29808431  0.71231354  0.97160680  1
  H  H45  1  0.87374732  0.91835720  0.73604743  1
  H  H46  1  0.60630406  0.75556763  0.18025741  1
  H  H47  1  0.87667542  0.87736347  0.50881810  1
  H  H48  1  0.22967196  0.03019657  0.95071076  1
  H  H49  1  0.08164280  0.12625268  0.23604743  1
  H  H50  1  0.49613596  0.33322207  0.68223041  1
  H  H51  1  0.12263653  0.12332458  0.00881910  1
  H  H52  1  0.96980343  0.77032804  0.45071076  1
  H  H53  1  0.66677793  0.50386404  0.18223041  1
  H  H54  1  0.86502513  0.29132514  0.71206275  1
  H  H55  1  0.70867486  0.13497487  0.21206275  1
  C  C56  1  0.29693175  0.94542505  0.68593889  1
  C  C57  1  0.05457495  0.70306825  0.18593889  1
  C  C58  1  0.47641348  0.74387445  0.75273910  1
  C  C59  1  0.20832542  0.26917103  0.89920935  1
  C  C60  1  0.25612555  0.52358652  0.25273910  1
  C  C61  1  0.73082897  0.79167458  0.39920935  1
  C  C62  1  0.82741428  0.62907921  0.54325803  1
  C  C63  1  0.37092079  0.17258572  0.04325803  1
  N  N64  1  0.40739379  0.89054551  0.76709944  1
  N  N65  1  0.10945449  0.59260621  0.26709944  1
  N  N66  1  0.22739692  0.13985835  0.97642933  1
  N  N67  1  0.86014165  0.77260308  0.47642933  1
  O  O68  1  0.20085370  0.83362956  0.91996946  1
  O  O69  1  0.04157086  0.68894565  0.79187267  1
  O  O70  1  0.16637044  0.79914630  0.41996946  1
  O  O71  1  0.31105435  0.95842914  0.29187267  1
  O  O72  1  0.59508853  0.83428935  0.96585844  1
  O  O73  1  0.22063255  0.47990994  0.63198662  1
  O  O74  1  0.37250896  0.62990118  0.50568076  1
  O  O75  1  0.16571065  0.40491147  0.46585844  1
  O  O76  1  0.52009006  0.77936745  0.13198662  1
  O  O77  1  0.85363500  0.92362727  0.66738108  1
  O  O78  1  0.37009882  0.62749104  0.00568076  1
  O  O79  1  0.91984450  0.89474613  0.85676080  1
  O  O80  1  0.07637273  0.14636500  0.16738108  1
  O  O81  1  0.42599047  0.34856022  0.56812243  1
  O  O82  1  0.10525387  0.08015550  0.35676080  1
  O  O83  1  0.49454595  0.33890013  0.74975262  1
  O  O84  1  0.64311955  0.37819782  0.90095803  1
  O  O85  1  0.96818926  0.63033052  0.95806236  1
  O  O86  1  0.65143978  0.57400953  0.06812243  1
  O  O87  1  0.66109987  0.50545405  0.24975262  1
  O  O88  1  0.62180218  0.35688045  0.40095803  1
  O  O89  1  0.80083000  0.37320689  0.76309590  1
  O  O90  1  0.36966948  0.03181074  0.45806236  1
  O  O91  1  0.64682052  0.11747669  0.83287730  1
  O  O92  1  0.65696598  0.11509307  0.59632714  1
  O  O93  1  0.62679311  0.19917000  0.26309590  1
  O  O94  1  0.88252331  0.35317948  0.33287730  1
  O  O95  1  0.93174600  0.22415392  0.66930373  1
  O  O96  1  0.88490693  0.34303402  0.09632714  1
  O  O97  1  0.90777629  0.08484778  0.52279914  1
  O  O98  1  0.77584608  0.06825400  0.16930373  1
  O  O99  1  0.91515222  0.09222371  0.02279914  1
