# generated using pymatgen
data_AlH20C2S2NO14
_symmetry_space_group_name_H-M   'P 1'
_cell_length_a   6.47439849
_cell_length_b   10.76436994
_cell_length_c   11.33289999
_cell_angle_alpha   90.00000000
_cell_angle_beta   99.54468281
_cell_angle_gamma   90.00000000
_symmetry_Int_Tables_number   1
_chemical_formula_structural   AlH20C2S2NO14
_chemical_formula_sum   'Al2 H40 C4 S4 N2 O28'
_cell_volume   778.88793622
_cell_formula_units_Z   2
loop_
 _symmetry_equiv_pos_site_id
 _symmetry_equiv_pos_as_xyz
  1  'x, y, z'
loop_
 _atom_site_type_symbol
 _atom_site_label
 _atom_site_symmetry_multiplicity
 _atom_site_fract_x
 _atom_site_fract_y
 _atom_site_fract_z
 _atom_site_occupancy
  Al  Al0  1  0.00155613  0.74826383  0.50725758  1
  Al  Al1  1  0.50155613  0.25173617  0.00725758  1
  H  H2  1  0.81591731  0.69539149  0.91609447  1
  H  H3  1  0.31591731  0.30460851  0.41609447  1
  H  H4  1  0.87833603  0.84874258  0.91222777  1
  H  H5  1  0.37833603  0.15125742  0.41222777  1
  H  H6  1  0.66285925  0.72098286  0.35433735  1
  H  H7  1  0.16285925  0.27901714  0.85433735  1
  H  H8  1  0.80596837  0.59717694  0.34205006  1
  H  H9  1  0.30596837  0.40282306  0.84205006  1
  H  H10  1  0.33555192  0.78111140  0.66553133  1
  H  H11  1  0.83555192  0.21888860  0.16553133  1
  H  H12  1  0.17957498  0.89717103  0.68114032  1
  H  H13  1  0.67957498  0.10282897  0.18114032  1
  H  H14  1  0.30525953  0.73056008  0.38630472  1
  H  H15  1  0.80525953  0.26943992  0.88630472  1
  H  H16  1  0.21844647  0.59186807  0.40966089  1
  H  H17  1  0.71844647  0.40813193  0.90966089  1
  H  H18  1  0.69534289  0.77203119  0.62638892  1
  H  H19  1  0.19534289  0.22796881  0.12638892  1
  H  H20  1  0.78724378  0.90878152  0.59914785  1
  H  H21  1  0.28724378  0.09121848  0.09914785  1
  H  H22  1  0.87113142  0.56139249  0.61843309  1
  H  H23  1  0.37113142  0.43860751  0.11843309  1
  H  H24  1  0.13148451  0.56946119  0.65161602  1
  H  H25  1  0.63148451  0.43053881  0.15161602  1
  H  H26  1  0.12391078  0.93574179  0.39062550  1
  H  H27  1  0.62391078  0.06425821  0.89062550  1
  H  H28  1  0.86553399  0.92752265  0.36092659  1
  H  H29  1  0.36553399  0.07247735  0.86092659  1
  H  H30  1  0.72151814  0.81388917  0.08345505  1
  H  H31  1  0.22151814  0.18611083  0.58345505  1
  H  H32  1  0.89933965  0.68715897  0.12791230  1
  H  H33  1  0.39933965  0.31284103  0.62791230  1
  H  H34  1  0.99773218  0.84213783  0.13029102  1
  H  H35  1  0.49773218  0.15786217  0.63029102  1
  H  H36  1  0.17002240  0.64140626  0.99465072  1
  H  H37  1  0.67002240  0.35859374  0.49465072  1
  H  H38  1  0.23826826  0.80262457  0.99565951  1
  H  H39  1  0.73826826  0.19737543  0.49565951  1
  H  H40  1  0.15099713  0.72380544  0.85499439  1
  H  H41  1  0.65099713  0.27619456  0.35499439  1
  C  C42  1  0.88015132  0.77803687  0.08398321  1
  C  C43  1  0.38015132  0.22196313  0.58398321  1
  C  C44  1  0.13550169  0.73064110  0.94971557  1
  C  C45  1  0.63550169  0.26935890  0.44971557  1
  S  S46  1  0.06019646  0.42763246  0.24251544  1
  S  S47  1  0.56019646  0.57236754  0.74251544  1
  S  S48  1  0.43807655  0.93469908  0.27004574  1
  S  S49  1  0.93807655  0.06530092  0.77004574  1
  N  N50  1  0.91524615  0.76487064  0.95785150  1
  N  N51  1  0.41524615  0.23512936  0.45785150  1
  O  O52  1  0.78933550  0.67221098  0.39123377  1
  O  O53  1  0.28933550  0.32778902  0.89123377  1
  O  O54  1  0.20487039  0.82583662  0.62798020  1
  O  O55  1  0.70487039  0.17416338  0.12798020  1
  O  O56  1  0.22631389  0.68057212  0.43921079  1
  O  O57  1  0.72631389  0.31942788  0.93921079  1
  O  O58  1  0.77771627  0.81851825  0.57320293  1
  O  O59  1  0.27771627  0.18148175  0.07320293  1
  O  O60  1  0.00344163  0.60011190  0.59745272  1
  O  O61  1  0.50344163  0.39988810  0.09745272  1
  O  O62  1  0.99483894  0.89405997  0.41199489  1
  O  O63  1  0.49483894  0.10594003  0.91199489  1
  O  O64  1  0.05091207  0.28900270  0.22181495  1
  O  O65  1  0.55091207  0.71099730  0.72181495  1
  O  O66  1  0.19017896  0.44953182  0.36267160  1
  O  O67  1  0.69017896  0.55046818  0.86267160  1
  O  O68  1  0.84355943  0.47643796  0.24359535  1
  O  O69  1  0.34355943  0.52356204  0.74359535  1
  O  O70  1  0.15422748  0.48908444  0.14733510  1
  O  O71  1  0.65422748  0.51091556  0.64733510  1
  O  O72  1  0.45162616  0.79892218  0.29898348  1
  O  O73  1  0.95162616  0.20107782  0.79898348  1
  O  O74  1  0.65470031  0.98746606  0.27774803  1
  O  O75  1  0.15470031  0.01253394  0.77774803  1
  O  O76  1  0.32097063  0.95265058  0.14760826  1
  O  O77  1  0.82097063  0.04734942  0.64760826  1
  O  O78  1  0.32894103  0.99949847  0.35945104  1
  O  O79  1  0.82894103  0.00050153  0.85945104  1
