# generated using pymatgen
data_LiTi2P4H3O16
_symmetry_space_group_name_H-M   'P 1'
_cell_length_a   5.02172371
_cell_length_b   8.06822767
_cell_length_c   7.42692219
_cell_angle_alpha   89.81232488
_cell_angle_beta   102.25941243
_cell_angle_gamma   87.64813147
_symmetry_Int_Tables_number   1
_chemical_formula_structural   LiTi2P4H3O16
_chemical_formula_sum   'Li1 Ti2 P4 H3 O16'
_cell_volume   293.78045285
_cell_formula_units_Z   1
loop_
 _symmetry_equiv_pos_site_id
 _symmetry_equiv_pos_as_xyz
  1  'x, y, z'
loop_
 _atom_site_type_symbol
 _atom_site_label
 _atom_site_symmetry_multiplicity
 _atom_site_fract_x
 _atom_site_fract_y
 _atom_site_fract_z
 _atom_site_occupancy
  Li  Li0  1  0.39322182  0.87873371  0.85065560  1
  Ti  Ti1  1  0.98468285  0.99815392  0.48586874  1
  Ti  Ti2  1  0.49388710  0.49482094  0.00610220  1
  P  P3  1  0.10065394  0.33478034  0.25067832  1
  P  P4  1  0.38837828  0.84693320  0.23652949  1
  P  P5  1  0.60708639  0.15602214  0.75387591  1
  P  P6  1  0.89641543  0.66776606  0.75128696  1
  H  H7  1  0.40720192  0.44693144  0.42997715  1
  H  H8  1  0.59607115  0.54934123  0.57351838  1
  H  H9  1  0.93853276  0.01965351  0.97557685  1
  O  O10  1  0.14611037  0.56767310  0.85856470  1
  O  O11  1  0.03013537  0.16248735  0.30604359  1
  O  O12  1  0.20053232  0.83704231  0.37754939  1
  O  O13  1  0.21873956  0.42859686  0.43694798  1
  O  O14  1  0.34848531  0.06496872  0.66732213  1
  O  O15  1  0.54191243  0.33306856  0.81668415  1
  O  O16  1  0.25639701  0.94259642  0.06297411  1
  O  O17  1  0.32631422  0.33214713  0.13825188  1
  O  O18  1  0.66191560  0.67830926  0.85662259  1
  O  O19  1  0.73646521  0.04666932  0.93034834  1
  O  O20  1  0.46687706  0.66585772  0.18459450  1
  O  O21  1  0.65682793  0.92600381  0.34443895  1
  O  O22  1  0.78072069  0.57481058  0.56405324  1
  O  O23  1  0.80420105  0.16409076  0.62129280  1
  O  O24  1  0.99163590  0.83557039  0.69705108  1
  O  O25  1  0.84684833  0.43220821  0.14793697  1
