# generated using pymatgen
data_Ba3(ClO)2
_symmetry_space_group_name_H-M   'P 1'
_cell_length_a   10.72777099
_cell_length_b   13.20991717
_cell_length_c   6.42754865
_cell_angle_alpha   90.00000000
_cell_angle_beta   90.00000000
_cell_angle_gamma   90.00000000
_symmetry_Int_Tables_number   1
_chemical_formula_structural   Ba3(ClO)2
_chemical_formula_sum   'Ba12 Cl8 O8'
_cell_volume   910.86698456
_cell_formula_units_Z   4
loop_
 _symmetry_equiv_pos_site_id
 _symmetry_equiv_pos_as_xyz
  1  'x, y, z'
loop_
 _atom_site_type_symbol
 _atom_site_label
 _atom_site_symmetry_multiplicity
 _atom_site_fract_x
 _atom_site_fract_y
 _atom_site_fract_z
 _atom_site_occupancy
  Ba  Ba0  1  0.07574009  0.06744967  0.75000000  1
  Ba  Ba1  1  0.11624877  0.78285960  0.75000000  1
  Ba  Ba2  1  0.21282807  0.45365532  0.25000000  1
  Ba  Ba3  1  0.28717193  0.95365532  0.25000000  1
  Ba  Ba4  1  0.38375123  0.28285960  0.75000000  1
  Ba  Ba5  1  0.42425991  0.56744967  0.75000000  1
  Ba  Ba6  1  0.57574009  0.43255033  0.25000000  1
  Ba  Ba7  1  0.61624877  0.71714040  0.25000000  1
  Ba  Ba8  1  0.71282807  0.04634468  0.75000000  1
  Ba  Ba9  1  0.78717193  0.54634468  0.75000000  1
  Ba  Ba10  1  0.88375123  0.21714040  0.25000000  1
  Ba  Ba11  1  0.92425991  0.93255033  0.25000000  1
  Cl  Cl12  1  0.10416682  0.53516933  0.75000000  1
  Cl  Cl13  1  0.18376060  0.20233792  0.25000000  1
  Cl  Cl14  1  0.31623940  0.70233792  0.25000000  1
  Cl  Cl15  1  0.39583318  0.03516933  0.75000000  1
  Cl  Cl16  1  0.60416682  0.96483067  0.25000000  1
  Cl  Cl17  1  0.68376060  0.29766208  0.75000000  1
  Cl  Cl18  1  0.81623940  0.79766208  0.75000000  1
  Cl  Cl19  1  0.89583318  0.46483067  0.25000000  1
  O  O20  1  0.11575168  0.91787161  0.00218435  1
  O  O21  1  0.11575168  0.91787161  0.49781565  1
  O  O22  1  0.38424832  0.41787161  0.00218435  1
  O  O23  1  0.38424832  0.41787161  0.49781565  1
  O  O24  1  0.61575168  0.58212839  0.99781565  1
  O  O25  1  0.61575168  0.58212839  0.50218435  1
  O  O26  1  0.88424832  0.08212839  0.99781565  1
  O  O27  1  0.88424832  0.08212839  0.50218435  1
