# generated using pymatgen
data_Mg16Al12O
_symmetry_space_group_name_H-M   'P 1'
_cell_length_a   9.41059714
_cell_length_b   9.04976214
_cell_length_c   9.04976297
_cell_angle_alpha   108.64947945
_cell_angle_beta   110.28096961
_cell_angle_gamma   110.28096271
_symmetry_Int_Tables_number   1
_chemical_formula_structural   Mg16Al12O
_chemical_formula_sum   'Mg16 Al12 O1'
_cell_volume   587.26170410
_cell_formula_units_Z   1
loop_
 _symmetry_equiv_pos_site_id
 _symmetry_equiv_pos_as_xyz
  1  'x, y, z'
loop_
 _atom_site_type_symbol
 _atom_site_label
 _atom_site_symmetry_multiplicity
 _atom_site_fract_x
 _atom_site_fract_y
 _atom_site_fract_z
 _atom_site_occupancy
  Mg  Mg0  1  0.53665443  0.23189365  0.99999900  1
  Mg  Mg1  1  0.99367928  0.32921330  0.99999900  1
  Mg  Mg2  1  0.29871699  0.58904737  1.00000000  1
  Mg  Mg3  1  0.19450507  1.00000000  0.00000100  1
  Mg  Mg4  1  0.53665443  0.00000000  0.23189365  1
  Mg  Mg5  1  0.66951718  0.67250317  0.26308536  1
  Mg  Mg6  1  0.99701300  0.59058118  0.32749483  1
  Mg  Mg7  1  0.99367928  0.99999900  0.32921330  1
  Mg  Mg8  1  0.40643282  0.73691464  0.40941882  1
  Mg  Mg9  1  0.70967062  0.41095363  0.41095363  1
  Mg  Mg10  1  0.29871699  1.00000000  0.58904837  1
  Mg  Mg11  1  0.99701300  0.32749583  0.59058118  1
  Mg  Mg12  1  0.66446498  0.67078570  0.67078470  1
  Mg  Mg13  1  0.66951718  0.26308436  0.67250317  1
  Mg  Mg14  1  0.40643282  0.40941882  0.73691464  1
  Mg  Mg15  1  0.30476078  0.76810635  0.76810635  1
  Al  Al16  1  0.79631832  0.59838648  0.00000000  1
  Al  Al17  1  0.64623589  0.80728659  0.00000000  1
  Al  Al18  1  0.16423786  0.80472738  0.19058693  1
  Al  Al19  1  0.83894930  0.19271341  0.19271341  1
  Al  Al20  1  0.35951048  0.38585955  0.19527262  1
  Al  Al21  1  0.35951048  0.19527162  0.38585955  1
  Al  Al22  1  0.19793284  0.40161552  0.40161452  1
  Al  Al23  1  0.79631932  -0.00000000  0.59838648  1
  Al  Al24  1  0.97365093  0.80941307  0.61414045  1
  Al  Al25  1  0.16423886  0.19058593  0.80472738  1
  Al  Al26  1  0.64623689  0.00000000  0.80728659  1
  Al  Al27  1  0.97365093  0.61414045  0.80941307  1
  O  O28  1  0.40577605  0.00000000  0.99999900  1
