# generated using pymatgen
data_SbOF
_symmetry_space_group_name_H-M   'P 1'
_cell_length_a   5.72051797
_cell_length_b   6.36521521
_cell_length_c   5.59541377
_cell_angle_alpha   90.00000000
_cell_angle_beta   84.14868147
_cell_angle_gamma   90.00000000
_symmetry_Int_Tables_number   1
_chemical_formula_structural   SbOF
_chemical_formula_sum   'Sb4 O4 F4'
_cell_volume   202.68050386
_cell_formula_units_Z   4
loop_
 _symmetry_equiv_pos_site_id
 _symmetry_equiv_pos_as_xyz
  1  'x, y, z'
loop_
 _atom_site_type_symbol
 _atom_site_label
 _atom_site_symmetry_multiplicity
 _atom_site_fract_x
 _atom_site_fract_y
 _atom_site_fract_z
 _atom_site_occupancy
  Sb  Sb0  1  0.27155708  0.52240470  0.68454519  1
  Sb  Sb1  1  0.27155708  0.97759530  0.18454519  1
  Sb  Sb2  1  0.72844292  0.02240470  0.81545481  1
  Sb  Sb3  1  0.72844292  0.47759530  0.31545481  1
  O  O4  1  0.42879709  0.84153272  0.87759859  1
  O  O5  1  0.42879709  0.65846728  0.37759859  1
  O  O6  1  0.57120291  0.34153272  0.62240141  1
  O  O7  1  0.57120291  0.15846728  0.12240141  1
  F  F8  1  0.10955902  0.18200613  0.95353941  1
  F  F9  1  0.10955902  0.31799387  0.45353941  1
  F  F10  1  0.89044098  0.68200613  0.54646059  1
  F  F11  1  0.89044098  0.81799387  0.04646059  1
