# generated using pymatgen
data_Sn3(OF)2
_symmetry_space_group_name_H-M   'P 1'
_cell_length_a   15.53271022
_cell_length_b   5.60870581
_cell_length_c   6.77376226
_cell_angle_alpha   90.00000000
_cell_angle_beta   90.00000000
_cell_angle_gamma   90.00000000
_symmetry_Int_Tables_number   1
_chemical_formula_structural   Sn3(OF)2
_chemical_formula_sum   'Sn12 O8 F8'
_cell_volume   590.11934400
_cell_formula_units_Z   4
loop_
 _symmetry_equiv_pos_site_id
 _symmetry_equiv_pos_as_xyz
  1  'x, y, z'
loop_
 _atom_site_type_symbol
 _atom_site_label
 _atom_site_symmetry_multiplicity
 _atom_site_fract_x
 _atom_site_fract_y
 _atom_site_fract_z
 _atom_site_occupancy
  Sn  Sn0  1  0.03591672  0.25000000  0.15863393  1
  Sn  Sn1  1  0.09924851  0.25000000  0.66464665  1
  Sn  Sn2  1  0.18157638  0.75000000  0.01043475  1
  Sn  Sn3  1  0.31842362  0.25000000  0.51043475  1
  Sn  Sn4  1  0.40075149  0.75000000  0.16464665  1
  Sn  Sn5  1  0.46408328  0.75000000  0.65863393  1
  Sn  Sn6  1  0.53591672  0.25000000  0.34136607  1
  Sn  Sn7  1  0.59924851  0.25000000  0.83535335  1
  Sn  Sn8  1  0.68157638  0.75000000  0.48956525  1
  Sn  Sn9  1  0.81842362  0.25000000  0.98956525  1
  Sn  Sn10  1  0.90075149  0.75000000  0.33535335  1
  Sn  Sn11  1  0.96408328  0.75000000  0.84136607  1
  O  O12  1  0.08164927  0.50075515  0.90839651  1
  O  O13  1  0.08164927  0.99924485  0.90839651  1
  O  O14  1  0.41835073  0.00075515  0.40839651  1
  O  O15  1  0.41835073  0.49924485  0.40839651  1
  O  O16  1  0.58164927  0.50075515  0.59160349  1
  O  O17  1  0.58164927  0.99924485  0.59160349  1
  O  O18  1  0.91835073  0.00075515  0.09160349  1
  O  O19  1  0.91835073  0.49924485  0.09160349  1
  F  F20  1  0.03613183  0.75000000  0.35307878  1
  F  F21  1  0.25814498  0.25000000  0.23655483  1
  F  F22  1  0.24185502  0.75000000  0.73655483  1
  F  F23  1  0.46386817  0.25000000  0.85307878  1
  F  F24  1  0.53613183  0.75000000  0.14692122  1
  F  F25  1  0.75814498  0.25000000  0.26344517  1
  F  F26  1  0.74185502  0.75000000  0.76344517  1
  F  F27  1  0.96386817  0.25000000  0.64692122  1
