# generated using pymatgen
data_SrLa2O4
_symmetry_space_group_name_H-M   'P 1'
_cell_length_a   10.59836410
_cell_length_b   12.55077140
_cell_length_c   3.64805128
_cell_angle_alpha   90.00000000
_cell_angle_beta   90.00000000
_cell_angle_gamma   90.00000000
_symmetry_Int_Tables_number   1
_chemical_formula_structural   SrLa2O4
_chemical_formula_sum   'Sr4 La8 O16'
_cell_volume   485.25519023
_cell_formula_units_Z   4
loop_
 _symmetry_equiv_pos_site_id
 _symmetry_equiv_pos_as_xyz
  1  'x, y, z'
loop_
 _atom_site_type_symbol
 _atom_site_label
 _atom_site_symmetry_multiplicity
 _atom_site_fract_x
 _atom_site_fract_y
 _atom_site_fract_z
 _atom_site_occupancy
  Sr  Sr0  1  0.24701724  0.35352961  0.75000000  1
  Sr  Sr1  1  0.25298276  0.85352961  0.25000000  1
  Sr  Sr2  1  0.74701724  0.14647039  0.75000000  1
  Sr  Sr3  1  0.75298276  0.64647039  0.25000000  1
  La  La4  1  0.08013571  0.11366267  0.75000000  1
  La  La5  1  0.07800641  0.61411562  0.75000000  1
  La  La6  1  0.42199359  0.11411562  0.25000000  1
  La  La7  1  0.41986429  0.61366267  0.25000000  1
  La  La8  1  0.58013571  0.38633733  0.75000000  1
  La  La9  1  0.57800641  0.88588438  0.75000000  1
  La  La10  1  0.92199359  0.38588438  0.25000000  1
  La  La11  1  0.91986429  0.88633733  0.25000000  1
  O  O12  1  0.01677193  0.71643071  0.25000000  1
  O  O13  1  0.07523555  0.92113138  0.75000000  1
  O  O14  1  0.13182934  0.47675117  0.25000000  1
  O  O15  1  0.21097387  0.19005980  0.25000000  1
  O  O16  1  0.28902613  0.69005980  0.75000000  1
  O  O17  1  0.36817066  0.97675117  0.75000000  1
  O  O18  1  0.42476445  0.42113138  0.25000000  1
  O  O19  1  0.48322807  0.21643071  0.75000000  1
  O  O20  1  0.51677193  0.78356929  0.25000000  1
  O  O21  1  0.57523555  0.57886862  0.75000000  1
  O  O22  1  0.63182934  0.02324883  0.25000000  1
  O  O23  1  0.71097387  0.30994020  0.25000000  1
  O  O24  1  0.78902613  0.80994020  0.75000000  1
  O  O25  1  0.86817066  0.52324883  0.75000000  1
  O  O26  1  0.92476445  0.07886862  0.25000000  1
  O  O27  1  0.98322807  0.28356929  0.75000000  1
