# generated using pymatgen
data_Sr5Ir3O11
_symmetry_space_group_name_H-M   'P 1'
_cell_length_a   3.97842900
_cell_length_b   3.97842900
_cell_length_c   16.75586565
_cell_angle_alpha   89.78470724
_cell_angle_beta   89.78470724
_cell_angle_gamma   91.84533394
_symmetry_Int_Tables_number   1
_chemical_formula_structural   Sr5Ir3O11
_chemical_formula_sum   'Sr5 Ir3 O11'
_cell_volume   265.06871367
_cell_formula_units_Z   1
loop_
 _symmetry_equiv_pos_site_id
 _symmetry_equiv_pos_as_xyz
  1  'x, y, z'
loop_
 _atom_site_type_symbol
 _atom_site_label
 _atom_site_symmetry_multiplicity
 _atom_site_fract_x
 _atom_site_fract_y
 _atom_site_fract_z
 _atom_site_occupancy
  Sr  Sr0  1  0.98184183  0.98184183  0.27012009  1
  Sr  Sr1  1  0.00046037  0.00046037  0.50008510  1
  Sr  Sr2  1  0.01391252  0.01391252  0.73004360  1
  Sr  Sr3  1  0.49154122  0.49154122  0.88948586  1
  Sr  Sr4  1  0.48439585  0.48439585  0.11055028  1
  Ir  Ir5  1  0.99640740  0.99640740  0.99997324  1
  Ir  Ir6  1  0.49563243  0.49563243  0.37729393  1
  Ir  Ir7  1  0.50363551  0.50363551  0.62275777  1
  O  O8  1  0.98971914  0.43675272  0.37956573  1
  O  O9  1  0.99594153  0.99594153  0.12412818  1
  O  O10  1  0.00964149  0.56320203  0.62033570  1
  O  O11  1  0.00070425  0.00070425  0.87583810  1
  O  O12  1  0.43675272  0.98971914  0.37956573  1
  O  O13  1  0.49209211  0.95115911  0.99995032  1
  O  O14  1  0.49627007  0.49627007  0.25633541  1
  O  O15  1  0.49970395  0.49970395  0.50003076  1
  O  O16  1  0.50160947  0.50160947  0.74365719  1
  O  O17  1  0.56320203  0.00964149  0.62033570  1
  O  O18  1  0.95115911  0.49209211  0.99995032  1
