# generated using pymatgen
data_CeHfO4
_symmetry_space_group_name_H-M   'P 1'
_cell_length_a   5.24155010
_cell_length_b   6.57698742
_cell_length_c   6.57698742
_cell_angle_alpha   114.09372813
_cell_angle_beta   69.16979234
_cell_angle_gamma   69.16979234
_symmetry_Int_Tables_number   1
_chemical_formula_structural   CeHfO4
_chemical_formula_sum   'Ce2 Hf2 O8'
_cell_volume   156.62652870
_cell_formula_units_Z   2
loop_
 _symmetry_equiv_pos_site_id
 _symmetry_equiv_pos_as_xyz
  1  'x, y, z'
loop_
 _atom_site_type_symbol
 _atom_site_label
 _atom_site_symmetry_multiplicity
 _atom_site_fract_x
 _atom_site_fract_y
 _atom_site_fract_z
 _atom_site_occupancy
  Ce  Ce0  1  0.75000000  0.13594610  0.36405390  1
  Ce  Ce1  1  0.25000000  0.86405390  0.63594610  1
  Hf  Hf2  1  0.25000000  0.40361852  0.09638148  1
  Hf  Hf3  1  0.75000000  0.59638148  0.90361852  1
  O  O4  1  0.16340927  0.11522220  0.04916171  1
  O  O5  1  0.33659073  0.45083829  0.38477780  1
  O  O6  1  0.76670737  0.71673871  0.26669568  1
  O  O7  1  0.73329263  0.23330432  0.78326129  1
  O  O8  1  0.26670737  0.76669568  0.21673871  1
  O  O9  1  0.23329263  0.28326129  0.73330432  1
  O  O10  1  0.66340927  0.54916171  0.61522220  1
  O  O11  1  0.83659073  0.88477780  0.95083829  1
