# generated using pymatgen
data_BaYBr5
_symmetry_space_group_name_H-M   'P 1'
_cell_length_a   8.03390746
_cell_length_b   8.03390746
_cell_length_c   11.05831018
_cell_angle_alpha   69.46116651
_cell_angle_beta   110.53883349
_cell_angle_gamma   109.57055279
_symmetry_Int_Tables_number   1
_chemical_formula_structural   BaYBr5
_chemical_formula_sum   'Ba2 Y2 Br10'
_cell_volume   607.34484226
_cell_formula_units_Z   2
loop_
 _symmetry_equiv_pos_site_id
 _symmetry_equiv_pos_as_xyz
  1  'x, y, z'
loop_
 _atom_site_type_symbol
 _atom_site_label
 _atom_site_symmetry_multiplicity
 _atom_site_fract_x
 _atom_site_fract_y
 _atom_site_fract_z
 _atom_site_occupancy
  Ba  Ba0  1  0.44386066  0.44386066  0.75000000  1
  Ba  Ba1  1  0.55613934  0.55613934  0.25000000  1
  Y  Y2  1  0.00000000  0.00000000  0.50000000  1
  Y  Y3  1  0.00000000  0.00000000  0.00000000  1
  Br  Br4  1  0.21023618  0.74708016  0.62110362  1
  Br  Br5  1  0.71204087  0.68570977  0.97070500  1
  Br  Br6  1  0.25291984  0.78976382  0.12110362  1
  Br  Br7  1  0.07772489  0.07772489  0.75000000  1
  Br  Br8  1  0.68570977  0.71204087  0.52929500  1
  Br  Br9  1  0.31429023  0.28795913  0.47070500  1
  Br  Br10  1  0.92227511  0.92227511  0.25000000  1
  Br  Br11  1  0.74708016  0.21023618  0.87889638  1
  Br  Br12  1  0.28795913  0.31429023  0.02929500  1
  Br  Br13  1  0.78976382  0.25291984  0.37889638  1
