# generated using pymatgen
data_Mg16Al12I
_symmetry_space_group_name_H-M   'P 1'
_cell_length_a   9.21009322
_cell_length_b   9.21009204
_cell_length_c   9.21009322
_cell_angle_alpha   109.47121757
_cell_angle_beta   109.47123054
_cell_angle_gamma   109.47121757
_symmetry_Int_Tables_number   1
_chemical_formula_structural   Mg16Al12I
_chemical_formula_sum   'Mg16 Al12 I1'
_cell_volume   601.40925974
_cell_formula_units_Z   1
loop_
 _symmetry_equiv_pos_site_id
 _symmetry_equiv_pos_as_xyz
  1  'x, y, z'
loop_
 _atom_site_type_symbol
 _atom_site_label
 _atom_site_symmetry_multiplicity
 _atom_site_fract_x
 _atom_site_fract_y
 _atom_site_fract_z
 _atom_site_occupancy
  Mg  Mg0  1  0.00000000  0.33679459  0.00000000  1
  Mg  Mg1  1  0.33679459  0.99999900  0.00000100  1
  Mg  Mg2  1  0.59447205  0.31293569  0.00000000  1
  Mg  Mg3  1  0.31293569  0.59447105  0.00000000  1
  Mg  Mg4  1  0.68706431  0.68706431  0.28153536  1
  Mg  Mg5  1  0.59447105  0.00000100  0.31293569  1
  Mg  Mg6  1  0.00000000  0.59447105  0.31293569  1
  Mg  Mg7  1  0.00000100  0.99999900  0.33679459  1
  Mg  Mg8  1  0.40552995  0.71846564  0.40552995  1
  Mg  Mg9  1  0.71846564  0.40552995  0.40552995  1
  Mg  Mg10  1  0.31293569  0.00000100  0.59447105  1
  Mg  Mg11  1  0.00000000  0.31293569  0.59447205  1
  Mg  Mg12  1  0.66320441  0.66320441  0.66320441  1
  Mg  Mg13  1  0.68706431  0.28153536  0.68706431  1
  Mg  Mg14  1  0.28153536  0.68706431  0.68706431  1
  Mg  Mg15  1  0.40552995  0.40552995  0.71846564  1
  Al  Al16  1  0.62284148  0.81138306  0.00000000  1
  Al  Al17  1  0.81138206  0.62284148  0.00000000  1
  Al  Al18  1  0.81145742  0.18861694  0.18861794  1
  Al  Al19  1  0.18861794  0.81145642  0.18861794  1
  Al  Al20  1  0.37716052  0.37716052  0.18854258  1
  Al  Al21  1  0.18854258  0.37716052  0.37716052  1
  Al  Al22  1  0.37716152  0.18854158  0.37716152  1
  Al  Al23  1  0.81138206  0.00000100  0.62284048  1
  Al  Al24  1  0.00000000  0.81138306  0.62284148  1
  Al  Al25  1  0.18861794  0.18861694  0.81145742  1
  Al  Al26  1  0.62284048  0.00000100  0.81138206  1
  Al  Al27  1  0.00000000  0.62284148  0.81138206  1
  I  I28  1  0.00000000  0.00000000  0.00000000  1
