# generated using pymatgen
data_Na2CdO3
_symmetry_space_group_name_H-M   'P 1'
_cell_length_a   6.69317483
_cell_length_b   5.81042451
_cell_length_c   11.09976576
_cell_angle_alpha   85.08069909
_cell_angle_beta   154.63282660
_cell_angle_gamma   106.79149720
_symmetry_Int_Tables_number   1
_chemical_formula_structural   Na2CdO3
_chemical_formula_sum   'Na4 Cd2 O6'
_cell_volume   160.06805549
_cell_formula_units_Z   2
loop_
 _symmetry_equiv_pos_site_id
 _symmetry_equiv_pos_as_xyz
  1  'x, y, z'
loop_
 _atom_site_type_symbol
 _atom_site_label
 _atom_site_symmetry_multiplicity
 _atom_site_fract_x
 _atom_site_fract_y
 _atom_site_fract_z
 _atom_site_occupancy
  Na  Na0  1  0.50017229  0.50062732  0.00005061  1
  Na  Na1  1  0.17613624  0.17662814  0.33798991  1
  Na  Na2  1  0.82325521  0.82400823  0.66152153  1
  Na  Na3  1  0.99979245  0.50009801  0.99979762  1
  Cd  Cd4  1  0.33225143  0.83248472  0.66611105  1
  Cd  Cd5  1  0.66757122  0.16792055  0.33375860  1
  O  O6  1  0.36064524  0.14337381  0.79364958  1
  O  O7  1  0.63942002  0.85728805  0.20635493  1
  O  O8  1  0.21366815  0.50023128  0.49142015  1
  O  O9  1  0.07439104  0.85700581  0.15055697  1
  O  O10  1  0.92523010  0.14305823  0.84925865  1
  O  O11  1  0.78579660  0.50022984  0.50817539  1
