# generated using pymatgen
data_Tm(HO)3
_symmetry_space_group_name_H-M   'P 1'
_cell_length_a   6.20777597
_cell_length_b   10.23833128
_cell_length_c   5.32090914
_cell_angle_alpha   90.00000000
_cell_angle_beta   84.24938309
_cell_angle_gamma   90.00000000
_symmetry_Int_Tables_number   1
_chemical_formula_structural   Tm(HO)3
_chemical_formula_sum   'Tm4 H12 O12'
_cell_volume   336.48051884
_cell_formula_units_Z   4
loop_
 _symmetry_equiv_pos_site_id
 _symmetry_equiv_pos_as_xyz
  1  'x, y, z'
loop_
 _atom_site_type_symbol
 _atom_site_label
 _atom_site_symmetry_multiplicity
 _atom_site_fract_x
 _atom_site_fract_y
 _atom_site_fract_z
 _atom_site_occupancy
  Tm  Tm0  1  0.03991089  0.32980568  0.00935644  1
  Tm  Tm1  1  0.46008911  0.82980568  0.99064356  1
  Tm  Tm2  1  0.53991089  0.17019432  0.00935644  1
  Tm  Tm3  1  0.96008911  0.67019432  0.99064356  1
  H  H4  1  0.18741971  0.80677069  0.58750913  1
  H  H5  1  0.19433398  0.02520866  0.24068427  1
  H  H6  1  0.26931930  0.61184623  0.31109515  1
  H  H7  1  0.23068070  0.11184623  0.68890485  1
  H  H8  1  0.30566602  0.52520866  0.75931573  1
  H  H9  1  0.31258029  0.30677069  0.41249087  1
  H  H10  1  0.68741971  0.69322931  0.58750913  1
  H  H11  1  0.69433398  0.47479134  0.24068427  1
  H  H12  1  0.76931930  0.88815377  0.31109515  1
  H  H13  1  0.73068070  0.38815377  0.68890485  1
  H  H14  1  0.80566602  0.97479134  0.75931573  1
  H  H15  1  0.81258029  0.19322931  0.41249087  1
  O  O16  1  0.15164599  0.50682316  0.79179344  1
  O  O17  1  0.17016561  0.81879364  0.77116885  1
  O  O18  1  0.25486176  0.19330787  0.77673877  1
  O  O19  1  0.24513824  0.69330787  0.22326123  1
  O  O20  1  0.32983439  0.31879364  0.22883115  1
  O  O21  1  0.34835401  0.00682316  0.20820656  1
  O  O22  1  0.65164599  0.99317684  0.79179344  1
  O  O23  1  0.67016561  0.68120636  0.77116885  1
  O  O24  1  0.75486176  0.30669213  0.77673877  1
  O  O25  1  0.74513824  0.80669213  0.22326123  1
  O  O26  1  0.82983439  0.18120636  0.22883115  1
  O  O27  1  0.84835401  0.49317684  0.20820656  1
