# generated using pymatgen
data_Ba2SrI6
_symmetry_space_group_name_H-M   'P 1'
_cell_length_a   9.32990326
_cell_length_b   9.32958666
_cell_length_c   10.45325443
_cell_angle_alpha   91.15073624
_cell_angle_beta   87.69813504
_cell_angle_gamma   120.00112250
_symmetry_Int_Tables_number   1
_chemical_formula_structural   Ba2SrI6
_chemical_formula_sum   'Ba4 Sr2 I12'
_cell_volume   787.34705153
_cell_formula_units_Z   2
loop_
 _symmetry_equiv_pos_site_id
 _symmetry_equiv_pos_as_xyz
  1  'x, y, z'
loop_
 _atom_site_type_symbol
 _atom_site_label
 _atom_site_symmetry_multiplicity
 _atom_site_fract_x
 _atom_site_fract_y
 _atom_site_fract_z
 _atom_site_occupancy
  Ba  Ba0  1  0.28172498  0.67116299  0.49202030  1
  Ba  Ba1  1  0.38943902  0.67116299  0.00797970  1
  Ba  Ba2  1  0.61056098  0.32883701  0.99202030  1
  Ba  Ba3  1  0.71827502  0.32883701  0.50797970  1
  Sr  Sr4  1  0.04762756  0.09525412  0.25000000  1
  Sr  Sr5  1  0.95237244  0.90474588  0.75000000  1
  I  I6  1  0.30829496  0.95872748  0.14762491  1
  I  I7  1  0.98619730  0.42875579  0.21169746  1
  I  I8  1  0.05059383  0.24351678  0.55184546  1
  I  I9  1  0.19292395  0.24351678  0.94815454  1
  I  I10  1  0.44255849  0.42875579  0.28830254  1
  I  I11  1  0.65043252  0.95872748  0.35237509  1
  I  I12  1  0.34956748  0.04127252  0.64762491  1
  I  I13  1  0.55744151  0.57124421  0.71169746  1
  I  I14  1  0.80707605  0.75648322  0.05184546  1
  I  I15  1  0.94940617  0.75648322  0.44815454  1
  I  I16  1  0.01380270  0.57124421  0.78830254  1
  I  I17  1  0.69170504  0.04127252  0.85237509  1
