# generated using pymatgen
data_La3Ti2N3O4
_symmetry_space_group_name_H-M   'P 1'
_cell_length_a   3.95491238
_cell_length_b   10.75219625
_cell_length_c   3.95491238
_cell_angle_alpha   79.40230311
_cell_angle_beta   90.00000000
_cell_angle_gamma   100.59769689
_symmetry_Int_Tables_number   1
_chemical_formula_structural   La3Ti2N3O4
_chemical_formula_sum   'La3 Ti2 N3 O4'
_cell_volume   162.39066904
_cell_formula_units_Z   1
loop_
 _symmetry_equiv_pos_site_id
 _symmetry_equiv_pos_as_xyz
  1  'x, y, z'
loop_
 _atom_site_type_symbol
 _atom_site_label
 _atom_site_symmetry_multiplicity
 _atom_site_fract_x
 _atom_site_fract_y
 _atom_site_fract_z
 _atom_site_occupancy
  La  La0  1  0.50000000  0.00000000  0.50000000  1
  La  La1  1  0.68207104  0.36414308  0.31792896  1
  La  La2  1  0.31792896  0.63585692  0.68207104  1
  Ti  Ti3  1  0.90680266  0.81360433  0.09319734  1
  Ti  Ti4  1  0.09319734  0.18639567  0.90680266  1
  N  N5  1  0.00000000  0.00000000  0.00000000  1
  N  N6  1  0.09995831  0.19991662  0.40004169  1
  N  N7  1  0.40004169  0.80008338  0.09995831  1
  O  O8  1  0.79491059  0.58982119  0.20508941  1
  O  O9  1  0.20508941  0.41017881  0.79491059  1
  O  O10  1  0.60480027  0.20959953  0.89519973  1
  O  O11  1  0.89519973  0.79040047  0.60480027  1
