# generated using pymatgen
data_Ce4ThO8
_symmetry_space_group_name_H-M   'P 1'
_cell_length_a   3.96266987
_cell_length_b   3.92242648
_cell_length_c   14.17752349
_cell_angle_alpha   97.89751686
_cell_angle_beta   98.09618441
_cell_angle_gamma   89.99617323
_symmetry_Int_Tables_number   1
_chemical_formula_structural   Ce4ThO8
_chemical_formula_sum   'Ce4 Th1 O8'
_cell_volume   216.05783507
_cell_formula_units_Z   1
loop_
 _symmetry_equiv_pos_site_id
 _symmetry_equiv_pos_as_xyz
  1  'x, y, z'
loop_
 _atom_site_type_symbol
 _atom_site_label
 _atom_site_symmetry_multiplicity
 _atom_site_fract_x
 _atom_site_fract_y
 _atom_site_fract_z
 _atom_site_occupancy
  Ce  Ce0  1  0.59505263  0.59805154  0.19442225  1
  Ce  Ce1  1  0.19978022  0.20661143  0.40704528  1
  Ce  Ce2  1  0.79405709  0.79622303  0.59358863  1
  Ce  Ce3  1  0.39715389  0.40244426  0.80616384  1
  Th  Th4  1  0.99651236  0.00031836  0.00028475  1
  O  O5  1  0.55084339  0.05374593  0.10663563  1
  O  O6  1  0.04608839  0.54929662  0.09780503  1
  O  O7  1  0.14492842  0.65047067  0.30342438  1
  O  O8  1  0.73862674  0.24466518  0.48384104  1
  O  O9  1  0.25525917  0.76039272  0.51667393  1
  O  O10  1  0.84874529  0.34053152  0.69632909  1
  O  O11  1  0.94578918  0.45116126  0.90149643  1
  O  O12  1  0.44181723  0.94719648  0.89528571  1
