# generated using pymatgen
data_Li3CuS2
_symmetry_space_group_name_H-M   'P 1'
_cell_length_a   7.10663966
_cell_length_b   7.97154292
_cell_length_c   7.44150657
_cell_angle_alpha   90.00000000
_cell_angle_beta   74.26703609
_cell_angle_gamma   90.00000000
_symmetry_Int_Tables_number   1
_chemical_formula_structural   Li3CuS2
_chemical_formula_sum   'Li12 Cu4 S8'
_cell_volume   405.77425709
_cell_formula_units_Z   4
loop_
 _symmetry_equiv_pos_site_id
 _symmetry_equiv_pos_as_xyz
  1  'x, y, z'
loop_
 _atom_site_type_symbol
 _atom_site_label
 _atom_site_symmetry_multiplicity
 _atom_site_fract_x
 _atom_site_fract_y
 _atom_site_fract_z
 _atom_site_occupancy
  Li  Li0  1  0.10858693  0.72946922  0.15926870  1
  Li  Li1  1  0.14127222  0.99835084  0.61156934  1
  Li  Li2  1  0.24685808  0.55139820  0.54493532  1
  Li  Li3  1  0.39141307  0.22946922  0.34073130  1
  Li  Li4  1  0.64127222  0.50164916  0.11156934  1
  Li  Li5  1  0.25314192  0.05139820  0.95506468  1
  Li  Li6  1  0.74685808  0.94860180  0.04493532  1
  Li  Li7  1  0.35872778  0.49835084  0.88843066  1
  Li  Li8  1  0.60858693  0.77053078  0.65926870  1
  Li  Li9  1  0.75314192  0.44860180  0.45506468  1
  Li  Li10  1  0.85872778  0.00164916  0.38843066  1
  Li  Li11  1  0.89141307  0.27053078  0.84073130  1
  Cu  Cu12  1  0.04631662  0.33131391  0.19168803  1
  Cu  Cu13  1  0.45368338  0.83131391  0.30831197  1
  Cu  Cu14  1  0.54631662  0.16868609  0.69168803  1
  Cu  Cu15  1  0.95368338  0.66868609  0.80831197  1
  S  S16  1  0.28149609  0.48769904  0.22528040  1
  S  S17  1  0.21850391  0.98769904  0.27471960  1
  S  S18  1  0.23510944  0.77462852  0.80138428  1
  S  S19  1  0.26489056  0.27462852  0.69861572  1
  S  S20  1  0.73510944  0.72537148  0.30138428  1
  S  S21  1  0.76489056  0.22537148  0.19861572  1
  S  S22  1  0.78149609  0.01230096  0.72528040  1
  S  S23  1  0.71850391  0.51230096  0.77471960  1
