# generated using pymatgen
data_Li3Ti(Si2O5)3
_symmetry_space_group_name_H-M   'P 1'
_cell_length_a   9.88809233
_cell_length_b   7.93947510
_cell_length_c   15.01751303
_cell_angle_alpha   90.00000000
_cell_angle_beta   90.00000000
_cell_angle_gamma   90.00000000
_symmetry_Int_Tables_number   1
_chemical_formula_structural   Li3Ti(Si2O5)3
_chemical_formula_sum   'Li12 Ti4 Si24 O60'
_cell_volume   1178.96882514
_cell_formula_units_Z   4
loop_
 _symmetry_equiv_pos_site_id
 _symmetry_equiv_pos_as_xyz
  1  'x, y, z'
loop_
 _atom_site_type_symbol
 _atom_site_label
 _atom_site_symmetry_multiplicity
 _atom_site_fract_x
 _atom_site_fract_y
 _atom_site_fract_z
 _atom_site_occupancy
  Li  Li0  1  0.91995750  0.25000000  0.06529015  1
  Li  Li1  1  0.58004250  0.25000000  0.56529015  1
  Li  Li2  1  0.49795862  0.99871586  0.24181438  1
  Li  Li3  1  0.49795862  0.50128414  0.24181438  1
  Li  Li4  1  0.50204138  0.00128414  0.75818562  1
  Li  Li5  1  0.50204138  0.49871586  0.75818562  1
  Li  Li6  1  0.41995750  0.75000000  0.43470985  1
  Li  Li7  1  0.08004250  0.75000000  0.93470985  1
  Li  Li8  1  0.99795862  0.00128414  0.25818562  1
  Li  Li9  1  0.99795862  0.49871586  0.25818562  1
  Li  Li10  1  0.00204138  0.50128414  0.74181438  1
  Li  Li11  1  0.00204138  0.99871586  0.74181438  1
  Ti  Ti12  1  0.74553980  0.25000000  0.25144797  1
  Ti  Ti13  1  0.75446020  0.25000000  0.75144797  1
  Ti  Ti14  1  0.25446020  0.75000000  0.74855203  1
  Ti  Ti15  1  0.24553980  0.75000000  0.24855203  1
  Si  Si16  1  0.96912282  0.75000000  0.40263213  1
  Si  Si17  1  0.97159663  0.75000000  0.59826244  1
  Si  Si18  1  0.79563469  0.56072000  0.09925990  1
  Si  Si19  1  0.79563469  0.93928000  0.09925990  1
  Si  Si20  1  0.79793470  0.94175416  0.90120150  1
  Si  Si21  1  0.79793470  0.55824584  0.90120150  1
  Si  Si22  1  0.70206530  0.94175416  0.40120150  1
  Si  Si23  1  0.70436531  0.56072000  0.59925990  1
  Si  Si24  1  0.70206530  0.55824584  0.40120150  1
  Si  Si25  1  0.70436531  0.93928000  0.59925990  1
  Si  Si26  1  0.52840337  0.75000000  0.09826244  1
  Si  Si27  1  0.53087718  0.75000000  0.90263213  1
  Si  Si28  1  0.47159663  0.25000000  0.90173756  1
  Si  Si29  1  0.46912282  0.25000000  0.09736787  1
  Si  Si30  1  0.29563469  0.43928000  0.40074010  1
  Si  Si31  1  0.29563469  0.06072000  0.40074010  1
  Si  Si32  1  0.29793470  0.05824584  0.59879850  1
  Si  Si33  1  0.29793470  0.44175416  0.59879850  1
  Si  Si34  1  0.20206530  0.05824584  0.09879850  1
  Si  Si35  1  0.20436531  0.43928000  0.90074010  1
  Si  Si36  1  0.20436531  0.06072000  0.90074010  1
  Si  Si37  1  0.20206530  0.44175416  0.09879850  1
  Si  Si38  1  0.03087718  0.25000000  0.59736787  1
  Si  Si39  1  0.02840337  0.25000000  0.40173756  1
  O  O40  1  0.95660817  0.25000000  0.50001708  1
  O  O41  1  0.92807341  0.25000000  0.31848083  1
  O  O42  1  0.93378732  0.25000000  0.68227543  1
  O  O43  1  0.86605621  0.58621042  0.39712475  1
  O  O44  1  0.86605621  0.91378958  0.39712475  1
  O  O45  1  0.86885285  0.58525515  0.60530521  1
  O  O46  1  0.86885285  0.91474485  0.60530521  1
  O  O47  1  0.86462786  0.75000000  0.10596878  1
  O  O48  1  0.87101936  0.75000000  0.90117065  1
  O  O49  1  0.85057457  0.07214813  0.17111759  1
  O  O50  1  0.85057457  0.42785187  0.17111759  1
  O  O51  1  0.84636297  0.05688084  0.82002583  1
  O  O52  1  0.84636297  0.44311916  0.82002583  1
  O  O53  1  0.83729424  0.47806051  0.00042308  1
  O  O54  1  0.83729424  0.02193949  0.00042308  1
  O  O55  1  0.66270576  0.47806051  0.50042308  1
  O  O56  1  0.66270576  0.02193949  0.50042308  1
  O  O57  1  0.64942543  0.07214813  0.67111759  1
  O  O58  1  0.65363703  0.05688084  0.32002583  1
  O  O59  1  0.65363703  0.44311916  0.32002583  1
  O  O60  1  0.64942543  0.42785187  0.67111759  1
  O  O61  1  0.62898064  0.75000000  0.40117065  1
  O  O62  1  0.63537214  0.75000000  0.60596878  1
  O  O63  1  0.63114715  0.91474485  0.10530521  1
  O  O64  1  0.63114715  0.58525515  0.10530521  1
  O  O65  1  0.63394379  0.91378958  0.89712475  1
  O  O66  1  0.63394379  0.58621042  0.89712475  1
  O  O67  1  0.56621268  0.25000000  0.18227543  1
  O  O68  1  0.57192659  0.25000000  0.81848083  1
  O  O69  1  0.54339183  0.25000000  0.00001708  1
  O  O70  1  0.45660817  0.75000000  -0.00001708  1
  O  O71  1  0.42807341  0.75000000  0.18151917  1
  O  O72  1  0.43378732  0.75000000  0.81772457  1
  O  O73  1  0.36885285  0.08525515  0.89469479  1
  O  O74  1  0.36885285  0.41474485  0.89469479  1
  O  O75  1  0.36605621  0.08621042  0.10287525  1
  O  O76  1  0.36605621  0.41378958  0.10287525  1
  O  O77  1  0.37101936  0.25000000  0.59882935  1
  O  O78  1  0.36462786  0.25000000  0.39403122  1
  O  O79  1  0.34636297  0.55688084  0.67997417  1
  O  O80  1  0.34636297  0.94311916  0.67997417  1
  O  O81  1  0.35057457  0.57214813  0.32888241  1
  O  O82  1  0.35057457  0.92785187  0.32888241  1
  O  O83  1  0.33729424  0.97806051  0.49957692  1
  O  O84  1  0.33729424  0.52193949  0.49957692  1
  O  O85  1  0.16270576  0.97806051  0.99957692  1
  O  O86  1  0.16270576  0.52193949  0.99957692  1
  O  O87  1  0.15363703  0.55688084  0.17997417  1
  O  O88  1  0.15363703  0.94311916  0.17997417  1
  O  O89  1  0.14942543  0.57214813  0.82888241  1
  O  O90  1  0.14942543  0.92785187  0.82888241  1
  O  O91  1  0.12898064  0.25000000  0.09882935  1
  O  O92  1  0.13537214  0.25000000  0.89403122  1
  O  O93  1  0.13394379  0.41378958  0.60287525  1
  O  O94  1  0.13114715  0.08525515  0.39469479  1
  O  O95  1  0.13114715  0.41474485  0.39469479  1
  O  O96  1  0.13394379  0.08621042  0.60287525  1
  O  O97  1  0.06621268  0.75000000  0.31772457  1
  O  O98  1  0.07192659  0.75000000  0.68151917  1
  O  O99  1  0.04339183  0.75000000  0.49998292  1
