# generated using pymatgen
data_GdLuO3
_symmetry_space_group_name_H-M   'P 1'
_cell_length_a   5.93104713
_cell_length_b   8.26428925
_cell_length_c   5.67277819
_cell_angle_alpha   90.00000000
_cell_angle_beta   90.00000000
_cell_angle_gamma   90.00000000
_symmetry_Int_Tables_number   1
_chemical_formula_structural   GdLuO3
_chemical_formula_sum   'Gd4 Lu4 O12'
_cell_volume   278.05626630
_cell_formula_units_Z   4
loop_
 _symmetry_equiv_pos_site_id
 _symmetry_equiv_pos_as_xyz
  1  'x, y, z'
loop_
 _atom_site_type_symbol
 _atom_site_label
 _atom_site_symmetry_multiplicity
 _atom_site_fract_x
 _atom_site_fract_y
 _atom_site_fract_z
 _atom_site_occupancy
  Gd  Gd0  1  0.05430408  0.25000000  0.98631344  1
  Gd  Gd1  1  0.44569592  0.75000000  0.48631344  1
  Gd  Gd2  1  0.55430408  0.25000000  0.51368656  1
  Gd  Gd3  1  0.94569592  0.75000000  0.01368656  1
  Lu  Lu4  1  0.00000000  0.00000000  0.50000000  1
  Lu  Lu5  1  0.00000000  0.50000000  0.50000000  1
  Lu  Lu6  1  0.50000000  0.00000000  0.00000000  1
  Lu  Lu7  1  0.50000000  0.50000000  0.00000000  1
  O  O8  1  0.06521352  0.75000000  0.63333538  1
  O  O9  1  0.18606332  0.56912445  0.18220396  1
  O  O10  1  0.18606332  0.93087555  0.18220396  1
  O  O11  1  0.31393668  0.06912445  0.68220396  1
  O  O12  1  0.31393668  0.43087555  0.68220396  1
  O  O13  1  0.43478648  0.25000000  0.13333538  1
  O  O14  1  0.56521352  0.75000000  0.86666462  1
  O  O15  1  0.68606332  0.93087555  0.31779604  1
  O  O16  1  0.68606332  0.56912445  0.31779604  1
  O  O17  1  0.81393668  0.06912445  0.81779604  1
  O  O18  1  0.81393668  0.43087555  0.81779604  1
  O  O19  1  0.93478648  0.25000000  0.36666462  1
