# generated using pymatgen
data_Ti3O4
_symmetry_space_group_name_H-M   'P 1'
_cell_length_a   5.04541562
_cell_length_b   5.88653940
_cell_length_c   5.90484847
_cell_angle_alpha   120.14306245
_cell_angle_beta   125.77592768
_cell_angle_gamma   105.69977638
_symmetry_Int_Tables_number   1
_chemical_formula_structural   Ti3O4
_chemical_formula_sum   'Ti3 O4'
_cell_volume   73.14513992
_cell_formula_units_Z   1
loop_
 _symmetry_equiv_pos_site_id
 _symmetry_equiv_pos_as_xyz
  1  'x, y, z'
loop_
 _atom_site_type_symbol
 _atom_site_label
 _atom_site_symmetry_multiplicity
 _atom_site_fract_x
 _atom_site_fract_y
 _atom_site_fract_z
 _atom_site_occupancy
  Ti  Ti0  1  0.99997254  0.49997563  0.49996854  1
  Ti  Ti1  1  0.99959589  0.99974389  0.99967871  1
  Ti  Ti2  1  0.99958894  0.99973752  0.49959769  1
  O  O3  1  0.50024600  0.00019620  0.23564486  1
  O  O4  1  0.51424689  0.49990565  0.75712641  1
  O  O5  1  0.49959411  -0.00027817  0.76421931  1
  O  O6  1  0.48552462  0.49988528  0.24262447  1
