# generated using pymatgen
data_BaNa4O3
_symmetry_space_group_name_H-M   'P 1'
_cell_length_a   5.79702964
_cell_length_b   7.18188278
_cell_length_c   8.27773494
_cell_angle_alpha   72.75855917
_cell_angle_beta   90.00000001
_cell_angle_gamma   66.19738959
_symmetry_Int_Tables_number   1
_chemical_formula_structural   BaNa4O3
_chemical_formula_sum   'Ba2 Na8 O6'
_cell_volume   298.31366046
_cell_formula_units_Z   2
loop_
 _symmetry_equiv_pos_site_id
 _symmetry_equiv_pos_as_xyz
  1  'x, y, z'
loop_
 _atom_site_type_symbol
 _atom_site_label
 _atom_site_symmetry_multiplicity
 _atom_site_fract_x
 _atom_site_fract_y
 _atom_site_fract_z
 _atom_site_occupancy
  Ba  Ba0  1  0.26550032  0.02933323  0.71440326  1
  Ba  Ba1  1  0.70516644  0.02933323  0.21440326  1
  Na  Na2  1  0.95692541  0.73625592  0.94261718  1
  Na  Na3  1  0.30681867  0.73625592  0.44261718  1
  Na  Na4  1  0.87787696  0.61720237  0.60378582  1
  Na  Na5  1  0.50827724  0.39968440  0.83278376  1
  Na  Na6  1  0.50492067  0.61720237  0.10378582  1
  Na  Na7  1  0.09203836  0.39968440  0.33278376  1
  Na  Na8  1  0.66838716  0.31661332  0.49245197  1
  Na  Na9  1  0.01499953  0.31661332  0.99245197  1
  O  O10  1  0.66059590  0.65741466  0.83578588  1
  O  O11  1  0.68199045  0.65741466  0.33578588  1
  O  O12  1  0.29075594  0.39803819  0.59389125  1
  O  O13  1  0.93149112  0.06033891  0.93665087  1
  O  O14  1  0.31120587  0.39803819  0.09389125  1
  O  O15  1  0.00816997  0.06033891  0.43665087  1
