# generated using pymatgen
data_Li2AgF5
_symmetry_space_group_name_H-M   'P 1'
_cell_length_a   4.47297194
_cell_length_b   5.59822320
_cell_length_c   9.76911529
_cell_angle_alpha   89.98222074
_cell_angle_beta   90.00016283
_cell_angle_gamma   113.53732752
_symmetry_Int_Tables_number   1
_chemical_formula_structural   Li2AgF5
_chemical_formula_sum   'Li4 Ag2 F10'
_cell_volume   224.27261406
_cell_formula_units_Z   2
loop_
 _symmetry_equiv_pos_site_id
 _symmetry_equiv_pos_as_xyz
  1  'x, y, z'
loop_
 _atom_site_type_symbol
 _atom_site_label
 _atom_site_symmetry_multiplicity
 _atom_site_fract_x
 _atom_site_fract_y
 _atom_site_fract_z
 _atom_site_occupancy
  Li  Li0  1  0.13864920  0.27861810  0.92041060  1
  Li  Li1  1  0.13862785  0.27856325  0.57962410  1
  Li  Li2  1  0.86102031  0.72121622  0.42042216  1
  Li  Li3  1  0.86098620  0.72116602  0.07953952  1
  Ag  Ag4  1  0.19034873  0.38112804  0.24997400  1
  Ag  Ag5  1  0.80975928  0.61891722  0.75001647  1
  F  F6  1  0.31426715  0.63053971  0.40991151  1
  F  F7  1  0.31427381  0.63059031  0.09000066  1
  F  F8  1  0.05748898  0.11302431  0.39429275  1
  F  F9  1  0.05752715  0.11314348  0.10578480  1
  F  F10  1  0.21969452  0.43820804  0.75000091  1
  F  F11  1  0.78035265  0.56171790  0.24999614  1
  F  F12  1  0.94255499  0.88698611  0.89422607  1
  F  F13  1  0.94257041  0.88699058  0.60571950  1
  F  F14  1  0.68594881  0.36958806  0.59001858  1
  F  F15  1  0.68592895  0.36960466  0.91006023  1
