# generated using pymatgen
data_MgAs
_symmetry_space_group_name_H-M   'P 1'
_cell_length_a   5.11088365
_cell_length_b   5.11170707
_cell_length_c   5.05541584
_cell_angle_alpha   86.69752512
_cell_angle_beta   93.29512613
_cell_angle_gamma   94.03478573
_symmetry_Int_Tables_number   1
_chemical_formula_structural   MgAs
_chemical_formula_sum   'Mg3 As3'
_cell_volume   131.33891540
_cell_formula_units_Z   3
loop_
 _symmetry_equiv_pos_site_id
 _symmetry_equiv_pos_as_xyz
  1  'x, y, z'
loop_
 _atom_site_type_symbol
 _atom_site_label
 _atom_site_symmetry_multiplicity
 _atom_site_fract_x
 _atom_site_fract_y
 _atom_site_fract_z
 _atom_site_occupancy
  Mg  Mg0  1  0.63717462  0.33534348  0.13406065  1
  Mg  Mg1  1  0.36193965  0.69522353  0.50001147  1
  Mg  Mg2  1  0.00202673  0.97047861  0.86600137  1
  As  As3  1  0.50070329  0.83398172  -0.00000819  1
  As  As4  1  0.13565970  0.19590311  0.36592471  1
  As  As5  1  0.86249101  0.46906955  0.63401099  1
