# generated using pymatgen
data_Li3Sn(PO4)2
_symmetry_space_group_name_H-M   'P 1'
_cell_length_a   8.51901244
_cell_length_b   8.51898722
_cell_length_c   7.70899437
_cell_angle_alpha   90.00154271
_cell_angle_beta   90.00247012
_cell_angle_gamma   120.00000208
_symmetry_Int_Tables_number   1
_chemical_formula_structural   Li3Sn(PO4)2
_chemical_formula_sum   'Li9 Sn3 P6 O24'
_cell_volume   484.51315110
_cell_formula_units_Z   3
loop_
 _symmetry_equiv_pos_site_id
 _symmetry_equiv_pos_as_xyz
  1  'x, y, z'
loop_
 _atom_site_type_symbol
 _atom_site_label
 _atom_site_symmetry_multiplicity
 _atom_site_fract_x
 _atom_site_fract_y
 _atom_site_fract_z
 _atom_site_occupancy
  Li  Li0  1  0.35049931  0.00808658  0.64032061  1
  Li  Li1  1  0.99192738  0.34236371  0.64043611  1
  Li  Li2  1  0.99998864  0.99997231  0.60123180  1
  Li  Li3  1  0.33328718  0.66663710  0.52904730  1
  Li  Li4  1  0.30690338  0.34844148  0.35473332  1
  Li  Li5  1  0.65760186  0.64955281  0.64039265  1
  Li  Li6  1  0.66670768  0.33337640  0.49918195  1
  Li  Li7  1  0.04153592  0.69312556  0.35475574  1
  Li  Li8  1  0.65155135  0.95845348  0.35473526  1
  Sn  Sn9  1  0.00000442  0.00001231  0.05004553  1
  Sn  Sn10  1  0.33331934  0.66666334  0.02737760  1
  Sn  Sn11  1  0.66667280  0.33334016  0.94642107  1
  P  P12  1  0.02151126  0.68527270  0.74753836  1
  P  P13  1  0.31473018  0.33620032  0.74747231  1
  P  P14  1  0.66375878  0.97849262  0.74750481  1
  P  P15  1  0.37024753  0.03775102  0.24525169  1
  P  P16  1  0.66751169  0.62980184  0.24527148  1
  P  P17  1  0.96229118  0.33248579  0.24532824  1
  O  O18  1  0.15955596  0.93909021  0.25454557  1
  O  O19  1  0.14359217  0.70939758  0.58802288  1
  O  O20  1  0.14409301  0.76855691  0.90863008  1
  O  O21  1  0.43200810  0.89445927  0.21841321  1
  O  O22  1  0.10557038  0.53756750  0.21853479  1
  O  O23  1  0.06094170  0.22047333  0.25454563  1
  O  O24  1  0.62446934  0.85588500  0.90858697  1
  O  O25  1  0.22791336  0.13340560  0.70871866  1
  O  O26  1  0.23140103  0.37543392  0.90857472  1
  O  O27  1  0.29062238  0.43419603  0.58799469  1
  O  O28  1  0.56574040  0.85638629  0.58799399  1
  O  O29  1  0.46246217  0.56801021  0.21848534  1
  O  O30  1  0.52773428  0.41713163  0.77496813  1
  O  O31  1  0.44852847  0.13685336  0.41614669  1
  O  O32  1  0.68842360  0.55159358  0.41619718  1
  O  O33  1  0.74468755  0.56729189  0.09140671  1
  O  O34  1  0.77954779  0.84048913  0.25453011  1
  O  O35  1  0.43271196  0.17742512  0.09138982  1
  O  O36  1  0.90554365  0.77210988  0.70881566  1
  O  O37  1  0.88942227  0.47227091  0.77499660  1
  O  O38  1  0.58285334  0.11058077  0.77500378  1
  O  O39  1  0.82260372  0.25532958  0.09144443  1
  O  O40  1  0.86320109  0.31162493  0.41623126  1
  O  O41  1  0.86652538  0.09440682  0.70877727  1
