# generated using pymatgen
data_Li10Cu(SiO5)2
_symmetry_space_group_name_H-M   'P 1'
_cell_length_a   6.13558348
_cell_length_b   15.48472604
_cell_length_c   5.21033621
_cell_angle_alpha   80.00395985
_cell_angle_beta   90.00000003
_cell_angle_gamma   78.57311461
_symmetry_Int_Tables_number   1
_chemical_formula_structural   Li10Cu(SiO5)2
_chemical_formula_sum   'Li20 Cu2 Si4 O20'
_cell_volume   477.54160291
_cell_formula_units_Z   2
loop_
 _symmetry_equiv_pos_site_id
 _symmetry_equiv_pos_as_xyz
  1  'x, y, z'
loop_
 _atom_site_type_symbol
 _atom_site_label
 _atom_site_symmetry_multiplicity
 _atom_site_fract_x
 _atom_site_fract_y
 _atom_site_fract_z
 _atom_site_occupancy
  Li  Li0  1  0.50950532  0.98098836  0.74846984  1
  Li  Li1  1  0.36537112  0.86258839  0.23950950  1
  Li  Li2  1  0.77204049  0.86258839  0.23950950  1
  Li  Li3  1  0.13138067  0.73723867  0.48850516  1
  Li  Li4  1  0.34733350  0.73730046  0.01716479  1
  Li  Li5  1  0.91536604  0.73730046  0.01716479  1
  Li  Li6  1  0.67521075  0.64957950  0.42215607  1
  Li  Li7  1  0.43813008  0.60979045  0.78717986  1
  Li  Li8  1  0.95207847  0.60979045  0.78717986  1
  Li  Li9  1  0.73019089  0.53961922  0.13783048  1
  Li  Li10  1  0.26980911  0.46038078  0.86216952  1
  Li  Li11  1  0.56186992  0.39020955  0.21282014  1
  Li  Li12  1  0.04792153  0.39020955  0.21282014  1
  Li  Li13  1  0.32478925  0.35042050  0.57784393  1
  Li  Li14  1  0.08463396  0.26269954  0.98283521  1
  Li  Li15  1  0.65266650  0.26269954  0.98283521  1
  Li  Li16  1  0.86861933  0.26276133  0.51149484  1
  Li  Li17  1  0.63462888  0.13741161  0.76049050  1
  Li  Li18  1  0.22795951  0.13741161  0.76049050  1
  Li  Li19  1  0.49049468  0.01901164  0.25153016  1
  Cu  Cu20  1  0.03694911  0.92610078  0.96556743  1
  Cu  Cu21  1  0.96305089  0.07389922  0.03443257  1
  Si  Si22  1  0.59995107  0.80009785  0.69014592  1
  Si  Si23  1  0.21853441  0.56293117  0.30556200  1
  Si  Si24  1  0.78146559  0.43706883  0.69443800  1
  Si  Si25  1  0.40004893  0.19990215  0.30985408  1
  O  O26  1  0.55085673  0.89828753  0.49387862  1
  O  O27  1  0.09496420  0.81007059  0.14106980  1
  O  O28  1  0.59464823  0.81070254  0.00209258  1
  O  O29  1  0.41356008  0.74138500  0.63377875  1
  O  O30  1  0.84505493  0.74138500  0.63377875  1
  O  O31  1  0.41889115  0.61327495  0.16781259  1
  O  O32  1  0.96783390  0.61327495  0.16781259  1
  O  O33  1  0.21345116  0.57309869  0.61502655  1
  O  O34  1  0.72866401  0.54267097  0.73821926  1
  O  O35  1  0.27133599  0.45732903  0.26178074  1
  O  O36  1  0.78654884  0.42690131  0.38497345  1
  O  O37  1  0.03216610  0.38672505  0.83218741  1
  O  O38  1  0.58110885  0.38672505  0.83218741  1
  O  O39  1  0.15494507  0.25861500  0.36622125  1
  O  O40  1  0.58643992  0.25861500  0.36622125  1
  O  O41  1  0.40535177  0.18929746  -0.00209258  1
  O  O42  1  0.90503580  0.18992941  0.85893020  1
  O  O43  1  0.44914327  0.10171247  0.50612138  1
  O  O44  1  0.24635201  0.00000000  1.00000000  1
  O  O45  1  0.75364799  1.00000000  0.00000000  1
