# generated using pymatgen
data_Zr2Bi2O7
_symmetry_space_group_name_H-M   'P 1'
_cell_length_a   7.65539799
_cell_length_b   7.65539887
_cell_length_c   7.65539861
_cell_angle_alpha   89.99999717
_cell_angle_beta   59.99999832
_cell_angle_gamma   59.99999944
_symmetry_Int_Tables_number   1
_chemical_formula_structural   Zr2Bi2O7
_chemical_formula_sum   'Zr4 Bi4 O14'
_cell_volume   317.24033860
_cell_formula_units_Z   2
loop_
 _symmetry_equiv_pos_site_id
 _symmetry_equiv_pos_as_xyz
  1  'x, y, z'
loop_
 _atom_site_type_symbol
 _atom_site_label
 _atom_site_symmetry_multiplicity
 _atom_site_fract_x
 _atom_site_fract_y
 _atom_site_fract_z
 _atom_site_occupancy
  Zr  Zr0  1  0.75000000  0.62500000  0.87500000  1
  Zr  Zr1  1  0.75000000  0.62500000  0.37500000  1
  Zr  Zr2  1  0.25000000  0.62500000  0.37500000  1
  Zr  Zr3  1  0.25000000  0.12500000  0.37500000  1
  Bi  Bi4  1  0.75000000  0.12500000  0.87500000  1
  Bi  Bi5  1  0.25000000  0.62500000  0.87500000  1
  Bi  Bi6  1  0.75000000  0.12500000  0.37500000  1
  Bi  Bi7  1  0.25000000  0.12500000  0.87500000  1
  O  O8  1  0.58123527  0.70938187  0.70938187  1
  O  O9  1  0.91876473  0.54061813  0.04061813  1
  O  O10  1  0.50000000  0.95938187  0.45938187  1
  O  O11  1  0.50000000  0.95938187  0.04061813  1
  O  O12  1  0.50000000  0.25000000  0.75000000  1
  O  O13  1  0.50000000  0.54061813  0.45938187  1
  O  O14  1  0.08123627  0.95938187  0.45938187  1
  O  O15  1  0.50000000  0.54061813  0.04061813  1
  O  O16  1  0.41876473  0.29061813  0.29061813  1
  O  O17  1  0.00000000  0.70938187  0.70938187  1
  O  O18  1  1.00000000  0.29061813  0.70938187  1
  O  O19  1  0.00000000  0.70938187  0.29061813  1
  O  O20  1  1.00000000  0.29061813  0.29061813  1
  O  O21  1  0.00000000  0.00000000  0.00000000  1
