# generated using pymatgen
data_Li3CuF6
_symmetry_space_group_name_H-M   'P 1'
_cell_length_a   5.19393489
_cell_length_b   9.17056245
_cell_length_c   17.29713798
_cell_angle_alpha   90.00000000
_cell_angle_beta   90.00000000
_cell_angle_gamma   90.00000000
_symmetry_Int_Tables_number   1
_chemical_formula_structural   Li3CuF6
_chemical_formula_sum   'Li24 Cu8 F48'
_cell_volume   823.88524213
_cell_formula_units_Z   8
loop_
 _symmetry_equiv_pos_site_id
 _symmetry_equiv_pos_as_xyz
  1  'x, y, z'
loop_
 _atom_site_type_symbol
 _atom_site_label
 _atom_site_symmetry_multiplicity
 _atom_site_fract_x
 _atom_site_fract_y
 _atom_site_fract_z
 _atom_site_occupancy
  Li  Li0  1  0.19774002  0.74812053  0.17005030  1
  Li  Li1  1  0.19774002  0.74812053  0.32994970  1
  Li  Li2  1  0.19774002  0.75187947  0.67005030  1
  Li  Li3  1  0.19774002  0.75187947  0.82994970  1
  Li  Li4  1  0.21290634  0.44338522  0.07296509  1
  Li  Li5  1  0.21290634  0.05661478  0.92703491  1
  Li  Li6  1  0.21290634  0.44338522  0.42703491  1
  Li  Li7  1  0.21290634  0.05661478  0.57296509  1
  Li  Li8  1  0.29254682  0.07688042  0.37106639  1
  Li  Li9  1  0.29254682  0.07688042  0.12893361  1
  Li  Li10  1  0.29254682  0.42311958  0.62893361  1
  Li  Li11  1  0.29254682  0.42311958  0.87106639  1
  Li  Li12  1  0.70745318  0.57688042  0.12893361  1
  Li  Li13  1  0.70745318  0.57688042  0.37106639  1
  Li  Li14  1  0.70745318  0.92311958  0.87106639  1
  Li  Li15  1  0.70745318  0.92311958  0.62893361  1
  Li  Li16  1  0.78709366  0.55661478  0.92703491  1
  Li  Li17  1  0.78709366  0.55661478  0.57296509  1
  Li  Li18  1  0.78709366  0.94338522  0.07296509  1
  Li  Li19  1  0.78709366  0.94338522  0.42703491  1
  Li  Li20  1  0.80225998  0.24812053  0.17005030  1
  Li  Li21  1  0.80225998  0.24812053  0.32994970  1
  Li  Li22  1  0.80225998  0.25187947  0.82994970  1
  Li  Li23  1  0.80225998  0.25187947  0.67005030  1
  Cu  Cu24  1  0.19372235  0.75000000  0.00000000  1
  Cu  Cu25  1  0.19372235  0.75000000  0.50000000  1
  Cu  Cu26  1  0.26110021  0.44516447  0.25000000  1
  Cu  Cu27  1  0.26110021  0.05483553  0.75000000  1
  Cu  Cu28  1  0.73889979  0.94516447  0.25000000  1
  Cu  Cu29  1  0.73889979  0.55483553  0.75000000  1
  Cu  Cu30  1  0.80627765  0.25000000  0.00000000  1
  Cu  Cu31  1  0.80627765  0.25000000  0.50000000  1
  F  F32  1  0.02982580  0.49745008  0.16787231  1
  F  F33  1  0.02982580  0.49745008  0.33212769  1
  F  F34  1  0.02982580  0.00254992  0.66787231  1
  F  F35  1  0.02982580  0.00254992  0.83212769  1
  F  F36  1  0.07308474  0.23836330  0.07768904  1
  F  F37  1  0.07308474  0.23836330  0.42231096  1
  F  F38  1  0.07308474  0.26163670  0.57768904  1
  F  F39  1  0.07308474  0.26163670  0.92231096  1
  F  F40  1  0.08937345  0.26000114  0.25000000  1
  F  F41  1  0.08937345  0.23999886  0.75000000  1
  F  F42  1  0.21510767  0.95203470  0.03059375  1
  F  F43  1  0.21510767  0.54796530  0.53059375  1
  F  F44  1  0.21510767  0.95203470  0.46940625  1
  F  F45  1  0.21510767  0.54796530  0.96940625  1
  F  F46  1  0.39135392  0.64001805  0.25000000  1
  F  F47  1  0.39135392  0.85998195  0.75000000  1
  F  F48  1  0.40842751  0.67662470  0.08210804  1
  F  F49  1  0.40842751  0.67662470  0.41789196  1
  F  F50  1  0.40842751  0.82337530  0.58210804  1
  F  F51  1  0.40842751  0.82337530  0.91789196  1
  F  F52  1  0.49732397  0.90516544  0.16869654  1
  F  F53  1  0.49732397  0.90516544  0.33130346  1
  F  F54  1  0.49732397  0.59483456  0.83130346  1
  F  F55  1  0.49732397  0.59483456  0.66869654  1
  F  F56  1  0.50267603  0.09483456  0.83130346  1
  F  F57  1  0.50267603  0.40516544  0.16869654  1
  F  F58  1  0.50267603  0.09483456  0.66869654  1
  F  F59  1  0.50267603  0.40516544  0.33130346  1
  F  F60  1  0.59157249  0.17662470  0.08210804  1
  F  F61  1  0.59157249  0.17662470  0.41789196  1
  F  F62  1  0.59157249  0.32337530  0.58210804  1
  F  F63  1  0.59157249  0.32337530  0.91789196  1
  F  F64  1  0.60864608  0.35998195  0.75000000  1
  F  F65  1  0.60864608  0.14001805  0.25000000  1
  F  F66  1  0.78489233  0.45203470  0.03059375  1
  F  F67  1  0.78489233  0.04796530  0.53059375  1
  F  F68  1  0.78489233  0.04796530  0.96940625  1
  F  F69  1  0.78489233  0.45203470  0.46940625  1
  F  F70  1  0.91062655  0.76000114  0.25000000  1
  F  F71  1  0.91062655  0.73999886  0.75000000  1
  F  F72  1  0.92691526  0.73836330  0.07768904  1
  F  F73  1  0.92691526  0.76163670  0.92231096  1
  F  F74  1  0.92691526  0.73836330  0.42231096  1
  F  F75  1  0.92691526  0.76163670  0.57768904  1
  F  F76  1  0.97017420  0.50254992  0.66787231  1
  F  F77  1  0.97017420  0.50254992  0.83212769  1
  F  F78  1  0.97017420  0.99745008  0.16787231  1
  F  F79  1  0.97017420  0.99745008  0.33212769  1
