# generated using pymatgen
data_TaAlO4
_symmetry_space_group_name_H-M   'P 1'
_cell_length_a   5.50194449
_cell_length_b   5.50194449
_cell_length_c   5.50194449
_cell_angle_alpha   72.89611071
_cell_angle_beta   107.10388929
_cell_angle_gamma   65.68269623
_symmetry_Int_Tables_number   1
_chemical_formula_structural   TaAlO4
_chemical_formula_sum   'Ta2 Al2 O8'
_cell_volume   127.51754556
_cell_formula_units_Z   2
loop_
 _symmetry_equiv_pos_site_id
 _symmetry_equiv_pos_as_xyz
  1  'x, y, z'
loop_
 _atom_site_type_symbol
 _atom_site_label
 _atom_site_symmetry_multiplicity
 _atom_site_fract_x
 _atom_site_fract_y
 _atom_site_fract_z
 _atom_site_occupancy
  Ta  Ta0  1  0.26173319  0.23826681  0.50000000  1
  Ta  Ta1  1  0.01173319  0.98826681  0.00000000  1
  Al  Al2  1  0.75138453  0.74861547  0.50000000  1
  Al  Al3  1  0.50138453  0.49861547  0.00000000  1
  O  O4  1  0.54665869  0.25974057  0.80639926  1
  O  O5  1  0.05360745  0.74681879  0.80042524  1
  O  O6  1  0.99025943  0.31613983  0.69360074  1
  O  O7  1  0.50318121  0.79724403  0.69957476  1
  O  O8  1  0.99025943  0.70334131  0.30639926  1
  O  O9  1  0.50318121  0.19639255  0.30042524  1
  O  O10  1  0.45275597  0.74681879  0.19957476  1
  O  O11  1  0.93386017  0.25974057  0.19360074  1
