# generated using pymatgen
data_Li2CuPO4
_symmetry_space_group_name_H-M   'P 1'
_cell_length_a   6.25441694
_cell_length_b   10.66922875
_cell_length_c   5.07807624
_cell_angle_alpha   90.00000990
_cell_angle_beta   89.99994834
_cell_angle_gamma   90.00003683
_symmetry_Int_Tables_number   1
_chemical_formula_structural   Li2CuPO4
_chemical_formula_sum   'Li8 Cu4 P4 O16'
_cell_volume   338.85903743
_cell_formula_units_Z   4
loop_
 _symmetry_equiv_pos_site_id
 _symmetry_equiv_pos_as_xyz
  1  'x, y, z'
loop_
 _atom_site_type_symbol
 _atom_site_label
 _atom_site_symmetry_multiplicity
 _atom_site_fract_x
 _atom_site_fract_y
 _atom_site_fract_z
 _atom_site_occupancy
  Li  Li0  1  0.99671034  0.40685712  0.17685212  1
  Li  Li1  1  0.99671073  0.90685700  0.32314830  1
  Li  Li2  1  0.50328974  0.90685706  0.32314793  1
  Li  Li3  1  0.50328982  0.40685704  0.17685133  1
  Li  Li4  1  0.49671072  0.09314253  0.67685164  1
  Li  Li5  1  0.49671059  0.59314250  0.82314831  1
  Li  Li6  1  0.00328957  0.59314249  0.82314756  1
  Li  Li7  1  0.00328959  0.09314229  0.67685139  1
  Cu  Cu8  1  0.24999931  0.16124864  0.16838038  1
  Cu  Cu9  1  0.24999844  0.66123978  0.33162034  1
  Cu  Cu10  1  0.74999833  0.33875540  0.66838265  1
  Cu  Cu11  1  0.74999985  0.83876096  0.83162061  1
  P  P12  1  0.24999997  0.34284111  0.67002625  1
  P  P13  1  0.25000046  0.84284083  0.82997438  1
  P  P14  1  0.75000008  0.65715880  0.32997454  1
  P  P15  1  0.75000011  0.15715860  0.17002577  1
  O  O16  1  0.04741198  0.40932418  0.78515769  1
  O  O17  1  0.04741200  0.90932435  0.71484410  1
  O  O18  1  0.24999984  0.35150183  0.36502208  1
  O  O19  1  0.25000057  0.70189210  0.74420248  1
  O  O20  1  0.25000039  0.20189226  0.75579596  1
  O  O21  1  0.25000047  0.85150095  0.13497726  1
  O  O22  1  0.45258885  0.90932496  0.71484398  1
  O  O23  1  0.45258866  0.40932430  0.78515564  1
  O  O24  1  0.54741157  0.09067534  0.28515538  1
  O  O25  1  0.54741122  0.59067497  0.21484321  1
  O  O26  1  0.74999992  0.64849841  0.63497725  1
  O  O27  1  0.75000057  0.14849893  0.86502123  1
  O  O28  1  0.74999994  0.29810766  0.25579678  1
  O  O29  1  0.74999999  0.79810747  0.24420311  1
  O  O30  1  0.95258815  0.59067508  0.21484400  1
  O  O31  1  0.95258823  0.09067508  0.28515636  1
