# generated using pymatgen
data_Li3Sb2(PO4)3
_symmetry_space_group_name_H-M   'P 1'
_cell_length_a   9.65760462
_cell_length_b   9.65760468
_cell_length_c   9.65760551
_cell_angle_alpha   54.79852470
_cell_angle_beta   54.79852227
_cell_angle_gamma   54.79852039
_symmetry_Int_Tables_number   1
_chemical_formula_structural   Li3Sb2(PO4)3
_chemical_formula_sum   'Li6 Sb4 P6 O24'
_cell_volume   559.78612690
_cell_formula_units_Z   2
loop_
 _symmetry_equiv_pos_site_id
 _symmetry_equiv_pos_as_xyz
  1  'x, y, z'
loop_
 _atom_site_type_symbol
 _atom_site_label
 _atom_site_symmetry_multiplicity
 _atom_site_fract_x
 _atom_site_fract_y
 _atom_site_fract_z
 _atom_site_occupancy
  Li  Li0  1  0.06715101  0.33011101  0.74289842  1
  Li  Li1  1  0.33011101  0.74289842  0.06715101  1
  Li  Li2  1  0.74289842  0.06715101  0.33011101  1
  Li  Li3  1  0.25710158  0.93284899  0.66988899  1
  Li  Li4  1  0.66988899  0.25710158  0.93284899  1
  Li  Li5  1  0.93284899  0.66988899  0.25710158  1
  Sb  Sb6  1  0.15688897  0.15688897  0.15688897  1
  Sb  Sb7  1  0.84311103  0.84311103  0.84311103  1
  Sb  Sb8  1  0.34882763  0.34882763  0.34882763  1
  Sb  Sb9  1  0.65117237  0.65117237  0.65117237  1
  P  P10  1  0.04698900  0.74167053  0.44751857  1
  P  P11  1  0.44751857  0.04698900  0.74167053  1
  P  P12  1  0.74167053  0.44751857  0.04698900  1
  P  P13  1  0.25832947  0.55248143  0.95301100  1
  P  P14  1  0.55248143  0.95301100  0.25832947  1
  P  P15  1  0.95301100  0.25832947  0.55248143  1
  O  O16  1  0.12930565  0.20177541  0.57718041  1
  O  O17  1  0.20177541  0.57718041  0.12930565  1
  O  O18  1  0.57718041  0.12930565  0.20177541  1
  O  O19  1  0.14099514  0.52845383  0.51332573  1
  O  O20  1  0.17395098  0.83143988  0.26354087  1
  O  O21  1  0.99015016  0.80483377  0.59427996  1
  O  O22  1  0.26354087  0.17395098  0.83143988  1
  O  O23  1  0.51332573  0.14099514  0.52845383  1
  O  O24  1  0.52845383  0.51332573  0.14099514  1
  O  O25  1  0.19516623  0.40572004  0.00984984  1
  O  O26  1  0.16856012  0.73645913  0.82604902  1
  O  O27  1  0.40572004  0.00984984  0.19516623  1
  O  O28  1  0.59427996  0.99015016  0.80483377  1
  O  O29  1  0.83143988  0.26354087  0.17395098  1
  O  O30  1  0.80483377  0.59427996  0.99015016  1
  O  O31  1  0.47154617  0.48667427  0.85900486  1
  O  O32  1  0.48667427  0.85900486  0.47154617  1
  O  O33  1  0.73645913  0.82604902  0.16856012  1
  O  O34  1  0.00984984  0.19516623  0.40572004  1
  O  O35  1  0.82604902  0.16856012  0.73645913  1
  O  O36  1  0.85900486  0.47154617  0.48667427  1
  O  O37  1  0.42281959  0.87069435  0.79822459  1
  O  O38  1  0.79822459  0.42281959  0.87069435  1
  O  O39  1  0.87069435  0.79822459  0.42281959  1
