# generated using pymatgen
data_LiBiP2O7
_symmetry_space_group_name_H-M   'P 1'
_cell_length_a   7.46118046
_cell_length_b   10.88792296
_cell_length_c   8.66887921
_cell_angle_alpha   90.00000000
_cell_angle_beta   115.75735509
_cell_angle_gamma   90.00000000
_symmetry_Int_Tables_number   1
_chemical_formula_structural   LiBiP2O7
_chemical_formula_sum   'Li4 Bi4 P8 O28'
_cell_volume   634.26092057
_cell_formula_units_Z   4
loop_
 _symmetry_equiv_pos_site_id
 _symmetry_equiv_pos_as_xyz
  1  'x, y, z'
loop_
 _atom_site_type_symbol
 _atom_site_label
 _atom_site_symmetry_multiplicity
 _atom_site_fract_x
 _atom_site_fract_y
 _atom_site_fract_z
 _atom_site_occupancy
  Li  Li0  1  0.15638219  0.15890763  0.59108304  1
  Li  Li1  1  0.15638219  0.34109237  0.09108304  1
  Li  Li2  1  0.84361781  0.65890763  0.90891696  1
  Li  Li3  1  0.84361781  0.84109237  0.40891696  1
  Bi  Bi4  1  0.21535236  0.60319328  0.73086411  1
  Bi  Bi5  1  0.21535236  0.89680672  0.23086411  1
  Bi  Bi6  1  0.78464764  0.10319328  0.76913589  1
  Bi  Bi7  1  0.78464764  0.39680672  0.26913589  1
  P  P8  1  0.13095303  0.90741675  0.77827079  1
  P  P9  1  0.13095303  0.59258325  0.27827079  1
  P  P10  1  0.47441848  0.84173338  0.71538839  1
  P  P11  1  0.52558152  0.34173338  0.78461161  1
  P  P12  1  0.47441848  0.65826662  0.21538839  1
  P  P13  1  0.52558152  0.15826662  0.28461161  1
  P  P14  1  0.86904697  0.40741675  0.72172921  1
  P  P15  1  0.86904697  0.09258325  0.22172921  1
  O  O16  1  0.06363558  0.03558982  0.69980039  1
  O  O17  1  0.02538747  0.80236998  0.65144331  1
  O  O18  1  0.06363558  0.46441018  0.19980039  1
  O  O19  1  0.10312252  0.60507360  0.44163500  1
  O  O20  1  0.02538747  0.69763002  0.15144331  1
  O  O21  1  0.36698933  0.89485595  0.83198734  1
  O  O22  1  0.32703371  0.40954732  0.72016882  1
  O  O23  1  0.10312252  0.89492640  0.94163500  1
  O  O24  1  0.33444204  0.86499190  0.52951713  1
  O  O25  1  0.51461845  0.70372712  0.76562758  1
  O  O26  1  0.36698933  0.60514405  0.33198734  1
  O  O27  1  0.32703371  0.09045268  0.22016882  1
  O  O28  1  0.48538155  0.20372712  0.73437242  1
  O  O29  1  0.33444204  0.63500810  0.02951713  1
  O  O30  1  0.66555796  0.36499190  0.97048287  1
  O  O31  1  0.51461845  0.79627288  0.26562758  1
  O  O32  1  0.67296629  0.90954732  0.77983118  1
  O  O33  1  0.63301067  0.39485595  0.66801266  1
  O  O34  1  0.48538155  0.29627288  0.23437242  1
  O  O35  1  0.66555796  0.13500810  0.47048287  1
  O  O36  1  0.89687748  0.10507360  0.05836500  1
  O  O37  1  0.67296629  0.59045268  0.27983118  1
  O  O38  1  0.63301067  0.10514405  0.16801266  1
  O  O39  1  0.97461253  0.30236998  0.84855669  1
  O  O40  1  0.89687748  0.39492640  0.55836500  1
  O  O41  1  0.93636442  0.53558982  0.80019961  1
  O  O42  1  0.97461253  0.19763002  0.34855669  1
  O  O43  1  0.93636442  0.96441018  0.30019961  1
