# generated using pymatgen
data_LiCuPO4
_symmetry_space_group_name_H-M   'P 1'
_cell_length_a   10.11209676
_cell_length_b   6.83575809
_cell_length_c   5.05945897
_cell_angle_alpha   89.99589590
_cell_angle_beta   89.99803492
_cell_angle_gamma   90.00566803
_symmetry_Int_Tables_number   1
_chemical_formula_structural   LiCuPO4
_chemical_formula_sum   'Li4 Cu4 P4 O16'
_cell_volume   349.72926666
_cell_formula_units_Z   4
loop_
 _symmetry_equiv_pos_site_id
 _symmetry_equiv_pos_as_xyz
  1  'x, y, z'
loop_
 _atom_site_type_symbol
 _atom_site_label
 _atom_site_symmetry_multiplicity
 _atom_site_fract_x
 _atom_site_fract_y
 _atom_site_fract_z
 _atom_site_occupancy
  Li  Li0  1  0.14702672  0.51200797  0.24241938  1
  Li  Li1  1  0.35286775  0.01199569  0.74248218  1
  Li  Li2  1  0.64708350  0.98799493  0.24243535  1
  Li  Li3  1  0.85292296  0.48798533  0.74244530  1
  Cu  Cu4  1  0.16693645  0.00944291  0.24807156  1
  Cu  Cu5  1  0.33307744  0.50942748  0.74806474  1
  Cu  Cu6  1  0.66695887  0.49058723  0.24803271  1
  Cu  Cu7  1  0.83309956  0.99053855  0.74810441  1
  P  P8  1  0.09441285  0.76684748  0.75088398  1
  P  P9  1  0.40560414  0.26708805  0.25096863  1
  P  P10  1  0.59435813  0.73297515  0.75090949  1
  P  P11  1  0.90557238  0.23307942  0.25092460  1
  O  O12  1  0.05685289  0.24342203  0.19481258  1
  O  O13  1  0.12343963  0.76469937  0.05236817  1
  O  O14  1  0.15326869  0.57846509  0.62386190  1
  O  O15  1  0.16066340  0.95226771  0.63352699  1
  O  O16  1  0.33935902  0.45221580  0.13339618  1
  O  O17  1  0.34677294  0.07839410  0.12370375  1
  O  O18  1  0.37654422  0.26484710  0.55229591  1
  O  O19  1  0.44316710  0.74326633  0.69485912  1
  O  O20  1  0.55685257  0.25663414  0.19484206  1
  O  O21  1  0.62343796  0.73527138  0.05231226  1
  O  O22  1  0.65325730  0.92161644  0.62375051  1
  O  O23  1  0.66064209  0.54777448  0.63352085  1
  O  O24  1  0.83934889  0.04773281  0.13345028  1
  O  O25  1  0.84675266  0.42156189  0.12375363  1
  O  O26  1  0.87655489  0.23520119  0.55236996  1
  O  O27  1  0.94316502  0.75665997  0.69483352  1
