# generated using pymatgen
data_Mn3Sb
_symmetry_space_group_name_H-M   'P 1'
_cell_length_a   5.41410655
_cell_length_b   5.41410529
_cell_length_c   4.34470632
_cell_angle_alpha   90.00000000
_cell_angle_beta   90.00000000
_cell_angle_gamma   120.00000763
_symmetry_Int_Tables_number   1
_chemical_formula_structural   Mn3Sb
_chemical_formula_sum   'Mn6 Sb2'
_cell_volume   110.29212895
_cell_formula_units_Z   2
loop_
 _symmetry_equiv_pos_site_id
 _symmetry_equiv_pos_as_xyz
  1  'x, y, z'
loop_
 _atom_site_type_symbol
 _atom_site_label
 _atom_site_symmetry_multiplicity
 _atom_site_fract_x
 _atom_site_fract_y
 _atom_site_fract_z
 _atom_site_occupancy
  Mn  Mn0  1  0.15295661  0.30591323  0.25000200  1
  Mn  Mn1  1  0.69408677  0.84704239  0.25000200  1
  Mn  Mn2  1  0.15295561  0.84704239  0.25000200  1
  Mn  Mn3  1  0.84704339  0.69408877  0.75000100  1
  Mn  Mn4  1  0.30591223  0.15295561  0.75000100  1
  Mn  Mn5  1  0.84704239  0.15295561  0.75000100  1
  Sb  Sb6  1  0.33333300  0.66666700  0.75000100  1
  Sb  Sb7  1  0.66666600  0.33333100  0.25000200  1
