# generated using pymatgen
data_Sb3O2F5
_symmetry_space_group_name_H-M   'P 1'
_cell_length_a   5.69688000
_cell_length_b   18.52391558
_cell_length_c   6.60417701
_cell_angle_alpha   90.00000000
_cell_angle_beta   90.00000000
_cell_angle_gamma   90.00000000
_symmetry_Int_Tables_number   1
_chemical_formula_structural   Sb3O2F5
_chemical_formula_sum   'Sb12 O8 F20'
_cell_volume   696.92905335
_cell_formula_units_Z   4
loop_
 _symmetry_equiv_pos_site_id
 _symmetry_equiv_pos_as_xyz
  1  'x, y, z'
loop_
 _atom_site_type_symbol
 _atom_site_label
 _atom_site_symmetry_multiplicity
 _atom_site_fract_x
 _atom_site_fract_y
 _atom_site_fract_z
 _atom_site_occupancy
  Sb  Sb0  1  0.11944791  0.60087597  0.53840606  1
  Sb  Sb1  1  0.11944791  0.89912403  0.53840606  1
  Sb  Sb2  1  0.28543534  0.75000000  0.95301783  1
  Sb  Sb3  1  0.21456466  0.25000000  0.45301783  1
  Sb  Sb4  1  0.38055209  0.10087597  0.03840606  1
  Sb  Sb5  1  0.38055209  0.39912403  0.03840606  1
  Sb  Sb6  1  0.61944791  0.89912403  0.96159394  1
  Sb  Sb7  1  0.61944791  0.60087597  0.96159394  1
  Sb  Sb8  1  0.78543534  0.75000000  0.54698217  1
  Sb  Sb9  1  0.71456466  0.25000000  0.04698217  1
  Sb  Sb10  1  0.88055209  0.39912403  0.46159394  1
  Sb  Sb11  1  0.88055209  0.10087597  0.46159394  1
  O  O12  1  0.04394590  0.17396212  0.28247935  1
  O  O13  1  0.04394590  0.32603788  0.28247935  1
  O  O14  1  0.45605410  0.82603788  0.78247935  1
  O  O15  1  0.45605410  0.67396212  0.78247935  1
  O  O16  1  0.54394590  0.17396212  0.21752065  1
  O  O17  1  0.54394590  0.32603788  0.21752065  1
  O  O18  1  0.95605410  0.67396212  0.71752065  1
  O  O19  1  0.95605410  0.82603788  0.71752065  1
  F  F20  1  0.09945847  0.75000000  0.39015973  1
  F  F21  1  0.08860745  0.02781129  0.32322245  1
  F  F22  1  0.08860745  0.47218871  0.32322245  1
  F  F23  1  0.15053541  0.38047959  0.65164518  1
  F  F24  1  0.15053541  0.11952041  0.65164518  1
  F  F25  1  0.34946459  0.88047959  0.15164518  1
  F  F26  1  0.34946459  0.61952041  0.15164518  1
  F  F27  1  0.41139255  0.52781129  0.82322245  1
  F  F28  1  0.41139255  0.97218871  0.82322245  1
  F  F29  1  0.40054153  0.25000000  0.89015973  1
  F  F30  1  0.59945847  0.75000000  0.10984027  1
  F  F31  1  0.58860745  0.02781129  0.17677755  1
  F  F32  1  0.58860745  0.47218871  0.17677755  1
  F  F33  1  0.65053541  0.38047959  0.84835482  1
  F  F34  1  0.65053541  0.11952041  0.84835482  1
  F  F35  1  0.84946459  0.61952041  0.34835482  1
  F  F36  1  0.84946459  0.88047959  0.34835482  1
  F  F37  1  0.91139255  0.97218871  0.67677755  1
  F  F38  1  0.91139255  0.52781129  0.67677755  1
  F  F39  1  0.90054153  0.25000000  0.60984027  1
