# generated using pymatgen
data_CsB10H13C
_symmetry_space_group_name_H-M   'P 1'
_cell_length_a   12.42363353
_cell_length_b   10.78228275
_cell_length_c   8.10194595
_cell_angle_alpha   90.00000000
_cell_angle_beta   93.68889039
_cell_angle_gamma   90.00000000
_symmetry_Int_Tables_number   1
_chemical_formula_structural   CsB10H13C
_chemical_formula_sum   'Cs4 B40 H52 C4'
_cell_volume   1083.04860567
_cell_formula_units_Z   4
loop_
 _symmetry_equiv_pos_site_id
 _symmetry_equiv_pos_as_xyz
  1  'x, y, z'
loop_
 _atom_site_type_symbol
 _atom_site_label
 _atom_site_symmetry_multiplicity
 _atom_site_fract_x
 _atom_site_fract_y
 _atom_site_fract_z
 _atom_site_occupancy
  Cs  Cs0  1  0.01120417  0.25714993  0.15672582  1
  Cs  Cs1  1  0.48879583  0.75714993  0.84327418  1
  Cs  Cs2  1  0.51120417  0.24285007  0.15672582  1
  Cs  Cs3  1  0.98879583  0.74285007  0.84327418  1
  B  B4  1  0.13405791  0.06852786  0.80708318  1
  B  B5  1  0.14280447  0.63588302  0.41254607  1
  B  B6  1  0.13832508  0.56969546  0.21461515  1
  B  B7  1  0.16315222  0.98463729  0.63106735  1
  B  B8  1  0.17649577  0.22523433  0.76963817  1
  B  B9  1  0.17473306  0.72687023  0.22313706  1
  B  B10  1  0.19589239  0.48434519  0.38767149  1
  B  B11  1  0.22182302  0.09457415  0.49589552  1
  B  B12  1  0.24960980  0.97350528  0.81172843  1
  B  B13  1  0.25586746  0.12442819  0.90584325  1
  B  B14  1  0.24413254  0.62442819  0.09415675  1
  B  B15  1  0.25039020  0.47350528  0.18827157  1
  B  B16  1  0.27817698  0.59457415  0.50410448  1
  B  B17  1  0.30410761  0.98434519  0.61232851  1
  B  B18  1  0.32526694  0.22687023  0.77686294  1
  B  B19  1  0.32350423  0.72523433  0.23036183  1
  B  B20  1  0.33684778  0.48463729  0.36893265  1
  B  B21  1  0.36167492  0.06969546  0.78538485  1
  B  B22  1  0.35719553  0.13588302  0.58745393  1
  B  B23  1  0.36594209  0.56852886  0.19291782  1
  B  B24  1  0.63405791  0.43147214  0.80708318  1
  B  B25  1  0.64280447  0.86411698  0.41254607  1
  B  B26  1  0.63832508  0.93030454  0.21461515  1
  B  B27  1  0.66315222  0.51536271  0.63106735  1
  B  B28  1  0.67649577  0.27476567  0.76963817  1
  B  B29  1  0.67473306  0.77312977  0.22313706  1
  B  B30  1  0.69589239  0.01565481  0.38767149  1
  B  B31  1  0.72182302  0.40542585  0.49589552  1
  B  B32  1  0.74960980  0.52649472  0.81172843  1
  B  B33  1  0.75586746  0.37557181  0.90584325  1
  B  B34  1  0.74413254  0.87557181  0.09415675  1
  B  B35  1  0.75039020  0.02649472  0.18827157  1
  B  B36  1  0.77817698  0.90542585  0.50410448  1
  B  B37  1  0.80410761  0.51565481  0.61232851  1
  B  B38  1  0.82526694  0.27312977  0.77686294  1
  B  B39  1  0.82350423  0.77476567  0.23036183  1
  B  B40  1  0.83684778  0.01536271  0.36893265  1
  B  B41  1  0.86167492  0.43030454  0.78538485  1
  B  B42  1  0.85719553  0.36411698  0.58745393  1
  B  B43  1  0.86594209  0.93147114  0.19291782  1
  H  H44  1  0.04579752  0.15355090  0.56649316  1
  H  H45  1  0.05354278  0.04988674  0.87724406  1
  H  H46  1  0.06208587  0.64584186  0.48485679  1
  H  H47  1  0.04940006  0.54758385  0.15380168  1
  H  H48  1  0.10476165  0.90571222  0.57258040  1
  H  H49  1  0.12352579  0.30865044  0.81969134  1
  H  H50  1  0.11769606  0.80521041  0.15937467  1
  H  H51  1  0.15197293  0.39696353  0.44596173  1
  H  H52  1  0.20199584  0.08134123  0.34993017  1
  H  H53  1  0.21489183  0.69946850  0.49551001  1
  H  H54  1  0.23399209  0.63404317  0.94612989  1
  H  H55  1  0.24667244  0.78772747  0.31093008  1
  H  H56  1  0.25666692  0.88042347  0.89268037  1
  H  H57  1  0.24333308  0.38042347  0.10731963  1
  H  H58  1  0.25332756  0.28772747  0.68906992  1
  H  H59  1  0.26600791  0.13404317  0.05387011  1
  H  H60  1  0.28510817  0.19946850  0.50448999  1
  H  H61  1  0.29800416  0.58134123  0.65006983  1
  H  H62  1  0.34802707  0.89696353  0.55403827  1
  H  H63  1  0.38230394  0.30521041  0.84062533  1
  H  H64  1  0.37647421  0.80865044  0.18030866  1
  H  H65  1  0.39523835  0.40571222  0.42741960  1
  H  H66  1  0.45059994  0.04758385  0.84619832  1
  H  H67  1  0.43791413  0.14584186  0.51514321  1
  H  H68  1  0.44645722  0.54988674  0.12275594  1
  H  H69  1  0.45420248  0.65355090  0.43350684  1
  H  H70  1  0.54579752  0.34644910  0.56649316  1
  H  H71  1  0.55354278  0.45011326  0.87724406  1
  H  H72  1  0.56208587  0.85415814  0.48485679  1
  H  H73  1  0.54940006  0.95241615  0.15380168  1
  H  H74  1  0.60476165  0.59428778  0.57258040  1
  H  H75  1  0.62352579  0.19134956  0.81969134  1
  H  H76  1  0.61769606  0.69478959  0.15937467  1
  H  H77  1  0.65197293  0.10303647  0.44596173  1
  H  H78  1  0.70199584  0.41865877  0.34993017  1
  H  H79  1  0.71489183  0.80053150  0.49551001  1
  H  H80  1  0.73399209  0.86595683  0.94612989  1
  H  H81  1  0.74667244  0.71227253  0.31093008  1
  H  H82  1  0.75666692  0.61957653  0.89268037  1
  H  H83  1  0.74333308  0.11957653  0.10731963  1
  H  H84  1  0.75332756  0.21227253  0.68906992  1
  H  H85  1  0.76600791  0.36595683  0.05387011  1
  H  H86  1  0.78510817  0.30053150  0.50448999  1
  H  H87  1  0.79800416  0.91865877  0.65006983  1
  H  H88  1  0.84802707  0.60303647  0.55403827  1
  H  H89  1  0.88230394  0.19478959  0.84062533  1
  H  H90  1  0.87647421  0.69134956  0.18030866  1
  H  H91  1  0.89523835  0.09428778  0.42741960  1
  H  H92  1  0.95059994  0.45241615  0.84619832  1
  H  H93  1  0.93791413  0.35415814  0.51514321  1
  H  H94  1  0.94645722  0.95011326  0.12275594  1
  H  H95  1  0.95420248  0.84644910  0.43350684  1
  C  C96  1  0.12691262  0.13467246  0.61892584  1
  C  C97  1  0.37308738  0.63467246  0.38107416  1
  C  C98  1  0.62691262  0.36532754  0.61892584  1
  C  C99  1  0.87308738  0.86532754  0.38107416  1
