# generated using pymatgen
data_LiBi(PO3)4
_symmetry_space_group_name_H-M   'P 1'
_cell_length_a   7.31411741
_cell_length_b   7.31411741
_cell_length_c   10.58125617
_cell_angle_alpha   78.23651232
_cell_angle_beta   101.76348768
_cell_angle_gamma   67.00320862
_symmetry_Int_Tables_number   1
_chemical_formula_structural   LiBi(PO3)4
_chemical_formula_sum   'Li2 Bi2 P8 O24'
_cell_volume   484.22478506
_cell_formula_units_Z   2
loop_
 _symmetry_equiv_pos_site_id
 _symmetry_equiv_pos_as_xyz
  1  'x, y, z'
loop_
 _atom_site_type_symbol
 _atom_site_label
 _atom_site_symmetry_multiplicity
 _atom_site_fract_x
 _atom_site_fract_y
 _atom_site_fract_z
 _atom_site_occupancy
  Li  Li0  1  0.13555541  0.13555541  0.75000000  1
  Li  Li1  1  0.86444459  0.86444459  0.25000000  1
  Bi  Bi2  1  0.87262782  0.87262782  0.75000000  1
  Bi  Bi3  1  0.12737218  0.12737218  0.25000000  1
  P  P4  1  0.24252147  0.68904564  0.54905407  1
  P  P5  1  0.72665889  0.62114598  0.01044310  1
  P  P6  1  0.62114598  0.72665889  0.48955690  1
  P  P7  1  0.31095436  0.75747853  0.04905407  1
  P  P8  1  0.68904564  0.24252147  0.95094593  1
  P  P9  1  0.37885402  0.27334111  0.51044310  1
  P  P10  1  0.27334111  0.37885402  0.98955690  1
  P  P11  1  0.75747853  0.31095436  0.45094593  1
  O  O12  1  0.19030644  0.89528943  0.90335200  1
  O  O13  1  0.06908084  0.50332598  0.87616788  1
  O  O14  1  0.18471658  0.76190752  0.66331321  1
  O  O15  1  0.10471057  0.80969356  0.40335200  1
  O  O16  1  0.70078337  0.80695130  0.90251575  1
  O  O17  1  0.49667402  0.93091916  0.37616788  1
  O  O18  1  0.65789674  0.47902739  0.93566464  1
  O  O19  1  0.28541525  0.44799171  0.58262221  1
  O  O20  1  0.23809248  0.81528342  0.16331321  1
  O  O21  1  0.44799171  0.28541525  0.91737779  1
  O  O22  1  0.47902739  0.65789674  0.56433536  1
  O  O23  1  0.19304870  0.29921663  0.40251575  1
  O  O24  1  0.80695130  0.70078337  0.59748425  1
  O  O25  1  0.52097261  0.34210326  0.43566464  1
  O  O26  1  0.55200829  0.71458475  0.08262221  1
  O  O27  1  0.76190752  0.18471658  0.83668679  1
  O  O28  1  0.71458475  0.55200829  0.41737779  1
  O  O29  1  0.34210326  0.52097261  0.06433536  1
  O  O30  1  0.50332598  0.06908084  0.62383212  1
  O  O31  1  0.29921663  0.19304870  0.09748425  1
  O  O32  1  0.89528943  0.19030644  0.59664800  1
  O  O33  1  0.81528342  0.23809248  0.33668679  1
  O  O34  1  0.93091916  0.49667402  0.12383212  1
  O  O35  1  0.80969356  0.10471057  0.09664800  1
