# generated using pymatgen
data_LiAgF3
_symmetry_space_group_name_H-M   'P 1'
_cell_length_a   9.40636424
_cell_length_b   5.43136316
_cell_length_c   15.23072882
_cell_angle_alpha   89.99303184
_cell_angle_beta   89.99051254
_cell_angle_gamma   30.01078749
_symmetry_Int_Tables_number   1
_chemical_formula_structural   LiAgF3
_chemical_formula_sum   'Li6 Ag6 F18'
_cell_volume   389.19111104
_cell_formula_units_Z   6
loop_
 _symmetry_equiv_pos_site_id
 _symmetry_equiv_pos_as_xyz
  1  'x, y, z'
loop_
 _atom_site_type_symbol
 _atom_site_label
 _atom_site_symmetry_multiplicity
 _atom_site_fract_x
 _atom_site_fract_y
 _atom_site_fract_z
 _atom_site_occupancy
  Li  Li0  1  0.90132627  0.14843305  0.91658147  1
  Li  Li1  1  0.95111417  0.14772797  0.74991623  1
  Li  Li2  1  0.04959676  0.85183163  0.24997391  1
  Li  Li3  1  0.09977329  0.85042906  0.41666495  1
  Li  Li4  1  0.95042602  0.00034844  0.08331215  1
  Li  Li5  1  0.05066817  0.99830604  0.58330979  1
  Ag  Ag6  1  0.29444653  -0.00041837  0.08335404  1
  Ag  Ag7  1  0.41246715  0.88149143  0.41678704  1
  Ag  Ag8  1  0.29452068  0.11751159  0.75008954  1
  Ag  Ag9  1  0.70632288  0.88189670  0.25007222  1
  Ag  Ag10  1  0.70714492  0.99858445  0.58347852  1
  Ag  Ag11  1  0.58856078  0.11730162  0.91673853  1
  F  F12  1  0.00010973  0.23519217  0.16662493  1
  F  F13  1  0.76564378  0.46940290  0.33350334  1
  F  F14  1  0.63303792  0.65153875  0.01024747  1
  F  F15  1  0.08305463  0.20201673  0.48987370  1
  F  F16  1  0.91728062  0.44994393  0.84346958  1
  F  F17  1  0.71601132  0.65140756  0.65660269  1
  F  F18  1  0.28481188  0.34754388  0.15666775  1
  F  F19  1  0.08442092  0.54762420  0.34343671  1
  F  F20  1  0.91791097  0.79725392  0.98989432  1
  F  F21  1  0.36795448  0.34775381  0.51023687  1
  F  F22  1  0.23577153  0.52897557  0.83350425  1
  F  F23  1  0.00104371  0.76360785  0.66667553  1
  F  F24  1  0.71566035  0.20130882  0.17686221  1
  F  F25  1  0.36880787  0.54817847  0.32335957  1
  F  F26  1  0.76531158  0.23436849  0.50005041  1
  F  F27  1  0.23600847  0.76400024  0.00008538  1
  F  F28  1  0.63231912  0.45046745  0.82341522  1
  F  F29  1  0.28532351  0.79795866  0.67665367  1
