# generated using pymatgen
data_FeCo3O8
_symmetry_space_group_name_H-M   'P 1'
_cell_length_a   5.61341472
_cell_length_b   5.61354627
_cell_length_c   8.90631997
_cell_angle_alpha   89.99678544
_cell_angle_beta   90.00499748
_cell_angle_gamma   120.00131848
_symmetry_Int_Tables_number   1
_chemical_formula_structural   FeCo3O8
_chemical_formula_sum   'Fe2 Co6 O16'
_cell_volume   243.04550241
_cell_formula_units_Z   2
loop_
 _symmetry_equiv_pos_site_id
 _symmetry_equiv_pos_as_xyz
  1  'x, y, z'
loop_
 _atom_site_type_symbol
 _atom_site_label
 _atom_site_symmetry_multiplicity
 _atom_site_fract_x
 _atom_site_fract_y
 _atom_site_fract_z
 _atom_site_occupancy
  Fe  Fe0  1  0.33331858  0.66667143  0.49571072  1
  Fe  Fe1  1  0.66664277  0.33331585  0.99556154  1
  Co  Co2  1  0.16781560  0.83222087  0.21214492  1
  Co  Co3  1  0.16783593  0.33562691  0.21217907  1
  Co  Co4  1  0.66440004  0.83219582  0.21214838  1
  Co  Co5  1  0.33548522  0.16775075  0.71213801  1
  Co  Co6  1  0.83224912  0.66449366  0.71213651  1
  Co  Co7  1  0.83224251  0.16778311  0.71217563  1
  O  O8  1  0.16011042  0.83985082  0.60557143  1
  O  O9  1  0.03912891  0.51957985  0.32977815  1
  O  O10  1  0.33327238  0.66659317  0.10046429  1
  O  O11  1  0.00007067  0.00010270  0.31907112  1
  O  O12  1  0.00005188  0.00007799  0.81945417  1
  O  O13  1  0.16007349  0.32020290  0.60551868  1
  O  O14  1  0.48050143  0.96090204  0.32980744  1
  O  O15  1  0.48046676  0.51966811  0.32983195  1
  O  O16  1  0.32046135  0.16024350  0.10563138  1
  O  O17  1  0.67971228  0.83986488  0.60558585  1
  O  O18  1  0.51956501  0.48047665  0.82969393  1
  O  O19  1  0.51954974  0.03915099  0.82972735  1
  O  O20  1  0.66662426  0.33323465  0.60047837  1
  O  O21  1  0.83971263  0.67952691  0.10561473  1
  O  O22  1  0.96093642  0.48051405  0.82972344  1
  O  O23  1  0.83977260  0.16015040  0.10557094  1
