# generated using pymatgen
data_Ti7(Fe3O8)3
_symmetry_space_group_name_H-M   'P 1'
_cell_length_a   5.59324554
_cell_length_b   9.10855978
_cell_length_c   9.12768262
_cell_angle_alpha   68.62816513
_cell_angle_beta   95.17638024
_cell_angle_gamma   94.99470831
_symmetry_Int_Tables_number   1
_chemical_formula_structural   Ti7(Fe3O8)3
_chemical_formula_sum   'Ti7 Fe9 O24'
_cell_volume   430.54262117
_cell_formula_units_Z   1
loop_
 _symmetry_equiv_pos_site_id
 _symmetry_equiv_pos_as_xyz
  1  'x, y, z'
loop_
 _atom_site_type_symbol
 _atom_site_label
 _atom_site_symmetry_multiplicity
 _atom_site_fract_x
 _atom_site_fract_y
 _atom_site_fract_z
 _atom_site_occupancy
  Ti  Ti0  1  0.20348326  0.07227528  0.56725866  1
  Ti  Ti1  1  0.21579051  0.57410357  0.07326237  1
  Ti  Ti2  1  0.29356411  0.42395891  0.43204175  1
  Ti  Ti3  1  0.71169333  0.57176936  0.57447902  1
  Ti  Ti4  1  0.79978718  0.42669779  0.93274314  1
  Ti  Ti5  1  0.78136444  0.92553316  0.42035160  1
  Ti  Ti6  1  0.29387523  0.93151777  0.92409751  1
  Fe  Fe7  1  0.30795866  0.17456757  0.17129542  1
  Fe  Fe8  1  0.71651357  0.07445546  0.07174928  1
  Fe  Fe9  1  0.78713352  0.17514348  0.67981717  1
  Fe  Fe10  1  0.71088324  0.32292274  0.32438660  1
  Fe  Fe11  1  0.20988411  0.32105670  0.82707476  1
  Fe  Fe12  1  0.20555422  0.82332373  0.32016448  1
  Fe  Fe13  1  0.29024723  0.67866984  0.67718749  1
  Fe  Fe14  1  0.79346927  0.67917231  0.17847744  1
  Fe  Fe15  1  0.71554536  0.82027946  0.82345384  1
  O  O16  1  0.15120153  0.03949490  0.37362773  1
  O  O17  1  0.63064754  0.11316459  0.28039765  1
  O  O18  1  0.15567115  0.11114324  0.78146839  1
  O  O19  1  0.01561938  0.28398496  0.47677687  1
  O  O20  1  0.64403571  0.01772254  0.88336328  1
  O  O21  1  0.00058177  0.22206522  0.03818350  1
  O  O22  1  0.47032740  0.21801143  0.52643939  1
  O  O23  1  0.34206702  0.37593953  0.21574480  1
  O  O24  1  0.16425586  0.60473815  0.28154920  1
  O  O25  1  0.51600605  0.28245842  0.98175379  1
  O  O26  1  0.84837279  0.48162355  0.10975656  1
  O  O27  1  0.35059488  0.47930139  0.61142749  1
  O  O28  1  0.14718305  0.52528250  0.88966993  1
  O  O29  1  0.64727227  0.52152003  0.39232345  1
  O  O30  1  0.47774352  0.71709388  0.02667046  1
  O  O31  1  0.84334272  0.38675882  0.72161444  1
  O  O32  1  0.66306032  0.60996476  0.78460472  1
  O  O33  1  0.52042325  0.78244129  0.47541978  1
  O  O34  1  0.03230560  0.78160258  0.97517223  1
  O  O35  1  0.33468746  0.98453455  0.11262896  1
  O  O36  1  0.97658101  0.71918248  0.52144563  1
  O  O37  1  0.33791651  0.88878493  0.71346635  1
  O  O38  1  0.83857627  0.88194277  0.22510112  1
  O  O39  1  0.85477969  0.97579937  0.60355676  1
