# generated using pymatgen
data_LiMnPO4
_symmetry_space_group_name_H-M   'P 1'
_cell_length_a   8.86922935
_cell_length_b   7.94657063
_cell_length_c   15.41480865
_cell_angle_alpha   90.00000000
_cell_angle_beta   89.39477983
_cell_angle_gamma   90.00000000
_symmetry_Int_Tables_number   1
_chemical_formula_structural   LiMnPO4
_chemical_formula_sum   'Li12 Mn12 P12 O48'
_cell_volume   1086.37444774
_cell_formula_units_Z   12
loop_
 _symmetry_equiv_pos_site_id
 _symmetry_equiv_pos_as_xyz
  1  'x, y, z'
loop_
 _atom_site_type_symbol
 _atom_site_label
 _atom_site_symmetry_multiplicity
 _atom_site_fract_x
 _atom_site_fract_y
 _atom_site_fract_z
 _atom_site_occupancy
  Li  Li0  1  0.23656416  0.03877636  0.56328506  1
  Li  Li1  1  0.23798713  0.95609787  0.90738283  1
  Li  Li2  1  0.24860246  0.15571375  0.24948679  1
  Li  Li3  1  0.25139754  0.65571375  0.25051321  1
  Li  Li4  1  0.26201287  0.45609787  0.59261717  1
  Li  Li5  1  0.26343584  0.53877636  0.93671494  1
  Li  Li6  1  0.73656416  0.46122364  0.06328506  1
  Li  Li7  1  0.73798713  0.54390213  0.40738283  1
  Li  Li8  1  0.74860246  0.34428625  0.74948679  1
  Li  Li9  1  0.75139754  0.84428625  0.75051321  1
  Li  Li10  1  0.76201287  0.04390213  0.09261717  1
  Li  Li11  1  0.76343584  0.96122364  0.43671494  1
  Mn  Mn12  1  0.04515767  0.73365792  0.09600223  1
  Mn  Mn13  1  0.08904524  0.77434671  0.72965751  1
  Mn  Mn14  1  0.11333200  0.72877382  0.42697215  1
  Mn  Mn15  1  0.38666800  0.22877382  0.07302785  1
  Mn  Mn16  1  0.41095476  0.27434671  0.77034249  1
  Mn  Mn17  1  0.45484233  0.23365792  0.40399777  1
  Mn  Mn18  1  0.54515767  0.76634208  0.59600223  1
  Mn  Mn19  1  0.58904524  0.72565329  0.22965751  1
  Mn  Mn20  1  0.61333200  0.77122618  0.92697215  1
  Mn  Mn21  1  0.88666800  0.27122618  0.57302785  1
  Mn  Mn22  1  0.91095476  0.22565329  0.27034249  1
  Mn  Mn23  1  0.95484233  0.26634208  0.90399777  1
  P  P24  1  0.04951737  0.32494994  0.09132303  1
  P  P25  1  0.09003222  0.17532928  0.72465507  1
  P  P26  1  0.11386699  0.32365422  0.42683584  1
  P  P27  1  0.38613301  0.82365422  0.07316416  1
  P  P28  1  0.40996778  0.67532928  0.77534493  1
  P  P29  1  0.45048263  0.82494994  0.40867697  1
  P  P30  1  0.54951737  0.17505006  0.59132303  1
  P  P31  1  0.59003222  0.32467072  0.22465507  1
  P  P32  1  0.61386699  0.17634578  0.92683584  1
  P  P33  1  0.88613301  0.67634578  0.57316416  1
  P  P34  1  0.90996778  0.82467072  0.27534493  1
  P  P35  1  0.95048263  0.67505006  0.90867697  1
  O  O36  1  0.03723515  0.51084877  0.88611073  1
  O  O37  1  0.03461171  0.63682663  0.62165670  1
  O  O38  1  0.05617430  0.78775868  0.96435314  1
  O  O39  1  0.06293831  0.73514305  0.29300215  1
  O  O40  1  0.08269752  0.20656906  0.50654419  1
  O  O41  1  0.09689442  0.01000982  0.67115815  1
  O  O42  1  0.10528922  0.13658500  0.82376274  1
  O  O43  1  0.08915950  0.22991376  0.17688631  1
  O  O44  1  0.18608049  0.48893575  0.46085334  1
  O  O45  1  0.19773722  0.36681001  0.03983347  1
  O  O46  1  0.22828537  0.23307556  0.36473979  1
  O  O47  1  0.22172529  0.29090049  0.69387889  1
  O  O48  1  0.27171463  0.73307556  0.13526021  1
  O  O49  1  0.27827471  0.79090049  0.80612111  1
  O  O50  1  0.30226278  0.86681001  0.46016653  1
  O  O51  1  0.31391951  0.98893575  0.03914666  1
  O  O52  1  0.41084050  0.72991376  0.32311369  1
  O  O53  1  0.39471078  0.63658500  0.67623726  1
  O  O54  1  0.40310558  0.51000982  0.82884185  1
  O  O55  1  0.43706169  0.23514305  0.20699785  1
  O  O56  1  0.41730248  0.70656906  0.99345581  1
  O  O57  1  0.44382570  0.28775868  0.53564686  1
  O  O58  1  0.46538829  0.13682663  0.87834330  1
  O  O59  1  0.46276485  0.01084877  0.61388927  1
  O  O60  1  0.53723515  0.98915123  0.38611073  1
  O  O61  1  0.53461171  0.86317337  0.12165670  1
  O  O62  1  0.55617430  0.71224132  0.46435314  1
  O  O63  1  0.58269752  0.29343094  0.00654419  1
  O  O64  1  0.56293831  0.76485695  0.79300215  1
  O  O65  1  0.59689442  0.48999018  0.17115815  1
  O  O66  1  0.60528922  0.36341500  0.32376274  1
  O  O67  1  0.58915950  0.27008624  0.67688631  1
  O  O68  1  0.68608049  0.01106425  0.96085334  1
  O  O69  1  0.69773722  0.13318999  0.53983347  1
  O  O70  1  0.72172529  0.20909951  0.19387889  1
  O  O71  1  0.72828537  0.26692444  0.86473979  1
  O  O72  1  0.77827471  0.70909951  0.30612111  1
  O  O73  1  0.77171463  0.76692444  0.63526021  1
  O  O74  1  0.80226278  0.63318999  0.96016653  1
  O  O75  1  0.81391951  0.51106425  0.53914666  1
  O  O76  1  0.91084050  0.77008624  0.82311369  1
  O  O77  1  0.89471078  0.86341500  0.17623726  1
  O  O78  1  0.90310558  0.98999018  0.32884185  1
  O  O79  1  0.91730248  0.79343094  0.49345581  1
  O  O80  1  0.93706169  0.26485695  0.70699785  1
  O  O81  1  0.94382570  0.21224132  0.03564686  1
  O  O82  1  0.96538829  0.36317337  0.37834330  1
  O  O83  1  0.96276485  0.48915123  0.11388927  1
