# generated using pymatgen
data_Rb3TlF6
_symmetry_space_group_name_H-M   'P 1'
_cell_length_a   7.00006670
_cell_length_b   7.00006671
_cell_length_c   6.96736516
_cell_angle_alpha   120.15538260
_cell_angle_beta   120.15538263
_cell_angle_gamma   90.00000004
_symmetry_Int_Tables_number   1
_chemical_formula_structural   Rb3TlF6
_chemical_formula_sum   'Rb3 Tl1 F6'
_cell_volume   240.27307137
_cell_formula_units_Z   1
loop_
 _symmetry_equiv_pos_site_id
 _symmetry_equiv_pos_as_xyz
  1  'x, y, z'
loop_
 _atom_site_type_symbol
 _atom_site_label
 _atom_site_symmetry_multiplicity
 _atom_site_fract_x
 _atom_site_fract_y
 _atom_site_fract_z
 _atom_site_occupancy
  F  F0  1  0.69009570  1.00000000  1.00000000  1
  F  F1  1  1.00000000  0.69009570  1.00000000  1
  F  F2  1  0.00000000  0.30990430  0.00000000  1
  F  F3  1  0.30990430  0.00000000  0.00000000  1
  F  F4  1  0.23218805  0.23218805  0.46437610  1
  F  F5  1  0.76781195  0.76781195  0.53562390  1
  Rb  Rb6  1  0.75000000  0.25000000  0.50000000  1
  Rb  Rb7  1  0.25000000  0.75000000  0.50000000  1
  Rb  Rb8  1  0.50000000  0.50000000  0.00000000  1
  Tl  Tl9  1  0.00000000  0.00000000  0.00000000  1
