# generated using pymatgen
data_Sn(WO3)3
_symmetry_space_group_name_H-M   'P 1'
_cell_length_a   7.59379848
_cell_length_b   7.60544678
_cell_length_c   7.71957595
_cell_angle_alpha   90.00000000
_cell_angle_beta   90.00000000
_cell_angle_gamma   60.24729116
_symmetry_Int_Tables_number   1
_chemical_formula_structural   Sn(WO3)3
_chemical_formula_sum   'Sn2 W6 O18'
_cell_volume   387.06570760
_cell_formula_units_Z   2
loop_
 _symmetry_equiv_pos_site_id
 _symmetry_equiv_pos_as_xyz
  1  'x, y, z'
loop_
 _atom_site_type_symbol
 _atom_site_label
 _atom_site_symmetry_multiplicity
 _atom_site_fract_x
 _atom_site_fract_y
 _atom_site_fract_z
 _atom_site_occupancy
  Sn  Sn0  1  0.05572966  0.00418670  0.00000000  1
  Sn  Sn1  1  0.94427034  0.99581330  0.50000000  1
  W  W2  1  0.00391930  0.49731418  0.50000000  1
  W  W3  1  0.99608070  0.50268582  0.00000000  1
  W  W4  1  0.50657666  0.00262419  0.00000000  1
  W  W5  1  0.49342334  0.99737581  0.50000000  1
  W  W6  1  0.50256481  0.49726789  0.50000000  1
  W  W7  1  0.49743519  0.50273211  0.00000000  1
  O  O8  1  -0.00000000  0.50000000  0.25000000  1
  O  O9  1  -0.00000000  0.50000000  0.75000000  1
  O  O10  1  0.19749628  0.20215089  0.00000000  1
  O  O11  1  0.21475910  0.21831222  0.50000000  1
  O  O12  1  0.20175184  0.57995129  -0.00000000  1
  O  O13  1  0.20323274  0.58556003  0.50000000  1
  O  O14  1  0.50000000  0.00000000  0.25000000  1
  O  O15  1  0.50000000  0.00000000  0.75000000  1
  O  O16  1  0.60576790  0.19155219  0.50000000  1
  O  O17  1  0.57133281  0.20957276  0.00000000  1
  O  O18  1  0.50000000  0.50000000  0.75000000  1
  O  O19  1  0.50000000  0.50000000  0.25000000  1
  O  O20  1  0.39423210  0.80844781  0.00000000  1
  O  O21  1  0.42866719  0.79042724  0.50000000  1
  O  O22  1  0.79676726  0.41443997  -0.00000000  1
  O  O23  1  0.79824816  0.42004871  0.50000000  1
  O  O24  1  0.80250372  0.79784911  0.50000000  1
  O  O25  1  0.78524090  0.78168778  -0.00000000  1
