# generated using pymatgen
data_Li4Mn3Cr3(NiO8)2
_symmetry_space_group_name_H-M   'P 1'
_cell_length_a   5.80980486
_cell_length_b   5.80970609
_cell_length_c   9.61678703
_cell_angle_alpha   89.94003881
_cell_angle_beta   90.28384165
_cell_angle_gamma   119.91650629
_symmetry_Int_Tables_number   1
_chemical_formula_structural   Li4Mn3Cr3(NiO8)2
_chemical_formula_sum   'Li4 Mn3 Cr3 Ni2 O16'
_cell_volume   281.34240562
_cell_formula_units_Z   1
loop_
 _symmetry_equiv_pos_site_id
 _symmetry_equiv_pos_as_xyz
  1  'x, y, z'
loop_
 _atom_site_type_symbol
 _atom_site_label
 _atom_site_symmetry_multiplicity
 _atom_site_fract_x
 _atom_site_fract_y
 _atom_site_fract_z
 _atom_site_occupancy
  Li  Li0  1  0.33669376  0.66842790  0.89106634  1
  Li  Li1  1  0.99779197  0.99868568  0.99855969  1
  Li  Li2  1  0.99833301  0.99920301  0.49765115  1
  Li  Li3  1  0.67039742  0.33503727  0.39171165  1
  Mn  Mn4  1  0.65740996  0.82867292  0.21689185  1
  Mn  Mn5  1  0.82822991  0.66044440  0.71534371  1
  Mn  Mn6  1  0.82851805  0.16801097  0.71534229  1
  Cr  Cr7  1  0.16492664  0.83000302  0.21342464  1
  Cr  Cr8  1  0.16485876  0.33476076  0.21328289  1
  Cr  Cr9  1  0.33304667  0.16635127  0.71119949  1
  Ni  Ni10  1  0.33436368  0.66713706  0.49071697  1
  Ni  Ni11  1  0.66537558  0.33317277  0.98720125  1
  O  O12  1  0.16247630  0.84413653  0.60914258  1
  O  O13  1  0.04079010  0.52047892  0.32947041  1
  O  O14  1  0.34005532  0.67005096  0.10456873  1
  O  O15  1  0.99171450  0.99578135  0.31401144  1
  O  O16  1  0.99216226  0.99565374  0.81328823  1
  O  O17  1  0.16207695  0.31823613  0.60900260  1
  O  O18  1  0.48117523  0.96436430  0.32953611  1
  O  O19  1  0.48150712  0.51688054  0.32955375  1
  O  O20  1  0.32039088  0.16026862  0.11114250  1
  O  O21  1  0.68515362  0.84293667  0.60540601  1
  O  O22  1  0.51737388  0.48067766  0.82813489  1
  O  O23  1  0.51775704  0.03687227  0.82830755  1
  O  O24  1  0.67385115  0.33728990  0.60614174  1
  O  O25  1  0.84418277  0.68127725  0.10890347  1
  O  O26  1  0.96547238  0.48225218  0.82981138  1
  O  O27  1  0.84391309  0.16323695  0.10902671  1
