# generated using pymatgen
data_LiCrPO4
_symmetry_space_group_name_H-M   'P 1'
_cell_length_a   7.94449650
_cell_length_b   9.18334200
_cell_length_c   4.98581720
_cell_angle_alpha   90.00000000
_cell_angle_beta   90.00000000
_cell_angle_gamma   90.00000000
_symmetry_Int_Tables_number   1
_chemical_formula_structural   LiCrPO4
_chemical_formula_sum   'Li4 Cr4 P4 O16'
_cell_volume   363.75040694
_cell_formula_units_Z   4
loop_
 _symmetry_equiv_pos_site_id
 _symmetry_equiv_pos_as_xyz
  1  'x, y, z'
loop_
 _atom_site_type_symbol
 _atom_site_label
 _atom_site_symmetry_multiplicity
 _atom_site_fract_x
 _atom_site_fract_y
 _atom_site_fract_z
 _atom_site_occupancy
  Li  Li0  1  0.04868793  0.61714284  0.94706842  1
  Li  Li1  1  0.45131207  0.11714284  0.44706842  1
  Li  Li2  1  0.54868793  0.88285716  0.94706842  1
  Li  Li3  1  0.95131207  0.38285716  0.44706842  1
  Cr  Cr4  1  0.16511418  0.03940679  0.96823930  1
  Cr  Cr5  1  0.33488582  0.53940679  0.46823830  1
  Cr  Cr6  1  0.66511418  0.46059321  0.96823930  1
  Cr  Cr7  1  0.83488582  0.96059321  0.46823830  1
  P  P8  1  0.23075979  0.85358129  0.56299715  1
  P  P9  1  0.26924021  0.35358129  0.06299715  1
  P  P10  1  0.73075979  0.64641871  0.56299715  1
  P  P11  1  0.76924021  0.14641871  0.06299715  1
  O  O12  1  0.05983938  0.92724201  0.65008793  1
  O  O13  1  0.13856680  0.45687967  0.21091468  1
  O  O14  1  0.26053020  0.85023745  0.26189763  1
  O  O15  1  0.22420221  0.69927339  0.69079489  1
  O  O16  1  0.27579779  0.19927339  0.19079489  1
  O  O17  1  0.23946980  0.35023745  0.76189763  1
  O  O18  1  0.36143320  0.95687967  0.71091468  1
  O  O19  1  0.44016062  0.42724201  0.15008793  1
  O  O20  1  0.55983938  0.57275799  0.65008793  1
  O  O21  1  0.63856680  0.04312033  0.21091468  1
  O  O22  1  0.76053020  0.64976255  0.26189763  1
  O  O23  1  0.72420221  0.80072661  0.69079489  1
  O  O24  1  0.77579779  0.30072661  0.19079489  1
  O  O25  1  0.73946980  0.14976255  0.76189763  1
  O  O26  1  0.86143320  0.54312033  0.71091468  1
  O  O27  1  0.94016062  0.07275799  0.15008793  1
