# generated using pymatgen
data_Mg2Co7O12
_symmetry_space_group_name_H-M   'P 1'
_cell_length_a   5.80801794
_cell_length_b   5.82211118
_cell_length_c   14.15972178
_cell_angle_alpha   89.79846188
_cell_angle_beta   89.84280120
_cell_angle_gamma   60.07346706
_symmetry_Int_Tables_number   1
_chemical_formula_structural   Mg2Co7O12
_chemical_formula_sum   'Mg4 Co14 O24'
_cell_volume   414.96537382
_cell_formula_units_Z   2
loop_
 _symmetry_equiv_pos_site_id
 _symmetry_equiv_pos_as_xyz
  1  'x, y, z'
loop_
 _atom_site_type_symbol
 _atom_site_label
 _atom_site_symmetry_multiplicity
 _atom_site_fract_x
 _atom_site_fract_y
 _atom_site_fract_z
 _atom_site_occupancy
  Mg  Mg0  1  0.32775216  0.33876111  0.04197860  1
  Mg  Mg1  1  0.66894125  0.16512114  0.20973441  1
  Mg  Mg2  1  0.83185515  0.33530779  0.54116257  1
  Mg  Mg3  1  0.50173985  0.99930609  0.87438239  1
  Co  Co4  1  0.66088744  0.66740595  0.08571106  1
  Co  Co5  1  0.16446658  0.67048179  0.20995145  1
  Co  Co6  1  0.67258254  0.66550577  0.33313347  1
  Co  Co7  1  0.00044581  0.00515832  0.99791787  1
  Co  Co8  1  0.83066111  0.83337323  0.54220761  1
  Co  Co9  1  0.33635451  0.83240055  0.54232659  1
  Co  Co10  1  0.16412508  0.16601076  0.20919099  1
  Co  Co11  1  0.33443140  0.32710179  0.41653534  1
  Co  Co12  1  0.66721244  0.66561420  0.70684959  1
  Co  Co13  1  0.00606594  0.99447735  0.37430193  1
  Co  Co14  1  0.32826793  0.34292149  0.66688890  1
  Co  Co15  1  0.99963444  0.49959240  0.87342777  1
  Co  Co16  1  0.50111168  0.49938439  0.87479470  1
  Co  Co17  1  0.00620431  0.98954842  0.74936231  1
  O  O18  1  0.29897809  0.85028315  0.28743568  1
  O  O19  1  0.86686772  0.83861534  0.29219996  1
  O  O20  1  0.01444195  0.49418540  0.13621503  1
  O  O21  1  0.47779783  0.50493226  0.13135778  1
  O  O22  1  0.15443434  0.69262853  0.46346632  1
  O  O23  1  0.48041969  0.01574551  0.12995044  1
  O  O24  1  0.31642158  0.34113241  0.28295562  1
  O  O25  1  0.01573208  0.99397470  0.13353122  1
  O  O26  1  0.51605102  0.96698016  0.62028082  1
  O  O27  1  0.86495350  0.29612043  0.29294383  1
  O  O28  1  0.65603976  0.68582645  0.47046543  1
  O  O29  1  0.96378598  0.53033272  0.62263337  1
  O  O30  1  0.50549752  0.52982864  0.62306941  1
  O  O31  1  0.83084150  0.80573902  0.79052459  1
  O  O32  1  0.36367522  0.80453399  0.79072710  1
  O  O33  1  0.69302786  0.14096127  0.45733666  1
  O  O34  1  0.16636956  0.13826175  0.45888957  1
  O  O35  1  0.81934153  0.36129958  0.79400839  1
  O  O36  1  0.67292442  0.65158133  0.94976770  1
  O  O37  1  0.00788816  0.98277786  0.61570985  1
  O  O38  1  0.17298936  0.65201126  0.94734867  1
  O  O39  1  0.32636389  0.34863736  0.80347600  1
  O  O40  1  0.65167805  0.18667961  0.95370491  1
  O  O41  1  0.16073775  0.18945774  0.95214513  1
