# generated using pymatgen
data_Co3SbO8
_symmetry_space_group_name_H-M   'P 1'
_cell_length_a   5.66954168
_cell_length_b   5.70024701
_cell_length_c   9.09986740
_cell_angle_alpha   90.39255626
_cell_angle_beta   89.80266131
_cell_angle_gamma   120.17931066
_symmetry_Int_Tables_number   1
_chemical_formula_structural   Co3SbO8
_chemical_formula_sum   'Co6 Sb2 O16'
_cell_volume   254.21992375
_cell_formula_units_Z   2
loop_
 _symmetry_equiv_pos_site_id
 _symmetry_equiv_pos_as_xyz
  1  'x, y, z'
loop_
 _atom_site_type_symbol
 _atom_site_label
 _atom_site_symmetry_multiplicity
 _atom_site_fract_x
 _atom_site_fract_y
 _atom_site_fract_z
 _atom_site_occupancy
  Co  Co0  1  0.16844115  0.82957558  0.21459771  1
  Co  Co1  1  0.16654973  0.33405296  0.21061706  1
  Co  Co2  1  0.66115295  0.83018114  0.21578794  1
  Co  Co3  1  0.33884705  0.16902719  0.71578794  1
  Co  Co4  1  0.83155885  0.66113444  0.71459771  1
  Co  Co5  1  0.83345027  0.16750223  0.71061706  1
  Sb  Sb6  1  0.33150238  0.66985095  0.49207481  1
  Sb  Sb7  1  0.66849762  0.33834957  0.99207481  1
  O  O8  1  0.15878283  0.84343643  0.59876678  1
  O  O9  1  0.03164986  0.51269326  0.33240263  1
  O  O10  1  0.33794837  0.66814589  0.11132917  1
  O  O11  1  0.99255294  0.99631181  0.31002779  1
  O  O12  1  0.00744706  0.00375887  0.81002779  1
  O  O13  1  0.15775696  0.31861591  0.60161126  1
  O  O14  1  0.48667393  0.96857159  0.33487994  1
  O  O15  1  0.48233074  0.51401441  0.33314550  1
  O  O16  1  0.31769647  0.16117023  0.10262141  1
  O  O17  1  0.68230353  0.84347376  0.60262141  1
  O  O18  1  0.51332607  0.48189666  0.83487994  1
  O  O19  1  0.51766926  0.03168467  0.83314550  1
  O  O20  1  0.66205163  0.33019752  0.61132917  1
  O  O21  1  0.84121717  0.68465360  0.09876678  1
  O  O22  1  0.96835014  0.48104340  0.83240263  1
  O  O23  1  0.84224304  0.16085894  0.10161126  1
