# generated using pymatgen
data_Li3La5Ti6Nb2O26
_symmetry_space_group_name_H-M   'P 1'
_cell_length_a   5.53132088
_cell_length_b   17.27824274
_cell_length_c   5.53364817
_cell_angle_alpha   90.00000000
_cell_angle_beta   90.00000000
_cell_angle_gamma   99.43313335
_symmetry_Int_Tables_number   1
_chemical_formula_structural   Li3La5Ti6Nb2O26
_chemical_formula_sum   'Li3 La5 Ti6 Nb2 O26'
_cell_volume   521.70761138
_cell_formula_units_Z   1
loop_
 _symmetry_equiv_pos_site_id
 _symmetry_equiv_pos_as_xyz
  1  'x, y, z'
loop_
 _atom_site_type_symbol
 _atom_site_label
 _atom_site_symmetry_multiplicity
 _atom_site_fract_x
 _atom_site_fract_y
 _atom_site_fract_z
 _atom_site_occupancy
  Li  Li0  1  0.00000000  0.50000000  0.77123496  1
  Li  Li1  1  0.50000000  0.50000000  0.24093433  1
  Li  Li2  1  0.50000000  0.50000000  0.75735151  1
  La  La3  1  0.38377441  0.76581301  0.99785706  1
  La  La4  1  0.11997053  0.23544373  0.50130497  1
  La  La5  1  0.88002947  0.76455627  0.50130497  1
  La  La6  1  0.50000000  0.00000000  0.99895738  1
  La  La7  1  0.61622559  0.23418699  0.99785706  1
  Ti  Ti8  1  0.18182394  0.36162975  0.00030204  1
  Ti  Ti9  1  0.05697888  0.11454586  0.00015078  1
  Ti  Ti10  1  0.44366966  0.88631743  0.49968564  1
  Ti  Ti11  1  0.55633034  0.11368257  0.49968564  1
  Ti  Ti12  1  0.94302112  0.88545414  0.00015078  1
  Ti  Ti13  1  0.81817606  0.63837025  0.00030204  1
  Nb  Nb14  1  0.31416903  0.63697283  0.49706663  1
  Nb  Nb15  1  0.68583097  0.36302717  0.49706663  1
  O  O16  1  0.07708525  0.66026711  0.75054185  1
  O  O17  1  0.07816788  0.66401851  0.24927262  1
  O  O18  1  0.20040359  0.87917205  0.24006283  1
  O  O19  1  0.20017400  0.87909118  0.75949738  1
  O  O20  1  0.24428747  0.46418082  0.99064389  1
  O  O21  1  0.38631895  0.77029065  0.50178981  1
  O  O22  1  0.11709367  0.22899342  0.99738521  1
  O  O23  1  0.00000000  0.00000000  0.00018677  1
  O  O24  1  0.27434138  0.52961610  0.51239994  1
  O  O25  1  0.67931502  0.88000659  0.75988112  1
  O  O26  1  0.67958664  0.87893278  0.24075994  1
  O  O27  1  0.41786989  0.33675113  0.74871189  1
  O  O28  1  0.41954907  0.33975442  0.24882334  1
  O  O29  1  0.58045093  0.66024558  0.24882334  1
  O  O30  1  0.58213011  0.66324887  0.74871189  1
  O  O31  1  0.32041336  0.12106722  0.24075994  1
  O  O32  1  0.32068498  0.11999341  0.75988112  1
  O  O33  1  0.72565862  0.47038390  0.51239994  1
  O  O34  1  0.88290633  0.77100658  0.99738521  1
  O  O35  1  0.61368105  0.22970935  0.50178981  1
  O  O36  1  0.50000000  0.00000000  0.49961916  1
  O  O37  1  0.75571253  0.53581918  0.99064389  1
  O  O38  1  0.79982600  0.12090882  0.75949738  1
  O  O39  1  0.79959641  0.12082795  0.24006283  1
  O  O40  1  0.92183212  0.33598149  0.24927262  1
  O  O41  1  0.92291475  0.33973289  0.75054185  1
