# generated using pymatgen
data_NaSrMg6
_symmetry_space_group_name_H-M   'P 1'
_cell_length_a   6.89439656
_cell_length_b   6.89439593
_cell_length_c   5.40691612
_cell_angle_alpha   90.00000000
_cell_angle_beta   90.00000000
_cell_angle_gamma   120.44073681
_symmetry_Int_Tables_number   1
_chemical_formula_structural   NaSrMg6
_chemical_formula_sum   'Na1 Sr1 Mg6'
_cell_volume   221.57807845
_cell_formula_units_Z   1
loop_
 _symmetry_equiv_pos_site_id
 _symmetry_equiv_pos_as_xyz
  1  'x, y, z'
loop_
 _atom_site_type_symbol
 _atom_site_label
 _atom_site_symmetry_multiplicity
 _atom_site_fract_x
 _atom_site_fract_y
 _atom_site_fract_z
 _atom_site_occupancy
  Na  Na0  1  0.16039388  0.33960612  0.25000000  1
  Sr  Sr1  1  0.33385441  0.16614559  0.75000000  1
  Mg  Mg2  1  0.16016514  0.81923828  0.25000000  1
  Mg  Mg3  1  0.68076172  0.33983486  0.25000000  1
  Mg  Mg4  1  0.66755383  0.83244617  0.25000000  1
  Mg  Mg5  1  0.33011142  0.66949196  0.75000000  1
  Mg  Mg6  1  0.83050804  0.16988858  0.75000000  1
  Mg  Mg7  1  0.83665158  0.66334842  0.75000000  1
