# generated using pymatgen
data_LiMnPO4
_symmetry_space_group_name_H-M   'P 1'
_cell_length_a   15.41883262
_cell_length_b   15.41873206
_cell_length_c   7.85145418
_cell_angle_alpha   90.00189333
_cell_angle_beta   89.99819774
_cell_angle_gamma   120.00187855
_symmetry_Int_Tables_number   1
_chemical_formula_structural   LiMnPO4
_chemical_formula_sum   'Li18 Mn18 P18 O72'
_cell_volume   1616.48867512
_cell_formula_units_Z   18
loop_
 _symmetry_equiv_pos_site_id
 _symmetry_equiv_pos_as_xyz
  1  'x, y, z'
loop_
 _atom_site_type_symbol
 _atom_site_label
 _atom_site_symmetry_multiplicity
 _atom_site_fract_x
 _atom_site_fract_y
 _atom_site_fract_z
 _atom_site_occupancy
  Li  Li0  1  0.00464246  0.68703844  0.49305283  1
  Li  Li1  1  0.34117342  0.99317439  0.57739120  1
  Li  Li2  1  0.00684280  0.34801101  0.57736869  1
  Li  Li3  1  0.33334449  0.66668203  0.70307582  1
  Li  Li4  1  0.00001937  0.00001170  0.87235969  1
  Li  Li5  1  0.99999809  0.99999732  0.37238917  1
  Li  Li6  1  0.33333729  0.66665184  0.19730379  1
  Li  Li7  1  0.31296678  0.31760364  0.49300851  1
  Li  Li8  1  0.34800073  0.34115869  0.07740837  1
  Li  Li9  1  0.68240879  0.99537844  0.49303543  1
  Li  Li10  1  0.31759973  0.00464512  0.99299434  1
  Li  Li11  1  0.65201385  0.65882286  0.57741266  1
  Li  Li12  1  0.68702543  0.68240847  0.99304240  1
  Li  Li13  1  0.66665100  0.33331459  0.20306741  1
  Li  Li14  1  0.66666634  0.33332743  0.69729094  1
  Li  Li15  1  0.99314466  0.65198914  0.07739960  1
  Li  Li16  1  0.65879046  0.00677875  0.07736595  1
  Li  Li17  1  0.99536120  0.31295894  0.99304662  1
  Mn  Mn18  1  0.09393022  0.87086831  0.79577412  1
  Mn  Mn19  1  0.10633073  0.57633265  0.76391327  1
  Mn  Mn20  1  0.24792305  0.80176494  0.27519005  1
  Mn  Mn21  1  0.19821522  0.44612439  0.27521258  1
  Mn  Mn22  1  0.47000706  0.89369023  0.76388127  1
  Mn  Mn23  1  0.12914384  0.22307901  0.79573005  1
  Mn  Mn24  1  0.42368734  0.53003894  0.76390974  1
  Mn  Mn25  1  0.22302341  0.09391071  0.29571261  1
  Mn  Mn26  1  0.55388198  0.75208736  0.27527366  1
  Mn  Mn27  1  0.44614535  0.24793240  0.77516593  1
  Mn  Mn28  1  0.77697766  0.90609342  0.79574307  1
  Mn  Mn29  1  0.57630731  0.46998082  0.26393027  1
  Mn  Mn30  1  0.87087475  0.77694507  0.29571819  1
  Mn  Mn31  1  0.52997682  0.10629836  0.26389253  1
  Mn  Mn32  1  0.80176921  0.55384525  0.77520210  1
  Mn  Mn33  1  0.75209697  0.19821354  0.77525416  1
  Mn  Mn34  1  0.89366014  0.42367088  0.26388627  1
  Mn  Mn35  1  0.90605927  0.12912556  0.29572675  1
  P  P36  1  0.09468092  0.86931636  0.20514787  1
  P  P37  1  0.10647141  0.57936392  0.36015717  1
  P  P38  1  0.24600936  0.80195140  0.86175610  1
  P  P39  1  0.19806184  0.44406165  0.86175313  1
  P  P40  1  0.47288448  0.89349651  0.36013538  1
  P  P41  1  0.13064931  0.22534447  0.20515202  1
  P  P42  1  0.42058205  0.52708538  0.36020035  1
  P  P43  1  0.55594538  0.75402177  0.86179732  1
  P  P44  1  0.22536862  0.09469787  0.70511160  1
  P  P45  1  0.77466425  0.90531403  0.20516448  1
  P  P46  1  0.44405420  0.24599032  0.36172887  1
  P  P47  1  0.57937653  0.47290730  0.86017503  1
  P  P48  1  0.86933939  0.77463686  0.70513772  1
  P  P49  1  0.52710431  0.10649836  0.86015208  1
  P  P50  1  0.80193342  0.55594822  0.36173953  1
  P  P51  1  0.75400745  0.19806589  0.36178125  1
  P  P52  1  0.89353131  0.42061783  0.86015585  1
  P  P53  1  0.90532413  0.13067892  0.70512780  1
  O  O54  1  0.02132050  0.89602044  0.29733473  1
  O  O55  1  0.04424720  0.81056787  0.03943907  1
  O  O56  1  0.19406999  0.96735071  0.16054532  1
  O  O57  1  0.11584432  0.80141479  0.32530128  1
  O  O58  1  0.01940695  0.56412861  0.24046287  1
  O  O59  1  0.22744999  0.87528887  0.75003784  1
  O  O60  1  0.14624110  0.70394430  0.89978902  1
  O  O61  1  0.09998722  0.63127326  0.52599734  1
  O  O62  1  0.29631829  0.85746561  0.02980772  1
  O  O63  1  0.20903420  0.64881999  0.27296702  1
  O  O64  1  0.09651576  0.47573697  0.40157959  1
  O  O65  1  0.37922108  0.90344472  0.40159022  1
  O  O66  1  0.03261964  0.22669835  0.16057600  1
  O  O67  1  0.31936511  0.77680135  0.76407405  1
  O  O68  1  0.22322471  0.54259686  0.76412616  1
  O  O69  1  0.14253386  0.43881950  0.02978312  1
  O  O70  1  0.12476981  0.35218573  0.74996272  1
  O  O71  1  0.19858236  0.31442678  0.32527507  1
  O  O72  1  0.54471925  0.98057707  0.24048753  1
  O  O73  1  0.53129118  0.89998278  0.52598101  1
  O  O74  1  0.18940000  0.23365249  0.03940384  1
  O  O75  1  0.10396813  0.12528583  0.29732637  1
  O  O76  1  0.43980874  0.79094980  0.27295560  1
  O  O77  1  0.35115621  0.56018596  0.27296376  1
  O  O78  1  0.29609329  0.44232339  0.89980067  1
  O  O79  1  0.22670710  0.19406675  0.66055951  1
  O  O80  1  0.55773919  0.85384204  0.89979181  1
  O  O81  1  0.12530310  0.02131718  0.79731595  1
  O  O82  1  0.45746029  0.68069438  0.76415704  1
  O  O83  1  0.36869100  0.46872259  0.52602911  1
  O  O84  1  0.23366610  0.04426385  0.53940118  1
  O  O85  1  0.56119304  0.70377177  0.02981738  1
  O  O86  1  0.52423709  0.62077850  0.40161813  1
  O  O87  1  0.43584971  0.45524573  0.24053457  1
  O  O88  1  0.35215907  0.22740611  0.24998847  1
  O  O89  1  0.68558220  0.88417417  0.32533116  1
  O  O90  1  0.31443469  0.11585145  0.82526008  1
  O  O91  1  0.64783682  0.77258789  0.75002456  1
  O  O92  1  0.56413698  0.54472193  0.74051193  1
  O  O93  1  0.47573446  0.37921590  0.90161206  1
  O  O94  1  0.43883047  0.29629234  0.52976485  1
  O  O95  1  0.76633811  0.95574381  0.03943443  1
  O  O96  1  0.63126663  0.53129291  0.02603428  1
  O  O97  1  0.54255241  0.31934183  0.26406126  1
  O  O98  1  0.87471803  0.97868791  0.29731826  1
  O  O99  1  0.44229015  0.14621547  0.39978437  1
  O  O100  1  0.77328133  0.80592221  0.16058537  1
  O  O101  1  0.70391376  0.55769935  0.39982000  1
  O  O102  1  0.64883514  0.43979358  0.77300085  1
  O  O103  1  0.56019169  0.20904608  0.77295821  1
  O  O104  1  0.89603490  0.87470660  0.79736936  1
  O  O105  1  0.81061351  0.76634497  0.53944998  1
  O  O106  1  0.46870680  0.10000072  0.02597696  1
  O  O107  1  0.45528457  0.01942416  0.74044744  1
  O  O108  1  0.80141078  0.68555920  0.82527811  1
  O  O109  1  0.87523326  0.64781181  0.24997742  1
  O  O110  1  0.85745990  0.56117542  0.52978343  1
  O  O111  1  0.77676378  0.45742207  0.26410804  1
  O  O112  1  0.68061587  0.22320133  0.26416308  1
  O  O113  1  0.96738085  0.77329730  0.66059090  1
  O  O114  1  0.62079220  0.09655540  0.90158004  1
  O  O115  1  0.90346300  0.52423988  0.90157465  1
  O  O116  1  0.79096370  0.35116093  0.77289894  1
  O  O117  1  0.70372557  0.14254848  0.52986745  1
  O  O118  1  0.89997224  0.36869697  0.02596695  1
  O  O119  1  0.85376419  0.29607100  0.39977628  1
  O  O120  1  0.77254614  0.12472937  0.25002313  1
  O  O121  1  0.98059479  0.43586263  0.74049614  1
  O  O122  1  0.88418437  0.19858117  0.82532380  1
  O  O123  1  0.80592920  0.03262500  0.66057879  1
  O  O124  1  0.95572692  0.18941633  0.53943605  1
  O  O125  1  0.97870844  0.10397784  0.79726277  1
