# generated using pymatgen
data_LiFeSiO4
_symmetry_space_group_name_H-M   'P 1'
_cell_length_a   8.78226494
_cell_length_b   8.78215347
_cell_length_c   8.30091759
_cell_angle_alpha   89.99705185
_cell_angle_beta   90.00567170
_cell_angle_gamma   119.99981225
_symmetry_Int_Tables_number   1
_chemical_formula_structural   LiFeSiO4
_chemical_formula_sum   'Li6 Fe6 Si6 O24'
_cell_volume   554.45347587
_cell_formula_units_Z   6
loop_
 _symmetry_equiv_pos_site_id
 _symmetry_equiv_pos_as_xyz
  1  'x, y, z'
loop_
 _atom_site_type_symbol
 _atom_site_label
 _atom_site_symmetry_multiplicity
 _atom_site_fract_x
 _atom_site_fract_y
 _atom_site_fract_z
 _atom_site_occupancy
  Li  Li0  1  0.33333820  0.66668094  0.98498632  1
  Li  Li1  1  0.33336638  0.66666354  0.55072897  1
  Li  Li2  1  -0.00001490  0.00000868  0.81585989  1
  Li  Li3  1  -0.00001394  0.99999363  0.31585559  1
  Li  Li4  1  0.66668217  0.33333549  0.48498073  1
  Li  Li5  1  0.66667911  0.33332618  0.05072204  1
  Fe  Fe6  1  0.04466021  0.68673889  0.26374626  1
  Fe  Fe7  1  0.31322893  0.35793267  0.26375527  1
  Fe  Fe8  1  0.64204827  0.95531744  0.26379570  1
  Fe  Fe9  1  0.35791548  0.04466823  0.76374776  1
  Fe  Fe10  1  0.68672958  0.64206497  0.76375190  1
  Fe  Fe11  1  0.95528342  0.31322454  0.76379069  1
  Si  Si12  1  0.03982437  0.68384299  0.88176041  1
  Si  Si13  1  0.31616970  0.35614205  0.88170800  1
  Si  Si14  1  0.64407709  0.96002591  0.88188287  1
  Si  Si15  1  0.35614710  0.03993514  0.38170726  1
  Si  Si16  1  0.68395499  0.64409532  0.38184821  1
  Si  Si17  1  0.95999232  0.31598430  0.38180046  1
  O  O18  1  0.11221525  0.87326437  0.78747369  1
  O  O19  1  0.14321601  0.72449915  0.05601717  1
  O  O20  1  0.09841288  0.55886136  0.78330648  1
  O  O21  1  0.24078682  0.82380358  0.40444023  1
  O  O22  1  0.17623613  0.41694145  0.40446344  1
  O  O23  1  0.12676815  0.23897651  0.78747639  1
  O  O24  1  0.46028527  0.90151275  0.78330980  1
  O  O25  1  0.27555565  0.41875163  0.05597454  1
  O  O26  1  0.58132761  0.85678411  0.05596117  1
  O  O27  1  0.23894259  0.11221651  0.28744279  1
  O  O28  1  0.44106236  0.53955401  0.78330632  1
  O  O29  1  0.58309489  0.75925840  0.40449087  1
  O  O30  1  0.41699840  0.24075699  0.90444091  1
  O  O31  1  0.55877146  0.46032068  0.28329785  1
  O  O32  1  0.76097967  0.88778900  0.78755046  1
  O  O33  1  0.41873171  0.14322443  0.55601623  1
  O  O34  1  0.72454542  0.58131661  0.55597160  1
  O  O35  1  0.53952512  0.09849375  0.28336303  1
  O  O36  1  0.87323128  0.76100180  0.28750058  1
  O  O37  1  0.82382354  0.58305117  0.90446993  1
  O  O38  1  0.75928896  0.17620797  0.90449265  1
  O  O39  1  0.90151430  0.44116750  0.28331910  1
  O  O40  1  0.85679320  0.27545481  0.55596053  1
  O  O41  1  0.88780487  0.12680954  0.28750690  1
