# generated using pymatgen
data_MnFe3Co2(PO4)6
_symmetry_space_group_name_H-M   'P 1'
_cell_length_a   8.41791705
_cell_length_b   8.62042284
_cell_length_c   8.62042302
_cell_angle_alpha   59.99999598
_cell_angle_beta   59.20097428
_cell_angle_gamma   59.20096708
_symmetry_Int_Tables_number   1
_chemical_formula_structural   MnFe3Co2(PO4)6
_chemical_formula_sum   'Mn1 Fe3 Co2 P6 O24'
_cell_volume   436.91272709
_cell_formula_units_Z   1
loop_
 _symmetry_equiv_pos_site_id
 _symmetry_equiv_pos_as_xyz
  1  'x, y, z'
loop_
 _atom_site_type_symbol
 _atom_site_label
 _atom_site_symmetry_multiplicity
 _atom_site_fract_x
 _atom_site_fract_y
 _atom_site_fract_z
 _atom_site_occupancy
  Mn  Mn0  1  0.57634302  0.14121933  0.14121933  1
  Fe  Fe1  1  0.06403686  0.64532071  0.64532071  1
  Fe  Fe2  1  0.43173234  0.85608889  0.85608889  1
  Fe  Fe3  1  0.93277730  0.35574123  0.35574123  1
  Co  Co4  1  0.00544017  0.99818661  0.99818661  1
  Co  Co5  1  0.49861357  0.50046248  0.50046248  1
  P  P6  1  0.25331564  0.25130979  0.53937707  1
  P  P7  1  0.25331564  0.95599850  0.25130979  1
  P  P8  1  0.25331564  0.53937707  0.95599850  1
  P  P9  1  0.74476694  0.45401824  0.04832686  1
  P  P10  1  0.74476694  0.04832686  0.75288896  1
  P  P11  1  0.74476694  0.75288896  0.45401824  1
  O  O12  1  0.06759772  0.10873930  0.32552676  1
  O  O13  1  0.06759772  0.49813622  0.10873930  1
  O  O14  1  0.06759772  0.32552676  0.49813622  1
  O  O15  1  0.22311150  0.09344015  0.74027287  1
  O  O16  1  0.43996808  0.18367794  0.37839687  1
  O  O17  1  0.28432854  0.40700167  0.55491253  1
  O  O18  1  0.22311150  0.94317547  0.09344015  1
  O  O19  1  0.28432854  0.75375726  0.40700167  1
  O  O20  1  0.56041878  0.60928439  0.00637842  1
  O  O21  1  0.28432854  0.55491253  0.75375726  1
  O  O22  1  0.77282218  0.25103831  0.06151363  1
  O  O23  1  0.56041878  0.00637842  0.82391941  1
  O  O24  1  0.43996808  0.99795711  0.18367794  1
  O  O25  1  0.22311150  0.74027287  0.94317547  1
  O  O26  1  0.71822437  0.43562935  0.24912064  1
  O  O27  1  0.43996808  0.37839687  0.99795711  1
  O  O28  1  0.71822437  0.24912064  0.59702564  1
  O  O29  1  0.77282218  0.06151363  0.91462587  1
  O  O30  1  0.71822437  0.59702564  0.43562935  1
  O  O31  1  0.56041878  0.82391941  0.60928439  1
  O  O32  1  0.77282218  0.91462587  0.25103831  1
  O  O33  1  0.93246650  0.68736501  0.48976179  1
  O  O34  1  0.93246650  0.48976179  0.89040670  1
  O  O35  1  0.93246650  0.89040670  0.68736501  1
