# generated using pymatgen
data_Li4VFe(TeO6)2
_symmetry_space_group_name_H-M   'P 1'
_cell_length_a   5.38059272
_cell_length_b   10.78973284
_cell_length_c   9.48483593
_cell_angle_alpha   28.36314595
_cell_angle_beta   51.78523324
_cell_angle_gamma   56.89213584
_symmetry_Int_Tables_number   1
_chemical_formula_structural   Li4VFe(TeO6)2
_chemical_formula_sum   'Li4 V1 Fe1 Te2 O12'
_cell_volume   205.52633140
_cell_formula_units_Z   1
loop_
 _symmetry_equiv_pos_site_id
 _symmetry_equiv_pos_as_xyz
  1  'x, y, z'
loop_
 _atom_site_type_symbol
 _atom_site_label
 _atom_site_symmetry_multiplicity
 _atom_site_fract_x
 _atom_site_fract_y
 _atom_site_fract_z
 _atom_site_occupancy
  Li  Li0  1  0.29094768  0.00421699  0.26822763  1
  Li  Li1  1  0.27009914  0.49924925  0.29160825  1
  Li  Li2  1  0.79195428  0.99601303  0.80558684  1
  Li  Li3  1  0.77593375  0.49811583  0.77224464  1
  V  V4  1  0.00123233  0.50275815  0.00969344  1
  Fe  Fe5  1  0.00832373  0.99943712  0.00338603  1
  Te  Te6  1  0.51393683  0.99870127  0.50060986  1
  Te  Te7  1  0.48999168  0.50587406  0.50447410  1
  O  O8  1  0.35846116  0.30427460  0.12732618  1
  O  O9  1  0.23773316  0.12326773  0.61551508  1
  O  O10  1  0.13686793  0.33192567  0.71312991  1
  O  O11  1  0.87796042  0.19817453  0.22597785  1
  O  O12  1  0.38520162  0.79870335  0.12760357  1
  O  O13  1  0.75482368  0.37821822  0.35722478  1
  O  O14  1  0.22865186  0.62696545  0.62863388  1
  O  O15  1  0.62291639  0.18630511  0.86172678  1
  O  O16  1  0.12299591  0.80152198  0.75552122  1
  O  O17  1  0.86452653  0.68971951  0.24128651  1
  O  O18  1  0.71401684  0.87815144  0.38164504  1
  O  O19  1  0.62462708  0.67840770  0.87977840  1
