# generated using pymatgen
data_Li2CrNi(PO4)2
_symmetry_space_group_name_H-M   'P 1'
_cell_length_a   10.18161902
_cell_length_b   6.12990453
_cell_length_c   4.74713880
_cell_angle_alpha   90.00000000
_cell_angle_beta   89.16512654
_cell_angle_gamma   90.00000000
_symmetry_Int_Tables_number   1
_chemical_formula_structural   Li2CrNi(PO4)2
_chemical_formula_sum   'Li4 Cr2 Ni2 P4 O16'
_cell_volume   296.24864732
_cell_formula_units_Z   2
loop_
 _symmetry_equiv_pos_site_id
 _symmetry_equiv_pos_as_xyz
  1  'x, y, z'
loop_
 _atom_site_type_symbol
 _atom_site_label
 _atom_site_symmetry_multiplicity
 _atom_site_fract_x
 _atom_site_fract_y
 _atom_site_fract_z
 _atom_site_occupancy
  Li  Li0  1  0.00000000  0.00000000  0.00000000  1
  Li  Li1  1  0.00000000  0.50000000  0.00000000  1
  Li  Li2  1  0.50000000  0.00000000  0.50000000  1
  Li  Li3  1  0.50000000  0.50000000  0.50000000  1
  Cr  Cr4  1  0.21970514  0.75000000  0.45782260  1
  Cr  Cr5  1  0.78029486  0.25000000  0.54217740  1
  Ni  Ni6  1  0.27788111  0.25000000  0.98115995  1
  Ni  Ni7  1  0.72211889  0.75000000  0.01884005  1
  P  P8  1  0.09394740  0.25000000  0.41775797  1
  P  P9  1  0.40722793  0.75000000  0.91721866  1
  P  P10  1  0.59277207  0.25000000  0.08278134  1
  P  P11  1  0.90605260  0.75000000  0.58224203  1
  O  O12  1  0.04880417  0.75000000  0.69606860  1
  O  O13  1  0.09785648  0.25000000  0.74094520  1
  O  O14  1  0.16440977  0.05172469  0.27513911  1
  O  O15  1  0.16440977  0.44827531  0.27513911  1
  O  O16  1  0.33852935  0.54497614  0.78872350  1
  O  O17  1  0.33852935  0.95502386  0.78872350  1
  O  O18  1  0.39997272  0.75000000  0.24307075  1
  O  O19  1  0.44987400  0.25000000  0.20182244  1
  O  O20  1  0.55012600  0.75000000  0.79817756  1
  O  O21  1  0.60002728  0.25000000  0.75692925  1
  O  O22  1  0.66147065  0.04497514  0.21127650  1
  O  O23  1  0.66147065  0.45502486  0.21127650  1
  O  O24  1  0.83559023  0.55172469  0.72486089  1
  O  O25  1  0.83559023  0.94827531  0.72486089  1
  O  O26  1  0.90214352  0.75000000  0.25905480  1
  O  O27  1  0.95119583  0.25000000  0.30393140  1
