# generated using pymatgen
data_Li2Fe2(CO3)3
_symmetry_space_group_name_H-M   'P 1'
_cell_length_a   5.05385292
_cell_length_b   6.01956117
_cell_length_c   6.01956117
_cell_angle_alpha   108.78857180
_cell_angle_beta   90.00000000
_cell_angle_gamma   90.00000000
_symmetry_Int_Tables_number   1
_chemical_formula_structural   Li2Fe2(CO3)3
_chemical_formula_sum   'Li2 Fe2 C3 O9'
_cell_volume   173.36875985
_cell_formula_units_Z   1
loop_
 _symmetry_equiv_pos_site_id
 _symmetry_equiv_pos_as_xyz
  1  'x, y, z'
loop_
 _atom_site_type_symbol
 _atom_site_label
 _atom_site_symmetry_multiplicity
 _atom_site_fract_x
 _atom_site_fract_y
 _atom_site_fract_z
 _atom_site_occupancy
  Li  Li0  1  0.50000000  0.19398884  0.77607443  1
  Li  Li1  1  0.50000000  0.77607443  0.19398884  1
  Fe  Fe2  1  0.00000000  0.90912797  0.90912797  1
  Fe  Fe3  1  0.50000000  0.60149717  0.60149717  1
  C  C4  1  0.00000000  0.45639243  0.86685030  1
  C  C5  1  0.00000000  0.86685030  0.45639243  1
  C  C6  1  0.50000000  0.24120967  0.24120967  1
  O  O7  1  0.00000000  0.25735440  0.89604047  1
  O  O8  1  0.00000000  0.89604047  0.25735440  1
  O  O9  1  0.21992577  0.56864716  0.85592657  1
  O  O10  1  0.21992577  0.85592657  0.56864716  1
  O  O11  1  0.50000000  0.22347314  0.45035216  1
  O  O12  1  0.50000000  0.05498358  0.05498358  1
  O  O13  1  0.50000000  0.45035216  0.22347314  1
  O  O14  1  0.78007423  0.56864716  0.85592657  1
  O  O15  1  0.78007423  0.85592657  0.56864716  1
