# generated using pymatgen
data_Bi4O5F2
_symmetry_space_group_name_H-M   'P 1'
_cell_length_a   14.22942299
_cell_length_b   5.62128733
_cell_length_c   10.66786998
_cell_angle_alpha   90.00000813
_cell_angle_beta   97.45305329
_cell_angle_gamma   90.00000144
_symmetry_Int_Tables_number   1
_chemical_formula_structural   Bi4O5F2
_chemical_formula_sum   'Bi16 O20 F8'
_cell_volume   846.08901158
_cell_formula_units_Z   4
loop_
 _symmetry_equiv_pos_site_id
 _symmetry_equiv_pos_as_xyz
  1  'x, y, z'
loop_
 _atom_site_type_symbol
 _atom_site_label
 _atom_site_symmetry_multiplicity
 _atom_site_fract_x
 _atom_site_fract_y
 _atom_site_fract_z
 _atom_site_occupancy
  Bi  Bi0  1  0.03556017  0.68201806  0.38901325  1
  Bi  Bi1  1  0.11673629  0.69912977  0.74165958  1
  Bi  Bi2  1  0.16736513  0.28478543  0.19029218  1
  Bi  Bi3  1  0.22627850  0.18520255  0.56592057  1
  Bi  Bi4  1  0.29242974  0.23606925  0.91354333  1
  Bi  Bi5  1  0.31406913  0.78676187  0.33031173  1
  Bi  Bi6  1  0.38424396  0.71639850  0.72087826  1
  Bi  Bi7  1  0.44860257  0.74959041  0.08295573  1
  Bi  Bi8  1  0.55139752  0.24959027  0.91704452  1
  Bi  Bi9  1  0.61575592  0.21639791  0.27912146  1
  Bi  Bi10  1  0.68593085  0.28676175  0.66968833  1
  Bi  Bi11  1  0.70757031  0.73606925  0.08645686  1
  Bi  Bi12  1  0.77372170  0.68520234  0.43407917  1
  Bi  Bi13  1  0.83263503  0.78478562  0.80970771  1
  Bi  Bi14  1  0.88326366  0.19912940  0.25834062  1
  Bi  Bi15  1  0.96443973  0.18201796  0.61098680  1
  O  O16  1  0.03479872  0.34271863  0.26259988  1
  O  O17  1  0.09607294  0.97475175  0.57737205  1
  O  O18  1  0.08597997  0.47761039  0.56907401  1
  O  O19  1  0.18956337  0.99769277  0.31852772  1
  O  O20  1  0.22042538  0.49948848  0.34641805  1
  O  O21  1  0.26204977  0.98436058  0.75130771  1
  O  O22  1  0.26505009  0.47830634  0.73874081  1
  O  O23  1  0.31705618  0.84515774  0.52881541  1
  O  O24  1  0.42029301  0.00294731  0.92299490  1
  O  O25  1  0.41671735  0.49284594  0.92410762  1
  O  O26  1  0.58328263  0.99284552  0.07589209  1
  O  O27  1  0.57970702  0.50294790  0.07700520  1
  O  O28  1  0.68294372  0.34515781  0.47118423  1
  O  O29  1  0.73494996  0.97830644  0.26125934  1
  O  O30  1  0.73795015  0.48435958  0.24869225  1
  O  O31  1  0.77957444  0.99948858  0.65358185  1
  O  O32  1  0.81043651  0.49769254  0.68147227  1
  O  O33  1  0.91402000  0.97761033  0.43092619  1
  O  O34  1  0.90392724  0.47475207  0.42262805  1
  O  O35  1  0.96520125  0.84271873  0.73739999  1
  F  F36  1  0.07997502  0.32489099  0.82218931  1
  F  F37  1  0.27429866  0.75980026  0.07745473  1
  F  F38  1  0.34706382  0.24273320  0.16301608  1
  F  F39  1  0.44390259  0.34905884  0.66580100  1
  F  F40  1  0.55609742  0.84905831  0.33419937  1
  F  F41  1  0.65293617  0.74273323  0.83698392  1
  F  F42  1  0.72570142  0.25980025  0.92254514  1
  F  F43  1  0.92002500  0.82489113  0.17781071  1
