# generated using pymatgen
data_Li3Mn(PO4)2
_symmetry_space_group_name_H-M   'P 1'
_cell_length_a   8.66785789
_cell_length_b   9.90254022
_cell_length_c   14.81393435
_cell_angle_alpha   90.00000000
_cell_angle_beta   84.21747238
_cell_angle_gamma   90.00000000
_symmetry_Int_Tables_number   1
_chemical_formula_structural   Li3Mn(PO4)2
_chemical_formula_sum   'Li24 Mn8 P16 O64'
_cell_volume   1265.06620713
_cell_formula_units_Z   8
loop_
 _symmetry_equiv_pos_site_id
 _symmetry_equiv_pos_as_xyz
  1  'x, y, z'
loop_
 _atom_site_type_symbol
 _atom_site_label
 _atom_site_symmetry_multiplicity
 _atom_site_fract_x
 _atom_site_fract_y
 _atom_site_fract_z
 _atom_site_occupancy
  Li  Li0  1  0.07251373  0.09959257  0.94668418  1
  Li  Li1  1  0.09213262  0.59598188  0.30241429  1
  Li  Li2  1  0.18323608  0.87741923  0.22473111  1
  Li  Li3  1  0.20939277  0.42191795  0.50924502  1
  Li  Li4  1  0.21574115  0.38500489  0.74465759  1
  Li  Li5  1  0.24668207  0.91144420  0.50079513  1
  Li  Li6  1  0.25331793  0.41144420  0.99920487  1
  Li  Li7  1  0.28425885  0.88500489  0.75534241  1
  Li  Li8  1  0.29060723  0.92191795  0.99075498  1
  Li  Li9  1  0.31676392  0.37741923  0.27526889  1
  Li  Li10  1  0.40786738  0.09598188  0.19758571  1
  Li  Li11  1  0.42748627  0.59959257  0.55331582  1
  Li  Li12  1  0.57251373  0.40040743  0.44668418  1
  Li  Li13  1  0.59213262  0.90401812  0.80241429  1
  Li  Li14  1  0.68323608  0.62258077  0.72473111  1
  Li  Li15  1  0.70939277  0.07808205  0.00924502  1
  Li  Li16  1  0.71574115  0.11499511  0.24465759  1
  Li  Li17  1  0.74668207  0.58855580  0.00079513  1
  Li  Li18  1  0.75331793  0.08855580  0.49920487  1
  Li  Li19  1  0.78425885  0.61499511  0.25534241  1
  Li  Li20  1  0.79060723  0.57808205  0.49075498  1
  Li  Li21  1  0.81676392  0.12258077  0.77526889  1
  Li  Li22  1  0.90786738  0.40401812  0.69758571  1
  Li  Li23  1  0.92748627  0.90040743  0.05331582  1
  Mn  Mn24  1  0.09049343  0.64203458  0.88773931  1
  Mn  Mn25  1  0.08305516  0.12092406  0.36409390  1
  Mn  Mn26  1  0.41694484  0.62092406  0.13590610  1
  Mn  Mn27  1  0.40950657  0.14203458  0.61226069  1
  Mn  Mn28  1  0.59049343  0.85796542  0.38773931  1
  Mn  Mn29  1  0.58305516  0.37907594  0.86409390  1
  Mn  Mn30  1  0.91694484  0.87907594  0.63590610  1
  Mn  Mn31  1  0.90950657  0.35796542  0.11226069  1
  P  P32  1  0.08334939  0.63745262  0.65783340  1
  P  P33  1  0.07489432  0.14074691  0.14145977  1
  P  P34  1  0.07224209  0.65466051  0.10011296  1
  P  P35  1  0.04975367  0.16946656  0.58918457  1
  P  P36  1  0.45024633  0.66946656  0.91081543  1
  P  P37  1  0.42775791  0.15466051  0.39988704  1
  P  P38  1  0.42510568  0.64074691  0.35854023  1
  P  P39  1  0.41665061  0.13745262  0.84216660  1
  P  P40  1  0.58334939  0.86254738  0.15783340  1
  P  P41  1  0.57489432  0.35925309  0.64145977  1
  P  P42  1  0.57224209  0.84533949  0.60011296  1
  P  P43  1  0.54975367  0.33053344  0.08918457  1
  P  P44  1  0.95024633  0.83053344  0.41081543  1
  P  P45  1  0.92775791  0.34533949  0.89988704  1
  P  P46  1  0.92510568  0.85925309  0.85854023  1
  P  P47  1  0.91665061  0.36254738  0.34216660  1
  O  O48  1  0.06216151  0.44227593  0.91793099  1
  O  O49  1  0.06976002  0.90409014  0.34477054  1
  O  O50  1  0.04195099  0.72621628  0.19219379  1
  O  O51  1  0.06802833  0.31938589  0.61085840  1
  O  O52  1  0.99650879  0.14921901  0.49183249  1
  O  O53  1  0.11520830  0.56826907  0.74843519  1
  O  O54  1  0.09213773  0.75636549  0.02070265  1
  O  O55  1  0.10400626  0.84092358  0.84086693  1
  O  O56  1  0.09176115  0.38550952  0.35569614  1
  O  O57  1  0.16269002  0.10872601  0.22672333  1
  O  O58  1  0.20077441  0.58844870  0.58127060  1
  O  O59  1  0.10566646  0.79671318  0.66561138  1
  O  O60  1  0.11072428  0.02716381  0.07289823  1
  O  O61  1  0.12321624  0.28661645  0.10607960  1
  O  O62  1  0.21998509  0.56404759  0.09961339  1
  O  O63  1  0.20371848  0.08977810  0.59456084  1
  O  O64  1  0.29628152  0.58977810  0.90543916  1
  O  O65  1  0.28001491  0.06404759  0.40038661  1
  O  O66  1  0.37678376  0.78661645  0.39392040  1
  O  O67  1  0.39433354  0.29671318  0.83438862  1
  O  O68  1  0.38927572  0.52716381  0.42710177  1
  O  O69  1  0.29922559  0.08844870  0.91872940  1
  O  O70  1  0.33730998  0.60872601  0.27327667  1
  O  O71  1  0.40823885  0.88550952  0.14430386  1
  O  O72  1  0.39599374  0.34092358  0.65913307  1
  O  O73  1  0.40786227  0.25636549  0.47929735  1
  O  O74  1  0.38479170  0.06826907  0.75156481  1
  O  O75  1  0.43197167  0.81938589  0.88914160  1
  O  O76  1  0.50349121  0.64921901  0.00816751  1
  O  O77  1  0.45804901  0.22621628  0.30780621  1
  O  O78  1  0.43783849  0.94227593  0.58206901  1
  O  O79  1  0.43023998  0.40409014  0.15522946  1
  O  O80  1  0.56976002  0.59590986  0.84477054  1
  O  O81  1  0.56216151  0.05772407  0.41793099  1
  O  O82  1  0.54195099  0.77378372  0.69219379  1
  O  O83  1  0.49650879  0.35078099  0.99183249  1
  O  O84  1  0.56802833  0.18061411  0.11085840  1
  O  O85  1  0.61520830  0.93173093  0.24843519  1
  O  O86  1  0.59213773  0.74363451  0.52070265  1
  O  O87  1  0.60400626  0.65907642  0.34086693  1
  O  O88  1  0.59176115  0.11449048  0.85569614  1
  O  O89  1  0.66269002  0.39127399  0.72672333  1
  O  O90  1  0.70077441  0.91155130  0.08126960  1
  O  O91  1  0.61072428  0.47283619  0.57289823  1
  O  O92  1  0.60566646  0.70328682  0.16561138  1
  O  O93  1  0.62321624  0.21338355  0.60607960  1
  O  O94  1  0.71998509  0.93595241  0.59961339  1
  O  O95  1  0.70371848  0.41022190  0.09456084  1
  O  O96  1  0.79628152  0.91022190  0.40543916  1
  O  O97  1  0.78001491  0.43595241  0.90038661  1
  O  O98  1  0.87678376  0.71338355  0.89392040  1
  O  O99  1  0.88927572  0.97283619  0.92710177  1
  O  O100  1  0.89433354  0.20328682  0.33438862  1
  O  O101  1  0.79922559  0.41155130  0.41872940  1
  O  O102  1  0.83730998  0.89127399  0.77327667  1
  O  O103  1  0.90823885  0.61449048  0.64430386  1
  O  O104  1  0.89599374  0.15907642  0.15913307  1
  O  O105  1  0.90786227  0.24363451  0.97929735  1
  O  O106  1  0.88479170  0.43173093  0.25156481  1
  O  O107  1  0.00349121  0.85078099  0.50816751  1
  O  O108  1  0.93197167  0.68061411  0.38914160  1
  O  O109  1  0.95804901  0.27378372  0.80780621  1
  O  O110  1  0.93023998  0.09590986  0.65522946  1
  O  O111  1  0.93783849  0.55772407  0.08206901  1
