# generated using pymatgen
data_Rb3YF6
_symmetry_space_group_name_H-M   'P 1'
_cell_length_a   7.17423802
_cell_length_b   7.17423801
_cell_length_c   6.99979498
_cell_angle_alpha   120.82786731
_cell_angle_beta   120.82786730
_cell_angle_gamma   90.00000002
_symmetry_Int_Tables_number   1
_chemical_formula_structural   Rb3YF6
_chemical_formula_sum   'Rb3 Y1 F6'
_cell_volume   248.24341687
_cell_formula_units_Z   1
loop_
 _symmetry_equiv_pos_site_id
 _symmetry_equiv_pos_as_xyz
  1  'x, y, z'
loop_
 _atom_site_type_symbol
 _atom_site_label
 _atom_site_symmetry_multiplicity
 _atom_site_fract_x
 _atom_site_fract_y
 _atom_site_fract_z
 _atom_site_occupancy
  F  F0  1  0.69613145  1.00000000  0.00000000  1
  F  F1  1  1.00000000  0.69613145  0.00000000  1
  F  F2  1  0.00000000  0.30386855  0.00000000  1
  F  F3  1  0.30386855  0.00000000  1.00000000  1
  F  F4  1  0.23037772  0.23037772  0.46075545  1
  F  F5  1  0.76962228  0.76962228  0.53924455  1
  Rb  Rb6  1  0.75000000  0.25000000  0.50000000  1
  Rb  Rb7  1  0.25000000  0.75000000  0.50000000  1
  Rb  Rb8  1  0.50000000  0.50000000  0.00000000  1
  Y  Y9  1  0.00000000  0.00000000  0.00000000  1
