# generated using pymatgen
data_LiFe4(PO4)3
_symmetry_space_group_name_H-M   'P 1'
_cell_length_a   13.65894245
_cell_length_b   8.35782501
_cell_length_c   10.11223581
_cell_angle_alpha   90.00000000
_cell_angle_beta   90.00000000
_cell_angle_gamma   90.00000000
_symmetry_Int_Tables_number   1
_chemical_formula_structural   LiFe4(PO4)3
_chemical_formula_sum   'Li4 Fe16 P12 O48'
_cell_volume   1154.40324173
_cell_formula_units_Z   4
loop_
 _symmetry_equiv_pos_site_id
 _symmetry_equiv_pos_as_xyz
  1  'x, y, z'
loop_
 _atom_site_type_symbol
 _atom_site_label
 _atom_site_symmetry_multiplicity
 _atom_site_fract_x
 _atom_site_fract_y
 _atom_site_fract_z
 _atom_site_occupancy
  Li  Li0  1  0.25000000  0.75000000  0.69887166  1
  Li  Li1  1  0.25000000  0.75000000  0.19887166  1
  Li  Li2  1  0.75000000  0.25000000  0.30112834  1
  Li  Li3  1  0.75000000  0.25000000  0.80112834  1
  Fe  Fe4  1  0.04674253  0.11348719  0.19742749  1
  Fe  Fe5  1  0.04674253  0.38651281  0.69742749  1
  Fe  Fe6  1  0.14867677  0.42378308  0.99621866  1
  Fe  Fe7  1  0.14867677  0.07621692  0.49621866  1
  Fe  Fe8  1  0.35132323  0.42378308  0.49621866  1
  Fe  Fe9  1  0.35132323  0.07621692  0.99621866  1
  Fe  Fe10  1  0.45325747  0.11348719  0.69742749  1
  Fe  Fe11  1  0.45325747  0.38651281  0.19742749  1
  Fe  Fe12  1  0.54674253  0.88651281  0.30257251  1
  Fe  Fe13  1  0.54674253  0.61348719  0.80257251  1
  Fe  Fe14  1  0.64867677  0.57621692  0.50378134  1
  Fe  Fe15  1  0.64867677  0.92378308  0.00378134  1
  Fe  Fe16  1  0.85132323  0.57621692  0.00378134  1
  Fe  Fe17  1  0.85132323  0.92378308  0.50378134  1
  Fe  Fe18  1  0.95325747  0.61348719  0.30257251  1
  Fe  Fe19  1  0.95325747  0.88651281  0.80257251  1
  P  P20  1  0.06993897  0.73905076  0.56784536  1
  P  P21  1  0.06993897  0.76094924  0.06784536  1
  P  P22  1  0.25000000  0.25000000  0.25087683  1
  P  P23  1  0.25000000  0.25000000  0.75087683  1
  P  P24  1  0.43006103  0.73905076  0.06784536  1
  P  P25  1  0.43006103  0.76094924  0.56784536  1
  P  P26  1  0.56993897  0.23905076  0.43215464  1
  P  P27  1  0.56993897  0.26094924  0.93215464  1
  P  P28  1  0.75000000  0.75000000  0.24912317  1
  P  P29  1  0.75000000  0.75000000  0.74912317  1
  P  P30  1  0.93006103  0.23905076  0.93215464  1
  P  P31  1  0.93006103  0.26094924  0.43215464  1
  O  O32  1  0.02563996  0.16160622  0.39598709  1
  O  O33  1  0.02563996  0.33839378  0.89598709  1
  O  O34  1  0.05965009  0.66370175  0.43077268  1
  O  O35  1  0.05965009  0.83629825  0.93077268  1
  O  O36  1  0.08961497  0.88448789  0.17805211  1
  O  O37  1  0.08961497  0.61551211  0.67805211  1
  O  O38  1  0.15779655  0.64168791  0.07452361  1
  O  O39  1  0.15779655  0.85831209  0.57452361  1
  O  O40  1  0.15845189  0.27550334  0.15831875  1
  O  O41  1  0.15845189  0.22449666  0.65831875  1
  O  O42  1  0.23215207  0.09917202  0.33451532  1
  O  O43  1  0.23215207  0.40082798  0.83451532  1
  O  O44  1  0.26784793  0.09917202  0.83451532  1
  O  O45  1  0.26784793  0.40082798  0.33451532  1
  O  O46  1  0.34154811  0.27550334  0.65831875  1
  O  O47  1  0.34154811  0.22449666  0.15831875  1
  O  O48  1  0.34220345  0.85831209  0.07452361  1
  O  O49  1  0.34220345  0.64168791  0.57452361  1
  O  O50  1  0.41038503  0.88448789  0.67805211  1
  O  O51  1  0.41038503  0.61551211  0.17805211  1
  O  O52  1  0.44034991  0.83629825  0.43077268  1
  O  O53  1  0.44034991  0.66370175  0.93077268  1
  O  O54  1  0.47436104  0.33839378  0.39598709  1
  O  O55  1  0.47436104  0.16160622  0.89598709  1
  O  O56  1  0.52563896  0.66160622  0.60401291  1
  O  O57  1  0.52563896  0.83839378  0.10401291  1
  O  O58  1  0.55965009  0.16370175  0.56922732  1
  O  O59  1  0.55965009  0.33629825  0.06922732  1
  O  O60  1  0.58961497  0.11551211  0.32194789  1
  O  O61  1  0.58961497  0.38448789  0.82194789  1
  O  O62  1  0.65779655  0.14168791  0.92547639  1
  O  O63  1  0.65779655  0.35831209  0.42547639  1
  O  O64  1  0.65845189  0.72449666  0.34168125  1
  O  O65  1  0.65845189  0.77550334  0.84168125  1
  O  O66  1  0.73215207  0.59917202  0.66548468  1
  O  O67  1  0.73215207  0.90082798  0.16548468  1
  O  O68  1  0.76784793  0.59917202  0.16548468  1
  O  O69  1  0.76784793  0.90082798  0.66548468  1
  O  O70  1  0.84154811  0.72449666  0.84168125  1
  O  O71  1  0.84154811  0.77550334  0.34168125  1
  O  O72  1  0.84220345  0.14168791  0.42547639  1
  O  O73  1  0.84220345  0.35831209  0.92547639  1
  O  O74  1  0.91038503  0.11551211  0.82194789  1
  O  O75  1  0.91038503  0.38448789  0.32194789  1
  O  O76  1  0.94034991  0.16370175  0.06922732  1
  O  O77  1  0.94034991  0.33629825  0.56922732  1
  O  O78  1  0.97436104  0.66160622  0.10401291  1
  O  O79  1  0.97436104  0.83839378  0.60401291  1
