# generated using pymatgen
data_Li15Mn2O12
_symmetry_space_group_name_H-M   'P 1'
_cell_length_a   5.46979451
_cell_length_b   7.97355934
_cell_length_c   5.78851621
_cell_angle_alpha   94.04572425
_cell_angle_beta   90.02058177
_cell_angle_gamma   89.72116094
_symmetry_Int_Tables_number   1
_chemical_formula_structural   Li15Mn2O12
_chemical_formula_sum   'Li15 Mn2 O12'
_cell_volume   251.82669647
_cell_formula_units_Z   1
loop_
 _symmetry_equiv_pos_site_id
 _symmetry_equiv_pos_as_xyz
  1  'x, y, z'
loop_
 _atom_site_type_symbol
 _atom_site_label
 _atom_site_symmetry_multiplicity
 _atom_site_fract_x
 _atom_site_fract_y
 _atom_site_fract_z
 _atom_site_occupancy
  Li  Li0  1  0.00824943  0.64598616  0.67659288  1
  Li  Li1  1  0.87660470  0.62897141  0.26165427  1
  Li  Li2  1  0.79043471  0.91122449  0.61979108  1
  Li  Li3  1  0.80421752  0.30418881  0.94507124  1
  Li  Li4  1  0.69601817  0.20431813  0.56300208  1
  Li  Li5  1  0.66020917  0.59567656  0.89251137  1
  Li  Li6  1  0.62585060  0.87589142  0.19516884  1
  Li  Li7  1  0.48998289  0.16138560  0.19408987  1
  Li  Li8  1  0.37092461  0.09912527  0.79542558  1
  Li  Li9  1  0.33894743  0.43260229  0.06912233  1
  Li  Li10  1  0.31475181  0.79303675  0.47654029  1
  Li  Li11  1  0.22222498  0.72129514  0.03530710  1
  Li  Li12  1  0.15097179  0.06787771  0.43375691  1
  Li  Li13  1  0.14318098  0.36184840  0.72200181  1
  Li  Li14  1  0.00751188  0.34561478  0.31547385  1
  Mn  Mn15  1  0.50324846  0.49628918  0.49013314  1
  Mn  Mn16  1  0.99647934  0.00446968  0.00771526  1
  O  O17  1  0.87452151  0.77173933  0.99996609  1
  O  O18  1  0.83101006  0.06910601  0.30401135  1
  O  O19  1  0.80462970  0.42746357  0.65715477  1
  O  O20  1  0.70386531  0.08309785  0.85463084  1
  O  O21  1  0.66357003  0.43140964  0.19465309  1
  O  O22  1  0.64787612  0.71835313  0.48349379  1
  O  O23  1  0.36066034  0.26538416  0.49749316  1
  O  O24  1  0.33548609  0.56061168  0.78820541  1
  O  O25  1  0.29034255  0.93876243  0.17542016  1
  O  O26  1  0.20872028  0.57231411  0.33087905  1
  O  O27  1  0.13411976  0.93365880  0.70283602  1
  O  O28  1  0.14314280  0.23178748  0.00081337  1
