# generated using pymatgen
data_Li4Fe7(PO4)6
_symmetry_space_group_name_H-M   'P 1'
_cell_length_a   8.99864063
_cell_length_b   8.99864063
_cell_length_c   6.51378017
_cell_angle_alpha   80.94844221
_cell_angle_beta   99.05155779
_cell_angle_gamma   76.71612905
_symmetry_Int_Tables_number   1
_chemical_formula_structural   Li4Fe7(PO4)6
_chemical_formula_sum   'Li4 Fe7 P6 O24'
_cell_volume   496.57413034
_cell_formula_units_Z   1
loop_
 _symmetry_equiv_pos_site_id
 _symmetry_equiv_pos_as_xyz
  1  'x, y, z'
loop_
 _atom_site_type_symbol
 _atom_site_label
 _atom_site_symmetry_multiplicity
 _atom_site_fract_x
 _atom_site_fract_y
 _atom_site_fract_z
 _atom_site_occupancy
  Li  Li0  1  0.24040771  0.75959229  0.46407649  1
  Li  Li1  1  0.42680185  0.33830083  0.52703000  1
  Li  Li2  1  0.66169917  0.57319815  0.52703000  1
  Li  Li3  1  0.93509764  0.06490236  0.55342473  1
  Fe  Fe4  1  0.00878253  0.35737513  0.18117214  1
  Fe  Fe5  1  0.64262487  0.99121747  0.18117214  1
  Fe  Fe6  1  0.36027365  0.35308781  0.01549685  1
  Fe  Fe7  1  0.64691219  0.63972635  0.01549685  1
  Fe  Fe8  1  0.00631875  0.99368125  0.00999338  1
  Fe  Fe9  1  0.35737703  0.00547683  0.80971315  1
  Fe  Fe10  1  0.99452317  0.64262297  0.80971315  1
  P  P11  1  0.71748928  0.89715147  0.70936098  1
  P  P12  1  0.10284853  0.28251072  0.70936098  1
  P  P13  1  0.32635057  0.67364943  0.07260244  1
  P  P14  1  0.68841415  0.31158585  0.91718017  1
  P  P15  1  0.28855972  0.08574322  0.29349762  1
  P  P16  1  0.91425678  0.71144028  0.29349762  1
  O  O17  1  0.41741476  0.75991751  0.92679191  1
  O  O18  1  0.24008249  0.58258524  0.92679191  1
  O  O19  1  0.20782563  0.79217437  0.15272536  1
  O  O20  1  0.04339960  0.38340301  0.86813089  1
  O  O21  1  0.61659699  0.95660040  0.86813089  1
  O  O22  1  0.10560250  0.10458030  0.76882485  1
  O  O23  1  0.89541970  0.89439750  0.76882485  1
  O  O24  1  0.28110272  0.27840435  0.72797017  1
  O  O25  1  0.72159565  0.71889728  0.72797017  1
  O  O26  1  0.44575211  0.55424789  0.25461357  1
  O  O27  1  0.58037627  0.41962373  0.71443098  1
  O  O28  1  0.88813521  0.89134604  0.21835575  1
  O  O29  1  0.10865396  0.11186479  0.21835575  1
  O  O30  1  0.74735495  0.68914580  0.30661385  1
  O  O31  1  0.31085420  0.25264505  0.30661385  1
  O  O32  1  0.33470008  0.96537561  0.50558982  1
  O  O33  1  0.03462439  0.66529992  0.50558982  1
  O  O34  1  0.81491921  0.18508079  0.86906502  1
  O  O35  1  0.38595608  0.02801776  0.13007199  1
  O  O36  1  0.97198224  0.61404392  0.13007199  1
  O  O37  1  0.58576154  0.23529661  0.05540438  1
  O  O38  1  0.76470339  0.41423846  0.05540438  1
  O  O39  1  0.65455556  0.00110284  0.48908359  1
  O  O40  1  0.99889716  0.34544444  0.48908359  1
