# generated using pymatgen
data_LiFeSiO4
_symmetry_space_group_name_H-M   'P 1'
_cell_length_a   10.57414899
_cell_length_b   12.96302694
_cell_length_c   5.22291430
_cell_angle_alpha   90.00000000
_cell_angle_beta   90.00000000
_cell_angle_gamma   90.00000000
_symmetry_Int_Tables_number   1
_chemical_formula_structural   LiFeSiO4
_chemical_formula_sum   'Li8 Fe8 Si8 O32'
_cell_volume   715.92041811
_cell_formula_units_Z   8
loop_
 _symmetry_equiv_pos_site_id
 _symmetry_equiv_pos_as_xyz
  1  'x, y, z'
loop_
 _atom_site_type_symbol
 _atom_site_label
 _atom_site_symmetry_multiplicity
 _atom_site_fract_x
 _atom_site_fract_y
 _atom_site_fract_z
 _atom_site_occupancy
  Li  Li0  1  0.04959103  0.75564626  0.07697153  1
  Li  Li1  1  0.20930763  0.00030974  0.57074524  1
  Li  Li2  1  0.29069237  0.50030974  0.57074524  1
  Li  Li3  1  0.45040897  0.25564626  0.07697153  1
  Li  Li4  1  0.54959103  0.75564626  0.92302847  1
  Li  Li5  1  0.70930763  0.00030974  0.42925476  1
  Li  Li6  1  0.79069237  0.50030974  0.42925476  1
  Li  Li7  1  0.95040897  0.25564626  0.92302847  1
  Fe  Fe8  1  0.04251694  0.37389522  0.41593902  1
  Fe  Fe9  1  0.21243009  0.12720014  0.05738262  1
  Fe  Fe10  1  0.28756991  0.62720014  0.05738262  1
  Fe  Fe11  1  0.45748306  0.87389522  0.41593902  1
  Fe  Fe12  1  0.54251694  0.37389522  0.58406098  1
  Fe  Fe13  1  0.71243009  0.12720014  0.94261738  1
  Fe  Fe14  1  0.78756991  0.62720014  0.94261738  1
  Fe  Fe15  1  0.95748306  0.87389522  0.58406098  1
  Si  Si16  1  0.03527023  0.50417735  0.90346566  1
  Si  Si17  1  0.20640561  0.74933089  0.56065724  1
  Si  Si18  1  0.29359439  0.24933089  0.56065724  1
  Si  Si19  1  0.46472977  0.00417735  0.90346566  1
  Si  Si20  1  0.53527023  0.50417735  0.09653434  1
  Si  Si21  1  0.70640561  0.74933089  0.43934276  1
  Si  Si22  1  0.79359439  0.24933089  0.43934276  1
  Si  Si23  1  0.96472977  0.00417735  0.09653434  1
  O  O24  1  0.99881821  0.89831054  0.93200775  1
  O  O25  1  0.98354792  0.48738231  0.60873927  1
  O  O26  1  0.05978941  0.76452980  0.46230383  1
  O  O27  1  0.03797240  0.10710989  0.98020994  1
  O  O28  1  0.21590767  0.35549087  0.48418591  1
  O  O29  1  0.19041657  0.51932294  0.91224246  1
  O  O30  1  0.28784487  0.23683272  0.87486055  1
  O  O31  1  0.23645511  0.14606132  0.41582842  1
  O  O32  1  0.26354489  0.64606132  0.41582842  1
  O  O33  1  0.21215513  0.73683272  0.87486055  1
  O  O34  1  0.30958343  0.01932294  0.91224246  1
  O  O35  1  0.28409233  0.85549087  0.48418591  1
  O  O36  1  0.46202760  0.60710989  0.98020994  1
  O  O37  1  0.44021059  0.26452980  0.46230383  1
  O  O38  1  0.51645208  0.98738231  0.60873927  1
  O  O39  1  0.50118179  0.39831054  0.93200775  1
  O  O40  1  0.49881821  0.89831054  0.06799225  1
  O  O41  1  0.48354792  0.48738231  0.39126073  1
  O  O42  1  0.55978941  0.76452980  0.53769617  1
  O  O43  1  0.53797240  0.10710989  0.01979006  1
  O  O44  1  0.71590767  0.35549087  0.51581409  1
  O  O45  1  0.69041657  0.51932294  0.08775754  1
  O  O46  1  0.78784487  0.23683272  0.12513945  1
  O  O47  1  0.73645511  0.14606132  0.58417158  1
  O  O48  1  0.76354489  0.64606132  0.58417158  1
  O  O49  1  0.71215513  0.73683272  0.12513945  1
  O  O50  1  0.80958343  0.01932294  0.08775754  1
  O  O51  1  0.78409233  0.85549087  0.51581409  1
  O  O52  1  0.96202760  0.60710989  0.01979006  1
  O  O53  1  0.94021059  0.26452980  0.53769617  1
  O  O54  1  0.01645208  0.98738231  0.39126073  1
  O  O55  1  0.00118179  0.39831054  0.06799225  1
