# generated using pymatgen
data_Li2FeSiO4
_symmetry_space_group_name_H-M   'P 1'
_cell_length_a   10.61018408
_cell_length_b   5.45603333
_cell_length_c   12.91359736
_cell_angle_alpha   90.00000000
_cell_angle_beta   90.00000000
_cell_angle_gamma   90.00000000
_symmetry_Int_Tables_number   1
_chemical_formula_structural   Li2FeSiO4
_chemical_formula_sum   'Li16 Fe8 Si8 O32'
_cell_volume   747.56192653
_cell_formula_units_Z   8
loop_
 _symmetry_equiv_pos_site_id
 _symmetry_equiv_pos_as_xyz
  1  'x, y, z'
loop_
 _atom_site_type_symbol
 _atom_site_label
 _atom_site_symmetry_multiplicity
 _atom_site_fract_x
 _atom_site_fract_y
 _atom_site_fract_z
 _atom_site_occupancy
  Li  Li0  1  0.97167636  0.96502413  0.56129888  1
  Li  Li1  1  0.94997371  0.46443626  0.94204932  1
  Li  Li2  1  0.21141077  0.35894094  0.29748947  1
  Li  Li3  1  0.20933269  0.84630841  0.19974119  1
  Li  Li4  1  0.29066731  0.84630841  0.69974119  1
  Li  Li5  1  0.28858923  0.35894094  0.79748947  1
  Li  Li6  1  0.52832364  0.96502413  0.06129888  1
  Li  Li7  1  0.55002629  0.46443626  0.44204932  1
  Li  Li8  1  0.44997371  0.53556374  0.94204932  1
  Li  Li9  1  0.47167636  0.03497587  0.56129888  1
  Li  Li10  1  0.71141077  0.64105906  0.29748947  1
  Li  Li11  1  0.70933269  0.15369159  0.19974119  1
  Li  Li12  1  0.79066731  0.15369159  0.69974119  1
  Li  Li13  1  0.78858923  0.64105906  0.79748947  1
  Li  Li14  1  0.02832364  0.03497587  0.06129888  1
  Li  Li15  1  0.05002629  0.53556374  0.44204932  1
  Fe  Fe16  1  0.03532252  0.97302983  0.81357957  1
  Fe  Fe17  1  0.20520347  0.51694154  0.05574103  1
  Fe  Fe18  1  0.29479653  0.51694154  0.55574103  1
  Fe  Fe19  1  0.46467748  0.97302983  0.31357957  1
  Fe  Fe20  1  0.53532252  0.02697017  0.81357957  1
  Fe  Fe21  1  0.70520347  0.48305846  0.05574103  1
  Fe  Fe22  1  0.79479653  0.48305846  0.55574103  1
  Fe  Fe23  1  0.96467748  0.02697017  0.31357957  1
  Si  Si24  1  0.03505701  0.47994419  0.69120206  1
  Si  Si25  1  0.21394452  0.01918706  0.43768428  1
  Si  Si26  1  0.28605548  0.01918706  0.93768428  1
  Si  Si27  1  0.46494299  0.47994419  0.19120206  1
  Si  Si28  1  0.53505701  0.52005581  0.69120206  1
  Si  Si29  1  0.71394452  0.98081294  0.43768428  1
  Si  Si30  1  0.78605548  0.98081294  0.93768428  1
  Si  Si31  1  0.96494299  0.52005581  0.19120206  1
  O  O32  1  0.02044961  0.38633411  0.29725082  1
  O  O33  1  0.01297233  0.81078382  0.19216424  1
  O  O34  1  0.07332078  0.89628108  0.43248998  1
  O  O35  1  0.02811792  0.39894613  0.08582077  1
  O  O36  1  0.19008152  0.52034013  0.69031257  1
  O  O37  1  0.22448549  0.00746383  0.81940668  1
  O  O38  1  0.19893084  0.31692758  0.45776744  1
  O  O39  1  0.19651678  0.88851541  0.02673571  1
  O  O40  1  0.30348322  0.88851541  0.52673571  1
  O  O41  1  0.30106916  0.31692758  0.95776744  1
  O  O42  1  0.27551451  0.00746383  0.31940668  1
  O  O43  1  0.30991848  0.52034013  0.19031257  1
  O  O44  1  0.47188208  0.39894613  0.58582077  1
  O  O45  1  0.42667922  0.89628108  0.93248998  1
  O  O46  1  0.48702767  0.81078382  0.69216424  1
  O  O47  1  0.47955039  0.38633411  0.79725082  1
  O  O48  1  0.52044961  0.61366589  0.29725082  1
  O  O49  1  0.51297233  0.18921618  0.19216424  1
  O  O50  1  0.57332078  0.10371892  0.43248998  1
  O  O51  1  0.52811792  0.60105387  0.08582077  1
  O  O52  1  0.69008152  0.47965987  0.69031257  1
  O  O53  1  0.72448549  0.99253617  0.81940668  1
  O  O54  1  0.69893084  0.68307242  0.45776744  1
  O  O55  1  0.69651678  0.11148459  0.02673571  1
  O  O56  1  0.80348322  0.11148459  0.52673571  1
  O  O57  1  0.80106916  0.68307242  0.95776744  1
  O  O58  1  0.77551451  0.99253617  0.31940668  1
  O  O59  1  0.80991848  0.47965987  0.19031257  1
  O  O60  1  0.97188208  0.60105387  0.58582077  1
  O  O61  1  0.92667922  0.10371892  0.93248998  1
  O  O62  1  0.98702767  0.18921618  0.69216424  1
  O  O63  1  0.97955039  0.61366589  0.79725082  1
