# generated using pymatgen
data_Li5Fe5O12
_symmetry_space_group_name_H-M   'P 1'
_cell_length_a   5.10046934
_cell_length_b   5.09635820
_cell_length_c   19.87965871
_cell_angle_alpha   85.78753560
_cell_angle_beta   95.13954944
_cell_angle_gamma   60.48240244
_symmetry_Int_Tables_number   1
_chemical_formula_structural   Li5Fe5O12
_chemical_formula_sum   'Li10 Fe10 O24'
_cell_volume   443.72733035
_cell_formula_units_Z   2
loop_
 _symmetry_equiv_pos_site_id
 _symmetry_equiv_pos_as_xyz
  1  'x, y, z'
loop_
 _atom_site_type_symbol
 _atom_site_label
 _atom_site_symmetry_multiplicity
 _atom_site_fract_x
 _atom_site_fract_y
 _atom_site_fract_z
 _atom_site_occupancy
  Li  Li0  1  0.99037243  0.50628507  0.50225830  1
  Li  Li1  1  0.33865306  0.84857586  0.50218748  1
  Li  Li2  1  0.75138298  0.75267867  0.62506424  1
  Li  Li3  1  0.84130945  0.34768441  0.74736506  1
  Li  Li4  1  0.98626420  0.50098457  0.00246773  1
  Li  Li5  1  0.50329945  0.99812248  0.74770348  1
  Li  Li6  1  0.74926887  0.74780832  0.12506714  1
  Li  Li7  1  0.84625005  0.33972396  0.24755803  1
  Li  Li8  1  0.51045261  0.99182104  0.24810487  1
  Li  Li9  1  0.65909812  0.15259255  0.00261182  1
  Fe  Fe10  1  0.58631211  0.58586208  0.87518221  1
  Fe  Fe11  1  0.25075196  0.25240265  0.87493523  1
  Fe  Fe12  1  0.91584898  0.91778018  0.87498146  1
  Fe  Fe13  1  0.08316117  0.08379739  0.62497081  1
  Fe  Fe14  1  0.41949524  0.42006657  0.62510429  1
  Fe  Fe15  1  0.58313288  0.58499712  0.37483346  1
  Fe  Fe16  1  0.25211125  0.25332860  0.37497691  1
  Fe  Fe17  1  0.91346603  0.91512252  0.37499762  1
  Fe  Fe18  1  0.07893845  0.08227447  0.12493201  1
  Fe  Fe19  1  0.40694081  0.42960285  0.12478789  1
  O  O20  1  0.21666221  0.97425633  0.82223305  1
  O  O21  1  0.28596673  0.52910388  0.92810529  1
  O  O22  1  0.63348016  0.87960834  0.93216020  1
  O  O23  1  0.08994642  0.76766598  0.57284581  1
  O  O24  1  0.21277445  0.97714881  0.32037968  1
  O  O25  1  0.41902196  0.73352218  0.67818257  1
  O  O26  1  0.13778775  0.33728367  0.67944891  1
  O  O27  1  0.27896276  0.54646389  0.42819701  1
  O  O28  1  0.62338292  0.86564586  0.43257969  1
  O  O29  1  0.86828239  0.62502192  0.81787841  1
  O  O30  1  0.55170427  0.27855124  0.82003044  1
  O  O31  1  0.06294112  0.78423783  0.07353895  1
  O  O32  1  0.33464668  0.13821674  0.57066815  1
  O  O33  1  0.42914731  0.71838163  0.17565143  1
  O  O34  1  0.73048167  0.41808376  0.57225208  1
  O  O35  1  0.95086180  0.22577100  0.92955337  1
  O  O36  1  0.13935508  0.32860982  0.18041053  1
  O  O37  1  0.76807400  0.09212608  0.67716036  1
  O  O38  1  0.86254675  0.62364904  0.31735399  1
  O  O39  1  0.54375701  0.27957980  0.32176074  1
  O  O40  1  0.34908181  0.16172789  0.07147843  1
  O  O41  1  0.74345080  0.40015217  0.06954487  1
  O  O42  1  0.97665768  0.21545372  0.42940239  1
  O  O43  1  0.77210818  0.09094006  0.17862561  1
