# generated using pymatgen
data_Li2(NiO2)5
_symmetry_space_group_name_H-M   'P 1'
_cell_length_a   7.71746245
_cell_length_b   4.95758726
_cell_length_c   5.87996917
_cell_angle_alpha   65.49407727
_cell_angle_beta   115.59251249
_cell_angle_gamma   90.50204204
_symmetry_Int_Tables_number   1
_chemical_formula_structural   Li2(NiO2)5
_chemical_formula_sum   'Li2 Ni5 O10'
_cell_volume   180.59424245
_cell_formula_units_Z   1
loop_
 _symmetry_equiv_pos_site_id
 _symmetry_equiv_pos_as_xyz
  1  'x, y, z'
loop_
 _atom_site_type_symbol
 _atom_site_label
 _atom_site_symmetry_multiplicity
 _atom_site_fract_x
 _atom_site_fract_y
 _atom_site_fract_z
 _atom_site_occupancy
  Li  Li0  1  0.27764804  0.25607728  0.83215193  1
  Li  Li1  1  0.72234852  0.74393394  0.16787944  1
  Ni  Ni2  1  0.99996851  0.00000439  0.00000908  1
  Ni  Ni3  1  0.19912623  0.39716688  0.20343957  1
  Ni  Ni4  1  0.60173845  0.19928845  0.59729214  1
  Ni  Ni5  1  0.39828123  0.80064562  0.40267952  1
  Ni  Ni6  1  0.80085934  0.60283036  0.79656579  1
  O  O7  1  0.43815135  0.19590095  0.24684948  1
  O  O8  1  0.23776927  0.83584267  0.04267046  1
  O  O9  1  0.04508881  0.39435966  0.85807945  1
  O  O10  1  0.36594971  0.39322455  0.55180410  1
  O  O11  1  0.83429559  0.03758404  0.63650404  1
  O  O12  1  0.16577245  0.96257513  0.36349277  1
  O  O13  1  0.63404000  0.60666375  0.44817191  1
  O  O14  1  0.95479212  0.60577225  0.14192605  1
  O  O15  1  0.76213877  0.16407193  0.95731247  1
  O  O16  1  0.56196762  0.80393315  0.75310980  1
