# generated using pymatgen
data_Li4Ti3Mn3(TeO8)2
_symmetry_space_group_name_H-M   'P 1'
_cell_length_a   6.07275669
_cell_length_b   6.01518750
_cell_length_c   10.30625305
_cell_angle_alpha   90.00088028
_cell_angle_beta   89.88808084
_cell_angle_gamma   119.69645417
_symmetry_Int_Tables_number   1
_chemical_formula_structural   Li4Ti3Mn3(TeO8)2
_chemical_formula_sum   'Li4 Ti3 Mn3 Te2 O16'
_cell_volume   327.02855329
_cell_formula_units_Z   1
loop_
 _symmetry_equiv_pos_site_id
 _symmetry_equiv_pos_as_xyz
  1  'x, y, z'
loop_
 _atom_site_type_symbol
 _atom_site_label
 _atom_site_symmetry_multiplicity
 _atom_site_fract_x
 _atom_site_fract_y
 _atom_site_fract_z
 _atom_site_occupancy
  Li  Li0  1  0.34175507  0.67084812  0.90199288  1
  Li  Li1  1  0.01490352  0.00745717  0.99011465  1
  Li  Li2  1  0.00158180  0.00074381  0.49171240  1
  Li  Li3  1  0.66287193  0.33146149  0.40066699  1
  Ti  Ti4  1  0.17624739  0.83681536  0.22182483  1
  Ti  Ti5  1  0.17621949  0.33954736  0.22170877  1
  Ti  Ti6  1  0.35356239  0.17664899  0.72218110  1
  Mn  Mn7  1  0.66269805  0.83140294  0.21261522  1
  Mn  Mn8  1  0.83482116  0.66684556  0.71166137  1
  Mn  Mn9  1  0.83489988  0.16811785  0.71160707  1
  Te  Te10  1  0.33238992  0.66607001  0.49434433  1
  Te  Te11  1  0.71741787  0.35872097  0.99394739  1
  O  O12  1  0.15442172  0.84467563  0.60673358  1
  O  O13  1  0.00924681  0.50462365  0.31774060  1
  O  O14  1  0.31412735  0.65703510  0.11476597  1
  O  O15  1  0.00109004  0.00051635  0.31124412  1
  O  O16  1  0.99664095  0.99843241  0.80369307  1
  O  O17  1  0.15459743  0.30994913  0.60662072  1
  O  O18  1  0.45245004  0.96327745  0.34234465  1
  O  O19  1  0.45237365  0.48928118  0.34248011  1
  O  O20  1  0.29862038  0.14938255  0.11950626  1
  O  O21  1  0.66278839  0.83136675  0.57912941  1
  O  O22  1  0.50929846  0.48537502  0.81716675  1
  O  O23  1  0.50930699  0.02387464  0.81712356  1
  O  O24  1  0.67245212  0.33620752  0.61479529  1
  O  O25  1  0.86332388  0.68313919  0.09098437  1
  O  O26  1  0.97654507  0.48829760  0.85813309  1
  O  O27  1  0.86335025  0.18018922  0.09100347  1
