# generated using pymatgen
data_Li4Ni5Sb3O16
_symmetry_space_group_name_H-M   'P 1'
_cell_length_a   6.00262057
_cell_length_b   6.05178566
_cell_length_c   9.65975673
_cell_angle_alpha   89.98166117
_cell_angle_beta   90.85755451
_cell_angle_gamma   120.26711945
_symmetry_Int_Tables_number   1
_chemical_formula_structural   Li4Ni5Sb3O16
_chemical_formula_sum   'Li4 Ni5 Sb3 O16'
_cell_volume   303.02755975
_cell_formula_units_Z   1
loop_
 _symmetry_equiv_pos_site_id
 _symmetry_equiv_pos_as_xyz
  1  'x, y, z'
loop_
 _atom_site_type_symbol
 _atom_site_label
 _atom_site_symmetry_multiplicity
 _atom_site_fract_x
 _atom_site_fract_y
 _atom_site_fract_z
 _atom_site_occupancy
  Li  Li0  1  0.33773531  0.66904507  0.87697734  1
  Li  Li1  1  0.95762324  0.97865381  0.99224589  1
  Li  Li2  1  0.97406056  0.98701571  0.50401326  1
  Li  Li3  1  0.65896054  0.32973389  0.39702637  1
  Ni  Ni4  1  0.34050213  0.67001510  0.49588218  1
  Ni  Ni5  1  0.66492883  0.83244452  0.21676540  1
  Ni  Ni6  1  0.69218613  0.34609857  0.98207452  1
  Ni  Ni7  1  0.83203944  0.66178353  0.71420720  1
  Ni  Ni8  1  0.83212442  0.17019655  0.71445345  1
  Sb  Sb9  1  0.17250751  0.83303553  0.21528483  1
  Sb  Sb10  1  0.17245977  0.33953036  0.21525423  1
  Sb  Sb11  1  0.34183471  0.17097537  0.71444514  1
  O  O12  1  0.15791472  0.84083759  0.60298530  1
  O  O13  1  0.02992869  0.51499249  0.33767771  1
  O  O14  1  0.32700297  0.66353505  0.09932627  1
  O  O15  1  0.01045515  0.00530798  0.31928842  1
  O  O16  1  0.00162193  0.99942064  0.81022220  1
  O  O17  1  0.15814209  0.31668447  0.60331269  1
  O  O18  1  0.47509102  0.96497929  0.34017058  1
  O  O19  1  0.47504937  0.51039480  0.34011510  1
  O  O20  1  0.32023622  0.16013193  0.10107642  1
  O  O21  1  0.67782939  0.83877840  0.61183373  1
  O  O22  1  0.52592020  0.48601225  0.83559151  1
  O  O23  1  0.52556917  0.04004671  0.83534845  1
  O  O24  1  0.66641175  0.33448979  0.60433126  1
  O  O25  1  0.85403128  0.68214382  0.10164229  1
  O  O26  1  0.96370543  0.48209452  0.82476500  1
  O  O27  1  0.85412804  0.17192327  0.10152225  1
