# generated using pymatgen
data_LiMn2O4
_symmetry_space_group_name_H-M   'P 1'
_cell_length_a   6.64773391
_cell_length_b   6.63487507
_cell_length_c   11.00261500
_cell_angle_alpha   74.11314200
_cell_angle_beta   85.92281879
_cell_angle_gamma   98.53524983
_symmetry_Int_Tables_number   1
_chemical_formula_structural   LiMn2O4
_chemical_formula_sum   'Li6 Mn12 O24'
_cell_volume   458.38991921
_cell_formula_units_Z   6
loop_
 _symmetry_equiv_pos_site_id
 _symmetry_equiv_pos_as_xyz
  1  'x, y, z'
loop_
 _atom_site_type_symbol
 _atom_site_label
 _atom_site_symmetry_multiplicity
 _atom_site_fract_x
 _atom_site_fract_y
 _atom_site_fract_z
 _atom_site_occupancy
  Li  Li0  1  0.98931678  0.49000886  0.86584360  1
  Li  Li1  1  0.87639292  0.36694327  0.63961923  1
  Li  Li2  1  0.71944435  0.21976159  0.13523507  1
  Li  Li3  1  0.52264763  0.01342695  0.63384403  1
  Li  Li4  1  0.36751875  0.86123748  0.12044624  1
  Li  Li5  1  0.11587913  0.62834152  0.37399015  1
  Mn  Mn6  1  0.92020484  0.91445949  0.74554024  1
  Mn  Mn7  1  0.82212178  0.84555334  0.49638163  1
  Mn  Mn8  1  0.66316264  0.66979775  0.99817403  1
  Mn  Mn9  1  0.75143981  0.74632460  0.24943433  1
  Mn  Mn10  1  0.58514994  0.57525647  0.75235154  1
  Mn  Mn11  1  0.48807452  0.51747674  0.49671126  1
  Mn  Mn12  1  0.33615655  0.32392966  0.00754591  1
  Mn  Mn13  1  0.42090179  0.41591360  0.25045800  1
  Mn  Mn14  1  0.26251231  0.23803713  0.75313419  1
  Mn  Mn15  1  0.16360670  0.17601770  0.49374071  1
  Mn  Mn16  1  0.00268970  0.99255269  0.00021163  1
  Mn  Mn17  1  0.07859129  0.08566264  0.25011606  1
  O  O18  1  0.96965922  0.17112572  0.80078444  1
  O  O19  1  0.95346529  0.75959369  0.91888776  1
  O  O20  1  0.87485611  0.08027817  0.57400330  1
  O  O21  1  0.88360151  0.65193667  0.69772795  1
  O  O22  1  0.79160502  0.01180036  0.29286731  1
  O  O23  1  0.78461257  0.60397937  0.42530395  1
  O  O24  1  0.62562626  0.40655108  0.95508451  1
  O  O25  1  0.70548710  0.48828195  0.19838416  1
  O  O26  1  0.63292884  0.83929718  0.79742753  1
  O  O27  1  0.54795241  0.33035923  0.68432953  1
  O  O28  1  0.71349354  0.90423025  0.07558353  1
  O  O29  1  0.54061207  0.75832500  0.56343406  1
  O  O30  1  0.44814566  0.26809295  0.42854650  1
  O  O31  1  0.29390439  0.06763350  0.95841495  1
  O  O32  1  0.45463826  0.67694758  0.29345210  1
  O  O33  1  0.37461183  0.16853495  0.18288490  1
  O  O34  1  0.29145827  0.46891335  0.83712733  1
  O  O35  1  0.21524289  0.01841659  0.66433225  1
  O  O36  1  0.37698546  0.57047371  0.07815634  1
  O  O37  1  0.18879383  0.42960016  0.54346816  1
  O  O38  1  0.12853249  0.33189892  0.31704763  1
  O  O39  1  0.11120690  0.93330322  0.42238421  1
  O  O40  1  0.04150103  0.23797892  0.07248969  1
  O  O41  1  0.04708360  0.82469199  0.20395705  1
