# generated using pymatgen
data_FeOF
_symmetry_space_group_name_H-M   'P 1'
_cell_length_a   14.17184976
_cell_length_b   9.48212756
_cell_length_c   3.11084657
_cell_angle_alpha   90.00000000
_cell_angle_beta   90.00000000
_cell_angle_gamma   89.99234159
_symmetry_Int_Tables_number   1
_chemical_formula_structural   FeOF
_chemical_formula_sum   'Fe12 O12 F12'
_cell_volume   418.03334099
_cell_formula_units_Z   12
loop_
 _symmetry_equiv_pos_site_id
 _symmetry_equiv_pos_as_xyz
  1  'x, y, z'
loop_
 _atom_site_type_symbol
 _atom_site_label
 _atom_site_symmetry_multiplicity
 _atom_site_fract_x
 _atom_site_fract_y
 _atom_site_fract_z
 _atom_site_occupancy
  Fe  Fe0  1  0.00757824  0.98986463  0.00000000  1
  Fe  Fe1  1  0.01074968  0.49423692  0.00000000  1
  Fe  Fe2  1  0.14920487  0.24239479  0.50000000  1
  Fe  Fe3  1  0.14963541  0.74479344  0.50000000  1
  Fe  Fe4  1  0.34129700  0.98973760  0.00000000  1
  Fe  Fe5  1  0.34339033  0.49308777  0.00000000  1
  Fe  Fe6  1  0.48742019  0.74394797  0.50000000  1
  Fe  Fe7  1  0.50562185  0.27458408  0.50000000  1
  Fe  Fe8  1  0.67962292  0.99467603  0.00000000  1
  Fe  Fe9  1  0.67418719  0.48631277  0.00000000  1
  Fe  Fe10  1  0.82076162  0.24545664  0.50000000  1
  Fe  Fe11  1  0.83969907  0.77427626  0.50000000  1
  O  O12  1  0.06303101  0.40177928  0.50000000  1
  O  O13  1  0.06742352  0.90417574  0.50000000  1
  O  O14  1  0.10104486  0.14801235  0.00000000  1
  O  O15  1  0.09941784  0.65161809  0.00000000  1
  O  O16  1  0.39486881  0.39751789  0.50000000  1
  O  O17  1  0.39902018  0.90601861  0.50000000  1
  O  O18  1  0.43379540  0.65113180  0.00000000  1
  O  O19  1  0.56732757  0.35270643  0.00000000  1
  O  O20  1  0.73614317  0.40922956  0.50000000  1
  O  O21  1  0.72896335  0.89930037  0.50000000  1
  O  O22  1  0.76613124  0.15387445  0.00000000  1
  O  O23  1  0.90089199  0.85227934  0.00000000  1
  F  F24  1  0.23046794  0.34630795  0.00000000  1
  F  F25  1  0.23276288  0.84933838  0.00000000  1
  F  F26  1  0.27101581  0.09831253  0.50000000  1
  F  F27  1  0.26650957  0.59833105  0.50000000  1
  F  F28  1  0.43498136  0.15423008  0.00000000  1
  F  F29  1  0.56321817  0.84844460  0.00000000  1
  F  F30  1  0.59617057  0.09512321  0.50000000  1
  F  F31  1  0.60487732  0.60598154  0.50000000  1
  F  F32  1  0.76978383  0.65550947  0.00000000  1
  F  F33  1  0.89838489  0.34796252  0.00000000  1
  F  F34  1  0.93379414  0.10513357  0.50000000  1
  F  F35  1  0.93080821  0.59430732  0.50000000  1
