# generated using pymatgen
data_Fe2OF3
_symmetry_space_group_name_H-M   'P 1'
_cell_length_a   4.83951662
_cell_length_b   4.83951662
_cell_length_c   12.44821539
_cell_angle_alpha   90.00000000
_cell_angle_beta   90.00000000
_cell_angle_gamma   91.94272907
_symmetry_Int_Tables_number   1
_chemical_formula_structural   Fe2OF3
_chemical_formula_sum   'Fe8 O4 F12'
_cell_volume   291.38109250
_cell_formula_units_Z   4
loop_
 _symmetry_equiv_pos_site_id
 _symmetry_equiv_pos_as_xyz
  1  'x, y, z'
loop_
 _atom_site_type_symbol
 _atom_site_label
 _atom_site_symmetry_multiplicity
 _atom_site_fract_x
 _atom_site_fract_y
 _atom_site_fract_z
 _atom_site_occupancy
  Fe  Fe0  1  0.97838478  0.97838478  0.99997380  1
  Fe  Fe1  1  0.97838478  0.97838478  0.25002620  1
  Fe  Fe2  1  0.02161522  0.02161522  0.49997380  1
  Fe  Fe3  1  0.02161522  0.02161522  0.75002620  1
  Fe  Fe4  1  0.47541979  0.47541979  0.62500000  1
  Fe  Fe5  1  0.52458021  0.52458021  0.12500000  1
  Fe  Fe6  1  0.50000000  0.50000000  0.87500000  1
  Fe  Fe7  1  0.50000000  0.50000000  0.37500000  1
  O  O8  1  0.31994899  0.31994899  0.49671130  1
  O  O9  1  0.31994899  0.31994899  0.75328870  1
  O  O10  1  0.68005101  0.68005101  0.99671130  1
  O  O11  1  0.68005101  0.68005101  0.25328870  1
  F  F12  1  0.20366565  0.78545244  0.12500000  1
  F  F13  1  0.20797362  0.79202638  0.37500000  1
  F  F14  1  0.21454656  0.79633435  0.62500000  1
  F  F15  1  0.20797362  0.79202638  0.87500000  1
  F  F16  1  0.29485288  0.29485288  0.00249645  1
  F  F17  1  0.29485288  0.29485288  0.24750355  1
  F  F18  1  0.70514712  0.70514712  0.50249645  1
  F  F19  1  0.70514712  0.70514712  0.74750355  1
  F  F20  1  0.79202638  0.20797362  0.37500000  1
  F  F21  1  0.79633435  0.21454656  0.62500000  1
  F  F22  1  0.78545244  0.20366565  0.12500000  1
  F  F23  1  0.79202638  0.20797362  0.87500000  1
