# generated using pymatgen
data_Li2Mn3F8
_symmetry_space_group_name_H-M   'P 1'
_cell_length_a   5.26983863
_cell_length_b   12.36008161
_cell_length_c   5.95545100
_cell_angle_alpha   90.00000000
_cell_angle_beta   114.87828819
_cell_angle_gamma   90.00000000
_symmetry_Int_Tables_number   1
_chemical_formula_structural   Li2Mn3F8
_chemical_formula_sum   'Li4 Mn6 F16'
_cell_volume   351.91520102
_cell_formula_units_Z   2
loop_
 _symmetry_equiv_pos_site_id
 _symmetry_equiv_pos_as_xyz
  1  'x, y, z'
loop_
 _atom_site_type_symbol
 _atom_site_label
 _atom_site_symmetry_multiplicity
 _atom_site_fract_x
 _atom_site_fract_y
 _atom_site_fract_z
 _atom_site_occupancy
  Li  Li0  1  0.13312883  0.11631560  0.70089585  1
  Li  Li1  1  0.36687117  0.61631560  0.29910415  1
  Li  Li2  1  0.63312883  0.38368440  0.70089585  1
  Li  Li3  1  0.86687117  0.88368440  0.29910415  1
  Mn  Mn4  1  0.00000000  0.50000000  0.50000000  1
  Mn  Mn5  1  0.18086404  0.84600211  0.89740461  1
  Mn  Mn6  1  0.31913596  0.34600211  0.10259539  1
  Mn  Mn7  1  0.50000000  0.00000000  0.50000000  1
  Mn  Mn8  1  0.68086404  0.65399789  0.89740461  1
  Mn  Mn9  1  0.81913596  0.15399789  0.10259539  1
  F  F10  1  0.10699562  0.69564686  0.02369473  1
  F  F11  1  0.21194999  0.14822439  0.40980025  1
  F  F12  1  0.28434561  0.97368372  0.72161425  1
  F  F13  1  0.32267663  0.41210823  0.78020668  1
  F  F14  1  0.17732337  0.91210823  0.21979332  1
  F  F15  1  0.21565439  0.47368372  0.27838575  1
  F  F16  1  0.28805001  0.64822439  0.59019975  1
  F  F17  1  0.60699562  0.80435314  0.02369473  1
  F  F18  1  0.39300438  0.19564686  0.97630527  1
  F  F19  1  0.71194999  0.35177561  0.40980025  1
  F  F20  1  0.78434561  0.52631628  0.72161425  1
  F  F21  1  0.82267663  0.08789177  0.78020668  1
  F  F22  1  0.67732337  0.58789177  0.21979332  1
  F  F23  1  0.71565439  0.02631628  0.27838575  1
  F  F24  1  0.78805001  0.85177561  0.59019975  1
  F  F25  1  0.89300438  0.30435314  0.97630527  1
