# generated using pymatgen
data_Li2Mn(FeO3)2
_symmetry_space_group_name_H-M   'P 1'
_cell_length_a   6.73787557
_cell_length_b   6.70192152
_cell_length_c   8.42105866
_cell_angle_alpha   70.74166370
_cell_angle_beta   108.92597670
_cell_angle_gamma   96.92740412
_symmetry_Int_Tables_number   1
_chemical_formula_structural   Li2Mn(FeO3)2
_chemical_formula_sum   'Li6 Mn3 Fe6 O18'
_cell_volume   339.54092961
_cell_formula_units_Z   3
loop_
 _symmetry_equiv_pos_site_id
 _symmetry_equiv_pos_as_xyz
  1  'x, y, z'
loop_
 _atom_site_type_symbol
 _atom_site_label
 _atom_site_symmetry_multiplicity
 _atom_site_fract_x
 _atom_site_fract_y
 _atom_site_fract_z
 _atom_site_occupancy
  Li  Li0  1  0.00631851  0.66663705  0.83515682  1
  Li  Li1  1  0.00768115  0.33479538  0.16914733  1
  Li  Li2  1  0.33090162  0.33451755  0.49544842  1
  Li  Li3  1  0.33576538  0.99881545  0.83788458  1
  Li  Li4  1  0.65898585  0.99853862  0.16418567  1
  Li  Li5  1  0.66034849  0.66669695  0.49817618  1
  Mn  Mn6  1  0.33333300  0.66666700  0.66666700  1
  Mn  Mn7  1  0.33418962  0.33490145  0.00035345  1
  Mn  Mn8  1  0.33247738  0.99843155  0.33297955  1
  Fe  Fe9  1  0.99127381  0.99836914  0.99876327  1
  Fe  Fe10  1  -0.00076293  0.66958222  0.33125908  1
  Fe  Fe11  1  0.99538912  0.33000663  0.66505316  1
  Fe  Fe12  1  0.66742993  0.66375078  0.00207492  1
  Fe  Fe13  1  0.67539319  0.33496486  0.33457073  1
  Fe  Fe14  1  0.67127788  0.00332637  0.66828084  1
  O  O15  1  0.02704365  0.98980147  0.24515444  1
  O  O16  1  0.02804470  0.64733689  0.58927136  1
  O  O17  1  0.03449442  0.32474471  0.92180886  1
  O  O18  1  0.34649371  0.97942531  0.57569653  1
  O  O19  1  0.33991542  0.64666471  0.90311269  1
  O  O20  1  0.67123361  0.98148500  0.91727247  1
  O  O21  1  0.32675158  0.68666829  0.43022031  1
  O  O22  1  0.32017229  0.35390769  0.75763747  1
  O  O23  1  0.63862130  0.68599611  0.74406264  1
  O  O24  1  0.33892823  0.30366501  0.24492936  1
  O  O25  1  0.68728730  0.65814973  0.25288839  1
  O  O26  1  0.67674985  0.32295374  0.57368619  1
  O  O27  1  0.32773877  0.02966799  0.08840364  1
  O  O28  1  0.63962335  0.34353153  0.08817856  1
  O  O29  1  0.63217258  0.00858829  0.41152514  1
  O  O30  1  0.97937970  0.67518427  0.08044561  1
  O  O31  1  0.99543339  0.35184900  0.41606153  1
  O  O32  1  0.98991715  0.01037926  0.75964781  1
