# generated using pymatgen
data_LiFeSiO4
_symmetry_space_group_name_H-M   'P 1'
_cell_length_a   5.53180834
_cell_length_b   5.53180795
_cell_length_c   11.48793756
_cell_angle_alpha   90.00000000
_cell_angle_beta   90.00000000
_cell_angle_gamma   119.99999611
_symmetry_Int_Tables_number   1
_chemical_formula_structural   LiFeSiO4
_chemical_formula_sum   'Li3 Fe3 Si3 O12'
_cell_volume   304.44365997
_cell_formula_units_Z   3
loop_
 _symmetry_equiv_pos_site_id
 _symmetry_equiv_pos_as_xyz
  1  'x, y, z'
loop_
 _atom_site_type_symbol
 _atom_site_label
 _atom_site_symmetry_multiplicity
 _atom_site_fract_x
 _atom_site_fract_y
 _atom_site_fract_z
 _atom_site_occupancy
  Li  Li0  1  0.00000000  0.00000000  0.00000000  1
  Li  Li1  1  0.00000000  0.00000000  0.33333300  1
  Li  Li2  1  0.00000000  0.00000000  0.66666700  1
  Fe  Fe3  1  0.00000000  0.50000000  0.33333300  1
  Fe  Fe4  1  0.50000000  0.50000000  0.66666700  1
  Fe  Fe5  1  0.50000000  0.00000000  0.00000000  1
  Si  Si6  1  0.00000000  0.50000000  0.83333300  1
  Si  Si7  1  0.50000000  0.50000000  0.16666700  1
  Si  Si8  1  0.50000000  0.00000000  0.50000000  1
  O  O9  1  0.22346570  0.82680103  0.41712407  1
  O  O10  1  0.17319897  0.77653430  0.91620893  1
  O  O11  1  0.22346570  0.39666468  0.24954193  1
  O  O12  1  0.17319897  0.39666468  0.75045807  1
  O  O13  1  0.60333532  0.77653430  0.08379107  1
  O  O14  1  0.60333532  0.82680103  0.58287593  1
  O  O15  1  0.39666468  0.17319897  0.58287593  1
  O  O16  1  0.39666468  0.22346570  0.08379107  1
  O  O17  1  0.82680103  0.60333532  0.75045807  1
  O  O18  1  0.77653430  0.60333532  0.24954193  1
  O  O19  1  0.82680103  0.22346570  0.91620893  1
  O  O20  1  0.77653430  0.17319897  0.41712407  1
