# generated using pymatgen
data_FeOF
_symmetry_space_group_name_H-M   'P 1'
_cell_length_a   14.16493386
_cell_length_b   14.24144418
_cell_length_c   3.11859499
_cell_angle_alpha   90.00000000
_cell_angle_beta   90.00000000
_cell_angle_gamma   89.93552446
_symmetry_Int_Tables_number   1
_chemical_formula_structural   FeOF
_chemical_formula_sum   'Fe18 O18 F18'
_cell_volume   629.11100881
_cell_formula_units_Z   18
loop_
 _symmetry_equiv_pos_site_id
 _symmetry_equiv_pos_as_xyz
  1  'x, y, z'
loop_
 _atom_site_type_symbol
 _atom_site_label
 _atom_site_symmetry_multiplicity
 _atom_site_fract_x
 _atom_site_fract_y
 _atom_site_fract_z
 _atom_site_occupancy
  Fe  Fe0  1  0.01297841  0.99638778  0.00000000  1
  Fe  Fe1  1  0.01219199  0.33232403  0.00000000  1
  Fe  Fe2  1  0.00650666  0.65868232  0.00000000  1
  Fe  Fe3  1  0.15174299  0.16543168  0.50000000  1
  Fe  Fe4  1  0.15237246  0.49865325  0.50000000  1
  Fe  Fe5  1  0.14837796  0.82521528  0.50000000  1
  Fe  Fe6  1  0.33977444  0.99151409  0.00000000  1
  Fe  Fe7  1  0.34569930  0.33072079  0.00000000  1
  Fe  Fe8  1  0.34507601  0.66387500  0.00000000  1
  Fe  Fe9  1  0.48710693  0.49786281  0.50000000  1
  Fe  Fe10  1  0.50499309  0.18259693  0.50000000  1
  Fe  Fe11  1  0.48816244  0.82977000  0.50000000  1
  Fe  Fe12  1  0.68013788  0.99738013  0.00000000  1
  Fe  Fe13  1  0.67302868  0.32454882  0.00000000  1
  Fe  Fe14  1  0.68076592  0.66308090  0.00000000  1
  Fe  Fe15  1  0.82080459  0.16504025  0.50000000  1
  Fe  Fe16  1  0.83902888  0.51546269  0.50000000  1
  Fe  Fe17  1  0.82058179  0.83018529  0.50000000  1
  O  O18  1  0.06423448  0.26957773  0.50000000  1
  O  O19  1  0.06689256  0.60299638  0.50000000  1
  O  O20  1  0.06396456  0.93377399  0.50000000  1
  O  O21  1  0.10293021  0.10083364  0.00000000  1
  O  O22  1  0.10074170  0.43573606  0.00000000  1
  O  O23  1  0.09901144  0.76543002  0.00000000  1
  O  O24  1  0.39510873  0.26516309  0.50000000  1
  O  O25  1  0.39793750  0.60223926  0.50000000  1
  O  O26  1  0.39837126  0.93731747  0.50000000  1
  O  O27  1  0.43578876  0.43414580  0.00000000  1
  O  O28  1  0.43365566  0.76997307  0.00000000  1
  O  O29  1  0.56725794  0.23447181  0.00000000  1
  O  O30  1  0.73619073  0.27363139  0.50000000  1
  O  O31  1  0.72932840  0.59938644  0.50000000  1
  O  O32  1  0.73137551  0.93554817  0.50000000  1
  O  O33  1  0.76707229  0.10345732  0.00000000  1
  O  O34  1  0.76755380  0.76861946  0.00000000  1
  O  O35  1  0.90005385  0.56758370  0.00000000  1
  F  F36  1  0.23142307  0.23227888  0.00000000  1
  F  F37  1  0.23250326  0.56689891  0.00000000  1
  F  F38  1  0.23156373  0.89816650  0.00000000  1
  F  F39  1  0.27022501  0.06554838  0.50000000  1
  F  F40  1  0.26725331  0.73253101  0.50000000  1
  F  F41  1  0.26760284  0.39922567  0.50000000  1
  F  F42  1  0.43434017  0.10168527  0.00000000  1
  F  F43  1  0.56415081  0.56702854  0.00000000  1
  F  F44  1  0.56485727  0.89903783  0.00000000  1
  F  F45  1  0.59685252  0.06323625  0.50000000  1
  F  F46  1  0.60522200  0.40423798  0.50000000  1
  F  F47  1  0.60038298  0.73303863  0.50000000  1
  F  F48  1  0.76989641  0.43672288  0.00000000  1
  F  F49  1  0.89958129  0.23160872  0.00000000  1
  F  F50  1  0.89802046  0.90059627  0.00000000  1
  F  F51  1  0.93454016  0.06618106  0.50000000  1
  F  F52  1  0.93134688  0.39633656  0.50000000  1
  F  F53  1  0.93343905  0.73702181  0.50000000  1
