# generated using pymatgen
data_LiFeP2O7
_symmetry_space_group_name_H-M   'P 1'
_cell_length_a   5.09927996
_cell_length_b   8.05071406
_cell_length_c   13.40039456
_cell_angle_alpha   90.00000000
_cell_angle_beta   91.41224141
_cell_angle_gamma   90.00000000
_symmetry_Int_Tables_number   1
_chemical_formula_structural   LiFeP2O7
_chemical_formula_sum   'Li4 Fe4 P8 O28'
_cell_volume   549.95721684
_cell_formula_units_Z   4
loop_
 _symmetry_equiv_pos_site_id
 _symmetry_equiv_pos_as_xyz
  1  'x, y, z'
loop_
 _atom_site_type_symbol
 _atom_site_label
 _atom_site_symmetry_multiplicity
 _atom_site_fract_x
 _atom_site_fract_y
 _atom_site_fract_z
 _atom_site_occupancy
  Li  Li0  1  0.20971462  0.77943660  0.25340860  1
  Li  Li1  1  0.29028538  0.27943660  0.24659140  1
  Li  Li2  1  0.70971462  0.72056340  0.75340860  1
  Li  Li3  1  0.79028538  0.22056340  0.74659140  1
  Fe  Fe4  1  0.19382808  0.84786567  0.88318848  1
  Fe  Fe5  1  0.30617192  0.34786567  0.61681152  1
  Fe  Fe6  1  0.69382808  0.65213433  0.38318848  1
  Fe  Fe7  1  0.80617192  0.15213433  0.11681152  1
  P  P8  1  0.20150843  0.70685585  0.52399838  1
  P  P9  1  0.25555427  0.46645302  0.82109792  1
  P  P10  1  0.24444573  0.96645302  0.67890208  1
  P  P11  1  0.29849157  0.20685585  0.97600162  1
  P  P12  1  0.70150843  0.79314415  0.02399838  1
  P  P13  1  0.75555427  0.03354698  0.32109792  1
  P  P14  1  0.74444573  0.53354698  0.17890208  1
  P  P15  1  0.79849157  0.29314415  0.47600162  1
  O  O16  1  0.02065770  0.54278388  0.22242980  1
  O  O17  1  0.05191151  0.86362461  0.74123893  1
  O  O18  1  0.09130410  0.32795045  0.49242306  1
  O  O19  1  0.16946840  0.09092176  0.89850077  1
  O  O20  1  0.13210451  0.14210658  0.66316625  1
  O  O21  1  0.23610092  0.89161615  0.56597980  1
  O  O22  1  0.15482039  0.21010412  0.07586996  1
  O  O23  1  0.26389908  0.39161615  0.93402020  1
  O  O24  1  0.34517961  0.71010412  0.42413004  1
  O  O25  1  0.36789549  0.64210658  0.83683375  1
  O  O26  1  0.33053160  0.59092176  0.60149923  1
  O  O27  1  0.44808849  0.36362461  0.75876107  1
  O  O28  1  0.40869590  0.82795045  0.00757694  1
  O  O29  1  0.47934230  0.04278388  0.27757020  1
  O  O30  1  0.52065770  0.95721612  0.72242980  1
  O  O31  1  0.59130410  0.17204955  0.99242306  1
  O  O32  1  0.55191151  0.63637539  0.24123893  1
  O  O33  1  0.66946840  0.40907824  0.39850077  1
  O  O34  1  0.63210451  0.35789342  0.16316625  1
  O  O35  1  0.65482039  0.28989588  0.57586996  1
  O  O36  1  0.73610092  0.60838385  0.06597980  1
  O  O37  1  0.84517961  0.78989588  0.92413004  1
  O  O38  1  0.76389908  0.10838385  0.43402020  1
  O  O39  1  0.86789549  0.85789342  0.33683375  1
  O  O40  1  0.83053160  0.90907824  0.10149923  1
  O  O41  1  0.90869590  0.67204955  0.50757694  1
  O  O42  1  0.94808849  0.13637539  0.25876107  1
  O  O43  1  0.97934230  0.45721612  0.77757020  1
