# generated using pymatgen
data_Li3V3P8O29
_symmetry_space_group_name_H-M   'P 1'
_cell_length_a   9.79895917
_cell_length_b   9.78890001
_cell_length_c   14.10947931
_cell_angle_alpha   89.66218293
_cell_angle_beta   89.96766957
_cell_angle_gamma   59.89080133
_symmetry_Int_Tables_number   1
_chemical_formula_structural   Li3V3P8O29
_chemical_formula_sum   'Li6 V6 P16 O58'
_cell_volume   1170.75849185
_cell_formula_units_Z   2
loop_
 _symmetry_equiv_pos_site_id
 _symmetry_equiv_pos_as_xyz
  1  'x, y, z'
loop_
 _atom_site_type_symbol
 _atom_site_label
 _atom_site_symmetry_multiplicity
 _atom_site_fract_x
 _atom_site_fract_y
 _atom_site_fract_z
 _atom_site_occupancy
  Li  Li0  1  0.08691546  0.22401104  0.94497578  1
  Li  Li1  1  0.22525515  0.68957785  0.94481448  1
  Li  Li2  1  0.30701559  0.77996629  0.55202109  1
  Li  Li3  1  0.68477707  0.22828952  0.43645190  1
  Li  Li4  1  0.77418240  0.90754393  0.55459931  1
  Li  Li5  1  0.90512000  0.77537029  0.06159326  1
  V  V6  1  0.00384389  0.56239972  0.25809007  1
  V  V7  1  0.42948145  0.00146242  0.24879647  1
  V  V8  1  0.43844787  0.56284047  0.75102324  1
  V  V9  1  0.57076838  0.43441745  0.24313592  1
  V  V10  1  0.56322017  0.00467213  0.75659150  1
  V  V11  1  0.99706014  0.43247088  0.74235546  1
  P  P12  1  0.08546558  0.23302462  0.15931366  1
  P  P13  1  0.23324389  0.08347093  0.65718724  1
  P  P14  1  0.08790650  0.68430184  0.65889453  1
  P  P15  1  0.34152626  0.32869305  0.37042215  1
  P  P16  1  0.32674040  0.33769288  0.87031220  1
  P  P17  1  0.22737622  0.68163760  0.15950920  1
  P  P18  1  0.31995380  0.76788912  0.33948375  1
  P  P19  1  0.68319399  0.08637412  0.15836177  1
  P  P20  1  0.31489201  0.91377996  0.84241065  1
  P  P21  1  0.68271599  0.22830200  0.65832191  1
  P  P22  1  0.77436028  0.31150330  0.84236306  1
  P  P23  1  0.66934374  0.67143886  0.12972466  1
  P  P24  1  0.66238441  0.67314731  0.62978063  1
  P  P25  1  0.91417200  0.31202503  0.34293691  1
  P  P26  1  0.76705141  0.91309704  0.34102172  1
  P  P27  1  0.91434938  0.76453038  0.84123174  1
  O  O28  1  0.00036095  0.23542398  0.43068321  1
  O  O29  1  0.08964072  0.25436829  0.66508496  1
  O  O30  1  0.21082762  0.99685045  0.74913180  1
  O  O31  1  0.23497635  0.00495236  0.92799900  1
  O  O32  1  0.09367133  0.38472007  0.18095342  1
  O  O33  1  0.25442724  0.08816194  0.16810828  1
  O  O34  1  0.18103232  0.33325286  0.82839085  1
  O  O35  1  0.09621015  0.52195315  0.67606267  1
  O  O36  1  0.99726274  0.75443764  0.93208883  1
  O  O37  1  0.08092458  0.66032966  0.16406851  1
  O  O38  1  0.34044769  0.18319793  0.32416885  1
  O  O39  1  0.18767617  0.47864264  0.32708476  1
  O  O40  1  0.38527689  0.09165645  0.67840221  1
  O  O41  1  0.34045649  0.32764736  0.47559507  1
  O  O42  1  0.32876085  0.33857402  0.97524330  1
  O  O43  1  0.52390698  0.09258853  0.17462058  1
  O  O44  1  0.32792525  0.48877689  0.82841393  1
  O  O45  1  0.47755526  0.18736254  0.82581800  1
  O  O46  1  0.25668554  0.66096362  0.66022128  1
  O  O47  1  0.20790887  0.78893552  0.24984727  1
  O  O48  1  0.23750018  0.75278707  0.06845028  1
  O  O49  1  0.24836833  0.75873039  0.42997335  1
  O  O50  1  0.38092077  0.51978752  0.17833460  1
  O  O51  1  0.49015419  0.33077794  0.33028900  1
  O  O52  1  0.66138206  0.08147763  0.66552371  1
  O  O53  1  0.33863446  0.74412904  0.83964678  1
  O  O54  1  0.52075611  0.38120741  0.68142325  1
  O  O55  1  0.24246387  0.99530290  0.57106896  1
  O  O56  1  0.75857337  0.99782536  0.43115767  1
  O  O57  1  0.47903159  0.61499816  0.31895450  1
  O  O58  1  0.65566699  0.25697816  0.16423122  1
  O  O59  1  0.78759108  0.00654433  0.25384984  1
  O  O60  1  0.34425495  0.91204274  0.33131441  1
  O  O61  1  0.51267883  0.67108237  0.67251138  1
  O  O62  1  0.61919103  0.47582839  0.82016207  1
  O  O63  1  0.76017619  0.23811551  0.92973088  1
  O  O64  1  0.74472430  0.24204309  0.56553754  1
  O  O65  1  0.79430616  0.21088800  0.74619349  1
  O  O66  1  0.74332161  0.33851126  0.33680988  1
  O  O67  1  0.52190202  0.81739093  0.17462114  1
  O  O68  1  0.47782108  0.90372642  0.82398706  1
  O  O69  1  0.66623290  0.52110423  0.17351508  1
  O  O70  1  0.66248449  0.66928087  0.52483051  1
  O  O71  1  0.66765756  0.67040141  0.02454068  1
  O  O72  1  0.61610552  0.90538633  0.32402645  1
  O  O73  1  0.81280272  0.52110053  0.67430271  1
  O  O74  1  0.66661354  0.81924642  0.67038484  1
  O  O75  1  0.91862655  0.33767079  0.83614150  1
  O  O76  1  0.99207050  0.21318777  0.24678927  1
  O  O77  1  0.00798905  0.24338546  0.06737656  1
  O  O78  1  0.90459482  0.47624365  0.32366857  1
  O  O79  1  0.81997508  0.66832521  0.17045067  1
  O  O80  1  0.74579881  0.90968166  0.83346257  1
  O  O81  1  0.90716348  0.61350910  0.82035603  1
  O  O82  1  0.76997603  0.99452803  0.07417061  1
  O  O83  1  0.91236928  0.74458191  0.33535698  1
  O  O84  1  0.99247388  0.76868790  0.57462908  1
  O  O85  1  0.00960822  0.78515914  0.75465285  1
