# generated using pymatgen
data_Li2MnF4
_symmetry_space_group_name_H-M   'P 1'
_cell_length_a   9.95782678
_cell_length_b   7.41473402
_cell_length_c   8.93550826
_cell_angle_alpha   90.00000000
_cell_angle_beta   90.00000000
_cell_angle_gamma   90.00000000
_symmetry_Int_Tables_number   1
_chemical_formula_structural   Li2MnF4
_chemical_formula_sum   'Li16 Mn8 F32'
_cell_volume   659.75000871
_cell_formula_units_Z   8
loop_
 _symmetry_equiv_pos_site_id
 _symmetry_equiv_pos_as_xyz
  1  'x, y, z'
loop_
 _atom_site_type_symbol
 _atom_site_label
 _atom_site_symmetry_multiplicity
 _atom_site_fract_x
 _atom_site_fract_y
 _atom_site_fract_z
 _atom_site_occupancy
  Li  Li0  1  0.09167959  0.81133111  0.25479154  1
  Li  Li1  1  0.10687257  0.21478654  0.25054280  1
  Li  Li2  1  0.13458398  0.78849188  0.92274691  1
  Li  Li3  1  0.15643148  0.26448430  0.92437957  1
  Li  Li4  1  0.34356852  0.76448430  0.42437957  1
  Li  Li5  1  0.36541602  0.28849188  0.42274691  1
  Li  Li6  1  0.39312743  0.71478654  0.75054280  1
  Li  Li7  1  0.40832041  0.31133111  0.75479154  1
  Li  Li8  1  0.59167959  0.68866889  0.25479154  1
  Li  Li9  1  0.60687257  0.28521346  0.25054280  1
  Li  Li10  1  0.63458398  0.71150812  0.92274691  1
  Li  Li11  1  0.65643148  0.23551570  0.92437957  1
  Li  Li12  1  0.84356852  0.73551570  0.42437957  1
  Li  Li13  1  0.86541602  0.21150812  0.42274691  1
  Li  Li14  1  0.89312743  0.78521346  0.75054280  1
  Li  Li15  1  0.90832041  0.18866889  0.75479154  1
  Mn  Mn16  1  0.11318600  0.48512492  0.57961355  1
  Mn  Mn17  1  0.19265968  0.99136160  0.64172409  1
  Mn  Mn18  1  0.30734032  0.49136160  0.14172409  1
  Mn  Mn19  1  0.38681400  0.98512492  0.07961355  1
  Mn  Mn20  1  0.61318600  0.01487508  0.57961355  1
  Mn  Mn21  1  0.69265968  0.50863840  0.64172409  1
  Mn  Mn22  1  0.80734032  0.00863840  0.14172409  1
  Mn  Mn23  1  0.88681400  0.51487508  0.07961355  1
  F  F24  1  0.01103198  0.01944681  0.18296993  1
  F  F25  1  0.04290066  0.28354329  0.43692999  1
  F  F26  1  0.05152761  0.34418981  0.76974172  1
  F  F27  1  0.08773685  0.39096641  0.09557258  1
  F  F28  1  0.17013252  0.86557479  0.43675240  1
  F  F29  1  0.22354725  0.02085731  0.89178398  1
  F  F30  1  0.22199781  0.74770964  0.10826954  1
  F  F31  1  0.20014426  0.69416748  0.72438240  1
  F  F32  1  0.29985574  0.19416748  0.22438240  1
  F  F33  1  0.27800219  0.24770964  0.60826954  1
  F  F34  1  0.27645275  0.52085731  0.39178398  1
  F  F35  1  0.32986748  0.36557479  0.93675240  1
  F  F36  1  0.41226315  0.89096641  0.59557258  1
  F  F37  1  0.44847239  0.84418981  0.26974172  1
  F  F38  1  0.45709934  0.78354329  0.93692999  1
  F  F39  1  0.48896802  0.51944681  0.68296993  1
  F  F40  1  0.51103198  0.48055319  0.18296993  1
  F  F41  1  0.54290066  0.21645671  0.43692999  1
  F  F42  1  0.55152761  0.15581019  0.76974172  1
  F  F43  1  0.58773685  0.10903359  0.09557258  1
  F  F44  1  0.67013252  0.63442521  0.43675240  1
  F  F45  1  0.72354725  0.47914269  0.89178398  1
  F  F46  1  0.72199781  0.75229036  0.10826954  1
  F  F47  1  0.70014426  0.80583252  0.72438240  1
  F  F48  1  0.79985574  0.30583252  0.22438240  1
  F  F49  1  0.77800219  0.25229036  0.60826954  1
  F  F50  1  0.77645275  0.97914269  0.39178398  1
  F  F51  1  0.82986748  0.13442521  0.93675240  1
  F  F52  1  0.91226315  0.60903359  0.59557258  1
  F  F53  1  0.94847239  0.65581019  0.26974172  1
  F  F54  1  0.95709934  0.71645671  0.93692999  1
  F  F55  1  0.98896802  0.98055319  0.68296993  1
