# generated using pymatgen
data_Li4CoO4
_symmetry_space_group_name_H-M   'P 1'
_cell_length_a   9.19730400
_cell_length_b   9.35027335
_cell_length_c   9.14289338
_cell_angle_alpha   90.00000000
_cell_angle_beta   91.22541837
_cell_angle_gamma   90.00000000
_symmetry_Int_Tables_number   1
_chemical_formula_structural   Li4CoO4
_chemical_formula_sum   'Li32 Co8 O32'
_cell_volume   786.08438181
_cell_formula_units_Z   8
loop_
 _symmetry_equiv_pos_site_id
 _symmetry_equiv_pos_as_xyz
  1  'x, y, z'
loop_
 _atom_site_type_symbol
 _atom_site_label
 _atom_site_symmetry_multiplicity
 _atom_site_fract_x
 _atom_site_fract_y
 _atom_site_fract_z
 _atom_site_occupancy
  Li  Li0  1  0.11187689  0.63318161  0.12865787  1
  Li  Li1  1  0.11187689  0.86681839  0.62865787  1
  Li  Li2  1  0.15573512  0.11898632  0.40300770  1
  Li  Li3  1  0.15573512  0.38101368  0.90300770  1
  Li  Li4  1  0.31904554  0.87054906  0.91607651  1
  Li  Li5  1  0.31904554  0.62945094  0.41607651  1
  Li  Li6  1  0.35838399  0.35877387  0.34742705  1
  Li  Li7  1  0.35838399  0.14122613  0.84742705  1
  Li  Li8  1  0.35599825  0.60044414  0.82416672  1
  Li  Li9  1  0.35599825  0.89955586  0.32416672  1
  Li  Li10  1  0.39934531  0.12989202  0.12948248  1
  Li  Li11  1  0.39934531  0.37010798  0.62948248  1
  Li  Li12  1  0.60051179  0.61979206  0.36394037  1
  Li  Li13  1  0.60051179  0.88020794  0.86394037  1
  Li  Li14  1  0.60607011  0.11688764  0.65685299  1
  Li  Li15  1  0.60607011  0.38311236  0.15685299  1
  Li  Li16  1  0.61643528  0.64807358  0.63016236  1
  Li  Li17  1  0.61643528  0.85192642  0.13016236  1
  Li  Li18  1  0.63950341  0.61696403  0.89729122  1
  Li  Li19  1  0.63950341  0.88303597  0.39729122  1
  Li  Li20  1  0.67072227  0.11517047  0.10208482  1
  Li  Li21  1  0.67072227  0.38482953  0.60208482  1
  Li  Li22  1  0.83046275  0.61801688  0.10787640  1
  Li  Li23  1  0.83046275  0.88198312  0.60787640  1
  Li  Li24  1  0.87974306  0.38291788  0.40102150  1
  Li  Li25  1  0.87974306  0.11708212  0.90102150  1
  Li  Li26  1  0.88880446  0.14617451  0.63747692  1
  Li  Li27  1  0.88880446  0.35382549  0.13747692  1
  Li  Li28  1  0.90538161  0.61420972  0.66246831  1
  Li  Li29  1  0.90538161  0.88579028  0.16246831  1
  Li  Li30  1  0.89189826  0.12015876  0.36559480  1
  Li  Li31  1  0.89189826  0.37984124  0.86559480  1
  Co  Co32  1  0.12735303  0.13894983  0.11314365  1
  Co  Co33  1  0.12735303  0.36105017  0.61314365  1
  Co  Co34  1  0.38609684  0.62463106  0.11790936  1
  Co  Co35  1  0.38609684  0.87536894  0.61790936  1
  Co  Co36  1  0.62045438  0.15121013  0.37838689  1
  Co  Co37  1  0.62045438  0.34878987  0.87838689  1
  Co  Co38  1  0.87550835  0.65221111  0.38343630  1
  Co  Co39  1  0.87550835  0.84778889  0.88343630  1
  O  O40  1  0.00697193  0.24429905  0.50157785  1
  O  O41  1  0.00697193  0.25570095  0.00157785  1
  O  O42  1  0.01671601  0.03845224  0.23367830  1
  O  O43  1  0.01671601  0.46154776  0.73367830  1
  O  O44  1  0.25237766  0.04502827  0.00118825  1
  O  O45  1  0.25237766  0.45497173  0.50118825  1
  O  O46  1  0.25227271  0.21804832  0.24168526  1
  O  O47  1  0.25227271  0.28195168  0.74168526  1
  O  O48  1  0.27516166  0.73185016  0.23174960  1
  O  O49  1  0.27516166  0.76814984  0.73174960  1
  O  O50  1  0.26034870  0.53466154  0.00062433  1
  O  O51  1  0.26034870  0.96533846  0.50062433  1
  O  O52  1  0.47644373  0.50713378  0.24931492  1
  O  O53  1  0.47644373  0.99286622  0.74931492  1
  O  O54  1  0.49841131  0.76237209  0.49534052  1
  O  O55  1  0.49841131  0.73762791  0.99534052  1
  O  O56  1  0.52489003  0.26203684  0.49994278  1
  O  O57  1  0.52489003  0.23796316  -0.00005722  1
  O  O58  1  0.53815012  0.01661643  0.25448880  1
  O  O59  1  0.53815012  0.48338357  0.75448880  1
  O  O60  1  0.73945549  0.04084852  0.50015009  1
  O  O61  1  0.73945549  0.45915148  0.00015009  1
  O  O62  1  0.74716485  0.25117683  0.26421444  1
  O  O63  1  0.74716485  0.24882317  0.76421444  1
  O  O64  1  0.74951890  0.75499200  0.26626861  1
  O  O65  1  0.74951890  0.74500800  0.76626861  1
  O  O66  1  0.75835170  0.53916189  0.49774862  1
  O  O67  1  0.75835170  0.96083811  0.99774862  1
  O  O68  1  0.95530270  0.52843894  0.25828598  1
  O  O69  1  0.95530270  0.97156106  0.75828598  1
  O  O70  1  0.96948076  0.75603018  0.51433443  1
  O  O71  1  0.96948076  0.74396982  0.01433443  1
