# generated using pymatgen
data_Mn5(FeO3)4
_symmetry_space_group_name_H-M   'P 1'
_cell_length_a   6.12663685
_cell_length_b   6.11131680
_cell_length_c   13.68168011
_cell_angle_alpha   102.60088978
_cell_angle_beta   77.57979831
_cell_angle_gamma   89.67585345
_symmetry_Int_Tables_number   1
_chemical_formula_structural   Mn5(FeO3)4
_chemical_formula_sum   'Mn10 Fe8 O24'
_cell_volume   487.48461608
_cell_formula_units_Z   2
loop_
 _symmetry_equiv_pos_site_id
 _symmetry_equiv_pos_as_xyz
  1  'x, y, z'
loop_
 _atom_site_type_symbol
 _atom_site_label
 _atom_site_symmetry_multiplicity
 _atom_site_fract_x
 _atom_site_fract_y
 _atom_site_fract_z
 _atom_site_occupancy
  Mn  Mn0  1  0.50105001  0.00033798  0.99860969  1
  Mn  Mn1  1  0.95909184  0.79400321  0.08500633  1
  Mn  Mn2  1  0.83068701  0.16694117  0.33394739  1
  Mn  Mn3  1  0.16835822  0.33556534  0.16758181  1
  Mn  Mn4  1  0.29047401  0.44817235  0.41524162  1
  Mn  Mn5  1  0.70880714  0.53682817  0.58403671  1
  Mn  Mn6  1  0.37269403  0.88590675  0.25034965  1
  Mn  Mn7  1  0.62185520  0.12614497  0.75048778  1
  Mn  Mn8  1  0.16817924  0.33069091  0.66586323  1
  Mn  Mn9  1  0.04565024  0.20699406  0.91475346  1
  Fe  Fe10  1  0.50448711  0.50353644  0.99957333  1
  Fe  Fe11  1  0.66623814  0.33567392  0.16792911  1
  Fe  Fe12  1  0.49931753  0.99764217  0.49907561  1
  Fe  Fe13  1  0.83267485  0.66657810  0.33365138  1
  Fe  Fe14  1  0.99763303  0.99906212  0.49977195  1
  Fe  Fe15  1  0.83378894  0.66553597  0.83290358  1
  Fe  Fe16  1  0.16326547  0.83012973  0.66828200  1
  Fe  Fe17  1  0.33777852  0.66788546  0.83247490  1
  O  O18  1  0.89690127  0.10541168  0.18390825  1
  O  O19  1  0.71834059  0.24482242  0.00904836  1
  O  O20  1  0.92390960  0.54676818  0.16752407  1
  O  O21  1  0.27452360  0.25427474  0.00929026  1
  O  O22  1  0.40877507  0.12562623  0.16523658  1
  O  O23  1  0.95125548  0.08706403  0.65806951  1
  O  O24  1  0.43512987  0.56324601  0.15850217  1
  O  O25  1  0.61178858  0.39795825  0.32567199  1
  O  O26  1  0.75462387  0.22083728  0.48671886  1
  O  O27  1  0.39021679  0.08415644  0.65610031  1
  O  O28  1  0.24154453  0.23067095  0.51425423  1
  O  O29  1  0.95654919  0.57208695  0.66521313  1
  O  O30  1  0.74954973  0.78350483  0.50094303  1
  O  O31  1  0.59976188  0.94018000  0.34381352  1
  O  O32  1  0.05881849  0.39476064  0.32672294  1
  O  O33  1  0.24647106  0.78074231  0.50603251  1
  O  O34  1  0.38370331  0.57382241  0.67214686  1
  O  O35  1  0.56146011  0.44062645  0.84726561  1
  O  O36  1  0.05316894  0.94060495  0.34426693  1
  O  O37  1  0.57647317  0.88817426  0.83340223  1
  O  O38  1  0.71825641  0.75471615  0.99908910  1
  O  O39  1  0.09852911  0.42583777  0.81632925  1
  O  O40  1  0.28289550  0.75701171  0.99163252  1
  O  O41  1  0.10532432  0.88946557  0.81928024  1
