# generated using pymatgen
data_Pr3Zn
_symmetry_space_group_name_H-M   'P 1'
_cell_length_a   6.12640914
_cell_length_b   6.12640914
_cell_length_c   6.12640914
_cell_angle_alpha   133.21585484
_cell_angle_beta   133.21585484
_cell_angle_gamma   68.31536376
_symmetry_Int_Tables_number   1
_chemical_formula_structural   Pr3Zn
_chemical_formula_sum   'Pr3 Zn1'
_cell_volume   119.96936903
_cell_formula_units_Z   1
loop_
 _symmetry_equiv_pos_site_id
 _symmetry_equiv_pos_as_xyz
  1  'x, y, z'
loop_
 _atom_site_type_symbol
 _atom_site_label
 _atom_site_symmetry_multiplicity
 _atom_site_fract_x
 _atom_site_fract_y
 _atom_site_fract_z
 _atom_site_occupancy
  Pr  Pr0  1  0.74999900  0.24999900  0.49999900  1
  Pr  Pr1  1  0.24999900  0.74999900  0.49999900  1
  Pr  Pr2  1  0.50000000  0.50000000  0.00000000  1
  Zn  Zn3  1  -0.00000000  0.00000000  0.00000000  1
