# generated using pymatgen
data_Mn3O5F
_symmetry_space_group_name_H-M   'P 1'
_cell_length_a   4.55673028
_cell_length_b   4.55515567
_cell_length_c   9.02897288
_cell_angle_alpha   89.99976360
_cell_angle_beta   90.00005103
_cell_angle_gamma   89.99998755
_symmetry_Int_Tables_number   1
_chemical_formula_structural   Mn3O5F
_chemical_formula_sum   'Mn6 O10 F2'
_cell_volume   187.41092088
_cell_formula_units_Z   2
loop_
 _symmetry_equiv_pos_site_id
 _symmetry_equiv_pos_as_xyz
  1  'x, y, z'
loop_
 _atom_site_type_symbol
 _atom_site_label
 _atom_site_symmetry_multiplicity
 _atom_site_fract_x
 _atom_site_fract_y
 _atom_site_fract_z
 _atom_site_occupancy
  Mn  Mn0  1  0.00411864  0.98991893  0.00743652  1
  Mn  Mn1  1  0.01961037  0.01977542  0.33332885  1
  Mn  Mn2  1  0.00412802  0.98993526  0.65923596  1
  Mn  Mn3  1  0.48038884  0.51977705  0.83332961  1
  Mn  Mn4  1  0.49587959  0.48992918  0.15923427  1
  Mn  Mn5  1  0.49588359  0.48992211  0.50743950  1
  O  O6  1  0.19626956  0.80358299  0.16942818  1
  O  O7  1  0.19627387  0.80358151  0.49723291  1
  O  O8  1  0.18818736  0.81052401  0.83334249  1
  O  O9  1  0.30372484  0.30358018  0.99723275  1
  O  O10  1  0.31181119  0.31052461  0.33334341  1
  O  O11  1  0.30372859  0.30358352  0.66942925  1
  O  O12  1  0.69088847  0.69204637  0.99858911  1
  O  O13  1  0.69089553  0.69204166  0.66807595  1
  O  O14  1  0.80910419  0.19203949  0.16807481  1
  O  O15  1  0.80910866  0.19204502  0.49858932  1
  F  F16  1  0.70038571  0.69859817  0.33332779  1
  F  F17  1  0.79961298  0.19859653  0.83332731  1
