# generated using pymatgen
data_Fe4OF7
_symmetry_space_group_name_H-M   'P 1'
_cell_length_a   4.79182054
_cell_length_b   5.80228232
_cell_length_c   5.80228232
_cell_angle_alpha   111.05565952
_cell_angle_beta   88.76885226
_cell_angle_gamma   91.23114774
_symmetry_Int_Tables_number   1
_chemical_formula_structural   Fe4OF7
_chemical_formula_sum   'Fe4 O1 F7'
_cell_volume   150.50130389
_cell_formula_units_Z   1
loop_
 _symmetry_equiv_pos_site_id
 _symmetry_equiv_pos_as_xyz
  1  'x, y, z'
loop_
 _atom_site_type_symbol
 _atom_site_label
 _atom_site_symmetry_multiplicity
 _atom_site_fract_x
 _atom_site_fract_y
 _atom_site_fract_z
 _atom_site_occupancy
  Fe  Fe0  1  0.52109261  0.01259068  0.48740932  1
  Fe  Fe1  1  0.50175281  0.49821137  0.00178863  1
  Fe  Fe2  1  0.99092442  0.48973075  0.49854902  1
  Fe  Fe3  1  0.99092442  0.00145098  0.01026925  1
  O  O4  1  0.79220981  0.15020525  0.34979475  1
  F  F5  1  0.80215962  0.64756590  0.85243410  1
  F  F6  1  0.69140910  0.13794372  0.83419098  1
  F  F7  1  0.69140910  0.66580902  0.36205628  1
  F  F8  1  0.30442724  0.85404972  0.16299397  1
  F  F9  1  0.30442724  0.33700603  0.64595028  1
  F  F10  1  0.19869031  0.35279503  0.14720497  1
  F  F11  1  0.21057532  0.85264353  0.64735647  1
