# generated using pymatgen
data_Li3Cr3CoO8
_symmetry_space_group_name_H-M   'P 1'
_cell_length_a   5.82576948
_cell_length_b   5.93686104
_cell_length_c   5.89613606
_cell_angle_alpha   120.86890524
_cell_angle_beta   60.38656098
_cell_angle_gamma   89.99901269
_symmetry_Int_Tables_number   1
_chemical_formula_structural   Li3Cr3CoO8
_chemical_formula_sum   'Li3 Cr3 Co1 O8'
_cell_volume   143.12296652
_cell_formula_units_Z   1
loop_
 _symmetry_equiv_pos_site_id
 _symmetry_equiv_pos_as_xyz
  1  'x, y, z'
loop_
 _atom_site_type_symbol
 _atom_site_label
 _atom_site_symmetry_multiplicity
 _atom_site_fract_x
 _atom_site_fract_y
 _atom_site_fract_z
 _atom_site_occupancy
  Li  Li0  1  0.49999283  0.49999662  0.99998967  1
  Li  Li1  1  0.49999564  0.99999308  0.50001304  1
  Li  Li2  1  0.00000106  0.99998279  0.49998452  1
  Cr  Cr3  1  0.50003565  0.49997324  0.49992898  1
  Cr  Cr4  1  0.49990818  0.00001338  0.00009680  1
  Cr  Cr5  1  0.00001743  0.49998104  0.49989275  1
  Co  Co6  1  0.00001079  0.00000633  0.99999645  1
  O  O7  1  0.73204419  0.75132907  0.53588606  1
  O  O8  1  0.23801445  0.74654683  0.52390895  1
  O  O9  1  0.73959549  0.22723342  0.01375335  1
  O  O10  1  0.75316263  0.77274616  0.98627031  1
  O  O11  1  0.24685267  0.22727249  0.01376459  1
  O  O12  1  0.26042787  0.77279488  0.98625810  1
  O  O13  1  0.76199069  0.25343640  0.47608101  1
  O  O14  1  0.26795142  0.24869328  0.46417643  1
