# generated using pymatgen
data_FeOF
_symmetry_space_group_name_H-M   'P 1'
_cell_length_a   14.16119358
_cell_length_b   14.25566571
_cell_length_c   3.11532348
_cell_angle_alpha   90.00000000
_cell_angle_beta   90.00000000
_cell_angle_gamma   89.92512088
_symmetry_Int_Tables_number   1
_chemical_formula_structural   FeOF
_chemical_formula_sum   'Fe18 O18 F18'
_cell_volume   628.91237393
_cell_formula_units_Z   18
loop_
 _symmetry_equiv_pos_site_id
 _symmetry_equiv_pos_as_xyz
  1  'x, y, z'
loop_
 _atom_site_type_symbol
 _atom_site_label
 _atom_site_symmetry_multiplicity
 _atom_site_fract_x
 _atom_site_fract_y
 _atom_site_fract_z
 _atom_site_occupancy
  Fe  Fe0  1  0.01338485  0.99876616  0.00000000  1
  Fe  Fe1  1  0.00904565  0.32763731  0.00000000  1
  Fe  Fe2  1  0.01373865  0.66318522  0.00000000  1
  Fe  Fe3  1  0.15289765  0.16551607  0.50000000  1
  Fe  Fe4  1  0.15132388  0.49458738  0.50000000  1
  Fe  Fe5  1  0.15302244  0.83108592  0.50000000  1
  Fe  Fe6  1  0.34567289  0.99782833  0.00000000  1
  Fe  Fe7  1  0.34498778  0.33158504  0.00000000  1
  Fe  Fe8  1  0.34338408  0.66183744  0.00000000  1
  Fe  Fe9  1  0.48699463  0.49715964  0.50000000  1
  Fe  Fe10  1  0.48578403  0.16560449  0.50000000  1
  Fe  Fe11  1  0.48427991  0.82849847  0.50000000  1
  Fe  Fe12  1  0.67659604  0.99490011  0.00000000  1
  Fe  Fe13  1  0.68040125  0.33031199  0.00000000  1
  Fe  Fe14  1  0.67968161  0.66364368  0.00000000  1
  Fe  Fe15  1  0.84118969  0.18463471  0.50000000  1
  Fe  Fe16  1  0.82090984  0.49714151  0.50000000  1
  Fe  Fe17  1  0.82194419  0.83011064  0.50000000  1
  O  O18  1  0.06782051  0.27001054  0.50000000  1
  O  O19  1  0.06414613  0.60125097  0.50000000  1
  O  O20  1  0.06469368  0.93579408  0.50000000  1
  O  O21  1  0.10086019  0.10265364  0.00000000  1
  O  O22  1  0.10023746  0.43398667  0.00000000  1
  O  O23  1  0.10153020  0.76879193  0.00000000  1
  O  O24  1  0.39759773  0.26930310  0.50000000  1
  O  O25  1  0.39757531  0.60161196  0.50000000  1
  O  O26  1  0.39837777  0.93534279  0.50000000  1
  O  O27  1  0.43632496  0.10123528  0.00000000  1
  O  O28  1  0.43487668  0.43537709  0.00000000  1
  O  O29  1  0.43323227  0.76716475  0.00000000  1
  O  O30  1  0.72975536  0.26569245  0.50000000  1
  O  O31  1  0.73175837  0.60238088  0.50000000  1
  O  O32  1  0.73310192  0.93847779  0.50000000  1
  O  O33  1  0.76773574  0.43524313  0.00000000  1
  O  O34  1  0.76717705  0.77020783  0.00000000  1
  O  O35  1  0.90141224  0.23560354  0.00000000  1
  F  F36  1  0.23284885  0.23332167  0.00000000  1
  F  F37  1  0.23120909  0.56506604  0.00000000  1
  F  F38  1  0.23227967  0.89961602  0.00000000  1
  F  F39  1  0.26798194  0.06627054  0.50000000  1
  F  F40  1  0.26696723  0.73240026  0.50000000  1
  F  F41  1  0.26771815  0.39911484  0.50000000  1
  F  F42  1  0.56506927  0.23279122  0.00000000  1
  F  F43  1  0.56555485  0.56665141  0.00000000  1
  F  F44  1  0.56631901  0.90030284  0.00000000  1
  F  F45  1  0.60471510  0.06687939  0.50000000  1
  F  F46  1  0.60098358  0.39930099  0.50000000  1
  F  F47  1  0.60061733  0.73343886  0.50000000  1
  F  F48  1  0.76940117  0.10302989  0.00000000  1
  F  F49  1  0.89798494  0.56754031  0.00000000  1
  F  F50  1  0.89827605  0.89902680  0.00000000  1
  F  F51  1  0.93072549  0.06352339  0.50000000  1
  F  F52  1  0.93388815  0.40414001  0.50000000  1
  F  F53  1  0.93400851  0.73342201  0.50000000  1
