# generated using pymatgen
data_Co2OF3
_symmetry_space_group_name_H-M   'P 1'
_cell_length_a   4.69430834
_cell_length_b   4.69430834
_cell_length_c   12.68742782
_cell_angle_alpha   90.00000000
_cell_angle_beta   90.00000000
_cell_angle_gamma   93.39304362
_symmetry_Int_Tables_number   1
_chemical_formula_structural   Co2OF3
_chemical_formula_sum   'Co8 O4 F12'
_cell_volume   279.09678351
_cell_formula_units_Z   4
loop_
 _symmetry_equiv_pos_site_id
 _symmetry_equiv_pos_as_xyz
  1  'x, y, z'
loop_
 _atom_site_type_symbol
 _atom_site_label
 _atom_site_symmetry_multiplicity
 _atom_site_fract_x
 _atom_site_fract_y
 _atom_site_fract_z
 _atom_site_occupancy
  Co  Co0  1  0.97503366  0.97503366  0.99951531  1
  Co  Co1  1  0.97503366  0.97503366  0.25048469  1
  Co  Co2  1  0.02496634  0.02496634  0.49951531  1
  Co  Co3  1  0.02496634  0.02496634  0.75048469  1
  Co  Co4  1  0.52018067  0.52018067  0.12500000  1
  Co  Co5  1  0.47981933  0.47981933  0.62500000  1
  Co  Co6  1  0.50000000  0.50000000  0.37500000  1
  Co  Co7  1  0.50000000  0.50000000  0.87500000  1
  O  O8  1  0.30151462  0.30151462  0.75256844  1
  O  O9  1  0.30151462  0.30151462  0.49743156  1
  O  O10  1  0.69848538  0.69848538  0.99743156  1
  O  O11  1  0.69848538  0.69848538  0.25256844  1
  F  F12  1  0.19027715  0.79997956  0.12500000  1
  F  F13  1  0.20002044  0.80972285  0.62500000  1
  F  F14  1  0.19504364  0.80495636  0.37500000  1
  F  F15  1  0.19504364  0.80495636  0.87500000  1
  F  F16  1  0.28727253  0.28727253  0.00085015  1
  F  F17  1  0.28727253  0.28727253  0.24914985  1
  F  F18  1  0.71272747  0.71272747  0.50085015  1
  F  F19  1  0.71272747  0.71272747  0.74914985  1
  F  F20  1  0.79997956  0.19027715  0.12500000  1
  F  F21  1  0.80972285  0.20002044  0.62500000  1
  F  F22  1  0.80495636  0.19504364  0.37500000  1
  F  F23  1  0.80495636  0.19504364  0.87500000  1
