# generated using pymatgen
data_Li2PWO6
_symmetry_space_group_name_H-M   'P 1'
_cell_length_a   8.45004941
_cell_length_b   8.45004941
_cell_length_c   7.18555160
_cell_angle_alpha   77.41431146
_cell_angle_beta   102.58568854
_cell_angle_gamma   106.49134544
_symmetry_Int_Tables_number   1
_chemical_formula_structural   Li2PWO6
_chemical_formula_sum   'Li8 P4 W4 O24'
_cell_volume   473.42251315
_cell_formula_units_Z   4
loop_
 _symmetry_equiv_pos_site_id
 _symmetry_equiv_pos_as_xyz
  1  'x, y, z'
loop_
 _atom_site_type_symbol
 _atom_site_label
 _atom_site_symmetry_multiplicity
 _atom_site_fract_x
 _atom_site_fract_y
 _atom_site_fract_z
 _atom_site_occupancy
  Li  Li0  1  0.66244894  0.93110892  0.91329555  1
  Li  Li1  1  0.06889108  0.33755106  0.41329555  1
  Li  Li2  1  0.01014033  0.01014033  0.75000000  1
  Li  Li3  1  0.59256759  0.59256759  0.75000000  1
  Li  Li4  1  0.98985967  0.98985967  0.25000000  1
  Li  Li5  1  0.40743241  0.40743241  0.25000000  1
  Li  Li6  1  0.93110892  0.66244894  0.58670445  1
  Li  Li7  1  0.33755106  0.06889108  0.08670445  1
  P  P8  1  0.07284313  0.30275155  0.96086751  1
  P  P9  1  0.69724845  0.92715687  0.46086751  1
  P  P10  1  0.30275155  0.07284313  0.53913249  1
  P  P11  1  0.92715687  0.69724845  0.03913249  1
  W  W12  1  0.28737008  0.72000638  0.87113341  1
  W  W13  1  0.27999362  0.71262992  0.37113341  1
  W  W14  1  0.72000638  0.28737008  0.62886659  1
  W  W15  1  0.71262992  0.27999362  0.12886659  1
  O  O16  1  0.03163344  0.73877406  0.86993563  1
  O  O17  1  0.33989559  0.96635243  0.74312154  1
  O  O18  1  0.26122594  0.96836656  0.36993563  1
  O  O19  1  0.03364757  0.66010441  0.24312154  1
  O  O20  1  0.17600840  0.66903246  0.61171952  1
  O  O21  1  0.21154396  0.46560863  0.99591655  1
  O  O22  1  0.33096754  0.82399160  0.11171952  1
  O  O23  1  0.49702660  0.69696198  0.89613688  1
  O  O24  1  0.53439137  0.78845604  0.49591655  1
  O  O25  1  0.14054936  0.15276901  0.96774787  1
  O  O26  1  0.30303802  0.50297340  0.39613688  1
  O  O27  1  0.84723099  0.85945064  0.46774787  1
  O  O28  1  0.15276901  0.14054936  0.53225213  1
  O  O29  1  0.69696198  0.49702660  0.60386312  1
  O  O30  1  0.85945064  0.84723099  0.03225213  1
  O  O31  1  0.46560863  0.21154396  0.50408345  1
  O  O32  1  0.50297340  0.30303802  0.10386312  1
  O  O33  1  0.66903246  0.17600840  0.88828048  1
  O  O34  1  0.78845604  0.53439137  0.00408345  1
  O  O35  1  0.82399160  0.33096754  0.38828048  1
  O  O36  1  0.96635243  0.33989559  0.75687846  1
  O  O37  1  0.73877406  0.03163344  0.63006437  1
  O  O38  1  0.66010441  0.03364757  0.25687846  1
  O  O39  1  0.96836656  0.26122594  0.13006437  1
