# generated using pymatgen
data_Co2OF3
_symmetry_space_group_name_H-M   'P 1'
_cell_length_a   4.70590354
_cell_length_b   4.70590354
_cell_length_c   15.75133147
_cell_angle_alpha   90.00000000
_cell_angle_beta   90.00000000
_cell_angle_gamma   93.55157006
_symmetry_Int_Tables_number   1
_chemical_formula_structural   Co2OF3
_chemical_formula_sum   'Co10 O5 F15'
_cell_volume   348.15162327
_cell_formula_units_Z   5
loop_
 _symmetry_equiv_pos_site_id
 _symmetry_equiv_pos_as_xyz
  1  'x, y, z'
loop_
 _atom_site_type_symbol
 _atom_site_label
 _atom_site_symmetry_multiplicity
 _atom_site_fract_x
 _atom_site_fract_y
 _atom_site_fract_z
 _atom_site_occupancy
  Co  Co0  1  0.96338154  0.96338154  0.00079687  1
  Co  Co1  1  0.03598841  0.03598841  0.20000000  1
  Co  Co2  1  0.96338154  0.96338154  0.39920313  1
  Co  Co3  1  0.02808337  0.02808337  0.59914567  1
  Co  Co4  1  0.02808337  0.02808337  0.80085433  1
  Co  Co5  1  0.50080339  0.50080339  0.10020990  1
  Co  Co6  1  0.49475337  0.49475337  0.49940993  1
  Co  Co7  1  0.50080339  0.50080339  0.29979010  1
  Co  Co8  1  0.49475337  0.49475337  0.90059007  1
  Co  Co9  1  0.49038267  0.49038267  0.70000000  1
  O  O10  1  0.31130028  0.31130028  0.20000000  1
  O  O11  1  0.30384680  0.30384680  0.59891048  1
  O  O12  1  0.30384680  0.30384680  0.80108952  1
  O  O13  1  0.68792950  0.68792950  0.99960549  1
  O  O14  1  0.68792950  0.68792950  0.40039451  1
  F  F15  1  0.19431530  0.80627990  0.10020456  1
  F  F16  1  0.18902119  0.80128591  0.49960170  1
  F  F17  1  0.19431530  0.80627990  0.29979544  1
  F  F18  1  0.20254540  0.81288874  0.70000000  1
  F  F19  1  0.18902119  0.80128591  0.90039830  1
  F  F20  1  0.27756429  0.27756429  0.00065971  1
  F  F21  1  0.27756429  0.27756429  0.39934029  1
  F  F22  1  0.72164304  0.72164304  0.20000000  1
  F  F23  1  0.71536118  0.71536118  0.60114859  1
  F  F24  1  0.71536118  0.71536118  0.79885141  1
  F  F25  1  0.80627990  0.19431530  0.10020456  1
  F  F26  1  0.80128591  0.18902119  0.49960170  1
  F  F27  1  0.80627990  0.19431530  0.29979544  1
  F  F28  1  0.80128591  0.18902119  0.90039830  1
  F  F29  1  0.81288874  0.20254540  0.70000000  1
