# generated using pymatgen
data_K8Li3(FeO4)4
_symmetry_space_group_name_H-M   'P 1'
_cell_length_a   5.55322754
_cell_length_b   8.45075603
_cell_length_c   10.94827255
_cell_angle_alpha   86.27140075
_cell_angle_beta   84.78058322
_cell_angle_gamma   89.05727715
_symmetry_Int_Tables_number   1
_chemical_formula_structural   K8Li3(FeO4)4
_chemical_formula_sum   'K8 Li3 Fe4 O16'
_cell_volume   510.54905277
_cell_formula_units_Z   1
loop_
 _symmetry_equiv_pos_site_id
 _symmetry_equiv_pos_as_xyz
  1  'x, y, z'
loop_
 _atom_site_type_symbol
 _atom_site_label
 _atom_site_symmetry_multiplicity
 _atom_site_fract_x
 _atom_site_fract_y
 _atom_site_fract_z
 _atom_site_occupancy
  K  K0  1  0.20551474  0.98328663  0.16761958  1
  K  K1  1  0.20071772  0.25794697  0.63218757  1
  K  K2  1  0.29051383  0.49299643  0.34163821  1
  K  K3  1  0.32339189  0.76934333  0.86499271  1
  K  K4  1  0.67977000  0.26027274  0.11014760  1
  K  K5  1  0.72120609  0.50144403  0.69887905  1
  K  K6  1  0.80338419  0.73786231  0.36839650  1
  K  K7  1  0.79335650  0.01376955  0.82735388  1
  Li  Li8  1  0.21648812  0.02444225  0.43166375  1
  Li  Li9  1  0.27918250  0.51614047  0.06125412  1
  Li  Li10  1  0.78980698  0.97327065  0.56654461  1
  Fe  Fe11  1  0.20071613  0.27986260  0.93356768  1
  Fe  Fe12  1  0.29390740  0.77442113  0.56704744  1
  Fe  Fe13  1  0.71422729  0.22302679  0.43179185  1
  Fe  Fe14  1  0.79326592  0.71396315  0.06286272  1
  O  O15  1  0.16590862  0.30082775  0.09185513  1
  O  O16  1  0.06880628  0.68834602  0.12043701  1
  O  O17  1  0.12038642  0.94030384  0.61506779  1
  O  O18  1  0.19253423  0.58290238  0.58961695  1
  O  O19  1  0.44037319  0.19005112  0.37154629  1
  O  O20  1  0.31499318  0.80081556  0.40608192  1
  O  O21  1  0.30860366  0.09246735  0.90340873  1
  O  O22  1  0.37615462  0.44363581  0.89398633  1
  O  O23  1  0.58563046  0.57960570  0.12261566  1
  O  O24  1  0.70553724  0.89929600  0.09400175  1
  O  O25  1  0.68930641  0.19725972  0.59273444  1
  O  O26  1  0.56684743  0.80701567  0.62885978  1
  O  O27  1  0.80843501  0.41654291  0.40938064  1
  O  O28  1  0.88636345  0.05421754  0.38703979  1
  O  O29  1  0.93376656  0.28866048  0.86815961  1
  O  O30  1  0.83190196  0.70534812  0.91041192  1
