# generated using pymatgen
data_LiP2WO8
_symmetry_space_group_name_H-M   'P 1'
_cell_length_a   11.45147071
_cell_length_b   5.33192998
_cell_length_c   11.05963095
_cell_angle_alpha   90.00000000
_cell_angle_beta   90.00000000
_cell_angle_gamma   90.00000000
_symmetry_Int_Tables_number   1
_chemical_formula_structural   LiP2WO8
_chemical_formula_sum   'Li4 P8 W4 O32'
_cell_volume   675.28381271
_cell_formula_units_Z   4
loop_
 _symmetry_equiv_pos_site_id
 _symmetry_equiv_pos_as_xyz
  1  'x, y, z'
loop_
 _atom_site_type_symbol
 _atom_site_label
 _atom_site_symmetry_multiplicity
 _atom_site_fract_x
 _atom_site_fract_y
 _atom_site_fract_z
 _atom_site_occupancy
  Li  Li0  1  0.10976798  0.75635464  0.74881492  1
  Li  Li1  1  0.39023202  0.24364536  0.24881492  1
  Li  Li2  1  0.60976798  0.74364536  0.25118508  1
  Li  Li3  1  0.89023202  0.25635464  0.75118508  1
  P  P4  1  0.04024629  0.25444785  0.09549187  1
  P  P5  1  0.16005352  0.24988146  0.86223122  1
  P  P6  1  0.33994648  0.75011854  0.36223122  1
  P  P7  1  0.45975371  0.74555215  0.59549187  1
  P  P8  1  0.54024629  0.24555215  0.90450813  1
  P  P9  1  0.66005352  0.25011854  0.13776878  1
  P  P10  1  0.83994648  0.74988146  0.63776878  1
  P  P11  1  0.95975371  0.75444785  0.40450813  1
  W  W12  1  0.15313711  0.24940737  0.40319573  1
  W  W13  1  0.34686289  0.75059263  0.90319573  1
  W  W14  1  0.65313711  0.25059263  0.59680427  1
  W  W15  1  0.84686289  0.74940737  0.09680427  1
  O  O16  1  0.96767242  0.02309527  0.06478123  1
  O  O17  1  0.02400471  0.99551058  0.43862781  1
  O  O18  1  0.04243312  0.22773429  0.80492703  1
  O  O19  1  0.08806174  0.25563840  0.22277960  1
  O  O20  1  0.15311198  0.24512424  0.00844476  1
  O  O21  1  0.21444385  0.24247735  0.54754111  1
  O  O22  1  0.26379016  0.97956926  0.32883645  1
  O  O23  1  0.22000361  0.50329060  0.83128127  1
  O  O24  1  0.27999639  0.49670940  0.33128127  1
  O  O25  1  0.23620984  0.02043074  0.82883645  1
  O  O26  1  0.28555615  0.75752265  0.04754111  1
  O  O27  1  0.34688802  0.75487576  0.50844476  1
  O  O28  1  0.41193826  0.74436160  0.72277960  1
  O  O29  1  0.45756688  0.77226571  0.30492703  1
  O  O30  1  0.47599529  0.00448942  0.93862781  1
  O  O31  1  0.53232758  0.97690473  0.56478123  1
  O  O32  1  0.46767242  0.47690473  0.93521877  1
  O  O33  1  0.52400471  0.50448942  0.56137219  1
  O  O34  1  0.54243312  0.27226571  0.19507297  1
  O  O35  1  0.58806174  0.24436160  0.77722040  1
  O  O36  1  0.65311198  0.25487576  0.99155524  1
  O  O37  1  0.71444385  0.25752265  0.45245889  1
  O  O38  1  0.76379016  0.52043074  0.67116355  1
  O  O39  1  0.72000361  0.99670940  0.16871873  1
  O  O40  1  0.77999639  0.00329060  0.66871873  1
  O  O41  1  0.73620984  0.47956926  0.17116355  1
  O  O42  1  0.78555615  0.74247735  0.95245889  1
  O  O43  1  0.84688802  0.74512424  0.49155524  1
  O  O44  1  0.91193826  0.75563840  0.27722040  1
  O  O45  1  0.95756688  0.72773429  0.69507297  1
  O  O46  1  0.97599529  0.49551058  0.06137219  1
  O  O47  1  0.03232758  0.52309527  0.43521877  1
