# generated using pymatgen
data_La4Mn4O11
_symmetry_space_group_name_H-M   'P 1'
_cell_length_a   7.96438968
_cell_length_b   7.99234638
_cell_length_c   8.21414159
_cell_angle_alpha   90.00000000
_cell_angle_beta   88.45282296
_cell_angle_gamma   90.00000000
_symmetry_Int_Tables_number   1
_chemical_formula_structural   La4Mn4O11
_chemical_formula_sum   'La8 Mn8 O22'
_cell_volume   522.67367210
_cell_formula_units_Z   2
loop_
 _symmetry_equiv_pos_site_id
 _symmetry_equiv_pos_as_xyz
  1  'x, y, z'
loop_
 _atom_site_type_symbol
 _atom_site_label
 _atom_site_symmetry_multiplicity
 _atom_site_fract_x
 _atom_site_fract_y
 _atom_site_fract_z
 _atom_site_occupancy
  La  La0  1  0.03415165  0.25830653  0.01076967  1
  La  La1  1  0.52064297  0.26009406  0.03139086  1
  La  La2  1  0.02064297  0.23990594  0.53139086  1
  La  La3  1  0.46707753  0.76633796  0.46687480  1
  La  La4  1  0.53415165  0.24169347  0.51076967  1
  La  La5  1  0.97837519  0.73637994  0.48496600  1
  La  La6  1  0.47837519  0.76362006  0.98496600  1
  La  La7  1  0.96707753  0.73366204  0.96687480  1
  Mn  Mn8  1  0.25083712  0.00777774  0.25042402  1
  Mn  Mn9  1  0.25034565  0.50125492  0.25026039  1
  Mn  Mn10  1  0.75021910  0.00083299  0.25026535  1
  Mn  Mn11  1  0.75224358  0.49908104  0.24980504  1
  Mn  Mn12  1  0.25224358  0.00091896  0.74980504  1
  Mn  Mn13  1  0.25021910  0.49916701  0.75026535  1
  Mn  Mn14  1  0.75034565  0.99874508  0.75026039  1
  Mn  Mn15  1  0.75083712  0.49222226  0.75042502  1
  O  O16  1  0.28561060  0.05083746  0.01660097  1
  O  O17  1  0.30650125  0.45784305  0.99408889  1
  O  O18  1  0.17482932  0.23786752  0.27819546  1
  O  O19  1  0.29550125  0.76769193  0.21604298  1
  O  O20  1  0.18841447  0.95294671  0.47880578  1
  O  O21  1  0.22962445  0.56027219  0.50568674  1
  O  O22  1  0.49968294  0.04037788  0.30794061  1
  O  O23  1  0.50944522  0.45235625  0.29067134  1
  O  O24  1  0.00944522  0.04764375  0.79067134  1
  O  O25  1  0.99968294  0.45962212  0.80794061  1
  O  O26  1  0.78751466  0.25380430  0.18623843  1
  O  O27  1  0.28751466  0.24619570  0.68623843  1
  O  O28  1  0.72819642  0.74552475  0.30827360  1
  O  O29  1  0.22819642  0.75447525  0.80827360  1
  O  O30  1  0.99278664  0.55271647  0.20249807  1
  O  O31  1  0.49278664  0.94728353  0.70249807  1
  O  O32  1  0.80650125  0.04215695  0.49408889  1
  O  O33  1  0.78561060  0.44916254  0.51660097  1
  O  O34  1  0.67482932  0.26213248  0.77819546  1
  O  O35  1  0.79550125  0.73230807  0.71604298  1
  O  O36  1  0.68841447  0.54705329  0.97880578  1
  O  O37  1  0.72962445  0.93972781  0.00568674  1
