# generated using pymatgen
data_Li2V(PO4)2
_symmetry_space_group_name_H-M   'P 1'
_cell_length_a   4.84765576
_cell_length_b   4.85394873
_cell_length_c   7.51967097
_cell_angle_alpha   90.06825798
_cell_angle_beta   90.13479471
_cell_angle_gamma   119.68294993
_symmetry_Int_Tables_number   1
_chemical_formula_structural   Li2V(PO4)2
_chemical_formula_sum   'Li2 V1 P2 O8'
_cell_volume   153.72066961
_cell_formula_units_Z   1
loop_
 _symmetry_equiv_pos_site_id
 _symmetry_equiv_pos_as_xyz
  1  'x, y, z'
loop_
 _atom_site_type_symbol
 _atom_site_label
 _atom_site_symmetry_multiplicity
 _atom_site_fract_x
 _atom_site_fract_y
 _atom_site_fract_z
 _atom_site_occupancy
  Li  Li0  1  0.33412900  0.67150455  0.67184337  1
  Li  Li1  1  0.66560826  0.32839674  0.32808080  1
  V  V2  1  0.00003092  0.00001513  0.00004109  1
  P  P3  1  0.33447369  0.66627292  0.22306425  1
  P  P4  1  0.66550111  0.33370301  0.77696995  1
  O  O5  1  0.04745891  0.69921062  0.15020392  1
  O  O6  1  0.33151857  0.66739514  0.42220913  1
  O  O7  1  0.30958293  0.35292800  0.15154885  1
  O  O8  1  0.65271468  0.95522155  0.15437809  1
  O  O9  1  0.34730221  0.04495955  0.84569251  1
  O  O10  1  0.69075026  0.64726515  0.84847011  1
  O  O11  1  0.66812198  0.33246495  0.57776041  1
  O  O12  1  0.95250748  0.30066269  0.84973551  1
