# generated using pymatgen
data_LiFeSiO4
_symmetry_space_group_name_H-M   'P 1'
_cell_length_a   8.60423447
_cell_length_b   8.60423434
_cell_length_c   8.60423459
_cell_angle_alpha   107.33759220
_cell_angle_beta   107.33759368
_cell_angle_gamma   107.33759071
_symmetry_Int_Tables_number   1
_chemical_formula_structural   LiFeSiO4
_chemical_formula_sum   'Li6 Fe6 Si6 O24'
_cell_volume   525.53442491
_cell_formula_units_Z   6
loop_
 _symmetry_equiv_pos_site_id
 _symmetry_equiv_pos_as_xyz
  1  'x, y, z'
loop_
 _atom_site_type_symbol
 _atom_site_label
 _atom_site_symmetry_multiplicity
 _atom_site_fract_x
 _atom_site_fract_y
 _atom_site_fract_z
 _atom_site_occupancy
  Li  Li0  1  0.05588418  0.45798335  0.22700687  1
  Li  Li1  1  0.54201665  0.77299313  0.94411582  1
  Li  Li2  1  0.77299313  0.94411582  0.54201665  1
  Li  Li3  1  0.22700687  0.05588418  0.45798335  1
  Li  Li4  1  0.45798335  0.22700687  0.05588418  1
  Li  Li5  1  0.94411582  0.54201665  0.77299313  1
  Fe  Fe6  1  0.39279053  0.80099627  0.57685186  1
  Fe  Fe7  1  0.19900373  0.42314814  0.60720947  1
  Fe  Fe8  1  0.42314814  0.60720947  0.19900373  1
  Fe  Fe9  1  0.57685186  0.39279053  0.80099627  1
  Fe  Fe10  1  0.80099627  0.57685186  0.39279053  1
  Fe  Fe11  1  0.60720947  0.19900373  0.42314814  1
  Si  Si12  1  0.13154965  0.90488387  0.73391078  1
  Si  Si13  1  0.26608922  0.86845035  0.09511613  1
  Si  Si14  1  0.09511613  0.26608922  0.86845035  1
  Si  Si15  1  0.90488387  0.73391078  0.13154965  1
  Si  Si16  1  0.73391078  0.13154965  0.90488387  1
  Si  Si17  1  0.86845035  0.09511613  0.26608922  1
  O  O18  1  0.26137748  0.96319401  0.94941354  1
  O  O19  1  0.05058646  0.73862252  0.03680599  1
  O  O20  1  0.24912309  0.93012830  0.61918644  1
  O  O21  1  0.38081356  0.75087691  0.06987170  1
  O  O22  1  0.64461828  0.97452906  0.70014967  1
  O  O23  1  0.29510559  0.63745582  0.33696834  1
  O  O24  1  0.06987170  0.38081356  0.75087691  1
  O  O25  1  0.36254418  0.66303166  0.70489441  1
  O  O26  1  0.02547094  0.29985033  0.35538172  1
  O  O27  1  0.29985033  0.35538172  0.02547094  1
  O  O28  1  0.66303166  0.70489441  0.36254418  1
  O  O29  1  0.03680599  0.05058646  0.73862252  1
  O  O30  1  0.96319401  0.94941354  0.26137748  1
  O  O31  1  0.33696834  0.29510559  0.63745582  1
  O  O32  1  0.70014967  0.64461828  0.97452906  1
  O  O33  1  0.97452906  0.70014967  0.64461828  1
  O  O34  1  0.63745582  0.33696834  0.29510559  1
  O  O35  1  0.93012830  0.61918644  0.24912309  1
  O  O36  1  0.70489441  0.36254418  0.66303166  1
  O  O37  1  0.35538172  0.02547094  0.29985033  1
  O  O38  1  0.61918644  0.24912309  0.93012830  1
  O  O39  1  0.75087691  0.06987170  0.38081356  1
  O  O40  1  0.94941354  0.26137748  0.96319401  1
  O  O41  1  0.73862252  0.03680599  0.05058646  1
