# generated using pymatgen
data_Li3TiMn3O8
_symmetry_space_group_name_H-M   'P 1'
_cell_length_a   5.90700005
_cell_length_b   15.35512784
_cell_length_c   6.11218950
_cell_angle_alpha   97.81681586
_cell_angle_beta   118.20706909
_cell_angle_gamma   100.59096978
_symmetry_Int_Tables_number   1
_chemical_formula_structural   Li3TiMn3O8
_chemical_formula_sum   'Li9 Ti3 Mn9 O24'
_cell_volume   464.06432508
_cell_formula_units_Z   3
loop_
 _symmetry_equiv_pos_site_id
 _symmetry_equiv_pos_as_xyz
  1  'x, y, z'
loop_
 _atom_site_type_symbol
 _atom_site_label
 _atom_site_symmetry_multiplicity
 _atom_site_fract_x
 _atom_site_fract_y
 _atom_site_fract_z
 _atom_site_occupancy
  Li  Li0  1  0.00630519  0.66443946  0.83872971  1
  Li  Li1  1  0.99903247  0.83149087  0.66571688  1
  Li  Li2  1  0.00000121  0.99999939  0.50000092  1
  Li  Li3  1  0.00096631  0.16850930  0.33428176  1
  Li  Li4  1  0.50254519  0.33123973  0.67495318  1
  Li  Li5  1  0.99369464  0.33556000  0.16127071  1
  Li  Li6  1  0.50000171  0.50000030  0.50000174  1
  Li  Li7  1  0.49745544  0.66876042  0.32504808  1
  Li  Li8  1  0.49999953  0.00000045  0.99999941  1
  Ti  Ti9  1  0.99936158  0.33672891  0.67938592  1
  Ti  Ti10  1  0.00064214  0.66327113  0.32061653  1
  Ti  Ti11  1  0.00000328  0.00000026  0.00000448  1
  Mn  Mn12  1  0.00002893  0.16680958  0.83301874  1
  Mn  Mn13  1  0.00000371  0.50000194  0.50000707  1
  Mn  Mn14  1  0.49984210  0.67007645  0.83882237  1
  Mn  Mn15  1  0.49928379  0.83384495  0.66826739  1
  Mn  Mn16  1  0.99996744  0.83319032  0.16697799  1
  Mn  Mn17  1  0.50000109  0.00000144  0.50000553  1
  Mn  Mn18  1  0.50071430  0.16615141  0.33173159  1
  Mn  Mn19  1  0.50015277  0.32992166  0.16116944  1
  Mn  Mn20  1  0.50000173  0.49999782  0.99999024  1
  O  O21  1  0.21600898  0.07990626  0.90579139  1
  O  O22  1  0.28623198  0.58711800  0.92337134  1
  O  O23  1  0.20898143  0.24941955  0.73278120  1
  O  O24  1  0.24406089  0.74259294  0.70356908  1
  O  O25  1  0.22517307  0.41661625  0.57463167  1
  O  O26  1  0.27788918  0.91813755  0.58780024  1
  O  O27  1  0.74323860  0.59189681  0.94908537  1
  O  O28  1  0.23465987  0.58390266  0.42778382  1
  O  O29  1  0.78507130  0.08524454  0.92855178  1
  O  O30  1  0.25006166  0.07505801  0.37512317  1
  O  O31  1  0.72257747  0.75079514  0.74649713  1
  O  O32  1  0.21390015  0.74400243  0.23667312  1
  O  O33  1  0.78610183  0.25599733  0.76332572  1
  O  O34  1  0.27742323  0.24920481  0.25350384  1
  O  O35  1  0.74993979  0.92494212  0.62487890  1
  O  O36  1  0.21492611  0.91475535  0.07144770  1
  O  O37  1  0.76534096  0.41609821  0.57221649  1
  O  O38  1  0.25676047  0.40810442  0.05091565  1
  O  O39  1  0.72211259  0.08186251  0.41220300  1
  O  O40  1  0.77482839  0.58338436  0.42537110  1
  O  O41  1  0.75593879  0.25740926  0.29643116  1
  O  O42  1  0.79101915  0.75058077  0.26721965  1
  O  O43  1  0.71375989  0.41288083  0.07662056  1
  O  O44  1  0.78399164  0.92009409  0.09420922  1
