# generated using pymatgen
data_Li2Mn7O12
_symmetry_space_group_name_H-M   'P 1'
_cell_length_a   5.22886435
_cell_length_b   9.01122726
_cell_length_c   10.00842374
_cell_angle_alpha   89.99999813
_cell_angle_beta   101.77945984
_cell_angle_gamma   89.99999766
_symmetry_Int_Tables_number   1
_chemical_formula_structural   Li2Mn7O12
_chemical_formula_sum   'Li4 Mn14 O24'
_cell_volume   461.65055164
_cell_formula_units_Z   2
loop_
 _symmetry_equiv_pos_site_id
 _symmetry_equiv_pos_as_xyz
  1  'x, y, z'
loop_
 _atom_site_type_symbol
 _atom_site_label
 _atom_site_symmetry_multiplicity
 _atom_site_fract_x
 _atom_site_fract_y
 _atom_site_fract_z
 _atom_site_occupancy
  Li  Li0  1  0.75733211  0.08888855  0.51920668  1
  Li  Li1  1  0.50274560  0.41920894  0.74901209  1
  Li  Li2  1  0.74266789  0.58888855  0.98079332  1
  Li  Li3  1  0.99725440  0.91920894  0.75098791  1
  Mn  Mn4  1  0.01129451  0.08376993  0.26403733  1
  Mn  Mn5  1  0.49269730  0.07657434  0.75347353  1
  Mn  Mn6  1  0.00868986  0.25558356  0.76120950  1
  Mn  Mn7  1  0.25173636  0.25886135  0.51295261  1
  Mn  Mn8  1  0.49317384  0.25229388  0.24336647  1
  Mn  Mn9  1  0.99374537  0.41694239  0.23951222  1
  Mn  Mn10  1  0.74459693  0.24322180  0.99275842  1
  Mn  Mn11  1  0.00730270  0.57657434  0.74652647  1
  Mn  Mn12  1  0.48870549  0.58376993  0.23596267  1
  Mn  Mn13  1  0.00682616  0.75229388  0.25663353  1
  Mn  Mn14  1  0.24826364  0.75886135  0.98704739  1
  Mn  Mn15  1  0.49131014  0.75558356  0.73879050  1
  Mn  Mn16  1  0.75540307  0.74322180  0.50724158  1
  Mn  Mn17  1  0.50625463  0.91694239  0.26048778  1
  O  O18  1  0.13041050  0.10265473  0.64908323  1
  O  O19  1  0.37317817  0.11581989  0.36843633  1
  O  O20  1  0.40867038  0.22917733  0.87211040  1
  O  O21  1  0.64224198  0.08248723  0.16486106  1
  O  O22  1  0.08372373  0.25724782  0.12878576  1
  O  O23  1  0.84758226  0.10496586  0.86170602  1
  O  O24  1  0.12520754  0.40397521  0.64882658  1
  O  O25  1  0.58720824  0.22946855  0.63267361  1
  O  O26  1  0.36167645  0.41875874  0.33583932  1
  O  O27  1  0.91379412  0.23780261  0.38063315  1
  O  O28  1  0.64070514  0.39260802  0.12699793  1
  O  O29  1  0.87970058  0.41864228  0.85508940  1
  O  O30  1  0.12682183  0.61581989  0.13156367  1
  O  O31  1  0.36958950  0.60265473  0.85091677  1
  O  O32  1  0.09132962  0.72917733  0.62788960  1
  O  O33  1  0.65241774  0.60496586  0.63829398  1
  O  O34  1  0.41627627  0.75724782  0.37121424  1
  O  O35  1  0.85775802  0.58248723  0.33513894  1
  O  O36  1  0.13832355  0.91875874  0.16416068  1
  O  O37  1  0.91279176  0.72946855  0.86732639  1
  O  O38  1  0.37479246  0.90397521  0.85117342  1
  O  O39  1  0.58620588  0.73780261  0.11936685  1
  O  O40  1  0.62029942  0.91864228  0.64491060  1
  O  O41  1  0.85929486  0.89260802  0.37300207  1
