# generated using pymatgen
data_VFe3Cu2(PO4)6
_symmetry_space_group_name_H-M   'P 1'
_cell_length_a   8.55712066
_cell_length_b   8.60394602
_cell_length_c   8.60394577
_cell_angle_alpha   59.99999935
_cell_angle_beta   59.81881735
_cell_angle_gamma   59.81882091
_symmetry_Int_Tables_number   1
_chemical_formula_structural   VFe3Cu2(PO4)6
_chemical_formula_sum   'V1 Fe3 Cu2 P6 O24'
_cell_volume   446.69718612
_cell_formula_units_Z   1
loop_
 _symmetry_equiv_pos_site_id
 _symmetry_equiv_pos_as_xyz
  1  'x, y, z'
loop_
 _atom_site_type_symbol
 _atom_site_label
 _atom_site_symmetry_multiplicity
 _atom_site_fract_x
 _atom_site_fract_y
 _atom_site_fract_z
 _atom_site_occupancy
  V  V0  1  0.56973479  0.14342207  0.14342207  1
  Fe  Fe1  1  0.06810086  0.64396605  0.64396605  1
  Fe  Fe2  1  0.43335952  0.85554683  0.85554683  1
  Fe  Fe3  1  0.93098800  0.35633733  0.35633733  1
  Cu  Cu4  1  0.00714343  0.99761886  0.99761886  1
  Cu  Cu5  1  0.50346008  0.49884631  0.49884631  1
  P  P6  1  0.24916732  0.25112770  0.54301492  1
  P  P7  1  0.24916732  0.95669106  0.25112770  1
  P  P8  1  0.24916732  0.54301492  0.95669106  1
  P  P9  1  0.74676882  0.45749018  0.04515266  1
  P  P10  1  0.74676882  0.04515266  0.75058834  1
  P  P11  1  0.74676882  0.75058834  0.45749018  1
  O  O12  1  0.07007132  0.11341290  0.31361150  1
  O  O13  1  0.07007132  0.50290427  0.11341290  1
  O  O14  1  0.07007132  0.31361150  0.50290427  1
  O  O15  1  0.23738576  0.08589664  0.73380398  1
  O  O16  1  0.43016256  0.18741756  0.37303516  1
  O  O17  1  0.27777302  0.41326078  0.54652788  1
  O  O18  1  0.23738576  0.94291262  0.08589664  1
  O  O19  1  0.27777302  0.76243932  0.41326078  1
  O  O20  1  0.56596648  0.61389347  0.00692432  1
  O  O21  1  0.27777302  0.54652788  0.76243932  1
  O  O22  1  0.75578675  0.25995299  0.06433748  1
  O  O23  1  0.56596648  0.00692432  0.81321574  1
  O  O24  1  0.43016256  0.00938471  0.18741756  1
  O  O25  1  0.23738576  0.73380398  0.94291262  1
  O  O26  1  0.73119420  0.43740265  0.24157919  1
  O  O27  1  0.43016256  0.37303516  0.00938471  1
  O  O28  1  0.73119420  0.24157919  0.58982496  1
  O  O29  1  0.75578675  0.06433748  0.91992277  1
  O  O30  1  0.73119420  0.58982496  0.43740265  1
  O  O31  1  0.56596648  0.81321574  0.61389347  1
  O  O32  1  0.75578675  0.91992277  0.25995299  1
  O  O33  1  0.93146120  0.69672502  0.48695219  1
  O  O34  1  0.93146120  0.48695219  0.88486258  1
  O  O35  1  0.93146120  0.88486258  0.69672502  1
