# generated using pymatgen
data_Li2V3P9O28
_symmetry_space_group_name_H-M   'P 1'
_cell_length_a   7.06421565
_cell_length_b   9.28587857
_cell_length_c   9.16352669
_cell_angle_alpha   68.52455031
_cell_angle_beta   98.87795344
_cell_angle_gamma   70.17802745
_symmetry_Int_Tables_number   1
_chemical_formula_structural   Li2V3P9O28
_chemical_formula_sum   'Li2 V3 P9 O28'
_cell_volume   498.89622256
_cell_formula_units_Z   1
loop_
 _symmetry_equiv_pos_site_id
 _symmetry_equiv_pos_as_xyz
  1  'x, y, z'
loop_
 _atom_site_type_symbol
 _atom_site_label
 _atom_site_symmetry_multiplicity
 _atom_site_fract_x
 _atom_site_fract_y
 _atom_site_fract_z
 _atom_site_occupancy
  Li  Li0  1  0.45624089  0.02794299  0.95375343  1
  Li  Li1  1  0.04375911  0.47205701  0.04624657  1
  V  V2  1  0.25000000  0.25000000  0.50000000  1
  V  V3  1  0.50965545  0.49404438  0.01595428  1
  V  V4  1  0.99034455  0.00595562  0.98404572  1
  P  P5  1  0.53750564  0.31711439  0.76353786  1
  P  P6  1  0.05884957  0.79607937  0.75457383  1
  P  P7  1  0.90336750  0.35790057  0.67792748  1
  P  P8  1  0.44067481  0.83029480  0.70206171  1
  P  P9  1  0.75000000  0.75000000  0.50000000  1
  P  P10  1  0.59663250  0.14209943  0.32207252  1
  P  P11  1  0.05932519  0.66970520  0.29793829  1
  P  P12  1  0.96249436  0.18288561  0.23646214  1
  P  P13  1  0.44115043  0.70392063  0.24542617  1
  O  O14  1  0.66874158  0.13179670  0.90280047  1
  O  O15  1  0.16802590  0.62162668  0.90894953  1
  O  O16  1  0.57061720  0.69563293  0.87795148  1
  O  O17  1  0.03627380  0.22735107  0.85635183  1
  O  O18  1  0.98594936  0.94643977  0.79402688  1
  O  O19  1  0.49009521  0.45159759  0.82461569  1
  O  O20  1  0.86612549  0.54331570  0.66029437  1
  O  O21  1  0.38743701  0.00755317  0.69214541  1
  O  O22  1  0.86524427  0.81325748  0.62972050  1
  O  O23  1  0.33631485  0.33323086  0.66138083  1
  O  O24  1  0.67296735  0.35984394  0.64203777  1
  O  O25  1  0.21913219  0.81638479  0.65036330  1
  O  O26  1  0.52984761  0.79810177  0.56437728  1
  O  O27  1  0.97612532  0.32020562  0.54457235  1
  O  O28  1  0.97015239  0.70189823  0.43562272  1
  O  O29  1  0.52387468  0.17979438  0.45542765  1
  O  O30  1  0.82703265  0.14015606  0.35796223  1
  O  O31  1  0.28086781  0.68361521  0.34963670  1
  O  O32  1  0.63475573  0.68674252  0.37027950  1
  O  O33  1  0.16368515  0.16676914  0.33861917  1
  O  O34  1  0.63387451  0.95668430  0.33970563  1
  O  O35  1  0.11256299  0.49244683  0.30785459  1
  O  O36  1  0.51405064  0.55356023  0.20597312  1
  O  O37  1  0.00990479  0.04840241  0.17538431  1
  O  O38  1  0.92938280  0.80436707  0.12204852  1
  O  O39  1  0.46372620  0.27264893  0.14364817  1
  O  O40  1  0.83125842  0.36820330  0.09719953  1
  O  O41  1  0.33197410  0.87837332  0.09105047  1
