# generated using pymatgen
data_Li8(CoO2)5
_symmetry_space_group_name_H-M   'P 1'
_cell_length_a   5.34992559
_cell_length_b   6.64719376
_cell_length_c   8.09977759
_cell_angle_alpha   90.45495564
_cell_angle_beta   102.87253636
_cell_angle_gamma   113.36817280
_symmetry_Int_Tables_number   1
_chemical_formula_structural   Li8(CoO2)5
_chemical_formula_sum   'Li8 Co5 O10'
_cell_volume   256.27515633
_cell_formula_units_Z   1
loop_
 _symmetry_equiv_pos_site_id
 _symmetry_equiv_pos_as_xyz
  1  'x, y, z'
loop_
 _atom_site_type_symbol
 _atom_site_label
 _atom_site_symmetry_multiplicity
 _atom_site_fract_x
 _atom_site_fract_y
 _atom_site_fract_z
 _atom_site_occupancy
  Li  Li0  1  0.90303067  0.33952413  0.06470854  1
  Li  Li1  1  0.71312151  0.15857929  0.44259062  1
  Li  Li2  1  0.49696933  0.06047587  0.13529146  1
  Li  Li3  1  0.68687849  0.24142071  0.75740938  1
  Li  Li4  1  0.27079394  0.70946512  0.26696753  1
  Li  Li5  1  0.30982807  0.87748329  0.54719865  1
  Li  Li6  1  0.09017193  0.52251671  0.65280135  1
  Li  Li7  1  0.12920606  0.69053488  0.93303247  1
  Co  Co8  1  0.90408216  0.90098339  0.19831401  1
  Co  Co9  1  0.49591784  0.49901661  0.00168599  1
  Co  Co10  1  0.70000000  0.70000000  0.60000000  1
  Co  Co11  1  0.29126597  0.29997448  0.40653994  1
  Co  Co12  1  0.10873403  0.10002552  0.79346006  1
  O  O13  1  0.90392196  0.17654735  0.26250979  1
  O  O14  1  0.89981733  0.63537916  0.09887375  1
  O  O15  1  0.67627458  0.41430581  0.55991835  1
  O  O16  1  0.29463251  0.01302277  0.32540115  1
  O  O17  1  0.50018267  0.76462084  0.10112625  1
  O  O18  1  0.49607804  0.22345265  0.93749021  1
  O  O19  1  0.72372542  0.98569419  0.64008165  1
  O  O20  1  0.32308183  0.59260401  0.48756734  1
  O  O21  1  0.10536749  0.38697723  0.87459885  1
  O  O22  1  0.07691817  0.80739599  0.71243266  1
