# generated using pymatgen
data_Li3V3P8O29
_symmetry_space_group_name_H-M   'P 1'
_cell_length_a   9.76026386
_cell_length_b   9.79433127
_cell_length_c   13.94801190
_cell_angle_alpha   90.02406004
_cell_angle_beta   90.31931213
_cell_angle_gamma   59.89817615
_symmetry_Int_Tables_number   1
_chemical_formula_structural   Li3V3P8O29
_chemical_formula_sum   'Li6 V6 P16 O58'
_cell_volume   1153.51802973
_cell_formula_units_Z   2
loop_
 _symmetry_equiv_pos_site_id
 _symmetry_equiv_pos_as_xyz
  1  'x, y, z'
loop_
 _atom_site_type_symbol
 _atom_site_label
 _atom_site_symmetry_multiplicity
 _atom_site_fract_x
 _atom_site_fract_y
 _atom_site_fract_z
 _atom_site_occupancy
  Li  Li0  1  0.77369931  0.90466209  0.55729888  1
  Li  Li1  1  0.77450536  0.32104279  0.05705776  1
  Li  Li2  1  0.31843705  0.90757199  0.05897335  1
  Li  Li3  1  0.68459458  0.22774910  0.44050385  1
  Li  Li4  1  0.31849698  0.77405533  0.55880366  1
  Li  Li5  1  0.68249546  0.08918348  0.94080489  1
  V  V6  1  0.56514653  0.43771612  0.24970454  1
  V  V7  1  0.42907149  0.56457122  0.75419991  1
  V  V8  1  0.56529632  0.99689137  0.75004914  1
  V  V9  1  0.42887815  0.00628086  0.25427427  1
  V  V10  1  0.99846827  0.56601031  0.24899584  1
  V  V11  1  0.99830777  0.43598275  0.74929736  1
  P  P12  1  0.91858403  0.76941521  0.84625886  1
  P  P13  1  0.77262504  0.91053088  0.34003235  1
  P  P14  1  0.91789471  0.31261449  0.34590844  1
  P  P15  1  0.66397380  0.66949667  0.12780757  1
  P  P16  1  0.66398277  0.66655611  0.62793159  1
  P  P17  1  0.77275405  0.31687639  0.84005809  1
  P  P18  1  0.68140790  0.22979877  0.65707587  1
  P  P19  1  0.31472818  0.91311730  0.84260087  1
  P  P20  1  0.68131156  0.08864441  0.15692909  1
  P  P21  1  0.31462509  0.77197831  0.34269909  1
  P  P22  1  0.22526432  0.68624367  0.15797931  1
  P  P23  1  0.33357091  0.33616288  0.37280042  1
  P  P24  1  0.33333192  0.33039365  0.87273850  1
  P  P25  1  0.08344251  0.68652780  0.65784466  1
  P  P26  1  0.22509657  0.08874006  0.65811619  1
  P  P27  1  0.08347290  0.23023271  0.15738155  1
  O  O28  1  0.99302434  0.76856660  0.57041680  1
  O  O29  1  0.91554231  0.74297531  0.33619013  1
  O  O30  1  0.75281820  0.00874945  0.06549356  1
  O  O31  1  0.74505191  0.91456404  0.83714544  1
  O  O32  1  0.90971481  0.61694874  0.82346401  1
  O  O33  1  0.81309876  0.66674478  0.17403216  1
  O  O34  1  0.90831402  0.47433631  0.32275068  1
  O  O35  1  0.99403010  0.23881822  0.06940063  1
  O  O36  1  0.91559459  0.34154381  0.83631333  1
  O  O37  1  0.66849743  0.81745189  0.67020424  1
  O  O38  1  0.61779639  0.90400513  0.32216060  1
  O  O39  1  0.81313846  0.52064687  0.67439557  1
  O  O40  1  0.66491545  0.66122641  0.02151517  1
  O  O41  1  0.66523776  0.67302668  0.52158822  1
  O  O42  1  0.66870418  0.51400344  0.17033364  1
  O  O43  1  0.47741604  0.90389520  0.82177906  1
  O  O44  1  0.51269400  0.81765812  0.16830474  1
  O  O45  1  0.74435085  0.34004699  0.33730536  1
  O  O46  1  0.79282454  0.20615278  0.74944514  1
  O  O47  1  0.75285637  0.23841464  0.56574135  1
  O  O48  1  0.75632973  0.24369008  0.93034067  1
  O  O49  1  0.61783440  0.47800025  0.82222740  1
  O  O50  1  0.51279283  0.66960031  0.66852738  1
  O  O51  1  0.65925341  0.25773751  0.16171115  1
  O  O52  1  0.47733704  0.61865062  0.32157122  1
  O  O53  1  0.34265236  0.91402955  0.33280498  1
  O  O54  1  0.79271980  0.00104207  0.24931196  1
  O  O55  1  0.75645268  0.99987559  0.43035020  1
  O  O56  1  0.24056857  0.99462364  0.57206985  1
  O  O57  1  0.65928568  0.08290389  0.66206970  1
  O  O58  1  0.52191660  0.38227150  0.67851934  1
  O  O59  1  0.34281350  0.74313065  0.83268899  1
  O  O60  1  0.48809906  0.33053930  0.33067629  1
  O  O61  1  0.38137352  0.52445152  0.17820530  1
  O  O62  1  0.24092298  0.76495147  0.07200558  1
  O  O63  1  0.24917295  0.75906114  0.43494487  1
  O  O64  1  0.20248314  0.79213740  0.25335768  1
  O  O65  1  0.25499655  0.66032927  0.66036819  1
  O  O66  1  0.48808136  0.18122530  0.83094996  1
  O  O67  1  0.52196841  0.09552392  0.17849294  1
  O  O68  1  0.33479374  0.48020121  0.82661495  1
  O  O69  1  0.34169570  0.33099020  0.97868382  1
  O  O70  1  0.34214451  0.32688018  0.47862196  1
  O  O71  1  0.18619593  0.48002496  0.32668503  1
  O  O72  1  0.38171551  0.09348108  0.67852074  1
  O  O73  1  0.33497875  0.18482964  0.32655559  1
  O  O74  1  0.08476199  0.65695484  0.16399019  1
  O  O75  1  0.00193482  0.79170459  0.75174947  1
  O  O76  1  0.00083035  0.76473624  0.93596171  1
  O  O77  1  0.09324511  0.52468800  0.67586687  1
  O  O78  1  0.18639926  0.33326870  0.82655208  1
  O  O79  1  0.09349445  0.38213845  0.17569921  1
  O  O80  1  0.25475692  0.08456627  0.16040610  1
  O  O81  1  0.24921038  0.99135371  0.93507156  1
  O  O82  1  0.20279204  0.00512264  0.75334738  1
  O  O83  1  0.08473673  0.25849883  0.66431727  1
  O  O84  1  -0.00001329  0.23545026  0.43498960  1
  O  O85  1  0.00063048  0.20718908  0.25085810  1
