# generated using pymatgen
data_Li5Ni2(PO4)3
_symmetry_space_group_name_H-M   'P 1'
_cell_length_a   8.35928286
_cell_length_b   8.36348526
_cell_length_c   9.17467472
_cell_angle_alpha   89.94659931
_cell_angle_beta   63.41982003
_cell_angle_gamma   59.66280048
_symmetry_Int_Tables_number   1
_chemical_formula_structural   Li5Ni2(PO4)3
_chemical_formula_sum   'Li10 Ni4 P6 O24'
_cell_volume   473.56887873
_cell_formula_units_Z   2
loop_
 _symmetry_equiv_pos_site_id
 _symmetry_equiv_pos_as_xyz
  1  'x, y, z'
loop_
 _atom_site_type_symbol
 _atom_site_label
 _atom_site_symmetry_multiplicity
 _atom_site_fract_x
 _atom_site_fract_y
 _atom_site_fract_z
 _atom_site_occupancy
  Li  Li0  1  0.19902409  0.72779107  0.13319691  1
  Li  Li1  1  0.61030744  0.07690657  0.11208553  1
  Li  Li2  1  0.96791160  0.30720332  0.10153160  1
  Li  Li3  1  0.36220185  0.10017987  0.42048855  1
  Li  Li4  1  0.69736273  0.51619827  0.40853960  1
  Li  Li5  1  0.30263255  0.48380789  0.59146193  1
  Li  Li6  1  0.63780043  0.89981869  0.57951298  1
  Li  Li7  1  0.03208550  0.69279934  0.89847027  1
  Li  Li8  1  0.38969301  0.92309507  0.88791548  1
  Li  Li9  1  0.80097725  0.27220939  0.86680083  1
  Ni  Ni10  1  0.30802507  0.34563011  0.04348466  1
  Ni  Ni11  1  0.26954773  0.85720614  0.57570236  1
  Ni  Ni12  1  0.73045201  0.14279542  0.42430276  1
  Ni  Ni13  1  0.69197480  0.65436452  0.95651507  1
  P  P14  1  0.20970252  0.04516718  0.24844640  1
  P  P15  1  0.50453875  0.45306302  0.24259554  1
  P  P16  1  0.79846379  0.74619508  0.24329068  1
  P  P17  1  0.20153786  0.25380640  0.75671033  1
  P  P18  1  0.49545414  0.54693805  0.75740552  1
  P  P19  1  0.79029905  0.95483159  0.75155240  1
  O  O20  1  0.35020586  0.85606110  0.09782642  1
  O  O21  1  0.30981747  0.16547296  0.20457496  1
  O  O22  1  0.33604154  0.50111095  0.19359831  1
  O  O23  1  0.69969386  0.45207616  0.09821133  1
  O  O24  1  0.74358822  0.80008226  0.10094926  1
  O  O25  1  0.19997407  0.00115021  0.41217366  1
  O  O26  1  0.59886350  0.24641884  0.26692142  1
  O  O27  1  0.40588514  0.59379672  0.41314934  1
  O  O28  1  0.95921741  0.52526979  0.19850148  1
  O  O29  1  0.88687726  0.86133451  0.26594467  1
  O  O30  1  0.59147645  0.80663208  0.41630737  1
  O  O31  1  0.98221373  0.16330940  0.26773038  1
  O  O32  1  0.01778769  0.83668969  0.73226894  1
  O  O33  1  0.40852362  0.19337063  0.58369523  1
  O  O34  1  0.11312340  0.13866845  0.73405319  1
  O  O35  1  0.04078122  0.47473264  0.80150189  1
  O  O36  1  0.59410827  0.40620772  0.58685005  1
  O  O37  1  0.40113197  0.75358340  0.73308272  1
  O  O38  1  0.80002901  0.99884583  0.58782451  1
  O  O39  1  0.25640975  0.19991889  0.89905234  1
  O  O40  1  0.30030495  0.54792420  0.90178802  1
  O  O41  1  0.66396054  0.49888542  0.80639946  1
  O  O42  1  0.69018510  0.83452422  0.79542414  1
  O  O43  1  0.64979586  0.14393795  0.90217053  1
