# generated using pymatgen
data_Mn6O5F7
_symmetry_space_group_name_H-M   'P 1'
_cell_length_a   7.38399600
_cell_length_b   5.67969918
_cell_length_c   5.67999544
_cell_angle_alpha   72.76355576
_cell_angle_beta   73.15539142
_cell_angle_gamma   73.34516103
_symmetry_Int_Tables_number   1
_chemical_formula_structural   Mn6O5F7
_chemical_formula_sum   'Mn6 O5 F7'
_cell_volume   212.43740536
_cell_formula_units_Z   1
loop_
 _symmetry_equiv_pos_site_id
 _symmetry_equiv_pos_as_xyz
  1  'x, y, z'
loop_
 _atom_site_type_symbol
 _atom_site_label
 _atom_site_symmetry_multiplicity
 _atom_site_fract_x
 _atom_site_fract_y
 _atom_site_fract_z
 _atom_site_occupancy
  Mn  Mn0  1  0.83861097  0.66811835  0.70881827  1
  Mn  Mn1  1  0.67029320  0.35566982  0.32244379  1
  Mn  Mn2  1  0.31665398  0.66956972  0.62433670  1
  Mn  Mn3  1  0.17132934  0.31229800  0.33260966  1
  Mn  Mn4  1  0.49532073  0.98621278  0.00499714  1
  Mn  Mn5  1  0.99673643  0.99252295  0.01824627  1
  O  O6  1  0.95783728  0.22755357  0.23100409  1
  O  O7  1  0.02640407  0.77082584  0.79394367  1
  O  O8  1  0.38232516  0.43565932  0.41387236  1
  O  O9  1  0.33268016  0.96145305  0.33822753  1
  O  O10  1  0.66606501  0.65480966  0.03563439  1
  F  F11  1  0.65652357  0.05502266  0.64274435  1
  F  F12  1  0.34126201  0.35451022  0.93727803  1
  F  F13  1  0.29772378  0.88784654  0.87223343  1
  F  F14  1  0.64306626  0.58241616  0.58169192  1
  F  F15  1  0.70255158  0.10529968  0.09794889  1
  F  F16  1  0.00365155  0.29447234  0.70857258  1
  F  F17  1  0.00096688  0.68574034  0.33539694  1
