# generated using pymatgen
data_LiCo2OF3
_symmetry_space_group_name_H-M   'P 1'
_cell_length_a   8.14518772
_cell_length_b   8.14518772
_cell_length_c   5.92102487
_cell_angle_alpha   68.68669268
_cell_angle_beta   111.31330732
_cell_angle_gamma   115.43095961
_symmetry_Int_Tables_number   1
_chemical_formula_structural   LiCo2OF3
_chemical_formula_sum   'Li4 Co8 O4 F12'
_cell_volume   320.30038093
_cell_formula_units_Z   4
loop_
 _symmetry_equiv_pos_site_id
 _symmetry_equiv_pos_as_xyz
  1  'x, y, z'
loop_
 _atom_site_type_symbol
 _atom_site_label
 _atom_site_symmetry_multiplicity
 _atom_site_fract_x
 _atom_site_fract_y
 _atom_site_fract_z
 _atom_site_occupancy
  Li  Li0  1  0.76357296  0.53221213  0.11568042  1
  Li  Li1  1  0.03221213  0.26357296  0.38431958  1
  Li  Li2  1  0.97861467  0.74357049  0.61752209  1
  Li  Li3  1  0.24357049  0.47861467  0.88247791  1
  Co  Co4  1  0.97957570  0.98629398  0.99664136  1
  Co  Co5  1  0.38063769  0.11571315  0.39235505  1
  Co  Co6  1  0.61571315  0.88063769  0.10764495  1
  Co  Co7  1  0.23272611  0.73272611  0.25000000  1
  Co  Co8  1  0.48629398  0.47957570  0.50335864  1
  Co  Co9  1  0.77736055  0.27736055  0.75000000  1
  Co  Co10  1  0.38063769  0.11571315  0.87256950  1
  Co  Co11  1  0.61571315  0.88063769  0.62743050  1
  O  O12  1  0.73985226  0.78194402  0.97895462  1
  O  O13  1  0.28194402  0.23985226  0.52104538  1
  O  O14  1  0.46735390  0.96735390  0.25000000  1
  O  O15  1  0.54315893  0.04315893  0.75000000  1
  F  F16  1  0.88238611  0.13410959  0.11694580  1
  F  F17  1  0.00759016  0.50759016  0.25000000  1
  F  F18  1  0.63410959  0.38238611  0.38305420  1
  F  F19  1  0.37322534  0.61776909  0.13872965  1
  F  F20  1  0.88238611  0.13410959  0.63133172  1
  F  F21  1  0.71383954  0.73941850  0.48721052  1
  F  F22  1  0.11776909  0.87322534  0.36127035  1
  F  F23  1  0.37322534  0.61776909  0.61672560  1
  F  F24  1  0.63410959  0.38238611  0.86866828  1
  F  F25  1  0.00523515  0.50523515  0.75000000  1
  F  F26  1  0.23941850  0.21383954  0.01278948  1
  F  F27  1  0.11776909  0.87322534  0.88327440  1
