# generated using pymatgen
data_Li3Mn5O10
_symmetry_space_group_name_H-M   'P 1'
_cell_length_a   5.25159086
_cell_length_b   5.16052892
_cell_length_c   7.75717058
_cell_angle_alpha   110.42397316
_cell_angle_beta   101.54429300
_cell_angle_gamma   100.46356777
_symmetry_Int_Tables_number   1
_chemical_formula_structural   Li3Mn5O10
_chemical_formula_sum   'Li3 Mn5 O10'
_cell_volume   185.64665973
_cell_formula_units_Z   1
loop_
 _symmetry_equiv_pos_site_id
 _symmetry_equiv_pos_as_xyz
  1  'x, y, z'
loop_
 _atom_site_type_symbol
 _atom_site_label
 _atom_site_symmetry_multiplicity
 _atom_site_fract_x
 _atom_site_fract_y
 _atom_site_fract_z
 _atom_site_occupancy
  Li  Li0  1  0.21603336  0.92195783  0.42181342  1
  Li  Li1  1  0.50000000  0.50000000  0.50000000  1
  Li  Li2  1  0.78396664  0.07804217  0.57818658  1
  Mn  Mn3  1  0.11010119  0.69969700  0.69685952  1
  Mn  Mn4  1  0.00000000  0.50000000  0.00000000  1
  Mn  Mn5  1  0.69192796  0.87683298  0.89833335  1
  Mn  Mn6  1  0.30807204  0.12316702  0.10166665  1
  Mn  Mn7  1  0.88989881  0.30030300  0.30314048  1
  O  O8  1  0.06600590  0.07998886  0.85504799  1
  O  O9  1  0.10690284  0.31175571  0.53190289  1
  O  O10  1  0.31349682  0.72593882  0.94992245  1
  O  O11  1  0.20686717  0.47387813  0.23450659  1
  O  O12  1  0.45095578  0.85674369  0.66696576  1
  O  O13  1  0.54904422  0.14325631  0.33303424  1
  O  O14  1  0.79313283  0.52612187  0.76549341  1
  O  O15  1  0.68650318  0.27406118  0.05007755  1
  O  O16  1  0.89309716  0.68824429  0.46809711  1
  O  O17  1  0.93399410  0.92001114  0.14495201  1
