# generated using pymatgen
data_VO2F
_symmetry_space_group_name_H-M   'P 1'
_cell_length_a   5.36572659
_cell_length_b   11.10322081
_cell_length_c   5.48011307
_cell_angle_alpha   77.71136817
_cell_angle_beta   89.99865733
_cell_angle_gamma   104.07623924
_symmetry_Int_Tables_number   1
_chemical_formula_structural   VO2F
_chemical_formula_sum   'V6 O12 F6'
_cell_volume   308.96616251
_cell_formula_units_Z   6
loop_
 _symmetry_equiv_pos_site_id
 _symmetry_equiv_pos_as_xyz
  1  'x, y, z'
loop_
 _atom_site_type_symbol
 _atom_site_label
 _atom_site_symmetry_multiplicity
 _atom_site_fract_x
 _atom_site_fract_y
 _atom_site_fract_z
 _atom_site_occupancy
  V  V0  1  0.87452107  0.66007614  0.19506574  1
  V  V1  1  0.70173286  0.33677870  0.29515437  1
  V  V2  1  0.52951452  0.99474107  0.53921575  1
  V  V3  1  0.38136214  0.67120251  0.63986648  1
  V  V4  1  0.02475722  0.00299283  0.04605757  1
  V  V5  1  0.18643814  0.32815818  0.78824638  1
  O  O6  1  0.00494479  0.16703994  0.91655708  1
  O  O7  1  0.95806845  0.36021781  0.11429761  1
  O  O8  1  0.63506147  0.16715480  0.41579250  1
  O  O9  1  0.66473974  0.50025554  0.25421636  1
  O  O10  1  0.76459492  0.97387614  0.71860929  1
  O  O11  1  0.63293780  0.69487834  0.44008888  1
  O  O12  1  0.21122433  0.02931472  0.27427236  1
  O  O13  1  0.34854914  0.30424503  0.55890879  1
  O  O14  1  0.30049819  0.50155013  0.74894183  1
  O  O15  1  0.33165582  0.83375826  0.57915191  1
  O  O16  1  0.10457115  0.63880360  0.39289517  1
  O  O17  1  0.96588124  0.83284297  0.08393364  1
  F  F18  1  0.88606250  0.36220535  0.60319826  1
  F  F19  1  0.44404498  0.30708015  0.04192876  1
  F  F20  1  0.30373332  0.02698928  0.79041614  1
  F  F21  1  0.69074008  0.97166851  0.23019829  1
  F  F22  1  0.54202613  0.69619846  0.92833820  1
  F  F23  1  0.01234100  0.63797253  0.90464866  1
