# generated using pymatgen
data_VOF
_symmetry_space_group_name_H-M   'P 1'
_cell_length_a   4.66472420
_cell_length_b   7.87869404
_cell_length_c   5.66668979
_cell_angle_alpha   94.03634581
_cell_angle_beta   91.44092540
_cell_angle_gamma   88.79197142
_symmetry_Int_Tables_number   1
_chemical_formula_structural   VOF
_chemical_formula_sum   'V6 O6 F6'
_cell_volume   207.64059769
_cell_formula_units_Z   6
loop_
 _symmetry_equiv_pos_site_id
 _symmetry_equiv_pos_as_xyz
  1  'x, y, z'
loop_
 _atom_site_type_symbol
 _atom_site_label
 _atom_site_symmetry_multiplicity
 _atom_site_fract_x
 _atom_site_fract_y
 _atom_site_fract_z
 _atom_site_occupancy
  V  V0  1  0.52003646  0.64877661  0.16829711  1
  V  V1  1  0.50000000  0.00000000  0.50000000  1
  V  V2  1  0.47996354  0.35122339  0.83170289  1
  V  V3  1  0.01509616  0.68521744  0.65972197  1
  V  V4  1  0.98490384  0.31478256  0.34027803  1
  V  V5  1  0.00000000  0.00000000  0.00000000  1
  O  O6  1  0.80817523  0.09160664  0.28975321  1
  O  O7  1  0.68862386  0.76532193  0.46142014  1
  O  O8  1  0.70801548  0.42630806  0.12500356  1
  O  O9  1  0.29198452  0.57369194  0.87499644  1
  O  O10  1  0.31137614  0.23467807  0.53857986  1
  O  O11  1  0.19182477  0.90839336  0.71024679  1
  F  F12  1  0.80202373  0.44288995  0.63310093  1
  F  F13  1  0.79408906  0.77192076  0.96165886  1
  F  F14  1  0.70274827  0.11226877  0.80272720  1
  F  F15  1  0.29725173  0.88773123  0.19727280  1
  F  F16  1  0.20591094  0.22807924  0.03834114  1
  F  F17  1  0.19797627  0.55711005  0.36689907  1
