# generated using pymatgen
data_Li4(NiO2)5
_symmetry_space_group_name_H-M   'P 1'
_cell_length_a   7.62680593
_cell_length_b   6.52003253
_cell_length_c   7.53441775
_cell_angle_alpha   116.34704213
_cell_angle_beta   85.19371411
_cell_angle_gamma   89.83814293
_symmetry_Int_Tables_number   1
_chemical_formula_structural   Li4(NiO2)5
_chemical_formula_sum   'Li8 Ni10 O20'
_cell_volume   334.22834317
_cell_formula_units_Z   2
loop_
 _symmetry_equiv_pos_site_id
 _symmetry_equiv_pos_as_xyz
  1  'x, y, z'
loop_
 _atom_site_type_symbol
 _atom_site_label
 _atom_site_symmetry_multiplicity
 _atom_site_fract_x
 _atom_site_fract_y
 _atom_site_fract_z
 _atom_site_occupancy
  Li  Li0  1  0.05006350  0.34705381  0.79204030  1
  Li  Li1  1  0.14705697  0.04862031  0.40408943  1
  Li  Li2  1  0.00079991  0.50263615  0.49355671  1
  Li  Li3  1  0.49920009  0.99736385  0.50644329  1
  Li  Li4  1  0.35294303  0.45137969  0.59591057  1
  Li  Li5  1  0.44993650  0.15294619  0.20795970  1
  Li  Li6  1  0.65436687  0.57195011  0.41871900  1
  Li  Li7  1  0.84563313  0.92804989  0.58128100  1
  Ni  Ni8  1  0.09585314  0.20631332  0.10105140  1
  Ni  Ni9  1  0.40414686  0.29368668  0.89894860  1
  Ni  Ni10  1  0.29776420  0.59806109  0.30032892  1
  Ni  Ni11  1  0.20223580  0.90193891  0.69967108  1
  Ni  Ni12  1  0.25000000  0.75000000  0.00000000  1
  Ni  Ni13  1  0.79904775  0.09686715  0.30188526  1
  Ni  Ni14  1  0.70095225  0.40313285  0.69811474  1
  Ni  Ni15  1  0.75000000  0.25000000  0.00000000  1
  Ni  Ni16  1  0.60042242  0.70281810  0.10050469  1
  Ni  Ni17  1  0.89957758  0.79718190  0.89949531  1
  O  O18  1  0.29914124  0.02922485  0.95099136  1
  O  O19  1  0.27917767  0.16187624  0.66748530  1
  O  O20  1  0.22082233  0.33812376  0.33251470  1
  O  O21  1  0.12188119  0.65542117  0.75879625  1
  O  O22  1  0.20085876  0.47077515  0.04900864  1
  O  O23  1  0.10112847  0.78169073  0.46160323  1
  O  O24  1  0.62586511  0.16112818  0.75954826  1
  O  O25  1  0.00804096  0.93449736  0.14362286  1
  O  O26  1  0.49195904  0.56550264  0.85637714  1
  O  O27  1  0.59964950  0.27863830  0.45446601  1
  O  O28  1  0.39887153  0.71830927  0.53839677  1
  O  O29  1  0.51022478  0.42543313  0.14703331  1
  O  O30  1  0.98977522  0.07456687  0.85296669  1
  O  O31  1  0.37811881  0.84457883  0.24120375  1
  O  O32  1  0.90035050  0.22136170  0.54553399  1
  O  O33  1  0.80425282  0.52126808  0.93885406  1
  O  O34  1  0.87413489  0.33887182  0.24045174  1
  O  O35  1  0.78576719  0.65717281  0.66557848  1
  O  O36  1  0.71423281  0.84282719  0.33442152  1
  O  O37  1  0.69574718  0.97873192  0.06114594  1
