# generated using pymatgen
data_Li5Mn3F14
_symmetry_space_group_name_H-M   'P 1'
_cell_length_a   11.27774552
_cell_length_b   7.42361282
_cell_length_c   12.57355613
_cell_angle_alpha   90.00000000
_cell_angle_beta   90.00000000
_cell_angle_gamma   90.00000000
_symmetry_Int_Tables_number   1
_chemical_formula_structural   Li5Mn3F14
_chemical_formula_sum   'Li20 Mn12 F56'
_cell_volume   1052.67844087
_cell_formula_units_Z   4
loop_
 _symmetry_equiv_pos_site_id
 _symmetry_equiv_pos_as_xyz
  1  'x, y, z'
loop_
 _atom_site_type_symbol
 _atom_site_label
 _atom_site_symmetry_multiplicity
 _atom_site_fract_x
 _atom_site_fract_y
 _atom_site_fract_z
 _atom_site_occupancy
  Li  Li0  1  0.01022852  0.01046187  0.00837303  1
  Li  Li1  1  0.08906605  0.79977719  0.26385140  1
  Li  Li2  1  0.08736103  0.31960316  0.26772639  1
  Li  Li3  1  0.23985111  0.76350747  0.03091356  1
  Li  Li4  1  0.22656585  0.79139479  0.48520749  1
  Li  Li5  1  0.27343415  0.29139479  0.98520749  1
  Li  Li6  1  0.26014889  0.26350747  0.53091356  1
  Li  Li7  1  0.41263897  0.81960316  0.76772639  1
  Li  Li8  1  0.41093395  0.29977719  0.76385140  1
  Li  Li9  1  0.48977148  0.51046187  0.50837303  1
  Li  Li10  1  0.51022852  0.48953813  0.00837303  1
  Li  Li11  1  0.58906605  0.70022281  0.26385140  1
  Li  Li12  1  0.58736103  0.18039684  0.26772639  1
  Li  Li13  1  0.73985111  0.73649253  0.03091356  1
  Li  Li14  1  0.72656585  0.70860521  0.48520749  1
  Li  Li15  1  0.77343415  0.20860521  0.98520749  1
  Li  Li16  1  0.76014889  0.23649253  0.53091356  1
  Li  Li17  1  0.91263897  0.68039684  0.76772639  1
  Li  Li18  1  0.91093395  0.20022281  0.76385140  1
  Li  Li19  1  0.98977148  0.98953813  0.50837303  1
  Mn  Mn20  1  0.99993892  0.50411370  0.49570954  1
  Mn  Mn21  1  0.15442630  -0.00030480  0.75087354  1
  Mn  Mn22  1  0.17792617  0.49994862  0.74691429  1
  Mn  Mn23  1  0.32207383  -0.00005138  0.24691429  1
  Mn  Mn24  1  0.34557370  0.49969520  0.25087354  1
  Mn  Mn25  1  0.50006108  0.00411370  0.99570954  1
  Mn  Mn26  1  0.49993892  0.99588630  0.49570954  1
  Mn  Mn27  1  0.65442630  0.50030480  0.75087354  1
  Mn  Mn28  1  0.67792617  0.00005138  0.74691429  1
  Mn  Mn29  1  0.82207383  0.50005138  0.24691429  1
  Mn  Mn30  1  0.84557370  0.00030480  0.25087354  1
  Mn  Mn31  1  0.00006108  0.49588630  0.99570954  1
  F  F32  1  0.99672240  0.91946797  0.75053901  1
  F  F33  1  0.06962385  0.72050151  0.44239555  1
  F  F34  1  0.07476730  0.70905861  0.04317619  1
  F  F35  1  0.05702974  0.57605032  0.84298525  1
  F  F36  1  0.07645082  0.58177470  0.63931706  1
  F  F37  1  0.13045266  0.35916521  0.45584290  1
  F  F38  1  0.12622595  0.35018610  0.04034178  1
  F  F39  1  0.08147583  0.25645545  0.74387255  1
  F  F40  1  0.14308994  0.01349709  0.90668142  1
  F  F41  1  0.14522230  0.00386329  0.59020060  1
  F  F42  1  0.18690275  0.58198492  0.24964825  1
  F  F43  1  0.21880583  0.93054423  0.35665068  1
  F  F44  1  0.20669443  0.92481585  0.14746919  1
  F  F45  1  0.24814210  0.75714404  0.75258632  1
  F  F46  1  0.25185790  0.25714404  0.25258632  1
  F  F47  1  0.29330557  0.42481585  0.64746919  1
  F  F48  1  0.28119417  0.43054423  0.85665068  1
  F  F49  1  0.31309725  0.08198492  0.74964825  1
  F  F50  1  0.35477770  0.50386229  0.09020060  1
  F  F51  1  0.35691006  0.51349709  0.40668142  1
  F  F52  1  0.37377405  0.85018610  0.54034178  1
  F  F53  1  0.41852417  0.75645545  0.24387255  1
  F  F54  1  0.36954734  0.85916521  0.95584290  1
  F  F55  1  0.42354918  0.08177470  0.13931706  1
  F  F56  1  0.44297026  0.07605032  0.34298525  1
  F  F57  1  0.42523270  0.20905861  0.54317619  1
  F  F58  1  0.43037615  0.22050151  0.94239555  1
  F  F59  1  0.50327760  0.41946797  0.25053901  1
  F  F60  1  0.49672240  0.58053203  0.75053901  1
  F  F61  1  0.56962385  0.77949849  0.44239555  1
  F  F62  1  0.57476730  0.79094139  0.04317619  1
  F  F63  1  0.55702974  0.92394968  0.84298525  1
  F  F64  1  0.57645082  0.91822530  0.63931706  1
  F  F65  1  0.63045266  0.14083479  0.45584290  1
  F  F66  1  0.62622595  0.14981390  0.04034178  1
  F  F67  1  0.58147583  0.24354455  0.74387255  1
  F  F68  1  0.64308994  0.48650291  0.90668142  1
  F  F69  1  0.64522230  0.49613771  0.59020060  1
  F  F70  1  0.68690275  0.91801508  0.24964825  1
  F  F71  1  0.71880583  0.56945577  0.35665068  1
  F  F72  1  0.70669443  0.57518415  0.14746919  1
  F  F73  1  0.74814210  0.74285596  0.75258632  1
  F  F74  1  0.75185790  0.24285596  0.25258632  1
  F  F75  1  0.79330557  0.07518415  0.64746919  1
  F  F76  1  0.78119417  0.06945577  0.85665068  1
  F  F77  1  0.81309725  0.41801508  0.74964825  1
  F  F78  1  0.85477770  0.99613771  0.09020060  1
  F  F79  1  0.85691006  0.98650291  0.40668142  1
  F  F80  1  0.87377405  0.64981390  0.54034178  1
  F  F81  1  0.91852417  0.74354455  0.24387255  1
  F  F82  1  0.86954734  0.64083479  0.95584290  1
  F  F83  1  0.92354918  0.41822530  0.13931706  1
  F  F84  1  0.94297026  0.42394968  0.34298525  1
  F  F85  1  0.92523270  0.29094139  0.54317619  1
  F  F86  1  0.93037615  0.27949849  0.94239555  1
  F  F87  1  0.00327760  0.08053203  0.25053901  1
