# generated using pymatgen
data_Li4MnF7
_symmetry_space_group_name_H-M   'P 1'
_cell_length_a   5.98109706
_cell_length_b   5.98109706
_cell_length_c   5.98109706
_cell_angle_alpha   120.00000000
_cell_angle_beta   120.00000000
_cell_angle_gamma   90.00000000
_symmetry_Int_Tables_number   1
_chemical_formula_structural   Li4MnF7
_chemical_formula_sum   'Li4 Mn1 F7'
_cell_volume   151.29603703
_cell_formula_units_Z   1
loop_
 _symmetry_equiv_pos_site_id
 _symmetry_equiv_pos_as_xyz
  1  'x, y, z'
loop_
 _atom_site_type_symbol
 _atom_site_label
 _atom_site_symmetry_multiplicity
 _atom_site_fract_x
 _atom_site_fract_y
 _atom_site_fract_z
 _atom_site_occupancy
  Li  Li0  1  0.62643596  0.37356404  0.25287292  1
  Li  Li1  1  0.62643596  0.37356404  0.74712708  1
  Li  Li2  1  0.12069112  0.37356404  0.74712708  1
  Li  Li3  1  0.62643596  0.87930888  0.25287292  1
  Mn  Mn4  1  0.00000000  0.00000000  0.00000000  1
  F  F5  1  0.75000000  0.25000000  0.50000000  1
  F  F6  1  0.76395672  0.23604328  0.00000000  1
  F  F7  1  0.76395672  0.76395672  0.00000000  1
  F  F8  1  0.76395672  0.76395672  0.52791345  1
  F  F9  1  0.23604328  0.23604328  0.00000000  1
  F  F10  1  0.23604328  0.23604328  0.47208655  1
  F  F11  1  0.23604328  0.76395672  0.00000000  1
