# generated using pymatgen
data_Li4Mn3Fe3(WO8)2
_symmetry_space_group_name_H-M   'P 1'
_cell_length_a   6.04873240
_cell_length_b   5.96236026
_cell_length_c   9.87243276
_cell_angle_alpha   89.19172486
_cell_angle_beta   91.45104208
_cell_angle_gamma   119.48819665
_symmetry_Int_Tables_number   1
_chemical_formula_structural   Li4Mn3Fe3(WO8)2
_chemical_formula_sum   'Li4 Mn3 Fe3 W2 O16'
_cell_volume   309.82331086
_cell_formula_units_Z   1
loop_
 _symmetry_equiv_pos_site_id
 _symmetry_equiv_pos_as_xyz
  1  'x, y, z'
loop_
 _atom_site_type_symbol
 _atom_site_label
 _atom_site_symmetry_multiplicity
 _atom_site_fract_x
 _atom_site_fract_y
 _atom_site_fract_z
 _atom_site_occupancy
  Li  Li0  1  0.32282998  0.65998305  0.90989015  1
  Li  Li1  1  0.99190261  0.99570579  0.98784245  1
  Li  Li2  1  0.00696635  0.00006291  0.48522514  1
  Li  Li3  1  0.67063756  0.34056391  0.40817057  1
  Mn  Mn4  1  0.65983597  0.83016393  0.21059730  1
  Mn  Mn5  1  0.82876422  0.66151332  0.71365456  1
  Mn  Mn6  1  0.82525802  0.16665198  0.71339550  1
  Fe  Fe7  1  0.16648120  0.82392827  0.21591202  1
  Fe  Fe8  1  0.16802245  0.33720027  0.21419685  1
  Fe  Fe9  1  0.33903679  0.16940210  0.71344151  1
  W  W10  1  0.33477615  0.67139219  0.48363188  1
  W  W11  1  0.64428658  0.31697816  0.98714085  1
  O  O12  1  0.19045725  0.83577558  0.58533158  1
  O  O13  1  0.04294893  0.53427852  0.35449221  1
  O  O14  1  0.34141023  0.67693137  0.11373020  1
  O  O15  1  0.98784275  0.98624912  0.29783564  1
  O  O16  1  0.98771348  0.99193065  0.79990015  1
  O  O17  1  0.18677971  0.35404136  0.57881253  1
  O  O18  1  0.47331590  0.96912080  0.35078521  1
  O  O19  1  0.49894112  0.54277372  0.35380881  1
  O  O20  1  0.34366026  0.16081215  0.08988880  1
  O  O21  1  0.67078766  0.83964345  0.59112169  1
  O  O22  1  0.51375666  0.47916078  0.86096112  1
  O  O23  1  0.51465105  0.03192234  0.85889130  1
  O  O24  1  0.68325634  0.34682427  0.61364292  1
  O  O25  1  0.83688717  0.64506890  0.08655928  1
  O  O26  1  0.94998837  0.47199890  0.84333675  1
  O  O27  1  0.81880824  0.16022022  0.08564501  1
