# generated using pymatgen
data_Li5Cr3NiO8
_symmetry_space_group_name_H-M   'P 1'
_cell_length_a   5.99352385
_cell_length_b   5.95593381
_cell_length_c   9.81932029
_cell_angle_alpha   90.00250334
_cell_angle_beta   89.99378732
_cell_angle_gamma   60.20054164
_symmetry_Int_Tables_number   1
_chemical_formula_structural   Li5Cr3NiO8
_chemical_formula_sum   'Li10 Cr6 Ni2 O16'
_cell_volume   304.17129697
_cell_formula_units_Z   2
loop_
 _symmetry_equiv_pos_site_id
 _symmetry_equiv_pos_as_xyz
  1  'x, y, z'
loop_
 _atom_site_type_symbol
 _atom_site_label
 _atom_site_symmetry_multiplicity
 _atom_site_fract_x
 _atom_site_fract_y
 _atom_site_fract_z
 _atom_site_occupancy
  Li  Li0  1  0.01051394  0.99462365  0.01437731  1
  Li  Li1  1  0.98938702  0.00526875  0.51444103  1
  Li  Li2  1  0.20038360  0.18747976  0.44008671  1
  Li  Li3  1  0.20042480  0.61217001  0.44006997  1
  Li  Li4  1  0.59757512  0.20125531  0.44364997  1
  Li  Li5  1  0.34306243  0.32851399  0.21631828  1
  Li  Li6  1  0.79954033  0.38788910  0.94005074  1
  Li  Li7  1  0.40236253  0.79884360  0.94369537  1
  Li  Li8  1  0.65704790  0.67149532  0.71638873  1
  Li  Li9  1  0.79949516  0.81257926  0.94002464  1
  Cr  Cr10  1  0.16007594  0.17214338  0.71411279  1
  Cr  Cr11  1  0.16021633  0.66769343  0.71412918  1
  Cr  Cr12  1  0.65485999  0.17266002  0.71430137  1
  Cr  Cr13  1  0.34506322  0.82750046  0.21431449  1
  Cr  Cr14  1  0.83996382  0.33228744  0.21415872  1
  Cr  Cr15  1  0.83989907  0.82774506  0.21416166  1
  Ni  Ni16  1  0.32996967  0.33503785  0.97020455  1
  Ni  Ni17  1  0.66994234  0.66503836  0.47040039  1
  O  O18  1  0.99006816  0.00500838  0.82417750  1
  O  O19  1  0.00987092  0.99502570  0.32420482  1
  O  O20  1  0.16992865  0.15776854  0.09764340  1
  O  O21  1  0.01074446  0.49462332  0.83294300  1
  O  O22  1  0.17008752  0.67203789  0.09759083  1
  O  O23  1  0.32635749  0.33683748  0.59921225  1
  O  O24  1  0.48354043  0.02025015  0.83193103  1
  O  O25  1  0.48366319  0.49632383  0.83185352  1
  O  O26  1  0.31372252  0.84312114  0.59524298  1
  O  O27  1  0.68616943  0.15692477  0.09522116  1
  O  O28  1  0.51634260  0.50389125  0.33200592  1
  O  O29  1  0.83004824  0.32782348  0.59764137  1
  O  O30  1  0.51633233  0.97981599  0.33200055  1
  O  O31  1  0.67373204  0.66315605  0.09923056  1
  O  O32  1  0.98901971  0.50550498  0.33307205  1
  O  O33  1  0.83005911  0.84211530  0.59770113  1
