# generated using pymatgen
data_Li2CoOF2
_symmetry_space_group_name_H-M   'P 1'
_cell_length_a   2.98595635
_cell_length_b   2.98622470
_cell_length_c   12.40007217
_cell_angle_alpha   90.00064608
_cell_angle_beta   90.00007088
_cell_angle_gamma   89.99546298
_symmetry_Int_Tables_number   1
_chemical_formula_structural   Li2CoOF2
_chemical_formula_sum   'Li4 Co2 O2 F4'
_cell_volume   110.56817731
_cell_formula_units_Z   2
loop_
 _symmetry_equiv_pos_site_id
 _symmetry_equiv_pos_as_xyz
  1  'x, y, z'
loop_
 _atom_site_type_symbol
 _atom_site_label
 _atom_site_symmetry_multiplicity
 _atom_site_fract_x
 _atom_site_fract_y
 _atom_site_fract_z
 _atom_site_occupancy
  Li  Li0  1  0.00000046  0.00000015  0.99432343  1
  Li  Li1  1  0.49999971  0.50000132  0.50565941  1
  Li  Li2  1  0.99999970  0.00000001  0.67023365  1
  Li  Li3  1  0.50000091  0.49999985  0.82975708  1
  Co  Co4  1  0.50001433  0.50000885  0.16937591  1
  Co  Co5  1  0.00000892  -0.00000038  0.33063486  1
  O  O6  1  0.99998306  -0.00000779  0.16111098  1
  O  O7  1  0.49998399  0.50000104  0.33887898  1
  F  F8  1  0.50000449  0.49999425  0.99016902  1
  F  F9  1  0.00000297  0.00000840  0.50984354  1
  F  F10  1  0.50000191  0.49999765  0.66935389  1
  F  F11  1  -0.00000044  0.99999665  0.83065924  1
