# generated using pymatgen
data_Li5MnCr3O8
_symmetry_space_group_name_H-M   'P 1'
_cell_length_a   8.67897044
_cell_length_b   8.39527985
_cell_length_c   8.68512235
_cell_angle_alpha   89.99986077
_cell_angle_beta   89.99885394
_cell_angle_gamma   90.00006979
_symmetry_Int_Tables_number   1
_chemical_formula_structural   Li5MnCr3O8
_chemical_formula_sum   'Li20 Mn4 Cr12 O32'
_cell_volume   632.81873336
_cell_formula_units_Z   4
loop_
 _symmetry_equiv_pos_site_id
 _symmetry_equiv_pos_as_xyz
  1  'x, y, z'
loop_
 _atom_site_type_symbol
 _atom_site_label
 _atom_site_symmetry_multiplicity
 _atom_site_fract_x
 _atom_site_fract_y
 _atom_site_fract_z
 _atom_site_occupancy
  Li  Li0  1  0.04884437  0.93168453  0.94807246  1
  Li  Li1  1  0.85348423  0.12498154  0.89808114  1
  Li  Li2  1  0.61039632  0.35790808  0.88325103  1
  Li  Li3  1  0.37001229  0.60655031  0.86073045  1
  Li  Li4  1  0.79882362  0.31449386  0.70332103  1
  Li  Li5  1  0.20118724  0.81447347  0.79666942  1
  Li  Li6  1  0.62998574  0.10657026  0.63928099  1
  Li  Li7  1  0.38960088  0.85790011  0.61674909  1
  Li  Li8  1  0.14650533  0.62498639  0.60192150  1
  Li  Li9  1  0.95116372  0.43170334  0.55191075  1
  Li  Li10  1  0.45042856  0.06885182  0.44755946  1
  Li  Li11  1  0.13020193  0.39349794  0.36065661  1
  Li  Li12  1  0.88967353  0.64187965  0.38321843  1
  Li  Li13  1  0.64609150  0.87535866  0.39870133  1
  Li  Li14  1  0.70171771  0.68626185  0.20404531  1
  Li  Li15  1  0.29829550  0.18625161  0.29596663  1
  Li  Li16  1  0.35390620  0.37536085  0.10129614  1
  Li  Li17  1  0.11032191  0.14186895  0.11678722  1
  Li  Li18  1  0.86979675  0.89351039  0.13933629  1
  Li  Li19  1  0.54958018  0.56887047  0.05245896  1
  Mn  Mn20  1  0.11939430  0.37511374  0.86915595  1
  Mn  Mn21  1  0.88059534  0.87511718  0.63085494  1
  Mn  Mn22  1  0.38064408  0.62462456  0.36914645  1
  Mn  Mn23  1  0.61934687  0.12462441  0.13085753  1
  Cr  Cr24  1  0.87073828  0.62481470  0.87909153  1
  Cr  Cr25  1  0.37367036  0.12215536  0.87119863  1
  Cr  Cr26  1  0.62631658  0.62214208  0.62880650  1
  Cr  Cr27  1  0.12924170  0.12484775  0.62091919  1
  Cr  Cr28  1  0.12633301  0.87758717  0.37118375  1
  Cr  Cr29  1  0.62926225  0.37491789  0.37910140  1
  Cr  Cr30  1  0.37074823  0.87491362  0.12094285  1
  Cr  Cr31  1  0.87365642  0.37757331  0.12880984  1
  Cr  Cr32  1  0.62120223  0.87222913  0.87638837  1
  Cr  Cr33  1  0.37878714  0.37222502  0.62362674  1
  Cr  Cr34  1  0.87880518  0.12755169  0.37643582  1
  Cr  Cr35  1  0.12118792  0.62754903  0.12357651  1
  O  O36  1  0.61373812  0.11515616  0.87240112  1
  O  O37  1  0.10660740  0.63454423  0.88750017  1
  O  O38  1  0.38705608  0.87959659  0.88362389  1
  O  O39  1  0.86654791  0.38088441  0.89592139  1
  O  O40  1  0.63303594  0.62930015  0.86289594  1
  O  O41  1  0.13716835  0.11557284  0.85690293  1
  O  O42  1  0.37747564  0.36485235  0.86328634  1
  O  O43  1  0.85403080  0.86875628  0.88355990  1
  O  O44  1  0.14596030  0.36875585  0.61644388  1
  O  O45  1  0.62251206  0.86485446  0.63671267  1
  O  O46  1  0.86282609  0.61556895  0.64309672  1
  O  O47  1  0.36695102  0.12930044  0.63710594  1
  O  O48  1  0.13344704  0.88088383  0.60408018  1
  O  O49  1  0.61293559  0.37959861  0.61637966  1
  O  O50  1  0.89338413  0.13454333  0.61250278  1
  O  O51  1  0.38625442  0.61515580  0.62760004  1
  O  O52  1  0.88616826  0.88454930  0.37235138  1
  O  O53  1  0.39339436  0.36517975  0.38754560  1
  O  O54  1  0.63345297  0.61883270  0.39593829  1
  O  O55  1  0.11299024  0.12011876  0.38359405  1
  O  O56  1  0.36283625  0.88406157  0.35693161  1
  O  O57  1  0.86696150  0.37042979  0.36293330  1
  O  O58  1  0.12247242  0.63485484  0.36333832  1
  O  O59  1  0.64591188  0.13096353  0.38360140  1
  O  O60  1  0.35408048  0.63095766  0.11639353  1
  O  O61  1  0.87751498  0.13485447  0.13666500  1
  O  O62  1  0.13303273  0.87042761  0.13706685  1
  O  O63  1  0.63715890  0.38406696  0.14307252  1
  O  O64  1  0.88700513  0.62012252  0.11640841  1
  O  O65  1  0.36654536  0.11882248  0.10406566  1
  O  O66  1  0.60660030  0.86516679  0.11245689  1
  O  O67  1  0.11382690  0.38454430  0.12764738  1
