# generated using pymatgen
data_Li3V(FeO3)2
_symmetry_space_group_name_H-M   'P 1'
_cell_length_a   5.15880627
_cell_length_b   5.21264380
_cell_length_c   10.24149462
_cell_angle_alpha   90.00000000
_cell_angle_beta   90.00000000
_cell_angle_gamma   60.34107646
_symmetry_Int_Tables_number   1
_chemical_formula_structural   Li3V(FeO3)2
_chemical_formula_sum   'Li6 V2 Fe4 O12'
_cell_volume   239.32255794
_cell_formula_units_Z   2
loop_
 _symmetry_equiv_pos_site_id
 _symmetry_equiv_pos_as_xyz
  1  'x, y, z'
loop_
 _atom_site_type_symbol
 _atom_site_label
 _atom_site_symmetry_multiplicity
 _atom_site_fract_x
 _atom_site_fract_y
 _atom_site_fract_z
 _atom_site_occupancy
  Li  Li0  1  0.66260347  1.00000000  0.77685085  1
  Li  Li1  1  0.83739653  0.00000000  0.27685085  1
  Li  Li2  1  0.16092917  0.33822152  0.27785736  1
  Li  Li3  1  0.33907083  0.66177848  0.77785736  1
  Li  Li4  1  0.00084931  0.33822152  0.77785736  1
  Li  Li5  1  0.49915069  0.66177848  0.27785736  1
  V  V6  1  0.00085438  0.00000000  0.00304128  1
  V  V7  1  0.49914562  1.00000000  0.50304128  1
  Fe  Fe8  1  0.33447710  0.33410864  0.00658513  1
  Fe  Fe9  1  0.83141426  0.33410864  0.50658513  1
  Fe  Fe10  1  0.16552290  0.66589136  0.50658513  1
  Fe  Fe11  1  0.66858574  0.66589136  0.00658513  1
  O  O12  1  0.16994747  0.00000000  0.39028318  1
  O  O13  1  0.33005253  1.00000000  0.89028318  1
  O  O14  1  0.99861554  0.33331096  0.10715636  1
  O  O15  1  0.67096032  0.00000000  0.10635484  1
  O  O16  1  0.82903968  1.00000000  0.60635484  1
  O  O17  1  0.16807350  0.33331096  0.60715636  1
  O  O18  1  0.49964496  0.33533055  0.38964557  1
  O  O19  1  0.66502450  0.33533055  0.88964557  1
  O  O20  1  0.33192650  0.66668904  0.10715636  1
  O  O21  1  0.50138446  0.66668904  0.60715636  1
  O  O22  1  0.83497550  0.66466945  0.38964557  1
  O  O23  1  0.00035504  0.66466945  0.88964557  1
