# generated using pymatgen
data_Li4Co3Ni3(WO8)2
_symmetry_space_group_name_H-M   'P 1'
_cell_length_a   5.92430045
_cell_length_b   5.93772186
_cell_length_c   9.74358580
_cell_angle_alpha   89.98736375
_cell_angle_beta   89.65590342
_cell_angle_gamma   120.07224163
_symmetry_Int_Tables_number   1
_chemical_formula_structural   Li4Co3Ni3(WO8)2
_chemical_formula_sum   'Li4 Co3 Ni3 W2 O16'
_cell_volume   296.60530004
_cell_formula_units_Z   1
loop_
 _symmetry_equiv_pos_site_id
 _symmetry_equiv_pos_as_xyz
  1  'x, y, z'
loop_
 _atom_site_type_symbol
 _atom_site_label
 _atom_site_symmetry_multiplicity
 _atom_site_fract_x
 _atom_site_fract_y
 _atom_site_fract_z
 _atom_site_occupancy
  Li  Li0  1  0.32672217  0.66335658  0.90444899  1
  Li  Li1  1  0.01043509  0.00543182  0.98895959  1
  Li  Li2  1  0.00875477  0.00443854  0.49042640  1
  Li  Li3  1  0.66081781  0.33038316  0.40380501  1
  Co  Co4  1  0.17763745  0.83213780  0.21896826  1
  Co  Co5  1  0.17753707  0.34538288  0.21913926  1
  Co  Co6  1  0.34859446  0.17435654  0.72139716  1
  Ni  Ni7  1  0.65976994  0.82988130  0.21152776  1
  Ni  Ni8  1  0.82843845  0.66044979  0.71472696  1
  Ni  Ni9  1  0.82830099  0.16778905  0.71455223  1
  W  W10  1  0.34026343  0.67038859  0.49045670  1
  W  W11  1  0.67838328  0.33931048  0.98859170  1
  O  O12  1  0.16922908  0.82374542  0.58707062  1
  O  O13  1  0.03670695  0.51835118  0.35147913  1
  O  O14  1  0.30847743  0.65416454  0.11087975  1
  O  O15  1  0.01559372  0.00774065  0.29727416  1
  O  O16  1  0.03093059  0.01539103  0.79652689  1
  O  O17  1  0.16945254  0.34546153  0.58716807  1
  O  O18  1  0.47644933  0.96074929  0.34983373  1
  O  O19  1  0.47645912  0.51571463  0.34985387  1
  O  O20  1  0.34842715  0.17421958  0.08798072  1
  O  O21  1  0.66027813  0.83010986  0.58551055  1
  O  O22  1  0.51152481  0.47583137  0.85095041  1
  O  O23  1  0.51130380  0.03576110  0.85088009  1
  O  O24  1  0.63044203  0.31529893  0.61366606  1
  O  O25  1  0.82497091  0.65809603  0.08555904  1
  O  O26  1  0.95927594  0.47955550  0.85059497  1
  O  O27  1  0.82482257  0.16680280  0.08560992  1
