# generated using pymatgen
data_Mn6O5F7
_symmetry_space_group_name_H-M   'P 1'
_cell_length_a   4.79419246
_cell_length_b   7.90765769
_cell_length_c   5.74889423
_cell_angle_alpha   95.33274796
_cell_angle_beta   95.21313983
_cell_angle_gamma   87.05711061
_symmetry_Int_Tables_number   1
_chemical_formula_structural   Mn6O5F7
_chemical_formula_sum   'Mn6 O5 F7'
_cell_volume   215.90211494
_cell_formula_units_Z   1
loop_
 _symmetry_equiv_pos_site_id
 _symmetry_equiv_pos_as_xyz
  1  'x, y, z'
loop_
 _atom_site_type_symbol
 _atom_site_label
 _atom_site_symmetry_multiplicity
 _atom_site_fract_x
 _atom_site_fract_y
 _atom_site_fract_z
 _atom_site_occupancy
  Mn  Mn0  1  0.53321382  0.01124387  0.47760120  1
  Mn  Mn1  1  0.51554893  0.64771376  0.17159504  1
  Mn  Mn2  1  0.47550978  0.34831593  0.83007367  1
  Mn  Mn3  1  0.99686523  0.66950391  0.66544657  1
  Mn  Mn4  1  0.98890462  0.32301156  0.34013690  1
  Mn  Mn5  1  0.99495781  0.00533379  0.01231929  1
  O  O6  1  0.83004159  0.09755190  0.28364719  1
  O  O7  1  0.70418554  0.76177604  0.45797242  1
  O  O8  1  0.69534273  0.42786032  0.12503657  1
  O  O9  1  0.29879558  0.57228338  0.87359041  1
  O  O10  1  0.30333435  0.23806846  0.53790867  1
  F  F11  1  0.80185845  0.44206978  0.63743065  1
  F  F12  1  0.79954666  0.78111042  0.95647545  1
  F  F13  1  0.69207324  0.12095499  0.80450466  1
  F  F14  1  0.30762874  0.87439133  0.19593785  1
  F  F15  1  0.17793939  0.55147812  0.37430987  1
  F  F16  1  0.20857326  0.21722270  0.03346974  1
  F  F17  1  0.17568030  0.91011174  0.72254486  1
