# generated using pymatgen
data_Na7(WO3)8
_symmetry_space_group_name_H-M   'P 1'
_cell_length_a   7.88355257
_cell_length_b   8.80574395
_cell_length_c   8.80653909
_cell_angle_alpha   66.43893474
_cell_angle_beta   90.00000000
_cell_angle_gamma   63.40782673
_symmetry_Int_Tables_number   1
_chemical_formula_structural   Na7(WO3)8
_chemical_formula_sum   'Na7 W8 O24'
_cell_volume   489.02269848
_cell_formula_units_Z   1
loop_
 _symmetry_equiv_pos_site_id
 _symmetry_equiv_pos_as_xyz
  1  'x, y, z'
loop_
 _atom_site_type_symbol
 _atom_site_label
 _atom_site_symmetry_multiplicity
 _atom_site_fract_x
 _atom_site_fract_y
 _atom_site_fract_z
 _atom_site_occupancy
  Na  Na0  1  0.50000000  0.00000000  0.00000000  1
  Na  Na1  1  0.24959743  0.50080515  0.99998584  1
  Na  Na2  1  0.37504963  0.24990175  0.49987119  1
  Na  Na3  1  0.12490224  0.75019552  0.49931243  1
  Na  Na4  1  0.87509776  0.24980448  0.50068757  1
  Na  Na5  1  0.62495037  0.75009825  0.50012881  1
  Na  Na6  1  0.75040257  0.49919485  0.00001416  1
  W  W7  1  0.18655370  0.12443403  0.24877455  1
  W  W8  1  0.06219404  0.37319766  0.75122563  1
  W  W9  1  0.68901227  0.12443403  0.24877455  1
  W  W10  1  0.43539169  0.62680234  0.24877437  1
  W  W11  1  0.56460831  0.37319766  0.75122563  1
  W  W12  1  0.31098773  0.87556597  0.75122545  1
  W  W13  1  0.81344630  0.87556597  0.75122545  1
  W  W14  1  0.93780596  0.62680234  0.24877437  1
  O  O15  1  0.24958601  0.00000000  0.50000000  1
  O  O16  1  0.12592508  0.25216458  0.99999741  1
  O  O17  1  0.06244402  0.37514915  0.24970281  1
  O  O18  1  0.18909156  0.12599695  0.74798749  1
  O  O19  1  0.00000000  0.50000000  0.50000000  1
  O  O20  1  0.43758586  0.12482828  0.24972118  1
  O  O21  1  0.18911988  0.62175924  0.25218185  1
  O  O22  1  0.31272045  0.37456011  0.75028731  1
  O  O23  1  0.06304723  0.87390553  0.74786499  1
  O  O24  1  0.75041399  0.00000000  0.50000000  1
  O  O25  1  0.62190934  0.25216458  0.99999741  1
  O  O26  1  0.56240783  0.37514915  0.24970281  1
  O  O27  1  0.50000000  0.50000000  0.50000000  1
  O  O28  1  0.31508851  0.87400305  0.25201251  1
  O  O29  1  0.68491149  0.12599695  0.74798749  1
  O  O30  1  0.37809066  0.74783542  0.00000259  1
  O  O31  1  0.43759217  0.62485085  0.75029719  1
  O  O32  1  0.68727955  0.62543989  0.24971269  1
  O  O33  1  0.93695277  0.12609447  0.25213501  1
  O  O34  1  0.56241414  0.87517172  0.75027882  1
  O  O35  1  0.81088012  0.37824076  0.74781815  1
  O  O36  1  0.93755598  0.62485085  0.75029719  1
  O  O37  1  0.81090844  0.87400305  0.25201251  1
  O  O38  1  0.87407492  0.74783542  0.00000259  1
