# generated using pymatgen
data_Mn2O3F
_symmetry_space_group_name_H-M   'P 1'
_cell_length_a   4.58038603
_cell_length_b   4.58038603
_cell_length_c   15.07699184
_cell_angle_alpha   90.00000000
_cell_angle_beta   90.00000000
_cell_angle_gamma   92.49686690
_symmetry_Int_Tables_number   1
_chemical_formula_structural   Mn2O3F
_chemical_formula_sum   'Mn10 O15 F5'
_cell_volume   316.01401917
_cell_formula_units_Z   5
loop_
 _symmetry_equiv_pos_site_id
 _symmetry_equiv_pos_as_xyz
  1  'x, y, z'
loop_
 _atom_site_type_symbol
 _atom_site_label
 _atom_site_symmetry_multiplicity
 _atom_site_fract_x
 _atom_site_fract_y
 _atom_site_fract_z
 _atom_site_occupancy
  Mn  Mn0  1  0.99993856  0.00006144  0.39987453  1
  Mn  Mn1  1  0.99993856  0.00006144  0.20012547  1
  Mn  Mn2  1  0.00072206  0.99927794  0.00006699  1
  Mn  Mn3  1  0.00072206  0.99927794  0.59993301  1
  Mn  Mn4  1  0.01351004  0.98648996  0.80000000  1
  Mn  Mn5  1  0.52449424  0.47550576  0.49973812  1
  Mn  Mn6  1  0.52449424  0.47550576  0.10026188  1
  Mn  Mn7  1  0.47586109  0.52413891  0.30000000  1
  Mn  Mn8  1  0.48139082  0.51860918  0.90052501  1
  Mn  Mn9  1  0.48139082  0.51860918  0.69947499  1
  O  O10  1  0.19117925  0.80882075  0.90082993  1
  O  O11  1  0.18728544  0.81271456  0.30000000  1
  O  O12  1  0.19117925  0.80882075  0.69917007  1
  O  O13  1  0.31334882  0.30358886  0.99969292  1
  O  O14  1  0.30811189  0.30829544  0.20008098  1
  O  O15  1  0.30811189  0.30829544  0.39991902  1
  O  O16  1  0.31334882  0.30358886  0.60030608  1
  O  O17  1  0.29409310  0.31533173  0.80000000  1
  O  O18  1  0.69641114  0.68665118  0.99969292  1
  O  O19  1  0.69170456  0.69188811  0.20008098  1
  O  O20  1  0.69170456  0.69188811  0.39991902  1
  O  O21  1  0.69641114  0.68665118  0.60030608  1
  O  O22  1  0.68466827  0.70590690  0.80000000  1
  O  O23  1  0.81321501  0.18678499  0.09997419  1
  O  O24  1  0.81321501  0.18678499  0.50002581  1
  F  F25  1  0.22076338  0.77923662  0.09954334  1
  F  F26  1  0.22076338  0.77923662  0.50045666  1
  F  F27  1  0.77955387  0.22044613  0.30000000  1
  F  F28  1  0.79123236  0.20876764  0.89451790  1
  F  F29  1  0.79123236  0.20876764  0.70548210  1
