# generated using pymatgen
data_LiFe2(BO3)2
_symmetry_space_group_name_H-M   'P 1'
_cell_length_a   5.25187124
_cell_length_b   9.10990939
_cell_length_c   11.31420297
_cell_angle_alpha   66.88456973
_cell_angle_beta   76.84655984
_cell_angle_gamma   89.27219398
_symmetry_Int_Tables_number   1
_chemical_formula_structural   LiFe2(BO3)2
_chemical_formula_sum   'Li4 Fe8 B8 O24'
_cell_volume   483.01844734
_cell_formula_units_Z   4
loop_
 _symmetry_equiv_pos_site_id
 _symmetry_equiv_pos_as_xyz
  1  'x, y, z'
loop_
 _atom_site_type_symbol
 _atom_site_label
 _atom_site_symmetry_multiplicity
 _atom_site_fract_x
 _atom_site_fract_y
 _atom_site_fract_z
 _atom_site_occupancy
  Li  Li0  1  0.97180430  0.96799109  0.40012251  1
  Li  Li1  1  0.46847147  0.46526019  0.41446568  1
  Li  Li2  1  0.01618862  0.99247375  0.66283774  1
  Li  Li3  1  0.25330668  0.26039933  0.14102295  1
  Fe  Fe4  1  0.96371453  0.65075112  0.37803584  1
  Fe  Fe5  1  0.72700681  0.07106221  0.87612009  1
  Fe  Fe6  1  0.53507865  0.83461201  0.62924986  1
  Fe  Fe7  1  0.76465141  0.43865646  0.13260379  1
  Fe  Fe8  1  0.23288495  0.56612509  0.87215214  1
  Fe  Fe9  1  0.46914390  0.14801613  0.38583796  1
  Fe  Fe10  1  0.02190975  0.35053561  0.63132089  1
  Fe  Fe11  1  0.26603748  0.92681654  0.13045216  1
  B  B12  1  0.98256372  0.31803383  0.37144845  1
  B  B13  1  0.72585983  0.39210916  0.88798724  1
  B  B14  1  0.51316868  0.17803233  0.62912926  1
  B  B15  1  0.76455508  0.10792099  0.12825380  1
  B  B16  1  0.48211618  0.81538323  0.37191280  1
  B  B17  1  0.23446115  0.89387263  0.87977383  1
  B  B18  1  0.03017585  0.68995022  0.62247507  1
  B  B19  1  0.26566527  0.59975726  0.13114009  1
  O  O20  1  0.99385232  0.93250205  0.85620052  1
  O  O21  1  0.85854023  0.28553621  0.84206221  1
  O  O22  1  0.86400171  0.48393377  0.93202769  1
  O  O23  1  0.92332189  0.83590411  0.60255051  1
  O  O24  1  0.94069117  0.58392378  0.58058039  1
  O  O25  1  0.74357052  0.14735200  0.67785388  1
  O  O26  1  0.73993614  0.34688447  0.33437959  1
  O  O27  1  0.46417688  0.40367205  0.89803185  1
  O  O28  1  0.36278696  0.77588584  0.84970339  1
  O  O29  1  0.58808719  0.92119031  0.41273178  1
  O  O30  1  0.59180728  0.67912921  0.37529836  1
  O  O31  1  0.36112893  0.98084252  0.93222605  1
  O  O32  1  0.63593774  0.01737655  0.08056474  1
  O  O33  1  0.40118499  0.31758630  0.60981020  1
  O  O34  1  0.41168086  0.06260112  0.59520812  1
  O  O35  1  0.62399132  0.22126757  0.16390921  1
  O  O36  1  0.51880036  0.58323333  0.13906579  1
  O  O37  1  0.24368029  0.65654794  0.68274991  1
  O  O38  1  0.24712120  0.85272722  0.32657204  1
  O  O39  1  0.08750419  0.42062601  0.41307609  1
  O  O40  1  0.10513137  0.18685336  0.36171755  1
  O  O41  1  0.14139788  0.49350864  0.09404444  1
  O  O42  1  0.12587901  0.71451824  0.16253193  1
  O  O43  1  0.01823227  0.08734319  0.13924559  1
