# generated using pymatgen
data_LiFe2(BO3)2
_symmetry_space_group_name_H-M   'P 1'
_cell_length_a   5.30137070
_cell_length_b   9.03847143
_cell_length_c   10.10322232
_cell_angle_alpha   89.79208676
_cell_angle_beta   91.81486280
_cell_angle_gamma   90.12399131
_symmetry_Int_Tables_number   1
_chemical_formula_structural   LiFe2(BO3)2
_chemical_formula_sum   'Li4 Fe8 B8 O24'
_cell_volume   483.86186523
_cell_formula_units_Z   4
loop_
 _symmetry_equiv_pos_site_id
 _symmetry_equiv_pos_as_xyz
  1  'x, y, z'
loop_
 _atom_site_type_symbol
 _atom_site_label
 _atom_site_symmetry_multiplicity
 _atom_site_fract_x
 _atom_site_fract_y
 _atom_site_fract_z
 _atom_site_occupancy
  Li  Li0  1  0.33938643  0.01248594  0.84182847  1
  Li  Li1  1  0.66096648  0.99962044  0.09541001  1
  Li  Li2  1  0.15742386  0.50130597  0.09527103  1
  Li  Li3  1  0.64508585  0.99478696  0.58261297  1
  Fe  Fe4  1  0.16491044  0.15782095  0.12100594  1
  Fe  Fe5  1  0.84309991  0.17160340  0.36767831  1
  Fe  Fe6  1  0.33159843  0.35066042  0.86583796  1
  Fe  Fe7  1  0.66666305  0.33914813  0.62699812  1
  Fe  Fe8  1  0.33464044  0.66687149  0.36969332  1
  Fe  Fe9  1  0.14907651  0.83319568  0.61520766  1
  Fe  Fe10  1  0.66633022  0.65414696  0.12500516  1
  Fe  Fe11  1  0.84111564  0.82620254  0.87150724  1
  B  B12  1  0.17439546  0.17195797  0.62236432  1
  B  B13  1  0.33778758  0.33033889  0.37388124  1
  B  B14  1  0.83812874  0.16015626  0.86633935  1
  B  B15  1  0.66300302  0.32961057  0.12230630  1
  B  B16  1  0.32646766  0.67833669  0.88013444  1
  B  B17  1  0.65546341  0.66855343  0.62379166  1
  B  B18  1  0.17001998  0.83063563  0.12006035  1
  B  B19  1  0.82819120  0.83394513  0.37150528  1
  O  O20  1  0.29468243  0.03749904  0.63677890  1
  O  O21  1  0.09281572  0.16571773  0.90102949  1
  O  O22  1  0.70456946  0.02658818  0.88170593  1
  O  O23  1  0.19325642  0.20653908  0.33812043  1
  O  O24  1  0.30080272  0.30281059  0.65037483  1
  O  O25  1  0.77430306  0.19210708  0.16619415  1
  O  O26  1  0.91488696  0.17619098  0.58260217  1
  O  O27  1  0.40926085  0.32881777  0.08262008  1
  O  O28  1  0.24473106  0.46725882  0.35464197  1
  O  O29  1  0.58626814  0.30809080  0.42474030  1
  O  O30  1  0.70237743  0.28139350  0.82034831  1
  O  O31  1  0.19922218  0.55092371  0.89573393  1
  O  O32  1  0.80753968  0.45285720  0.12090136  1
  O  O33  1  0.27288302  0.69633218  0.16375460  1
  O  O34  1  0.41869106  0.68542257  0.56520832  1
  O  O35  1  0.77367408  0.53631790  0.63486688  1
  O  O36  1  0.58120855  0.69035453  0.91678270  1
  O  O37  1  0.07835349  0.81272106  0.40854561  1
  O  O38  1  0.20306141  0.80876956  0.83464719  1
  O  O39  1  0.68212567  0.71749164  0.32639365  1
  O  O40  1  0.77688282  0.80077851  0.66999375  1
  O  O41  1  0.31250215  0.95645672  0.11318171  1
  O  O42  1  0.91328156  0.83228610  0.07788371  1
  O  O43  1  0.72526475  0.97367230  0.38641793  1
