# generated using pymatgen
data_Li3Co2(SiO4)2
_symmetry_space_group_name_H-M   'P 1'
_cell_length_a   5.26568682
_cell_length_b   5.25836368
_cell_length_c   6.41584566
_cell_angle_alpha   89.48473939
_cell_angle_beta   89.88069942
_cell_angle_gamma   88.60123052
_symmetry_Int_Tables_number   1
_chemical_formula_structural   Li3Co2(SiO4)2
_chemical_formula_sum   'Li3 Co2 Si2 O8'
_cell_volume   177.58725919
_cell_formula_units_Z   1
loop_
 _symmetry_equiv_pos_site_id
 _symmetry_equiv_pos_as_xyz
  1  'x, y, z'
loop_
 _atom_site_type_symbol
 _atom_site_label
 _atom_site_symmetry_multiplicity
 _atom_site_fract_x
 _atom_site_fract_y
 _atom_site_fract_z
 _atom_site_occupancy
  Li  Li0  1  0.81663695  0.81299981  0.75271345  1
  Li  Li1  1  0.67993664  0.31517108  0.50300642  1
  Li  Li2  1  0.19288638  0.19102323  0.24838698  1
  Co  Co3  1  0.82359819  0.81908044  0.24250675  1
  Co  Co4  1  0.18686721  0.17979847  0.75741817  1
  Si  Si5  1  0.67369227  0.31930531  0.00166783  1
  Si  Si6  1  0.31287821  0.68077155  0.49760367  1
  O  O7  1  0.80355042  0.20516237  0.78649410  1
  O  O8  1  0.80021384  0.18184605  0.21694381  1
  O  O9  1  0.73911215  0.62589220  0.01628234  1
  O  O10  1  0.62856839  0.72331818  0.47945190  1
  O  O11  1  0.37086256  0.27224672  0.00343636  1
  O  O12  1  0.29274493  0.36808826  0.50129282  1
  O  O13  1  0.19021192  0.81280180  0.70306648  1
  O  O14  1  0.17272692  0.80800753  0.28973392  1
