# generated using pymatgen
data_LiFe2(BO3)2
_symmetry_space_group_name_H-M   'P 1'
_cell_length_a   5.27989035
_cell_length_b   9.07025620
_cell_length_c   11.41497696
_cell_angle_alpha   113.45007112
_cell_angle_beta   77.54628506
_cell_angle_gamma   89.81587103
_symmetry_Int_Tables_number   1
_chemical_formula_structural   LiFe2(BO3)2
_chemical_formula_sum   'Li4 Fe8 B8 O24'
_cell_volume   487.28747031
_cell_formula_units_Z   4
loop_
 _symmetry_equiv_pos_site_id
 _symmetry_equiv_pos_as_xyz
  1  'x, y, z'
loop_
 _atom_site_type_symbol
 _atom_site_label
 _atom_site_symmetry_multiplicity
 _atom_site_fract_x
 _atom_site_fract_y
 _atom_site_fract_z
 _atom_site_occupancy
  Li  Li0  1  0.35300873  0.28811873  0.59193658  1
  Li  Li1  1  0.61395350  0.04243771  0.09120531  1
  Li  Li2  1  0.68437929  0.65638830  0.33481871  1
  Li  Li3  1  0.42377567  0.92935739  0.84223322  1
  Fe  Fe4  1  0.40037298  0.27457459  0.86802911  1
  Fe  Fe5  1  0.09849767  0.23506198  0.12812255  1
  Fe  Fe6  1  0.85018620  0.14705107  0.62191588  1
  Fe  Fe7  1  0.65625676  0.33728915  0.37200447  1
  Fe  Fe8  1  0.34344987  0.64507445  0.62035917  1
  Fe  Fe9  1  0.15769092  0.85830625  0.36862712  1
  Fe  Fe10  1  0.90845527  0.76642467  0.86938172  1
  Fe  Fe11  1  0.59925655  0.71707401  0.11819178  1
  B  B12  1  0.63968009  0.01029665  0.37656552  1
  B  B13  1  0.88497304  0.10550783  0.87647043  1
  B  B14  1  0.15481266  0.52752013  0.36999190  1
  B  B15  1  0.40939238  0.60338010  0.86517019  1
  B  B16  1  0.85945333  0.47677647  0.61855919  1
  B  B17  1  0.60162666  0.38286300  0.12248118  1
  B  B18  1  0.34334582  0.98215033  0.62548236  1
  B  B19  1  0.09744103  0.90528166  0.12702126  1
  O  O20  1  0.13009358  0.13439681  0.91011435  1
  O  O21  1  0.44205464  0.13431696  0.66950905  1
  O  O22  1  0.23573207  0.03136966  0.11279626  1
  O  O23  1  0.50775217  0.14601589  0.38684209  1
  O  O24  1  0.87173811  0.01999850  0.41596073  1
  O  O25  1  0.77586129  0.20691806  0.83221552  1
  O  O26  1  0.29909161  0.46263450  0.85207699  1
  O  O27  1  0.05303169  0.37790657  0.31992344  1
  O  O28  1  0.71550233  0.26465060  0.15340528  1
  O  O29  1  0.61508687  0.46930908  0.58413997  1
  O  O30  1  0.98783452  0.34502719  0.61452655  1
  O  O31  1  0.38483296  0.34041709  0.06586963  1
  O  O32  1  0.61884564  0.64513731  0.92063493  1
  O  O33  1  0.38409728  0.53943685  0.41729383  1
  O  O34  1  0.30754434  0.71036091  0.82013565  1
  O  O35  1  0.96985018  0.62455058  0.65458532  1
  O  O36  1  0.69263009  0.52687761  0.14972454  1
  O  O37  1  0.20391720  0.80778461  0.17526669  1
  O  O38  1  0.14437177  0.96502784  0.56270307  1
  O  O39  1  0.44178608  0.85870741  0.64950121  1
  O  O40  1  0.03033190  0.65987514  0.36925097  1
  O  O41  1  0.75518082  0.98156837  0.89220806  1
  O  O42  1  0.54087428  0.85855506  0.33524793  1
  O  O43  1  0.86404720  0.87898291  0.08901329  1
