# generated using pymatgen
data_Mn12O5F19
_symmetry_space_group_name_H-M   'P 1'
_cell_length_a   4.88158109
_cell_length_b   5.84931763
_cell_length_c   15.93277738
_cell_angle_alpha   89.38072386
_cell_angle_beta   90.01206118
_cell_angle_gamma   86.67807709
_symmetry_Int_Tables_number   1
_chemical_formula_structural   Mn12O5F19
_chemical_formula_sum   'Mn12 O5 F19'
_cell_volume   454.15210265
_cell_formula_units_Z   1
loop_
 _symmetry_equiv_pos_site_id
 _symmetry_equiv_pos_as_xyz
  1  'x, y, z'
loop_
 _atom_site_type_symbol
 _atom_site_label
 _atom_site_symmetry_multiplicity
 _atom_site_fract_x
 _atom_site_fract_y
 _atom_site_fract_z
 _atom_site_occupancy
  Mn  Mn0  1  0.01098171  0.14756772  0.42221845  1
  Mn  Mn1  1  0.99422416  0.85135801  0.24588159  1
  Mn  Mn2  1  0.97603996  0.16478661  0.08470149  1
  Mn  Mn3  1  0.01918939  0.15159526  0.75136908  1
  Mn  Mn4  1  0.02470395  0.83344051  0.58258909  1
  Mn  Mn5  1  0.00473290  0.82793946  0.90771400  1
  Mn  Mn6  1  0.49450356  0.35741201  0.58608584  1
  Mn  Mn7  1  0.50677437  0.32986714  0.92455567  1
  Mn  Mn8  1  0.51490647  0.32125534  0.24902403  1
  Mn  Mn9  1  0.52110477  0.64501057  0.08225747  1
  Mn  Mn10  1  0.48703502  0.67539534  0.41839207  1
  Mn  Mn11  1  0.47031472  0.66842146  0.74638228  1
  O  O12  1  0.21538523  0.88241611  0.47956859  1
  O  O13  1  0.22163786  0.88162264  0.80138173  1
  O  O14  1  0.28530040  0.62852994  0.64127681  1
  O  O15  1  0.72195319  0.38113308  0.03186486  1
  O  O16  1  0.79004354  0.11278695  0.18719535  1
  F  F17  1  0.23805667  0.10173424  0.30851961  1
  F  F18  1  0.23181140  0.13133068  0.64134710  1
  F  F19  1  0.20006018  0.12230436  0.97773976  1
  F  F20  1  0.24168432  0.88983551  0.13048915  1
  F  F21  1  0.26574154  0.39826418  0.14078337  1
  F  F22  1  0.26728943  0.61194150  0.30270914  1
  F  F23  1  0.27372538  0.38604124  0.47098253  1
  F  F24  1  0.26562543  0.38132495  0.81441266  1
  F  F25  1  0.27380454  0.61717175  0.97519271  1
  F  F26  1  0.72768578  0.61648005  0.19635739  1
  F  F27  1  0.73490870  0.38858699  0.36503241  1
  F  F28  1  0.74099414  0.60303604  0.52640338  1
  F  F29  1  0.70208299  0.62384884  0.85274058  1
  F  F30  1  0.72862168  0.39094928  0.70246749  1
  F  F31  1  0.76768492  0.10540213  0.53452105  1
  F  F32  1  0.76255614  0.89781135  0.35903113  1
  F  F33  1  0.76449646  0.87484255  0.01760715  1
  F  F34  1  0.76909399  0.11752871  0.85605921  1
  F  F35  1  0.78524713  0.88102849  0.68514678  1
