# generated using pymatgen
data_LiFe2(BO3)2
_symmetry_space_group_name_H-M   'P 1'
_cell_length_a   5.28148806
_cell_length_b   9.11018452
_cell_length_c   10.11292465
_cell_angle_alpha   90.61749932
_cell_angle_beta   90.83205591
_cell_angle_gamma   89.01671844
_symmetry_Int_Tables_number   1
_chemical_formula_structural   LiFe2(BO3)2
_chemical_formula_sum   'Li4 Fe8 B8 O24'
_cell_volume   486.43678801
_cell_formula_units_Z   4
loop_
 _symmetry_equiv_pos_site_id
 _symmetry_equiv_pos_as_xyz
  1  'x, y, z'
loop_
 _atom_site_type_symbol
 _atom_site_label
 _atom_site_symmetry_multiplicity
 _atom_site_fract_x
 _atom_site_fract_y
 _atom_site_fract_z
 _atom_site_occupancy
  Li  Li0  1  0.81662874  0.83782751  0.15861556  1
  Li  Li1  1  0.66669122  0.67522512  0.88624090  1
  Li  Li2  1  0.31529657  0.33240212  0.15100032  1
  Li  Li3  1  0.17606272  0.16448964  0.41075752  1
  Fe  Fe4  1  0.82984284  0.16666820  0.63729500  1
  Fe  Fe5  1  0.81985331  0.50370750  0.13043056  1
  Fe  Fe6  1  0.68393491  0.00268646  0.87865686  1
  Fe  Fe7  1  0.67467913  0.34205448  0.37875581  1
  Fe  Fe8  1  0.32864308  0.66105814  0.62853813  1
  Fe  Fe9  1  0.31171771  0.00225310  0.12047227  1
  Fe  Fe10  1  0.17226633  0.83510122  0.38093706  1
  Fe  Fe11  1  0.17206029  0.49574582  0.87875471  1
  B  B12  1  0.83467231  0.50030505  0.63518667  1
  B  B13  1  0.82324233  0.16888734  0.13452177  1
  B  B14  1  0.66417495  0.00938208  0.37277729  1
  B  B15  1  0.67438721  0.34058753  0.87434736  1
  B  B16  1  0.33604572  0.00061703  0.62595626  1
  B  B17  1  0.33015872  0.66833653  0.12086688  1
  B  B18  1  0.16681367  0.49465177  0.38184889  1
  B  B19  1  0.16883199  0.82658276  0.88086886  1
  O  O20  1  0.91449945  0.49372791  0.33974354  1
  O  O21  1  0.91130418  0.82440150  0.88624090  1
  O  O22  1  0.80288350  0.21681743  0.82869803  1
  O  O23  1  0.77762591  0.14133286  0.42477936  1
  O  O24  1  0.81408396  0.89076621  0.34955037  1
  O  O25  1  0.81553985  0.46303919  0.91562176  1
  O  O26  1  0.67665689  0.61660823  0.65548978  1
  O  O27  1  0.69865838  0.04427457  0.09169529  1
  O  O28  1  0.74917557  0.36987720  0.57636268  1
  O  O29  1  0.67799906  0.29382641  0.17729713  1
  O  O30  1  0.58921744  0.67479977  0.10631813  1
  O  O31  1  0.58675450  0.01576896  0.66614266  1
  O  O32  1  0.40683637  0.01405263  0.34464528  1
  O  O33  1  0.41704924  0.34594680  0.88231838  1
  O  O34  1  0.30237684  0.69391993  0.83935458  1
  O  O35  1  0.26990708  0.61945286  0.43656066  1
  O  O36  1  0.31130108  0.36744819  0.36337317  1
  O  O37  1  0.31522063  0.94310618  0.91703278  1
  O  O38  1  0.20372025  0.53706389  0.08426497  1
  O  O39  1  0.17862199  0.12132396  0.60980744  1
  O  O40  1  0.24757671  0.86189536  0.59302512  1
  O  O41  1  0.19101084  0.78755169  0.16687868  1
  O  O42  1  0.08127734  0.17762813  0.13884413  1
  O  O43  1  0.08880918  0.50352774  0.67761349  1
