# generated using pymatgen
data_LiFe2(BO3)2
_symmetry_space_group_name_H-M   'P 1'
_cell_length_a   5.23053365
_cell_length_b   9.15064039
_cell_length_c   10.12924131
_cell_angle_alpha   91.43338774
_cell_angle_beta   90.61687471
_cell_angle_gamma   89.46813545
_symmetry_Int_Tables_number   1
_chemical_formula_structural   LiFe2(BO3)2
_chemical_formula_sum   'Li4 Fe8 B8 O24'
_cell_volume   484.61367030
_cell_formula_units_Z   4
loop_
 _symmetry_equiv_pos_site_id
 _symmetry_equiv_pos_as_xyz
  1  'x, y, z'
loop_
 _atom_site_type_symbol
 _atom_site_label
 _atom_site_symmetry_multiplicity
 _atom_site_fract_x
 _atom_site_fract_y
 _atom_site_fract_z
 _atom_site_occupancy
  Li  Li0  1  0.84591917  0.83071675  0.64631949  1
  Li  Li1  1  0.66554804  0.68057257  0.90806912  1
  Li  Li2  1  0.32001654  0.32905258  0.13908010  1
  Li  Li3  1  0.17358744  0.16523904  0.40845009  1
  Fe  Fe4  1  0.83362485  0.16972266  0.63345184  1
  Fe  Fe5  1  0.81812663  0.51261802  0.13523627  1
  Fe  Fe6  1  0.66672912  0.01416674  0.88056745  1
  Fe  Fe7  1  0.66800863  0.34618485  0.38225852  1
  Fe  Fe8  1  0.35199643  0.64867876  0.62352723  1
  Fe  Fe9  1  0.31882775  0.99159926  0.12814053  1
  Fe  Fe10  1  0.17145024  0.82671459  0.37525678  1
  Fe  Fe11  1  0.16981049  0.49419826  0.87251008  1
  B  B12  1  0.84778745  0.50270233  0.63084772  1
  B  B13  1  0.82797887  0.17339473  0.13204518  1
  B  B14  1  0.66887224  0.00546406  0.38149281  1
  B  B15  1  0.66748576  0.33859411  0.88177870  1
  B  B16  1  0.32951228  0.99298309  0.62413532  1
  B  B17  1  0.33225855  0.66340976  0.12486296  1
  B  B18  1  0.16310605  0.49859461  0.37506065  1
  B  B19  1  0.17065096  0.83049282  0.87580805  1
  O  O20  1  0.90540841  0.49926044  0.34272288  1
  O  O21  1  0.90941827  0.84810248  0.85914910  1
  O  O22  1  0.78761237  0.20963989  0.84101369  1
  O  O23  1  0.76908839  0.14385965  0.41486563  1
  O  O24  1  0.82590833  0.88715151  0.38589050  1
  O  O25  1  0.81253570  0.46380408  0.91221081  1
  O  O26  1  0.72489952  0.63497424  0.63974154  1
  O  O27  1  0.68654067  0.05998443  0.07409013  1
  O  O28  1  0.72897424  0.37901766  0.57686225  1
  O  O29  1  0.68946059  0.29855001  0.17711367  1
  O  O30  1  0.58615720  0.67320236  0.09862212  1
  O  O31  1  0.58172576  0.99187905  0.67662034  1
  O  O32  1  0.40743930  0.99580569  0.34980333  1
  O  O33  1  0.40980019  0.34497975  0.89615510  1
  O  O34  1  0.29060678  0.69541946  0.84833744  1
  O  O35  1  0.27703638  0.62732035  0.41750679  1
  O  O36  1  0.30359486  0.37034779  0.36294308  1
  O  O37  1  0.32339436  0.94398706  0.91985007  1
  O  O38  1  0.19670994  0.53552294  0.08947585  1
  O  O39  1  0.19738606  0.11924466  0.60567178  1
  O  O40  1  0.21919685  0.85786360  0.58511421  1
  O  O41  1  0.20236403  0.78328242  0.18151919  1
  O  O42  1  0.08749850  0.16616491  0.14666372  1
  O  O43  1  0.09951982  0.48910997  0.67764489  1
