# generated using pymatgen
data_LiFe2(BO3)2
_symmetry_space_group_name_H-M   'P 1'
_cell_length_a   5.28525762
_cell_length_b   9.04158231
_cell_length_c   10.08514032
_cell_angle_alpha   90.00000142
_cell_angle_beta   92.21619696
_cell_angle_gamma   90.00000201
_symmetry_Int_Tables_number   1
_chemical_formula_structural   LiFe2(BO3)2
_chemical_formula_sum   'Li4 Fe8 B8 O24'
_cell_volume   481.57904762
_cell_formula_units_Z   4
loop_
 _symmetry_equiv_pos_site_id
 _symmetry_equiv_pos_as_xyz
  1  'x, y, z'
loop_
 _atom_site_type_symbol
 _atom_site_label
 _atom_site_symmetry_multiplicity
 _atom_site_fract_x
 _atom_site_fract_y
 _atom_site_fract_z
 _atom_site_occupancy
  Li  Li0  1  0.64830777  0.00635811  0.09070361  1
  Li  Li1  1  0.14830777  0.49364189  0.59070361  1
  Li  Li2  1  0.84340967  0.51088077  0.84803568  1
  Li  Li3  1  0.34340967  0.98911923  0.34803568  1
  Fe  Fe4  1  0.15132205  0.16746815  0.11794683  1
  Fe  Fe5  1  0.83830890  0.17115458  0.37240552  1
  Fe  Fe6  1  0.33830890  0.32884542  0.87240452  1
  Fe  Fe7  1  0.65132205  0.33253185  0.61794683  1
  Fe  Fe8  1  0.33465486  0.65068403  0.36341520  1
  Fe  Fe9  1  0.16827672  0.83753821  0.62583434  1
  Fe  Fe10  1  0.66827672  0.66246179  0.12583434  1
  Fe  Fe11  1  0.83465486  0.84931597  0.86341520  1
  B  B12  1  0.15960265  0.16565209  0.62200343  1
  B  B13  1  0.32413152  0.32388683  0.37768665  1
  B  B14  1  0.82413152  0.17611317  0.87768665  1
  B  B15  1  0.65960265  0.33434791  0.12200343  1
  B  B16  1  0.34127707  0.66277358  0.86729158  1
  B  B17  1  0.67005796  0.67062308  0.62297711  1
  B  B18  1  0.17005796  0.82937692  0.12297711  1
  B  B19  1  0.84127707  0.83722642  0.36729158  1
  O  O20  1  0.28433669  0.03414743  0.62287549  1
  O  O21  1  0.08063729  0.18567496  0.90940627  1
  O  O22  1  0.69768707  0.04741476  0.89664829  1
  O  O23  1  0.20117350  0.19336578  0.33461712  1
  O  O24  1  0.27835556  0.29613547  0.67019694  1
  O  O25  1  0.77835556  0.20386453  0.17019694  1
  O  O26  1  0.91644673  0.18027974  0.56775320  1
  O  O27  1  0.41644673  0.31972026  0.06775320  1
  O  O28  1  0.19768707  0.45258524  0.39664829  1
  O  O29  1  0.58063729  0.31432504  0.40940627  1
  O  O30  1  0.70117350  0.30663422  0.83461712  1
  O  O31  1  0.21523294  0.52822528  0.85877653  1
  O  O32  1  0.78433669  0.46585257  0.12287549  1
  O  O33  1  0.30429087  0.69913839  0.14854850  1
  O  O34  1  0.41048432  0.67627690  0.58710053  1
  O  O35  1  0.79110068  0.53643160  0.63843675  1
  O  O36  1  0.59601477  0.66910444  0.91295474  1
  O  O37  1  0.09601477  0.83089556  0.41295474  1
  O  O38  1  0.21131841  0.78924858  0.82514368  1
  O  O39  1  0.71131841  0.71075142  0.32514368  1
  O  O40  1  0.80429087  0.80086161  0.64854850  1
  O  O41  1  0.29110068  0.96356840  0.13843675  1
  O  O42  1  0.91048432  0.82372310  0.08710053  1
  O  O43  1  0.71523294  0.97177472  0.35877653  1
