# generated using pymatgen
data_LiFe2(BO3)2
_symmetry_space_group_name_H-M   'P 1'
_cell_length_a   5.25018474
_cell_length_b   9.10989211
_cell_length_c   11.41870611
_cell_angle_alpha   66.83512700
_cell_angle_beta   77.04659002
_cell_angle_gamma   89.43100042
_symmetry_Int_Tables_number   1
_chemical_formula_structural   LiFe2(BO3)2
_chemical_formula_sum   'Li4 Fe8 B8 O24'
_cell_volume   487.46224383
_cell_formula_units_Z   4
loop_
 _symmetry_equiv_pos_site_id
 _symmetry_equiv_pos_as_xyz
  1  'x, y, z'
loop_
 _atom_site_type_symbol
 _atom_site_label
 _atom_site_symmetry_multiplicity
 _atom_site_fract_x
 _atom_site_fract_y
 _atom_site_fract_z
 _atom_site_occupancy
  Li  Li0  1  0.97226271  0.96300763  0.41497708  1
  Li  Li1  1  0.51183983  0.48786414  0.66640854  1
  Li  Li2  1  0.73894658  0.75886318  0.15315530  1
  Li  Li3  1  0.22976311  0.25288061  0.16139167  1
  Fe  Fe4  1  0.98861114  0.63905673  0.38157738  1
  Fe  Fe5  1  0.73112043  0.06562417  0.87459338  1
  Fe  Fe6  1  0.51985517  0.85118234  0.63331900  1
  Fe  Fe7  1  0.76105063  0.43268100  0.12688779  1
  Fe  Fe8  1  0.22668643  0.57397956  0.87246619  1
  Fe  Fe9  1  0.47174362  0.15720022  0.38834877  1
  Fe  Fe10  1  0.03892163  0.33436242  0.62744586  1
  Fe  Fe11  1  0.24916000  0.94268918  0.12566643  1
  B  B12  1  0.97499940  0.31675944  0.36717382  1
  B  B13  1  0.73580366  0.39637749  0.87931308  1
  B  B14  1  0.52889976  0.18617490  0.63220331  1
  B  B15  1  0.75740210  0.10708574  0.12822858  1
  B  B16  1  0.49222408  0.81970341  0.37354515  1
  B  B17  1  0.22475568  0.89486621  0.88377134  1
  B  B18  1  0.01694248  0.68073303  0.62301946  1
  B  B19  1  0.26705889  0.59919523  0.13026448  1
  O  O20  1  0.96321929  0.90455673  0.89313217  1
  O  O21  1  0.86137756  0.27972381  0.84725384  1
  O  O22  1  0.86401063  0.48095215  0.93307889  1
  O  O23  1  0.89930206  0.81810843  0.60837555  1
  O  O24  1  0.91910718  0.56953180  0.58143017  1
  O  O25  1  0.75314905  0.15313678  0.68305891  1
  O  O26  1  0.75334243  0.34690965  0.31556394  1
  O  O27  1  0.49541658  0.43735083  0.85608799  1
  O  O28  1  0.35534042  0.78398669  0.84081973  1
  O  O29  1  0.57597860  0.92841766  0.41595492  1
  O  O30  1  0.65548930  0.70895317  0.35079532  1
  O  O31  1  0.36435116  0.98693383  0.92466520  1
  O  O32  1  0.65158257  0.99668706  0.09117626  1
  O  O33  1  0.40881011  0.32170830  0.62691248  1
  O  O34  1  0.43859863  0.08309123  0.58619546  1
  O  O35  1  0.59788925  0.22218028  0.15402617  1
  O  O36  1  0.52658250  0.59476060  0.13079041  1
  O  O37  1  0.24045704  0.64531874  0.67573659  1
  O  O38  1  0.23813205  0.82198012  0.34947287  1
  O  O39  1  0.05542855  0.41775490  0.41837885  1
  O  O40  1  0.11073919  0.18939753  0.36091910  1
  O  O41  1  0.15262151  0.49791351  0.08460938  1
  O  O42  1  0.11074113  0.69992453  0.17513615  1
  O  O43  1  0.00990388  0.10510705  0.14155105  1
