# generated using pymatgen
data_LiFe2(BO3)2
_symmetry_space_group_name_H-M   'P 1'
_cell_length_a   5.25863295
_cell_length_b   9.11930646
_cell_length_c   10.09415945
_cell_angle_alpha   91.10277176
_cell_angle_beta   90.74666124
_cell_angle_gamma   89.04324228
_symmetry_Int_Tables_number   1
_chemical_formula_structural   LiFe2(BO3)2
_chemical_formula_sum   'Li4 Fe8 B8 O24'
_cell_volume   483.87003267
_cell_formula_units_Z   4
loop_
 _symmetry_equiv_pos_site_id
 _symmetry_equiv_pos_as_xyz
  1  'x, y, z'
loop_
 _atom_site_type_symbol
 _atom_site_label
 _atom_site_symmetry_multiplicity
 _atom_site_fract_x
 _atom_site_fract_y
 _atom_site_fract_z
 _atom_site_occupancy
  Li  Li0  1  0.81871555  0.83089932  0.15551989  1
  Li  Li1  1  0.67400058  0.67124912  0.41694304  1
  Li  Li2  1  0.67109773  0.67064281  0.90575759  1
  Li  Li3  1  0.17123248  0.17279186  0.90004996  1
  Fe  Fe4  1  0.83292117  0.16357690  0.63152826  1
  Fe  Fe5  1  0.81934942  0.49242767  0.12830309  1
  Fe  Fe6  1  0.68552148  0.99671572  0.87424318  1
  Fe  Fe7  1  0.66748923  0.33077260  0.37577198  1
  Fe  Fe8  1  0.32086563  0.66480960  0.63311342  1
  Fe  Fe9  1  0.33146035  0.00355733  0.13305411  1
  Fe  Fe10  1  0.16058004  0.85085889  0.38427775  1
  Fe  Fe11  1  0.17821881  0.49610036  0.88106724  1
  B  B12  1  0.83310963  0.49940650  0.62212702  1
  B  B13  1  0.83432095  0.16005385  0.13069423  1
  B  B14  1  0.65517048  0.00156697  0.37543829  1
  B  B15  1  0.66682987  0.33364100  0.87640741  1
  B  B16  1  0.33820496  0.00043371  0.63313188  1
  B  B17  1  0.32391161  0.67579932  0.12261920  1
  B  B18  1  0.17033088  0.50413562  0.37960598  1
  B  B19  1  0.17741225  0.83295159  0.88070326  1
  O  O20  1  0.90510366  0.50363181  0.34989478  1
  O  O21  1  0.91924344  0.82471667  0.88792138  1
  O  O22  1  0.81601607  0.20973093  0.83657065  1
  O  O23  1  0.76718716  0.12767943  0.42809509  1
  O  O24  1  0.78540043  0.86957724  0.36396273  1
  O  O25  1  0.79194320  0.46185256  0.91383757  1
  O  O26  1  0.67462625  0.62026548  0.61534619  1
  O  O27  1  0.69109583  0.03576379  0.09616073  1
  O  O28  1  0.74560638  0.36281669  0.57845537  1
  O  O29  1  0.71795918  0.28494395  0.18193516  1
  O  O30  1  0.58722836  0.67436382  0.11579442  1
  O  O31  1  0.59542004  0.00932426  0.66573080  1
  O  O32  1  0.40590851  0.01130239  0.32828985  1
  O  O33  1  0.41000325  0.32413494  0.87994503  1
  O  O34  1  0.32418659  0.71184958  0.83350908  1
  O  O35  1  0.27780293  0.63708150  0.42385453  1
  O  O36  1  0.31971974  0.38239239  0.36784994  1
  O  O37  1  0.30781647  0.95896397  0.92346381  1
  O  O38  1  0.17918413  0.55925350  0.08478864  1
  O  O39  1  0.17966392  0.11833990  0.64596535  1
  O  O40  1  0.24533746  0.86587000  0.58829579  1
  O  O41  1  0.19619810  0.80735190  0.16430338  1
  O  O42  1  0.08925112  0.15474589  0.10632090  1
  O  O43  1  0.08098266  0.51284569  0.66744604  1
