# generated using pymatgen
data_LiFe2(BO3)2
_symmetry_space_group_name_H-M   'P 1'
_cell_length_a   5.25296375
_cell_length_b   9.16179023
_cell_length_c   11.36810530
_cell_angle_alpha   67.42277165
_cell_angle_beta   76.87435128
_cell_angle_gamma   89.45420513
_symmetry_Int_Tables_number   1
_chemical_formula_structural   LiFe2(BO3)2
_chemical_formula_sum   'Li4 Fe8 B8 O24'
_cell_volume   490.14275387
_cell_formula_units_Z   4
loop_
 _symmetry_equiv_pos_site_id
 _symmetry_equiv_pos_as_xyz
  1  'x, y, z'
loop_
 _atom_site_type_symbol
 _atom_site_label
 _atom_site_symmetry_multiplicity
 _atom_site_fract_x
 _atom_site_fract_y
 _atom_site_fract_z
 _atom_site_occupancy
  Li  Li0  1  0.97398616  0.96814240  0.40506549  1
  Li  Li1  1  0.71211374  0.72142941  0.90391904  1
  Li  Li2  1  0.50574656  0.48863958  0.66230542  1
  Li  Li3  1  0.73710047  0.75081537  0.16257226  1
  Fe  Fe4  1  0.98089833  0.64318062  0.38125021  1
  Fe  Fe5  1  0.75307142  0.06772381  0.87718260  1
  Fe  Fe6  1  0.50635777  0.85399923  0.62945978  1
  Fe  Fe7  1  0.76298581  0.42526342  0.13372114  1
  Fe  Fe8  1  0.23047326  0.55425472  0.88418063  1
  Fe  Fe9  1  0.46698731  0.15868490  0.37920118  1
  Fe  Fe10  1  0.02202125  0.34199702  0.62851929  1
  Fe  Fe11  1  0.26603326  0.94057810  0.12585595  1
  B  B12  1  0.97112436  0.30787217  0.37931135  1
  B  B13  1  0.73918222  0.40263417  0.86994111  1
  B  B14  1  0.52645022  0.18659208  0.63068026  1
  B  B15  1  0.76358082  0.09809813  0.13326203  1
  B  B16  1  0.48356085  0.82265765  0.37349109  1
  B  B17  1  0.23274091  0.88740667  0.88286494  1
  B  B18  1  0.01501575  0.68134743  0.62481168  1
  B  B19  1  0.26601054  0.61021588  0.12515978  1
  O  O20  1  0.96939550  0.88136612  0.89025850  1
  O  O21  1  0.90116932  0.30028505  0.82980124  1
  O  O22  1  0.83363013  0.49478097  0.92959811  1
  O  O23  1  0.86681439  0.80701194  0.62097864  1
  O  O24  1  0.92032601  0.56206762  0.59320290  1
  O  O25  1  0.75825168  0.17184855  0.67180687  1
  O  O26  1  0.75465982  0.34558303  0.32271332  1
  O  O27  1  0.49751244  0.42244313  0.84530614  1
  O  O28  1  0.39618350  0.79199088  0.82878525  1
  O  O29  1  0.56812815  0.92165921  0.42911645  1
  O  O30  1  0.63459609  0.70994329  0.35155218  1
  O  O31  1  0.35376232  0.97756650  0.93243673  1
  O  O32  1  0.64034122  0.99408492  0.09470202  1
  O  O33  1  0.38182852  0.31317577  0.62852273  1
  O  O34  1  0.44575905  0.07497437  0.58858426  1
  O  O35  1  0.62518053  0.21486633  0.16231745  1
  O  O36  1  0.53507224  0.60565991  0.11427967  1
  O  O37  1  0.25818826  0.67133386  0.65690501  1
  O  O38  1  0.24295120  0.84714645  0.33683629  1
  O  O39  1  0.05016079  0.40855511  0.43281580  1
  O  O40  1  0.09188275  0.17409375  0.38464605  1
  O  O41  1  0.12986456  0.51322876  0.08826881  1
  O  O42  1  0.12809270  0.72040711  0.16703095  1
  O  O43  1  0.01513884  0.07872363  0.14526243  1
