# generated using pymatgen
data_Ni3(PO4)2
_symmetry_space_group_name_H-M   'P 1'
_cell_length_a   8.67904625
_cell_length_b   9.94195555
_cell_length_c   20.30115774
_cell_angle_alpha   90.00000000
_cell_angle_beta   98.51309484
_cell_angle_gamma   90.00000000
_symmetry_Int_Tables_number   1
_chemical_formula_structural   Ni3(PO4)2
_chemical_formula_sum   'Ni36 P24 O96'
_cell_volume   1732.41939470
_cell_formula_units_Z   12
loop_
 _symmetry_equiv_pos_site_id
 _symmetry_equiv_pos_as_xyz
  1  'x, y, z'
loop_
 _atom_site_type_symbol
 _atom_site_label
 _atom_site_symmetry_multiplicity
 _atom_site_fract_x
 _atom_site_fract_y
 _atom_site_fract_z
 _atom_site_occupancy
  Ni  Ni0  1  0.06780566  0.91509258  0.93973658  1
  Ni  Ni1  1  0.09390636  0.39732813  0.89320136  1
  Ni  Ni2  1  0.03114202  0.21630564  0.54121865  1
  Ni  Ni3  1  0.11119930  0.62093889  0.58532051  1
  Ni  Ni4  1  0.19700489  0.57296103  0.78184479  1
  Ni  Ni5  1  0.03769200  0.11721939  0.24217852  1
  Ni  Ni6  1  0.10384618  0.69809150  0.29800922  1
  Ni  Ni7  1  0.30299511  0.07296103  0.71815521  1
  Ni  Ni8  1  0.38880070  0.12093889  0.91467949  1
  Ni  Ni9  1  0.46885798  0.71630564  0.95878135  1
  Ni  Ni10  1  0.23729429  0.27495774  0.35701637  1
  Ni  Ni11  1  0.27327071  0.87043976  0.42653430  1
  Ni  Ni12  1  0.40609364  0.89732813  0.60679864  1
  Ni  Ni13  1  0.22672929  0.37043976  0.07346570  1
  Ni  Ni14  1  0.26270571  0.77495774  0.14298363  1
  Ni  Ni15  1  0.43219434  0.41509258  0.56026342  1
  Ni  Ni16  1  0.53769200  0.38278061  0.74217852  1
  Ni  Ni17  1  0.60384618  0.80190850  0.79800922  1
  Ni  Ni18  1  0.39615382  0.19809150  0.20199078  1
  Ni  Ni19  1  0.46230800  0.61721939  0.25782148  1
  Ni  Ni20  1  0.56780566  0.58490742  0.43973658  1
  Ni  Ni21  1  0.73729429  0.22504226  0.85701637  1
  Ni  Ni22  1  0.77327071  0.62956024  0.92653430  1
  Ni  Ni23  1  0.59390636  0.10267187  0.39320136  1
  Ni  Ni24  1  0.72672929  0.12956024  0.57346570  1
  Ni  Ni25  1  0.76270571  0.72504226  0.64298363  1
  Ni  Ni26  1  0.53114202  0.28369436  0.04121865  1
  Ni  Ni27  1  0.61119930  0.87906111  0.08532051  1
  Ni  Ni28  1  0.69700489  0.92703897  0.28184479  1
  Ni  Ni29  1  0.89615382  0.30190850  0.70199078  1
  Ni  Ni30  1  0.96230800  0.88278061  0.75782148  1
  Ni  Ni31  1  0.80299511  0.42703897  0.21815521  1
  Ni  Ni32  1  0.88880070  0.37906111  0.41467949  1
  Ni  Ni33  1  0.96885798  0.78369436  0.45878135  1
  Ni  Ni34  1  0.90609364  0.60267187  0.10679864  1
  Ni  Ni35  1  0.93219434  0.08490742  0.06026342  1
  P  P36  1  0.05202909  0.12913280  0.82701700  1
  P  P37  1  0.12959145  0.64570962  0.99671512  1
  P  P38  1  0.03438111  0.92499898  0.60666760  1
  P  P39  1  0.19030457  0.35419113  0.66790513  1
  P  P40  1  0.30969543  0.85419113  0.83209487  1
  P  P41  1  0.19569004  0.55102164  0.44071565  1
  P  P42  1  0.15493960  0.43141655  0.21704259  1
  P  P43  1  0.46561889  0.42499898  0.89333240  1
  P  P44  1  0.37040855  0.14570962  0.50328488  1
  P  P45  1  0.44797091  0.62913280  0.67298300  1
  P  P46  1  0.34506040  0.93141655  0.28295741  1
  P  P47  1  0.30430996  0.05102164  0.05928435  1
  P  P48  1  0.69569004  0.94897836  0.94071565  1
  P  P49  1  0.65493960  0.06858345  0.71704259  1
  P  P50  1  0.55202909  0.37086720  0.32701700  1
  P  P51  1  0.62959145  0.85429038  0.49671512  1
  P  P52  1  0.53438111  0.57500102  0.10666760  1
  P  P53  1  0.84506040  0.56858345  0.78295741  1
  P  P54  1  0.80430996  0.44897836  0.55928435  1
  P  P55  1  0.69030457  0.14580887  0.16790513  1
  P  P56  1  0.80969543  0.64580887  0.33209487  1
  P  P57  1  0.96561889  0.07500102  0.39333240  1
  P  P58  1  0.87040855  0.35429038  0.00328488  1
  P  P59  1  0.94797091  0.87086720  0.17298300  1
  O  O60  1  0.00254637  0.53699992  0.82686420  1
  O  O61  1  0.15678998  0.49433019  0.98292293  1
  O  O62  1  0.10944300  0.06619426  0.76534906  1
  O  O63  1  0.07664588  0.24051619  0.64207234  1
  O  O64  1  0.09951682  0.43631267  0.71464462  1
  O  O65  1  0.17854507  0.20084876  0.87699202  1
  O  O66  1  0.05384713  0.81263572  0.55628927  1
  O  O67  1  0.16164363  0.78597470  0.79427235  1
  O  O68  1  0.26025400  0.73797747  0.98161291  1
  O  O69  1  0.05769536  0.95800457  0.43078797  1
  O  O70  1  0.08295469  0.60603004  0.48653890  1
  O  O71  1  0.06120098  0.13371514  0.34165502  1
  O  O72  1  0.27167910  0.94241334  0.89035713  1
  O  O73  1  0.20006580  0.96530281  0.63969951  1
  O  O74  1  0.12215251  0.42284214  0.40480514  1
  O  O75  1  0.03277871  0.98426303  0.14027952  1
  O  O76  1  0.29993420  0.46530281  0.86030049  1
  O  O77  1  0.22832090  0.44241334  0.60964287  1
  O  O78  1  0.01593337  0.29562998  0.04831101  1
  O  O79  1  0.06742705  0.75874550  0.19706690  1
  O  O80  1  0.11881378  0.32101146  0.26606620  1
  O  O81  1  0.23974600  0.23797747  0.51838709  1
  O  O82  1  0.21610526  0.66579911  0.39164523  1
  O  O83  1  0.33835637  0.28597470  0.70572765  1
  O  O84  1  0.44615287  0.31263572  0.94371073  1
  O  O85  1  0.32145493  0.70084876  0.62300798  1
  O  O86  1  0.40048318  0.93631267  0.78535538  1
  O  O87  1  0.11387440  0.65996457  0.07269618  1
  O  O88  1  0.42335412  0.74051619  0.85792766  1
  O  O89  1  0.22977279  0.87591434  0.32710362  1
  O  O90  1  0.39055700  0.56619426  0.73465094  1
  O  O91  1  0.23233045  0.55560005  0.25449819  1
  O  O92  1  0.14257779  0.02548491  0.01888315  1
  O  O93  1  0.34321002  0.99433019  0.51707707  1
  O  O94  1  0.35742221  0.52548491  0.48111685  1
  O  O95  1  0.26766955  0.05560005  0.24550181  1
  O  O96  1  0.27022721  0.37591434  0.17289638  1
  O  O97  1  0.55769536  0.54199543  0.93078797  1
  O  O98  1  0.58295469  0.89396996  0.98653890  1
  O  O99  1  0.38612560  0.15996457  0.42730382  1
  O  O100  1  0.56120098  0.36628486  0.84165502  1
  O  O101  1  0.28389474  0.16579911  0.10835477  1
  O  O102  1  0.49745363  0.03699992  0.67313580  1
  O  O103  1  0.62215251  0.07715786  0.90480514  1
  O  O104  1  0.53277871  0.51573697  0.64027952  1
  O  O105  1  0.38118622  0.82101146  0.23393380  1
  O  O106  1  0.51593337  0.20437002  0.54831101  1
  O  O107  1  0.56742705  0.74125450  0.69706690  1
  O  O108  1  0.43257295  0.25874550  0.30293310  1
  O  O109  1  0.48406663  0.79562998  0.45168899  1
  O  O110  1  0.61881378  0.17898854  0.76606620  1
  O  O111  1  0.46722129  0.48426303  0.35972048  1
  O  O112  1  0.37784749  0.92284214  0.09519486  1
  O  O113  1  0.50254637  0.96300008  0.32686420  1
  O  O114  1  0.71610526  0.83420089  0.89164523  1
  O  O115  1  0.43879902  0.63371514  0.15834498  1
  O  O116  1  0.61387440  0.84003543  0.57269618  1
  O  O117  1  0.41704531  0.10603004  0.01346110  1
  O  O118  1  0.44230464  0.45800457  0.06921203  1
  O  O119  1  0.72977279  0.62408566  0.82710362  1
  O  O120  1  0.73233045  0.94439995  0.75449819  1
  O  O121  1  0.64257779  0.47451509  0.51888315  1
  O  O122  1  0.65678998  0.00566981  0.48292193  1
  O  O123  1  0.85742221  0.97451509  0.98111685  1
  O  O124  1  0.76766955  0.44439995  0.74550181  1
  O  O125  1  0.60944300  0.43380574  0.26534906  1
  O  O126  1  0.77022721  0.12408566  0.67289638  1
  O  O127  1  0.57664588  0.25948381  0.14207234  1
  O  O128  1  0.88612560  0.34003543  0.92730382  1
  O  O129  1  0.59951682  0.06368733  0.21464462  1
  O  O130  1  0.67854507  0.29915124  0.37699202  1
  O  O131  1  0.55384713  0.68736428  0.05628927  1
  O  O132  1  0.66164363  0.71402530  0.29427235  1
  O  O133  1  0.78389474  0.33420089  0.60835477  1
  O  O134  1  0.76025400  0.76202253  0.48161291  1
  O  O135  1  0.88118622  0.67898854  0.73393380  1
  O  O136  1  0.93257295  0.24125450  0.80293310  1
  O  O137  1  0.98406663  0.70437002  0.95168899  1
  O  O138  1  0.77167910  0.55758666  0.39035713  1
  O  O139  1  0.70006580  0.53469719  0.13969951  1
  O  O140  1  0.96722129  0.01573697  0.85972048  1
  O  O141  1  0.87784749  0.57715786  0.59519486  1
  O  O142  1  0.79993420  0.03469719  0.36030049  1
  O  O143  1  0.72832090  0.05758666  0.10964287  1
  O  O144  1  0.93879902  0.86628486  0.65834498  1
  O  O145  1  0.91704531  0.39396996  0.51346110  1
  O  O146  1  0.94230464  0.04199543  0.56921203  1
  O  O147  1  0.73974600  0.26202253  0.01838709  1
  O  O148  1  0.83835637  0.21402530  0.20572765  1
  O  O149  1  0.94615287  0.18736428  0.44371073  1
  O  O150  1  0.82145493  0.79915124  0.12300798  1
  O  O151  1  0.90048318  0.56368733  0.28535538  1
  O  O152  1  0.92335412  0.75948381  0.35792766  1
  O  O153  1  0.89055700  0.93380574  0.23465094  1
  O  O154  1  0.84321002  0.50566981  0.01707707  1
  O  O155  1  0.99745363  0.46300008  0.17313580  1
