# generated using pymatgen
data_LiFe2(BO3)2
_symmetry_space_group_name_H-M   'P 1'
_cell_length_a   5.24803281
_cell_length_b   9.11442729
_cell_length_c   11.33347558
_cell_angle_alpha   67.34378400
_cell_angle_beta   76.74666646
_cell_angle_gamma   89.57607159
_symmetry_Int_Tables_number   1
_chemical_formula_structural   LiFe2(BO3)2
_chemical_formula_sum   'Li4 Fe8 B8 O24'
_cell_volume   484.97472960
_cell_formula_units_Z   4
loop_
 _symmetry_equiv_pos_site_id
 _symmetry_equiv_pos_as_xyz
  1  'x, y, z'
loop_
 _atom_site_type_symbol
 _atom_site_label
 _atom_site_symmetry_multiplicity
 _atom_site_fract_x
 _atom_site_fract_y
 _atom_site_fract_z
 _atom_site_occupancy
  Li  Li0  1  0.96986088  0.96472077  0.41075936  1
  Li  Li1  1  0.51743313  0.49240598  0.66065488  1
  Li  Li2  1  0.47370511  0.47221442  0.39538000  1
  Li  Li3  1  0.23929438  0.25218904  0.15490192  1
  Fe  Fe4  1  0.96497199  0.64584443  0.38111026  1
  Fe  Fe5  1  0.73246491  0.06506686  0.87919493  1
  Fe  Fe6  1  0.51041428  0.85135994  0.63483841  1
  Fe  Fe7  1  0.76870619  0.44074893  0.12450366  1
  Fe  Fe8  1  0.23614882  0.56841912  0.87883242  1
  Fe  Fe9  1  0.47098814  0.15272748  0.38170466  1
  Fe  Fe10  1  0.03163979  0.33458075  0.63270171  1
  Fe  Fe11  1  0.26204679  0.92678288  0.13093174  1
  B  B12  1  0.98269772  0.31761308  0.36917829  1
  B  B13  1  0.73468575  0.39281795  0.87879754  1
  B  B14  1  0.53150584  0.18670505  0.62724958  1
  B  B15  1  0.76187443  0.10758271  0.12773715  1
  B  B16  1  0.47523555  0.81291320  0.37989003  1
  B  B17  1  0.23057890  0.89990342  0.87860211  1
  B  B18  1  0.01525697  0.68382133  0.62352233  1
  B  B19  1  0.26811224  0.59636537  0.13523829  1
  O  O20  1  0.97650241  0.91566920  0.87782166  1
  O  O21  1  0.87929251  0.27661190  0.84763639  1
  O  O22  1  0.84878161  0.48018418  0.93503918  1
  O  O23  1  0.87747094  0.81706292  0.61155486  1
  O  O24  1  0.91974534  0.56472609  0.59348623  1
  O  O25  1  0.74051749  0.15552947  0.68587310  1
  O  O26  1  0.74381823  0.34835713  0.33143436  1
  O  O27  1  0.49512510  0.41972767  0.85323599  1
  O  O28  1  0.37625985  0.80014642  0.82644678  1
  O  O29  1  0.57791853  0.92118916  0.42160783  1
  O  O30  1  0.58855176  0.67682461  0.38665222  1
  O  O31  1  0.35825992  0.98171627  0.93474252  1
  O  O32  1  0.62980390  0.01414983  0.08441838  1
  O  O33  1  0.41949927  0.32871723  0.60300911  1
  O  O34  1  0.44446840  0.07534155  0.58489140  1
  O  O35  1  0.62012989  0.22094777  0.16425997  1
  O  O36  1  0.51785062  0.57938812  0.14770430  1
  O  O37  1  0.25911732  0.67366486  0.65722894  1
  O  O38  1  0.24298386  0.84753849  0.33271754  1
  O  O39  1  0.08898330  0.41764049  0.41446671  1
  O  O40  1  0.10725986  0.18803745  0.35694263  1
  O  O41  1  0.14747746  0.49130424  0.09621147  1
  O  O42  1  0.12714366  0.71289192  0.16613108  1
  O  O43  1  0.01662297  0.08655532  0.13924407  1
