# generated using pymatgen
data_Li6MnV3(PO4)6
_symmetry_space_group_name_H-M   'P 1'
_cell_length_a   8.59515661
_cell_length_b   8.66849025
_cell_length_c   6.37594482
_cell_angle_alpha   73.98929252
_cell_angle_beta   105.95748225
_cell_angle_gamma   85.65262042
_symmetry_Int_Tables_number   1
_chemical_formula_structural   Li6MnV3(PO4)6
_chemical_formula_sum   'Li6 Mn1 V3 P6 O24'
_cell_volume   433.08020040
_cell_formula_units_Z   1
loop_
 _symmetry_equiv_pos_site_id
 _symmetry_equiv_pos_as_xyz
  1  'x, y, z'
loop_
 _atom_site_type_symbol
 _atom_site_label
 _atom_site_symmetry_multiplicity
 _atom_site_fract_x
 _atom_site_fract_y
 _atom_site_fract_z
 _atom_site_occupancy
  Li  Li0  1  0.00495340  0.00433651  0.74843101  1
  Li  Li1  1  0.28471975  0.29017458  0.24854727  1
  Li  Li2  1  0.50062703  0.50043443  0.49914972  1
  Li  Li3  1  0.50252104  0.49983449  0.00176323  1
  Li  Li4  1  0.71225886  0.70989229  0.75266430  1
  Li  Li5  1  0.99176609  0.99723145  0.25244181  1
  Mn  Mn6  1  0.94021023  0.37381242  0.36592698  1
  V  V7  1  0.05812713  0.62142257  0.64119521  1
  V  V8  1  0.37877990  0.94326155  0.13717831  1
  V  V9  1  0.61897488  0.05654915  0.86082054  1
  P  P10  1  0.28581011  0.28735452  0.74938439  1
  P  P11  1  0.14040899  0.66398971  0.13670679  1
  P  P12  1  0.33876715  0.86170650  0.63530751  1
  P  P13  1  0.66053962  0.13240655  0.36590596  1
  P  P14  1  0.86163841  0.33965269  0.86401101  1
  P  P15  1  0.71499713  0.71409150  0.25115779  1
  O  O16  1  0.01376578  0.65825657  0.91162802  1
  O  O17  1  0.05484705  0.61516115  0.32790248  1
  O  O18  1  0.25748326  0.17209146  0.96547775  1
  O  O19  1  0.17220574  0.26259528  0.52705570  1
  O  O20  1  0.15505547  0.84159753  0.60659903  1
  O  O21  1  0.26443887  0.46180523  0.76870918  1
  O  O22  1  0.16108155  0.84838443  0.09381540  1
  O  O23  1  0.29795800  0.54488623  0.20544326  1
  O  O24  1  0.39750670  0.95124920  0.82247467  1
  O  O25  1  0.33878914  0.98601344  0.40568097  1
  O  O26  1  0.46304697  0.26225635  0.73322100  1
  O  O27  1  0.45695629  0.70430169  0.70542127  1
  O  O28  1  0.54789890  0.29351722  0.29677380  1
  O  O29  1  0.53777002  0.73776421  0.26768907  1
  O  O30  1  0.65351929  0.01059095  0.59347322  1
  O  O31  1  0.59745347  0.04749859  0.17492897  1
  O  O32  1  0.70300086  0.45745522  0.79599036  1
  O  O33  1  0.83946282  0.15824635  0.88752665  1
  O  O34  1  0.73751857  0.53922768  0.22889615  1
  O  O35  1  0.84620487  0.14201911  0.39762174  1
  O  O36  1  0.82787208  0.74095652  0.46923641  1
  O  O37  1  0.74229353  0.83050141  0.03454922  1
  O  O38  1  0.95122270  0.40116211  0.67447168  1
  O  O39  1  0.98754736  0.33631216  0.09482420  1
