# generated using pymatgen
data_LiFe2(BO3)2
_symmetry_space_group_name_H-M   'P 1'
_cell_length_a   5.27569245
_cell_length_b   9.11362110
_cell_length_c   11.37620567
_cell_angle_alpha   113.73049667
_cell_angle_beta   77.17699800
_cell_angle_gamma   89.73799027
_symmetry_Int_Tables_number   1
_chemical_formula_structural   LiFe2(BO3)2
_chemical_formula_sum   'Li4 Fe8 B8 O24'
_cell_volume   485.53153359
_cell_formula_units_Z   4
loop_
 _symmetry_equiv_pos_site_id
 _symmetry_equiv_pos_as_xyz
  1  'x, y, z'
loop_
 _atom_site_type_symbol
 _atom_site_label
 _atom_site_symmetry_multiplicity
 _atom_site_fract_x
 _atom_site_fract_y
 _atom_site_fract_z
 _atom_site_occupancy
  Li  Li0  1  0.16774400  0.16274098  0.34633227  1
  Li  Li1  1  0.60611434  0.05459484  0.10362019  1
  Li  Li2  1  0.92884864  0.42856886  0.83875004  1
  Li  Li3  1  0.42954140  0.92929308  0.83435887  1
  Fe  Fe4  1  0.39942065  0.28073440  0.86896315  1
  Fe  Fe5  1  0.09485805  0.23622820  0.12162329  1
  Fe  Fe6  1  0.84279963  0.13643529  0.61410181  1
  Fe  Fe7  1  0.65719235  0.35365823  0.37549184  1
  Fe  Fe8  1  0.34554382  0.64081911  0.61814245  1
  Fe  Fe9  1  0.14744883  0.83295783  0.36679822  1
  Fe  Fe10  1  0.90838188  0.77759131  0.87279363  1
  Fe  Fe11  1  0.60226769  0.72420267  0.12820980  1
  B  B12  1  0.64762450  0.01832545  0.36426596  1
  B  B13  1  0.89482773  0.10611767  0.87543266  1
  B  B14  1  0.14514237  0.51342919  0.37106429  1
  B  B15  1  0.40533563  0.60913976  0.87464803  1
  B  B16  1  0.84758197  0.48177278  0.62913800  1
  B  B17  1  0.60197033  0.38826434  0.11730477  1
  B  B18  1  0.34151992  0.98056804  0.62314641  1
  B  B19  1  0.10277544  0.89787200  0.12393600  1
  O  O20  1  0.13038133  0.12622202  0.91606218  1
  O  O21  1  0.47400977  0.11765710  0.65744405  1
  O  O22  1  0.21223509  0.03986004  0.13266308  1
  O  O23  1  0.52236138  0.14381902  0.35540539  1
  O  O24  1  0.87808236  0.04071732  0.41157152  1
  O  O25  1  0.81362073  0.20824535  0.82362864  1
  O  O26  1  0.26816796  0.48143016  0.86727463  1
  O  O27  1  0.06491469  0.35352273  0.31917438  1
  O  O28  1  0.71767732  0.27882777  0.15448254  1
  O  O29  1  0.63159108  0.48239615  0.58012397  1
  O  O30  1  0.93386072  0.34768050  0.64117265  1
  O  O31  1  0.37610726  0.34708048  0.07409707  1
  O  O32  1  0.63782661  0.62839130  0.91966002  1
  O  O33  1  0.35746356  0.52754478  0.42837608  1
  O  O34  1  0.31961876  0.72394569  0.83409946  1
  O  O35  1  0.97616100  0.61995105  0.66989045  1
  O  O36  1  0.71255222  0.52124562  0.11716116  1
  O  O37  1  0.22980915  0.78947667  0.15283673  1
  O  O38  1  0.12656422  0.97734261  0.57231108  1
  O  O39  1  0.42038976  0.85430888  0.64776934  1
  O  O40  1  0.02113514  0.63401240  0.36311378  1
  O  O41  1  0.74469739  0.98917621  0.89307368  1
  O  O42  1  0.55480574  0.86720508  0.32242452  1
  O  O43  1  0.86277457  0.87097205  0.08918292  1
