# generated using pymatgen
data_Li7V4O11F
_symmetry_space_group_name_H-M   'P 1'
_cell_length_a   5.03463047
_cell_length_b   5.15747128
_cell_length_c   9.84453535
_cell_angle_alpha   84.61316360
_cell_angle_beta   101.09976773
_cell_angle_gamma   119.53343117
_symmetry_Int_Tables_number   1
_chemical_formula_structural   Li7V4O11F
_chemical_formula_sum   'Li7 V4 O11 F1'
_cell_volume   218.24863622
_cell_formula_units_Z   1
loop_
 _symmetry_equiv_pos_site_id
 _symmetry_equiv_pos_as_xyz
  1  'x, y, z'
loop_
 _atom_site_type_symbol
 _atom_site_label
 _atom_site_symmetry_multiplicity
 _atom_site_fract_x
 _atom_site_fract_y
 _atom_site_fract_z
 _atom_site_occupancy
  Li  Li0  1  0.15997661  0.85032364  0.49631596  1
  Li  Li1  1  0.99710448  0.51394152  0.99267297  1
  Li  Li2  1  0.31675745  0.14894514  0.99928308  1
  Li  Li3  1  0.08567228  0.17114408  0.25025608  1
  Li  Li4  1  0.49887214  0.50835905  0.49953387  1
  Li  Li5  1  0.68509774  0.83511688  0.00413296  1
  Li  Li6  1  0.83560753  0.14654137  0.50349139  1
  V  V7  1  0.27931272  0.50547110  0.75413230  1
  V  V8  1  0.42273327  0.84374821  0.25041352  1
  V  V9  1  0.55811555  0.13750638  0.75685052  1
  V  V10  1  0.74629182  0.49028326  0.25089945  1
  O  O11  1  0.05896322  0.81672321  0.13465047  1
  O  O12  1  0.32932858  0.83204312  0.87033822  1
  O  O13  1  0.11150128  0.52561489  0.36262701  1
  O  O14  1  0.48920820  0.81709148  0.63660335  1
  O  O15  1  0.25896584  0.20616931  0.63354460  1
  O  O16  1  0.58382766  0.45650478  0.87154963  1
  O  O17  1  0.41477926  0.52332395  0.13962255  1
  O  O18  1  0.75884014  0.81692908  0.36708842  1
  O  O19  1  0.47693648  0.16638418  0.36381458  1
  O  O20  1  0.69353890  0.16773472  0.13829501  1
  O  O21  1  0.95396703  0.21988565  0.85427354  1
  F  F22  1  0.86820283  0.46741399  0.61960953  1
