# generated using pymatgen
data_LiFe2(BO3)2
_symmetry_space_group_name_H-M   'P 1'
_cell_length_a   5.24445039
_cell_length_b   9.08336208
_cell_length_c   10.17436507
_cell_angle_alpha   90.51993080
_cell_angle_beta   91.18238071
_cell_angle_gamma   89.65272244
_symmetry_Int_Tables_number   1
_chemical_formula_structural   LiFe2(BO3)2
_chemical_formula_sum   'Li4 Fe8 B8 O24'
_cell_volume   484.54717433
_cell_formula_units_Z   4
loop_
 _symmetry_equiv_pos_site_id
 _symmetry_equiv_pos_as_xyz
  1  'x, y, z'
loop_
 _atom_site_type_symbol
 _atom_site_label
 _atom_site_symmetry_multiplicity
 _atom_site_fract_x
 _atom_site_fract_y
 _atom_site_fract_z
 _atom_site_occupancy
  Li  Li0  1  0.85001989  0.82264098  0.66680076  1
  Li  Li1  1  0.80963933  0.83526037  0.16028998  1
  Li  Li2  1  0.67027850  0.66748692  0.40218187  1
  Li  Li3  1  0.31520663  0.33607227  0.15335511  1
  Fe  Fe4  1  0.83495364  0.16652623  0.63398264  1
  Fe  Fe5  1  0.81189329  0.50670086  0.12344971  1
  Fe  Fe6  1  0.67498989  0.00669672  0.87826602  1
  Fe  Fe7  1  0.67766765  0.33168615  0.37836889  1
  Fe  Fe8  1  0.34672591  0.65370929  0.63471017  1
  Fe  Fe9  1  0.32397283  0.99759837  0.12425678  1
  Fe  Fe10  1  0.16722225  0.84897663  0.38731829  1
  Fe  Fe11  1  0.17131883  0.50110988  0.87702680  1
  B  B12  1  0.84716851  0.49985997  0.62174005  1
  B  B13  1  0.83143941  0.16438855  0.13383397  1
  B  B14  1  0.65719077  0.00188537  0.37379288  1
  B  B15  1  0.66953682  0.33869393  0.87642121  1
  B  B16  1  0.32842102  0.99705904  0.63067536  1
  B  B17  1  0.32130747  0.67225292  0.12936577  1
  B  B18  1  0.17810687  0.50590134  0.37309793  1
  B  B19  1  0.17320828  0.83027773  0.88014171  1
  O  O20  1  0.91296586  0.49974811  0.34569868  1
  O  O21  1  0.91963248  0.84572799  0.85547108  1
  O  O22  1  0.78011988  0.21313277  0.82183801  1
  O  O23  1  0.76253269  0.12974364  0.42829071  1
  O  O24  1  0.79199881  0.87145576  0.36974314  1
  O  O25  1  0.82705561  0.45027942  0.92415522  1
  O  O26  1  0.72027600  0.63169675  0.60329183  1
  O  O27  1  0.69501234  0.03913957  0.09397827  1
  O  O28  1  0.73769594  0.36833225  0.57407728  1
  O  O29  1  0.69733440  0.28871080  0.17750047  1
  O  O30  1  0.58076666  0.67680500  0.14507779  1
  O  O31  1  0.59426971  0.99638569  0.65736050  1
  O  O32  1  0.41232236  0.00518722  0.31911687  1
  O  O33  1  0.41326070  0.34920178  0.89168155  1
  O  O34  1  0.29814320  0.69852064  0.84644760  1
  O  O35  1  0.28658906  0.63521579  0.41927055  1
  O  O36  1  0.32898450  0.38502509  0.34820167  1
  O  O37  1  0.31844672  0.94450132  0.93601567  1
  O  O38  1  0.19750251  0.54339007  0.08888582  1
  O  O39  1  0.18484633  0.12191791  0.63692768  1
  O  O40  1  0.21201854  0.86398517  0.59531908  1
  O  O41  1  0.17488101  0.79879003  0.15979319  1
  O  O42  1  0.09183571  0.16314681  0.12976109  1
  O  O43  1  0.08529621  0.49428391  0.68189635  1
