# generated using pymatgen
data_LiFe2(BO3)2
_symmetry_space_group_name_H-M   'P 1'
_cell_length_a   5.22683641
_cell_length_b   9.10604233
_cell_length_c   11.39827003
_cell_angle_alpha   67.32540156
_cell_angle_beta   76.99915967
_cell_angle_gamma   89.63024446
_symmetry_Int_Tables_number   1
_chemical_formula_structural   LiFe2(BO3)2
_chemical_formula_sum   'Li4 Fe8 B8 O24'
_cell_volume   485.79929198
_cell_formula_units_Z   4
loop_
 _symmetry_equiv_pos_site_id
 _symmetry_equiv_pos_as_xyz
  1  'x, y, z'
loop_
 _atom_site_type_symbol
 _atom_site_label
 _atom_site_symmetry_multiplicity
 _atom_site_fract_x
 _atom_site_fract_y
 _atom_site_fract_z
 _atom_site_occupancy
  Li  Li0  1  0.71572970  0.73056991  0.89927648  1
  Li  Li1  1  0.52300015  0.50187773  0.65213492  1
  Li  Li2  1  0.47039033  0.46684868  0.40766810  1
  Li  Li3  1  0.23255362  0.24259005  0.16397545  1
  Fe  Fe4  1  0.96661728  0.65570300  0.37846131  1
  Fe  Fe5  1  0.73322836  0.07255754  0.87761602  1
  Fe  Fe6  1  0.52554418  0.84867325  0.62704202  1
  Fe  Fe7  1  0.75542947  0.44193434  0.13358523  1
  Fe  Fe8  1  0.22802177  0.56145898  0.87627744  1
  Fe  Fe9  1  0.48709664  0.14112558  0.38415141  1
  Fe  Fe10  1  0.02930401  0.34149514  0.63074986  1
  Fe  Fe11  1  0.25928099  0.92226111  0.12941074  1
  B  B12  1  0.99214942  0.32001193  0.37354629  1
  B  B13  1  0.73861385  0.40183442  0.87346933  1
  B  B14  1  0.53070731  0.19101808  0.62483069  1
  B  B15  1  0.76286053  0.10342761  0.12878754  1
  B  B16  1  0.46625456  0.81113759  0.37676517  1
  B  B17  1  0.22384863  0.88920986  0.88499157  1
  B  B18  1  0.00844337  0.67350882  0.63977881  1
  B  B19  1  0.27169836  0.60614617  0.11918470  1
  O  O20  1  0.96788836  0.90773583  0.87886969  1
  O  O21  1  0.88067398  0.28539758  0.84586990  1
  O  O22  1  0.85182718  0.50379153  0.91755199  1
  O  O23  1  0.87262637  0.79366396  0.65510168  1
  O  O24  1  0.91734676  0.57017171  0.59083513  1
  O  O25  1  0.73685231  0.15706141  0.68747424  1
  O  O26  1  0.73920285  0.33010086  0.34668118  1
  O  O27  1  0.48746273  0.42059103  0.85646234  1
  O  O28  1  0.36312920  0.77500969  0.84880733  1
  O  O29  1  0.54923817  0.92112971  0.42103124  1
  O  O30  1  0.58391527  0.67261494  0.39427359  1
  O  O31  1  0.36009042  0.97985788  0.92975293  1
  O  O32  1  0.63288332  0.01986624  0.07581226  1
  O  O33  1  0.41672667  0.33260539  0.60634935  1
  O  O34  1  0.44699252  0.08631424  0.57615499  1
  O  O35  1  0.61552054  0.20537910  0.17839899  1
  O  O36  1  0.53629002  0.61866879  0.10746700  1
  O  O37  1  0.25171091  0.64486240  0.67903197  1
  O  O38  1  0.25407805  0.84284586  0.31790804  1
  O  O39  1  0.08288816  0.42625992  0.41761027  1
  O  O40  1  0.15032024  0.20780351  0.35074169  1
  O  O41  1  0.16135863  0.49171497  0.08334954  1
  O  O42  1  0.11162153  0.70849782  0.16073399  1
  O  O43  1  0.02291530  0.08899684  0.13051161  1
