# generated using pymatgen
data_Li4Fe2Co3Sb3O16
_symmetry_space_group_name_H-M   'P 1'
_cell_length_a   6.04325174
_cell_length_b   6.06801422
_cell_length_c   9.67403627
_cell_angle_alpha   90.49286058
_cell_angle_beta   90.58239976
_cell_angle_gamma   119.39507514
_symmetry_Int_Tables_number   1
_chemical_formula_structural   Li4Fe2Co3Sb3O16
_chemical_formula_sum   'Li4 Fe2 Co3 Sb3 O16'
_cell_volume   309.02632818
_cell_formula_units_Z   1
loop_
 _symmetry_equiv_pos_site_id
 _symmetry_equiv_pos_as_xyz
  1  'x, y, z'
loop_
 _atom_site_type_symbol
 _atom_site_label
 _atom_site_symmetry_multiplicity
 _atom_site_fract_x
 _atom_site_fract_y
 _atom_site_fract_z
 _atom_site_occupancy
  Li  Li0  1  0.33716053  0.66155457  0.88296725  1
  Li  Li1  1  0.95910504  0.98219162  0.98673491  1
  Li  Li2  1  0.98037566  0.99360087  0.50612464  1
  Li  Li3  1  0.65320859  0.32413334  0.40090748  1
  Fe  Fe4  1  0.35520340  0.68540840  0.50732527  1
  Fe  Fe5  1  0.70839594  0.35149713  0.97368642  1
  Co  Co6  1  0.65747457  0.82817618  0.21582370  1
  Co  Co7  1  0.83945472  0.66352830  0.71246576  1
  Co  Co8  1  0.83567792  0.17357557  0.71360852  1
  Sb  Sb9  1  0.16505721  0.82966323  0.21477703  1
  Sb  Sb10  1  0.16552797  0.33555979  0.21553238  1
  Sb  Sb11  1  0.34546458  0.17578830  0.71487230  1
  O  O12  1  0.17956954  0.85434205  0.59559952  1
  O  O13  1  0.02145352  0.51423662  0.33550117  1
  O  O14  1  0.31331858  0.65365152  0.09914148  1
  O  O15  1  0.00810417  0.00637561  0.31932859  1
  O  O16  1  0.00916307  0.01818887  0.80610747  1
  O  O17  1  0.16444384  0.32986026  0.60126673  1
  O  O18  1  0.46651873  0.96085439  0.33794165  1
  O  O19  1  0.46637893  0.50661661  0.34014954  1
  O  O20  1  0.30878532  0.15123351  0.09979701  1
  O  O21  1  0.67500769  0.85326553  0.60091429  1
  O  O22  1  0.51682484  0.47130232  0.84817372  1
  O  O23  1  0.53504714  0.04067846  0.83573275  1
  O  O24  1  0.66545501  0.32041134  0.60646915  1
  O  O25  1  0.84885621  0.67757538  0.09816887  1
  O  O26  1  0.97359873  0.46702608  0.83684535  1
  O  O27  1  0.84536956  0.17000316  0.10187603  1
