# generated using pymatgen
data_Li6MnV3(PO4)6
_symmetry_space_group_name_H-M   'P 1'
_cell_length_a   8.62964727
_cell_length_b   16.67458520
_cell_length_c   6.37111380
_cell_angle_alpha   84.42013145
_cell_angle_beta   105.99302130
_cell_angle_gamma   100.67614486
_symmetry_Int_Tables_number   1
_chemical_formula_structural   Li6MnV3(PO4)6
_chemical_formula_sum   'Li12 Mn2 V6 P12 O48'
_cell_volume   865.00174487
_cell_formula_units_Z   2
loop_
 _symmetry_equiv_pos_site_id
 _symmetry_equiv_pos_as_xyz
  1  'x, y, z'
loop_
 _atom_site_type_symbol
 _atom_site_label
 _atom_site_symmetry_multiplicity
 _atom_site_fract_x
 _atom_site_fract_y
 _atom_site_fract_z
 _atom_site_occupancy
  Li  Li0  1  0.99560054  0.00340465  0.24470694  1
  Li  Li1  1  0.99605880  0.50234925  0.74887123  1
  Li  Li2  1  0.71162382  0.14373726  0.60467618  1
  Li  Li3  1  0.71415835  0.64487066  0.10589297  1
  Li  Li4  1  0.49925986  0.24910111  0.25085308  1
  Li  Li5  1  0.49935278  0.24970236  0.74984566  1
  Li  Li6  1  0.49921258  0.75029037  0.24963000  1
  Li  Li7  1  0.50027045  0.75068441  0.74996937  1
  Li  Li8  1  0.28780976  0.35570531  0.89417253  1
  Li  Li9  1  0.28918780  0.85681580  0.39192643  1
  Li  Li10  1  0.00714637  0.49855494  0.25035282  1
  Li  Li11  1  0.00434747  0.99735262  0.75329006  1
  Mn  Mn12  1  0.37447613  0.02883208  0.10313294  1
  Mn  Mn13  1  0.05807460  0.68724934  0.94585337  1
  V  V14  1  0.94154922  0.31053697  0.04884855  1
  V  V15  1  0.94320809  0.81106791  0.54926140  1
  V  V16  1  0.62138700  0.47120548  0.38875982  1
  V  V17  1  0.62193793  0.97120887  0.88802433  1
  V  V18  1  0.38103955  0.52839228  0.61291207  1
  V  V19  1  0.05625717  0.19030650  0.44913362  1
  P  P20  1  0.71206823  0.14206100  0.10669867  1
  P  P21  1  0.86275899  0.33091460  0.53330714  1
  P  P22  1  0.86079431  0.83186772  0.03104853  1
  P  P23  1  0.71518152  0.64386344  0.60680140  1
  P  P24  1  0.66108258  0.43127780  0.93277193  1
  P  P25  1  0.66458326  0.93054378  0.43240857  1
  P  P26  1  0.33964801  0.06901214  0.56639602  1
  P  P27  1  0.33882054  0.56631104  0.06884284  1
  P  P28  1  0.28639878  0.35682232  0.39315579  1
  P  P29  1  0.13260477  0.16959778  0.96513253  1
  P  P30  1  0.13815971  0.66978580  0.46616913  1
  P  P31  1  0.28603896  0.85693232  0.89318629  1
  O  O32  1  0.95047312  0.30113255  0.37395967  1
  O  O33  1  0.98817095  0.33087686  0.76199552  1
  O  O34  1  0.82801347  0.12890164  0.33704781  1
  O  O35  1  0.73494683  0.23069358  0.00357661  1
  O  O36  1  0.98659294  0.82963301  0.25938337  1
  O  O37  1  0.84310110  0.42260473  0.47061803  1
  O  O38  1  0.74020031  0.08643298  0.94428045  1
  O  O39  1  0.84438981  0.42118366  0.97138131  1
  O  O40  1  0.70463913  0.27227580  0.52434532  1
  O  O41  1  0.94625356  0.80629189  0.86629965  1
  O  O42  1  0.66112531  0.49402219  0.09823472  1
  O  O43  1  0.53600795  0.12993742  0.13872428  1
  O  O44  1  0.74320694  0.58584072  0.44961563  1
  O  O45  1  0.82889947  0.63151740  0.84196484  1
  O  O46  1  0.84916901  0.92050816  0.48143216  1
  O  O47  1  0.70326165  0.77220235  0.02249753  1
  O  O48  1  0.73676927  0.73120165  0.49924921  1
  O  O49  1  0.84046600  0.92407034  0.97705522  1
  O  O50  1  0.60188605  0.47527938  0.69993680  1
  O  O51  1  0.45694886  0.14821877  0.55650261  1
  O  O52  1  0.46254012  0.36827379  0.36444401  1
  O  O53  1  0.33748465  0.00652769  0.39801315  1
  O  O54  1  0.54361758  0.35214578  0.94359134  1
  O  O55  1  0.61304993  0.97310319  0.19919716  1
  O  O56  1  0.40083730  0.02416583  0.80008526  1
  O  O57  1  0.45194369  0.64687318  0.05597877  1
  O  O58  1  0.66006224  0.99345769  0.59575921  1
  O  O59  1  0.53930371  0.63139277  0.63728318  1
  O  O60  1  0.54547064  0.85185322  0.44380705  1
  O  O61  1  0.40236801  0.52395285  0.30304439  1
  O  O62  1  0.14398175  0.07751129  0.02707745  1
  O  O63  1  0.26296955  0.26892158  0.49931440  1
  O  O64  1  0.29374207  0.22653720  0.97701119  1
  O  O65  1  0.15698922  0.07933436  0.53217241  1
  O  O66  1  0.17194213  0.37006088  0.16206728  1
  O  O67  1  0.25957973  0.41416912  0.55294828  1
  O  O68  1  0.46162251  0.86771518  0.86427880  1
  O  O69  1  0.34422915  0.50469591  0.90319570  1
  O  O70  1  0.04728523  0.20125525  0.12483922  1
  O  O71  1  0.29651670  0.72819612  0.47635166  1
  O  O72  1  0.15412393  0.57160615  0.03252161  1
  O  O73  1  0.26252999  0.91459708  0.05844032  1
  O  O74  1  0.15873659  0.57838406  0.53371444  1
  O  O75  1  0.00981969  0.17245959  0.73508692  1
  O  O76  1  0.26069907  0.76906503  0.00153438  1
  O  O77  1  0.17262603  0.87163321  0.66292340  1
  O  O78  1  0.01250786  0.66830426  0.23677089  1
  O  O79  1  0.04880126  0.70062576  0.62441420  1
