# generated using pymatgen
data_Li2Co(CO3)2
_symmetry_space_group_name_H-M   'P 1'
_cell_length_a   7.93469530
_cell_length_b   7.57659685
_cell_length_c   9.68583103
_cell_angle_alpha   89.99270035
_cell_angle_beta   90.00246223
_cell_angle_gamma   110.24812921
_symmetry_Int_Tables_number   1
_chemical_formula_structural   Li2Co(CO3)2
_chemical_formula_sum   'Li8 Co4 C8 O24'
_cell_volume   546.30851170
_cell_formula_units_Z   4
loop_
 _symmetry_equiv_pos_site_id
 _symmetry_equiv_pos_as_xyz
  1  'x, y, z'
loop_
 _atom_site_type_symbol
 _atom_site_label
 _atom_site_symmetry_multiplicity
 _atom_site_fract_x
 _atom_site_fract_y
 _atom_site_fract_z
 _atom_site_occupancy
  Li  Li0  1  0.98463937  0.31490707  0.86930012  1
  Li  Li1  1  0.85211754  0.67192405  0.82324881  1
  Li  Li2  1  0.51534352  0.18511071  0.36925718  1
  Li  Li3  1  0.64795354  0.82814718  0.32325191  1
  Li  Li4  1  0.45237903  0.72443206  0.63310503  1
  Li  Li5  1  0.15645253  0.46725675  0.12734610  1
  Li  Li6  1  0.34350817  0.03275670  0.62726444  1
  Li  Li7  1  0.04775481  0.77567952  0.13304496  1
  Co  Co8  1  0.43477694  0.94081661  0.11295823  1
  Co  Co9  1  0.06512134  0.55893139  0.61285990  1
  Co  Co10  1  0.93348631  0.42467650  0.37146253  1
  Co  Co11  1  0.56637999  0.07525782  0.87153388  1
  C  C12  1  0.75698938  0.29551295  0.10685269  1
  C  C13  1  0.74305168  0.20452390  0.60685510  1
  C  C14  1  0.77234590  0.67357219  0.51072309  1
  C  C15  1  0.72772751  0.82641693  0.01077401  1
  C  C16  1  0.25490695  0.16902139  0.99665710  1
  C  C17  1  0.24503148  0.33108053  0.49656546  1
  C  C18  1  0.27381207  0.78657706  0.37865701  1
  C  C19  1  0.22606879  0.71331512  0.87872204  1
  O  O20  1  0.90066454  0.40731354  0.16581117  1
  O  O21  1  0.88559685  0.29142550  0.67810842  1
  O  O22  1  0.73808395  0.22685394  0.47402121  1
  O  O23  1  0.76189002  0.27312006  0.97411230  1
  O  O24  1  0.61443049  0.20860192  0.17822169  1
  O  O25  1  0.59937670  0.09276920  0.66580439  1
  O  O26  1  0.85596794  0.65079732  0.62249857  1
  O  O27  1  0.80982296  0.61767838  0.39163158  1
  O  O28  1  0.84531872  0.74549030  0.01685666  1
  O  O29  1  0.65474888  0.75445897  0.51677033  1
  O  O30  1  0.69021964  0.88230607  0.89175086  1
  O  O31  1  0.64414197  0.84921823  0.12261047  1
  O  O32  1  0.36832160  0.18210087  0.89672199  1
  O  O33  1  0.34363788  0.22779166  0.49750675  1
  O  O34  1  0.23975097  0.04943487  0.09858952  1
  O  O35  1  0.26023151  0.45054316  0.59851486  1
  O  O36  1  0.15643686  0.27230749  0.99764926  1
  O  O37  1  0.13161300  0.31793687  0.39668312  1
  O  O38  1  0.42129745  0.90444837  0.32696077  1
  O  O39  1  0.24950089  0.70985725  0.01191472  1
  O  O40  1  0.34172806  0.82873178  0.79800418  1
  O  O41  1  0.15828901  0.67132912  0.29789725  1
  O  O42  1  0.25036357  0.79002209  0.51183760  1
  O  O43  1  0.07872070  0.59555064  0.82697174  1
