# generated using pymatgen
data_Li6Ni11(OF12)2
_symmetry_space_group_name_H-M   'P 1'
_cell_length_a   7.96501493
_cell_length_b   8.61896882
_cell_length_c   7.97203127
_cell_angle_alpha   106.25872854
_cell_angle_beta   86.48578143
_cell_angle_gamma   106.56191323
_symmetry_Int_Tables_number   1
_chemical_formula_structural   Li6Ni11(OF12)2
_chemical_formula_sum   'Li6 Ni11 O2 F24'
_cell_volume   503.49501716
_cell_formula_units_Z   1
loop_
 _symmetry_equiv_pos_site_id
 _symmetry_equiv_pos_as_xyz
  1  'x, y, z'
loop_
 _atom_site_type_symbol
 _atom_site_label
 _atom_site_symmetry_multiplicity
 _atom_site_fract_x
 _atom_site_fract_y
 _atom_site_fract_z
 _atom_site_occupancy
  Li  Li0  1  0.11160104  0.24766225  0.41974400  1
  Li  Li1  1  0.20406923  0.45350945  0.06010709  1
  Li  Li2  1  0.71279947  0.89790307  0.33806704  1
  Li  Li3  1  0.28318774  0.10888515  0.66229592  1
  Li  Li4  1  0.80080784  0.55833169  0.95730659  1
  Li  Li5  1  0.88983827  0.73642934  0.56319254  1
  Ni  Ni6  1  0.13362403  0.85424690  0.25773035  1
  Ni  Ni7  1  0.22185452  0.74752627  0.84150648  1
  Ni  Ni8  1  0.00423990  0.99817795  0.00938876  1
  Ni  Ni9  1  0.30938606  0.70444088  0.47620025  1
  Ni  Ni10  1  0.45196677  0.52954263  0.70058536  1
  Ni  Ni11  1  0.36995207  0.11857688  0.09093021  1
  Ni  Ni12  1  0.60623124  0.87293353  0.89912714  1
  Ni  Ni13  1  0.54091943  0.47691223  0.29990471  1
  Ni  Ni14  1  0.70091967  0.30870934  0.54130638  1
  Ni  Ni15  1  0.78392168  0.24506675  0.15235004  1
  Ni  Ni16  1  0.86639707  0.15894451  0.75187472  1
  O  O17  1  0.15265958  0.07345916  0.21739320  1
  O  O18  1  0.43657048  0.75578299  0.70448458  1
  F  F19  1  0.00670713  0.75403810  0.99898441  1
  F  F20  1  0.08380040  0.67812124  0.61939670  1
  F  F21  1  0.08481263  0.17420003  0.62584667  1
  F  F22  1  0.16051350  0.62522755  0.25048487  1
  F  F23  1  0.23969961  0.52258391  0.85721788  1
  F  F24  1  0.29466739  0.93125367  0.46712129  1
  F  F25  1  0.38992408  0.88121948  0.06415238  1
  F  F26  1  0.32157910  0.44959787  0.45458843  1
  F  F27  1  0.22662067  0.00714821  0.85970420  1
  F  F28  1  0.38119904  0.35324061  0.09222908  1
  F  F29  1  0.47827020  0.29881661  0.67178673  1
  F  F30  1  0.52301868  0.70429690  0.32175977  1
  F  F31  1  0.62611153  0.64738439  0.90616684  1
  F  F32  1  0.76781531  0.99199642  0.13052859  1
  F  F33  1  0.55822388  0.23213285  0.29457310  1
  F  F34  1  0.68040527  0.54137365  0.53205101  1
  F  F35  1  0.63494358  0.12726335  0.92566457  1
  F  F36  1  0.84879716  0.92007355  0.77789818  1
  F  F37  1  0.70933375  0.07880150  0.54061561  1
  F  F38  1  0.75414585  0.46711643  0.15162266  1
  F  F39  1  0.84328340  0.38648987  0.76316492  1
  F  F40  1  0.90334564  0.82323089  0.37325440  1
  F  F41  1  0.90702356  0.31741181  0.37992412  1
  F  F42  1  0.99481355  0.23994115  0.99776922  1
