# generated using pymatgen
data_VF4
_symmetry_space_group_name_H-M   'P 1'
_cell_length_a   10.88927343
_cell_length_b   5.61234983
_cell_length_c   9.05994090
_cell_angle_alpha   90.00000000
_cell_angle_beta   90.00000000
_cell_angle_gamma   89.99998877
_symmetry_Int_Tables_number   1
_chemical_formula_structural   VF4
_chemical_formula_sum   'V8 F32'
_cell_volume   553.69295980
_cell_formula_units_Z   8
loop_
 _symmetry_equiv_pos_site_id
 _symmetry_equiv_pos_as_xyz
  1  'x, y, z'
loop_
 _atom_site_type_symbol
 _atom_site_label
 _atom_site_symmetry_multiplicity
 _atom_site_fract_x
 _atom_site_fract_y
 _atom_site_fract_z
 _atom_site_occupancy
  V  V0  1  0.04892885  0.79214259  0.10032571  1
  V  V1  1  0.20156176  0.31328538  0.31209403  1
  V  V2  1  0.29843830  0.81328580  0.81209420  1
  V  V3  1  0.45107139  0.29214208  0.60032627  1
  V  V4  1  0.54892861  0.70785792  0.10032627  1
  V  V5  1  0.70156170  0.18671420  0.31209420  1
  V  V6  1  0.79843824  0.68671462  0.81209403  1
  V  V7  1  0.95107115  0.20785741  0.60032571  1
  F  F8  1  0.97004381  0.93865948  0.50564953  1
  F  F9  1  0.04912481  0.34297273  0.44025666  1
  F  F10  1  0.07098338  0.25303066  0.72497933  1
  F  F11  1  0.09820154  0.45745154  0.16326234  1
  F  F12  1  0.13726413  0.98613516  0.25048143  1
  F  F13  1  0.17637817  0.75101125  0.69116211  1
  F  F14  1  0.20517414  0.70870567  0.98431319  1
  F  F15  1  0.26426107  0.10331043  0.87265538  1
  F  F16  1  0.23573883  0.60331009  0.37265561  1
  F  F17  1  0.29482552  0.20870559  0.48431319  1
  F  F18  1  0.32362167  0.25101169  0.19116239  1
  F  F19  1  0.36273597  0.48613529  0.75048133  1
  F  F20  1  0.40179828  0.95745136  0.66326229  1
  F  F21  1  0.42901695  0.75303044  0.22497891  1
  F  F22  1  0.45087512  0.84297320  0.94025658  1
  F  F23  1  0.52995608  0.43865978  0.00564954  1
  F  F24  1  0.47004392  0.56134022  0.50564954  1
  F  F25  1  0.54912488  0.15702680  0.44025658  1
  F  F26  1  0.57098305  0.24696956  0.72497891  1
  F  F27  1  0.59820172  0.04254864  0.16326229  1
  F  F28  1  0.63726403  0.51386471  0.25048133  1
  F  F29  1  0.67637833  0.74898831  0.69116239  1
  F  F30  1  0.70517448  0.79129441  0.98431319  1
  F  F31  1  0.76426117  0.39668991  0.87265561  1
  F  F32  1  0.73573893  0.89668957  0.37265538  1
  F  F33  1  0.79482586  0.29129433  0.48431319  1
  F  F34  1  0.82362183  0.24898875  0.19116211  1
  F  F35  1  0.86273587  0.01386484  0.75048143  1
  F  F36  1  0.90179846  0.54254846  0.66326234  1
  F  F37  1  0.92901662  0.74696934  0.22497933  1
  F  F38  1  0.95087519  0.65702727  0.94025666  1
  F  F39  1  0.02995619  0.06134052  0.00564953  1
