# generated using pymatgen
data_Li5MnCr3O8
_symmetry_space_group_name_H-M   'P 1'
_cell_length_a   6.01291054
_cell_length_b   5.99103194
_cell_length_c   9.94109562
_cell_angle_alpha   89.99985189
_cell_angle_beta   89.99999639
_cell_angle_gamma   60.12034005
_symmetry_Int_Tables_number   1
_chemical_formula_structural   Li5MnCr3O8
_chemical_formula_sum   'Li10 Mn2 Cr6 O16'
_cell_volume   310.51073656
_cell_formula_units_Z   2
loop_
 _symmetry_equiv_pos_site_id
 _symmetry_equiv_pos_as_xyz
  1  'x, y, z'
loop_
 _atom_site_type_symbol
 _atom_site_label
 _atom_site_symmetry_multiplicity
 _atom_site_fract_x
 _atom_site_fract_y
 _atom_site_fract_z
 _atom_site_occupancy
  Li  Li0  1  0.80338748  0.38840250  0.56294019  1
  Li  Li1  1  0.66396992  0.66801667  0.77558068  1
  Li  Li2  1  0.40187910  0.79906273  0.55880042  1
  Li  Li3  1  0.80337891  0.80822240  0.56293935  1
  Li  Li4  1  0.00751286  0.99624855  0.48427010  1
  Li  Li5  1  0.59812301  0.20095039  0.05879490  1
  Li  Li6  1  0.33605085  0.33198395  0.27558352  1
  Li  Li7  1  0.19663325  0.19177325  0.06294667  1
  Li  Li8  1  0.99250401  0.00374917  0.98427314  1
  Li  Li9  1  0.19663134  0.61161110  0.06294596  1
  Mn  Mn10  1  0.33328359  0.33335928  0.52451446  1
  Mn  Mn11  1  0.66673595  0.66663996  0.02451511  1
  Cr  Cr12  1  0.65893011  0.17054393  0.78541111  1
  Cr  Cr13  1  0.83689803  0.33287676  0.28573918  1
  Cr  Cr14  1  0.16312550  0.16976518  0.78574499  1
  Cr  Cr15  1  0.83689322  0.83023640  0.28574166  1
  Cr  Cr16  1  0.16312715  0.66712020  0.78573789  1
  Cr  Cr17  1  0.34108445  0.82946629  0.28540379  1
  O  O18  1  0.83525551  0.32127708  0.89933730  1
  O  O19  1  0.68819405  0.15590774  0.40135398  1
  O  O20  1  0.48963217  0.01346447  0.67053969  1
  O  O21  1  0.99102979  0.50449224  0.17024226  1
  O  O22  1  0.99363436  0.00318808  0.67429051  1
  O  O23  1  0.32873932  0.33563609  0.90006311  1
  O  O24  1  0.83526029  0.84347092  0.89933352  1
  O  O25  1  0.48963523  0.49690936  0.67053699  1
  O  O26  1  0.00639964  0.99680751  0.17428652  1
  O  O27  1  0.16477121  0.15652004  0.39933221  1
  O  O28  1  0.67129583  0.66435918  0.40006161  1
  O  O29  1  0.51039069  0.50308848  0.17053543  1
  O  O30  1  0.00899700  0.49550470  0.67024249  1
  O  O31  1  0.51039412  0.98653827  0.17053492  1
  O  O32  1  0.31182897  0.84408865  0.90136335  1
  O  O33  1  0.16477311  0.67871949  0.39932999  1
