# generated using pymatgen
data_Li4V2OF7
_symmetry_space_group_name_H-M   'P 1'
_cell_length_a   5.96604849
_cell_length_b   6.03524379
_cell_length_c   6.22833311
_cell_angle_alpha   121.25346447
_cell_angle_beta   90.28190308
_cell_angle_gamma   60.61563547
_symmetry_Int_Tables_number   1
_chemical_formula_structural   Li4V2OF7
_chemical_formula_sum   'Li4 V2 O1 F7'
_cell_volume   157.39026781
_cell_formula_units_Z   1
loop_
 _symmetry_equiv_pos_site_id
 _symmetry_equiv_pos_as_xyz
  1  'x, y, z'
loop_
 _atom_site_type_symbol
 _atom_site_label
 _atom_site_symmetry_multiplicity
 _atom_site_fract_x
 _atom_site_fract_y
 _atom_site_fract_z
 _atom_site_occupancy
  Li  Li0  1  0.00143722  0.99691801  0.49729981  1
  Li  Li1  1  0.51185875  0.98270512  0.49224859  1
  Li  Li2  1  0.10933929  0.25106420  0.11846672  1
  Li  Li3  1  0.87494407  0.76931662  0.89020101  1
  V  V4  1  0.50772945  0.50183939  0.49677426  1
  V  V5  1  0.51560485  0.49994118  0.01171065  1
  O  O6  1  0.71462812  0.50268016  0.24125474  1
  F  F7  1  0.73462107  0.02452336  0.74570180  1
  F  F8  1  0.74436320  0.00957003  0.27593143  1
  F  F9  1  0.27908805  0.49057622  0.75439432  1
  F  F10  1  0.74693148  0.49151436  0.75286913  1
  F  F11  1  0.25534961  0.51111325  0.25018588  1
  F  F12  1  0.25561916  0.97450473  0.24408791  1
  F  F13  1  0.24848467  0.99373338  0.72887474  1
