# generated using pymatgen
data_Ti3Te
_symmetry_space_group_name_H-M   'P 1'
_cell_length_a   5.81917954
_cell_length_b   5.81917839
_cell_length_c   4.81887194
_cell_angle_alpha   90.00000000
_cell_angle_beta   90.00000000
_cell_angle_gamma   119.99999453
_symmetry_Int_Tables_number   1
_chemical_formula_structural   Ti3Te
_chemical_formula_sum   'Ti6 Te2'
_cell_volume   141.31864619
_cell_formula_units_Z   2
loop_
 _symmetry_equiv_pos_site_id
 _symmetry_equiv_pos_as_xyz
  1  'x, y, z'
loop_
 _atom_site_type_symbol
 _atom_site_label
 _atom_site_symmetry_multiplicity
 _atom_site_fract_x
 _atom_site_fract_y
 _atom_site_fract_z
 _atom_site_occupancy
  Ti  Ti0  1  0.16110705  0.32221409  0.25000100  1
  Ti  Ti1  1  0.67778591  0.83889395  0.25000100  1
  Ti  Ti2  1  0.16110805  0.83889395  0.25000100  1
  Ti  Ti3  1  0.83889295  0.67778691  0.75000100  1
  Ti  Ti4  1  0.32221409  0.16110705  0.75000100  1
  Ti  Ti5  1  0.83889195  0.16110705  0.75000100  1
  Te  Te6  1  0.33333300  0.66666600  0.75000100  1
  Te  Te7  1  0.66666600  0.33333300  0.25000100  1
