# generated using pymatgen
data_Mn2Fe3Ni(PO4)6
_symmetry_space_group_name_H-M   'P 1'
_cell_length_a   8.58175549
_cell_length_b   8.58175510
_cell_length_c   8.58175530
_cell_angle_alpha   60.74851881
_cell_angle_beta   60.74852143
_cell_angle_gamma   60.74852334
_symmetry_Int_Tables_number   1
_chemical_formula_structural   Mn2Fe3Ni(PO4)6
_chemical_formula_sum   'Mn2 Fe3 Ni1 P6 O24'
_cell_volume   454.45077959
_cell_formula_units_Z   1
loop_
 _symmetry_equiv_pos_site_id
 _symmetry_equiv_pos_as_xyz
  1  'x, y, z'
loop_
 _atom_site_type_symbol
 _atom_site_label
 _atom_site_symmetry_multiplicity
 _atom_site_fract_x
 _atom_site_fract_y
 _atom_site_fract_z
 _atom_site_occupancy
  Mn  Mn0  1  0.99908428  0.99908428  0.99908428  1
  Mn  Mn1  1  0.49965870  0.49965870  0.49965870  1
  Fe  Fe2  1  0.14532842  0.14532842  0.14532842  1
  Fe  Fe3  1  0.35380636  0.35380636  0.35380636  1
  Fe  Fe4  1  0.64549221  0.64549221  0.64549221  1
  Ni  Ni5  1  0.85656460  0.85656460  0.85656460  1
  P  P6  1  0.04554665  0.75008680  0.45465669  1
  P  P7  1  0.45465669  0.04554665  0.75008680  1
  P  P8  1  0.75008680  0.45465669  0.04554665  1
  P  P9  1  0.24962822  0.54580523  0.95401908  1
  P  P10  1  0.54580523  0.95401908  0.24962822  1
  P  P11  1  0.95401908  0.24962822  0.54580523  1
  O  O12  1  0.10871309  0.31922506  0.50324384  1
  O  O13  1  0.31922506  0.50324384  0.10871309  1
  O  O14  1  0.05902210  0.90970324  0.25641773  1
  O  O15  1  0.50324384  0.10871309  0.31922506  1
  O  O16  1  0.01255842  0.81504922  0.60711521  1
  O  O17  1  0.24358592  0.59034703  0.43597072  1
  O  O18  1  0.25641773  0.05902210  0.90970324  1
  O  O19  1  0.43597072  0.24358592  0.59034703  1
  O  O20  1  0.18094091  0.39112587  0.99587080  1
  O  O21  1  0.59034703  0.43597072  0.24358592  1
  O  O22  1  0.09150641  0.74276074  0.94179247  1
  O  O23  1  0.39112587  0.99587080  0.18094091  1
  O  O24  1  0.60711521  0.01255842  0.81504922  1
  O  O25  1  0.90970324  0.25641773  0.05902210  1
  O  O26  1  0.40955732  0.55921222  0.75730142  1
  O  O27  1  0.81504922  0.60711521  0.01255842  1
  O  O28  1  0.55921222  0.75730142  0.40955732  1
  O  O29  1  0.74276074  0.94179247  0.09150641  1
  O  O30  1  0.75730142  0.40955732  0.55921222  1
  O  O31  1  0.99587080  0.18094091  0.39112587  1
  O  O32  1  0.49593009  0.89016871  0.68320223  1
  O  O33  1  0.94179247  0.09150641  0.74276074  1
  O  O34  1  0.68320223  0.49593009  0.89016871  1
  O  O35  1  0.89016871  0.68320223  0.49593009  1
