# generated using pymatgen
data_VF5
_symmetry_space_group_name_H-M   'P 1'
_cell_length_a   7.73225218
_cell_length_b   5.18373260
_cell_length_c   10.23964619
_cell_angle_alpha   89.51330241
_cell_angle_beta   146.17867576
_cell_angle_gamma   109.96167921
_symmetry_Int_Tables_number   1
_chemical_formula_structural   VF5
_chemical_formula_sum   'V2 F10'
_cell_volume   182.63069420
_cell_formula_units_Z   2
loop_
 _symmetry_equiv_pos_site_id
 _symmetry_equiv_pos_as_xyz
  1  'x, y, z'
loop_
 _atom_site_type_symbol
 _atom_site_label
 _atom_site_symmetry_multiplicity
 _atom_site_fract_x
 _atom_site_fract_y
 _atom_site_fract_z
 _atom_site_occupancy
  V  V0  1  0.00501155  0.50512010  0.50342369  1
  V  V1  1  0.00452633  0.99541830  0.00343262  1
  F  F2  1  0.07538782  0.38338667  0.69963890  1
  F  F3  1  0.24110631  0.90190788  0.71019171  1
  F  F4  1  0.77236586  0.11168196  0.29504221  1
  F  F5  1  0.07521015  0.18158325  0.19989321  1
  F  F6  1  0.50000979  0.61691521  0.75080935  1
  F  F7  1  0.92138821  0.62694201  0.30127762  1
  F  F8  1  0.23607553  0.82760207  0.20799589  1
  F  F9  1  0.77439989  0.16089259  0.79757746  1
  F  F10  1  0.50204986  0.37843939  0.25349086  1
  F  F11  1  0.92565171  0.79932959  0.80341949  1
