# generated using pymatgen
data_Mg14TiMn
_symmetry_space_group_name_H-M   'P 1'
_cell_length_a   6.31855688
_cell_length_b   6.31855637
_cell_length_c   10.05472358
_cell_angle_alpha   90.00000000
_cell_angle_beta   90.00000000
_cell_angle_gamma   120.00000264
_symmetry_Int_Tables_number   1
_chemical_formula_structural   Mg14TiMn
_chemical_formula_sum   'Mg14 Ti1 Mn1'
_cell_volume   347.64542610
_cell_formula_units_Z   1
loop_
 _symmetry_equiv_pos_site_id
 _symmetry_equiv_pos_as_xyz
  1  'x, y, z'
loop_
 _atom_site_type_symbol
 _atom_site_label
 _atom_site_symmetry_multiplicity
 _atom_site_fract_x
 _atom_site_fract_y
 _atom_site_fract_z
 _atom_site_occupancy
  Mg  Mg0  1  0.16717640  0.83358770  0.12500000  1
  Mg  Mg1  1  0.17041233  0.83520566  0.62500000  1
  Mg  Mg2  1  0.66641230  0.33282360  0.12500000  1
  Mg  Mg3  1  0.66479434  0.32958767  0.62500000  1
  Mg  Mg4  1  0.66641230  0.83358770  0.12500000  1
  Mg  Mg5  1  0.66479434  0.83520566  0.62500000  1
  Mg  Mg6  1  0.32852366  0.17147634  0.37372695  1
  Mg  Mg7  1  0.32852366  0.17147634  0.87627305  1
  Mg  Mg8  1  0.32852366  0.65704831  0.37372695  1
  Mg  Mg9  1  0.32852366  0.65704831  0.87627305  1
  Mg  Mg10  1  0.84295169  0.17147634  0.37372695  1
  Mg  Mg11  1  0.84295169  0.17147634  0.87627305  1
  Mg  Mg12  1  0.83333300  0.66666700  0.37650991  1
  Mg  Mg13  1  0.83333300  0.66666700  0.87349009  1
  Ti  Ti14  1  0.16666700  0.33333300  0.62500000  1
  Mn  Mn15  1  0.16666700  0.33333300  0.12500000  1
