# generated using pymatgen
data_LaCeMg6
_symmetry_space_group_name_H-M   'P 1'
_cell_length_a   6.81480839
_cell_length_b   6.68477695
_cell_length_c   5.39997298
_cell_angle_alpha   90.00000000
_cell_angle_beta   90.00000000
_cell_angle_gamma   119.37080297
_symmetry_Int_Tables_number   1
_chemical_formula_structural   LaCeMg6
_chemical_formula_sum   'La1 Ce1 Mg6'
_cell_volume   214.37865228
_cell_formula_units_Z   1
loop_
 _symmetry_equiv_pos_site_id
 _symmetry_equiv_pos_as_xyz
  1  'x, y, z'
loop_
 _atom_site_type_symbol
 _atom_site_label
 _atom_site_symmetry_multiplicity
 _atom_site_fract_x
 _atom_site_fract_y
 _atom_site_fract_z
 _atom_site_occupancy
  La  La0  1  0.17194810  0.33597355  0.25000000  1
  Ce  Ce1  1  0.16969054  0.83484477  0.25000000  1
  Mg  Mg2  1  0.66539559  0.33268024  0.25000000  1
  Mg  Mg3  1  0.66539559  0.83271435  0.25000000  1
  Mg  Mg4  1  0.34223659  0.16636163  0.75000000  1
  Mg  Mg5  1  0.34223659  0.67587596  0.75000000  1
  Mg  Mg6  1  0.81860200  0.15930150  0.75000000  1
  Mg  Mg7  1  0.82449500  0.66224800  0.75000000  1
