# generated using pymatgen
data_Cr(SO4)2
_symmetry_space_group_name_H-M   'P 1'
_cell_length_a   8.89670412
_cell_length_b   8.89670408
_cell_length_c   8.89670358
_cell_angle_alpha   56.00400848
_cell_angle_beta   56.00400597
_cell_angle_gamma   56.00400618
_symmetry_Int_Tables_number   1
_chemical_formula_structural   Cr(SO4)2
_chemical_formula_sum   'Cr3 S6 O24'
_cell_volume   451.83903946
_cell_formula_units_Z   3
loop_
 _symmetry_equiv_pos_site_id
 _symmetry_equiv_pos_as_xyz
  1  'x, y, z'
loop_
 _atom_site_type_symbol
 _atom_site_label
 _atom_site_symmetry_multiplicity
 _atom_site_fract_x
 _atom_site_fract_y
 _atom_site_fract_z
 _atom_site_occupancy
  Cr  Cr0  1  0.35552946  0.35552946  0.35552946  1
  Cr  Cr1  1  0.64507565  0.64507565  0.64507565  1
  Cr  Cr2  1  0.84980903  0.84980903  0.84980903  1
  S  S3  1  0.03777482  0.74552520  0.46880447  1
  S  S4  1  0.46880447  0.03777482  0.74552520  1
  S  S5  1  0.74552520  0.46880447  0.03777482  1
  S  S6  1  0.25362762  0.53589628  0.95973685  1
  S  S7  1  0.53589628  0.95973685  0.25362762  1
  S  S8  1  0.95973685  0.25362762  0.53589628  1
  O  O9  1  0.11084569  0.29584355  0.51639999  1
  O  O10  1  0.29584355  0.51639999  0.11084569  1
  O  O11  1  0.00137159  0.94527583  0.33777531  1
  O  O12  1  0.51639999  0.11084569  0.29584355  1
  O  O13  1  0.02239528  0.71356797  0.66080443  1
  O  O14  1  0.23222600  0.60951845  0.39054786  1
  O  O15  1  0.39054786  0.23222600  0.60951845  1
  O  O16  1  0.33777531  0.00137159  0.94527583  1
  O  O17  1  0.60951845  0.39054786  0.23222600  1
  O  O18  1  0.05161251  0.67825866  0.97844596  1
  O  O19  1  0.28680213  0.35182404  0.96754199  1
  O  O20  1  0.35182404  0.96754199  0.28680213  1
  O  O21  1  0.66080443  0.02239528  0.71356797  1
  O  O22  1  0.71356797  0.66080443  0.02239528  1
  O  O23  1  0.94527583  0.33777531  0.00137159  1
  O  O24  1  0.38705013  0.62592596  0.76179710  1
  O  O25  1  0.67825866  0.97844596  0.05161251  1
  O  O26  1  0.62592596  0.76179710  0.38705013  1
  O  O27  1  0.76179710  0.38705013  0.62592596  1
  O  O28  1  0.96754199  0.28680213  0.35182404  1
  O  O29  1  0.50095371  0.89307396  0.68072055  1
  O  O30  1  0.97844596  0.05161251  0.67825866  1
  O  O31  1  0.68072055  0.50095371  0.89307396  1
  O  O32  1  0.89307396  0.68072055  0.50095371  1
