# generated using pymatgen
data_Li2Mn(PO4)2
_symmetry_space_group_name_H-M   'P 1'
_cell_length_a   4.98234050
_cell_length_b   7.05153248
_cell_length_c   4.65311598
_cell_angle_alpha   98.27178071
_cell_angle_beta   116.63905001
_cell_angle_gamma   88.94603015
_symmetry_Int_Tables_number   1
_chemical_formula_structural   Li2Mn(PO4)2
_chemical_formula_sum   'Li2 Mn1 P2 O8'
_cell_volume   144.40832508
_cell_formula_units_Z   1
loop_
 _symmetry_equiv_pos_site_id
 _symmetry_equiv_pos_as_xyz
  1  'x, y, z'
loop_
 _atom_site_type_symbol
 _atom_site_label
 _atom_site_symmetry_multiplicity
 _atom_site_fract_x
 _atom_site_fract_y
 _atom_site_fract_z
 _atom_site_occupancy
  Li  Li0  1  0.21507945  0.15328830  0.71588149  1
  Li  Li1  1  0.78492055  0.84671170  0.28411851  1
  Mn  Mn2  1  0.50000000  0.50000000  0.50000000  1
  P  P3  1  0.15336981  0.71212105  0.89439871  1
  P  P4  1  0.84663019  0.28787895  0.10560129  1
  O  O5  1  0.14093738  0.89800987  0.76511023  1
  O  O6  1  0.26211293  0.54781543  0.71992782  1
  O  O7  1  0.16606689  0.34431232  0.14304765  1
  O  O8  1  0.37513630  0.73178888  0.26888472  1
  O  O9  1  0.62486370  0.26821112  0.73111528  1
  O  O10  1  0.83393311  0.65568768  0.85695235  1
  O  O11  1  0.73788707  0.45218457  0.28007218  1
  O  O12  1  0.85906262  0.10199013  0.23488977  1
