# generated using pymatgen
data_Li7CrFe3(PO4)6
_symmetry_space_group_name_H-M   'P 1'
_cell_length_a   8.83026273
_cell_length_b   8.83212633
_cell_length_c   8.79004490
_cell_angle_alpha   59.78653097
_cell_angle_beta   59.78616373
_cell_angle_gamma   59.99360619
_symmetry_Int_Tables_number   1
_chemical_formula_structural   Li7CrFe3(PO4)6
_chemical_formula_sum   'Li7 Cr1 Fe3 P6 O24'
_cell_volume   483.15232396
_cell_formula_units_Z   1
loop_
 _symmetry_equiv_pos_site_id
 _symmetry_equiv_pos_as_xyz
  1  'x, y, z'
loop_
 _atom_site_type_symbol
 _atom_site_label
 _atom_site_symmetry_multiplicity
 _atom_site_fract_x
 _atom_site_fract_y
 _atom_site_fract_z
 _atom_site_occupancy
  Li  Li0  1  0.16382315  0.70616612  0.78408018  1
  Li  Li1  1  0.34635802  0.16772216  0.78297386  1
  Li  Li2  1  0.70765397  0.34463548  0.78331986  1
  Li  Li3  1  0.52012597  0.52065266  0.43852212  1
  Li  Li4  1  0.19744591  0.75524543  0.10758940  1
  Li  Li5  1  0.75363044  0.94070672  0.10761006  1
  Li  Li6  1  0.94032679  0.19819660  0.10730547  1
  Cr  Cr7  1  0.85532177  0.85509170  0.43406155  1
  Fe  Fe8  1  0.34879320  0.34891463  0.95516566  1
  Fe  Fe9  1  0.14611731  0.14567314  0.56191456  1
  Fe  Fe10  1  0.64634945  0.64690548  0.05979414  1
  P  P11  1  0.04270458  0.46164285  0.74601010  1
  P  P12  1  0.46153363  0.74898282  0.74660233  1
  P  P13  1  0.74953381  0.04252982  0.74606532  1
  P  P14  1  0.24785318  0.95357704  0.25180468  1
  P  P15  1  0.54720798  0.24759900  0.25186617  1
  P  P16  1  0.95281523  0.54697205  0.25216502  1
  O  O17  1  0.09274943  0.26442075  0.74616858  1
  O  O18  1  0.99900339  0.62160826  0.57628151  1
  O  O19  1  0.21452306  0.46163036  0.75303499  1
  O  O20  1  0.47118946  0.72360403  0.93217094  1
  O  O21  1  0.26453872  0.89613213  0.74588693  1
  O  O22  1  0.46144143  0.56992494  0.75446324  1
  O  O23  1  0.72276982  0.87320873  0.93216061  1
  O  O24  1  0.57134247  0.21490686  0.75261522  1
  O  O25  1  0.19363330  0.99427748  0.42594600  1
  O  O26  1  0.08418802  0.92973278  0.24832637  1
  O  O27  1  0.87279076  0.47194270  0.93169416  1
  O  O28  1  0.38577269  0.19347214  0.42527457  1
  O  O29  1  0.62236687  0.80121771  0.57698969  1
  O  O30  1  0.11551608  0.53517405  0.06819054  1
  O  O31  1  0.89734526  0.09172357  0.74595588  1
  O  O32  1  0.80246308  0.99814276  0.57706450  1
  O  O33  1  0.41570686  0.77093811  0.25025297  1
  O  O34  1  0.28128297  0.11665468  0.06821756  1
  O  O35  1  0.56224754  0.41615060  0.25029282  1
  O  O36  1  0.73819486  0.08428064  0.24937992  1
  O  O37  1  0.53669523  0.27947303  0.06775682  1
  O  O38  1  0.99423384  0.38579274  0.42598284  1
  O  O39  1  0.77029772  0.56280510  0.25072760  1
  O  O40  1  0.92864177  0.73810717  0.24871528  1
