# generated using pymatgen
data_LiV2O2F3
_symmetry_space_group_name_H-M   'P 1'
_cell_length_a   3.95895520
_cell_length_b   5.36821574
_cell_length_c   10.14719083
_cell_angle_alpha   89.85177034
_cell_angle_beta   89.97862024
_cell_angle_gamma   68.33262877
_symmetry_Int_Tables_number   1
_chemical_formula_structural   LiV2O2F3
_chemical_formula_sum   'Li2 V4 O4 F6'
_cell_volume   200.41529491
_cell_formula_units_Z   2
loop_
 _symmetry_equiv_pos_site_id
 _symmetry_equiv_pos_as_xyz
  1  'x, y, z'
loop_
 _atom_site_type_symbol
 _atom_site_label
 _atom_site_symmetry_multiplicity
 _atom_site_fract_x
 _atom_site_fract_y
 _atom_site_fract_z
 _atom_site_occupancy
  Li  Li0  1  0.12733318  0.73804071  0.05318372  1
  Li  Li1  1  0.86450163  0.26430559  0.94501755  1
  V  V2  1  0.13664900  0.72511283  0.44476095  1
  V  V3  1  0.18732157  0.62266248  0.74356002  1
  V  V4  1  0.80938086  0.37941510  0.25476564  1
  V  V5  1  0.86132714  0.27653980  0.55367807  1
  O  O6  1  0.04058622  0.91703255  0.61873389  1
  O  O7  1  0.69289897  0.61275825  0.42102660  1
  O  O8  1  0.30495951  0.38863103  0.57752199  1
  O  O9  1  0.95835955  0.08468030  0.37951125  1
  F  F10  1  0.04789980  0.90258385  0.87919366  1
  F  F11  1  0.69044156  0.61714978  0.09551536  1
  F  F12  1  0.26099441  0.47619450  0.25973635  1
  F  F13  1  0.73492080  0.52767276  0.73868464  1
  F  F14  1  0.30656408  0.38391762  0.90225895  1
  F  F15  1  0.94840673  0.09964185  0.11897636  1
