# generated using pymatgen
data_Li2Ni3O3F2
_symmetry_space_group_name_H-M   'P 1'
_cell_length_a   2.95361470
_cell_length_b   2.95361470
_cell_length_c   10.70394116
_cell_angle_alpha   97.93031257
_cell_angle_beta   82.06968743
_cell_angle_gamma   90.00000000
_symmetry_Int_Tables_number   1
_chemical_formula_structural   Li2Ni3O3F2
_chemical_formula_sum   'Li2 Ni3 O3 F2'
_cell_volume   91.58471157
_cell_formula_units_Z   1
loop_
 _symmetry_equiv_pos_site_id
 _symmetry_equiv_pos_as_xyz
  1  'x, y, z'
loop_
 _atom_site_type_symbol
 _atom_site_label
 _atom_site_symmetry_multiplicity
 _atom_site_fract_x
 _atom_site_fract_y
 _atom_site_fract_z
 _atom_site_occupancy
  Li  Li0  1  0.20050644  0.79949356  0.59898613  1
  Li  Li1  1  0.59949356  0.40050644  0.80101387  1
  Ni  Ni2  1  0.00015107  0.99984893  0.99969786  1
  Ni  Ni3  1  0.40000000  0.60000000  0.20000000  1
  Ni  Ni4  1  0.79984893  0.20015107  0.40030214  1
  O  O5  1  0.50152629  0.49847371  0.99694642  1
  O  O6  1  0.90000000  0.10000000  0.20000000  1
  O  O7  1  0.29847371  0.70152729  0.40305358  1
  F  F8  1  0.69680822  0.30319178  0.60638257  1
  F  F9  1  0.10319178  0.89680822  0.79361743  1
