# generated using pymatgen
data_Mn6O5F7
_symmetry_space_group_name_H-M   'P 1'
_cell_length_a   7.15261279
_cell_length_b   5.79116015
_cell_length_c   5.71587972
_cell_angle_alpha   76.21632170
_cell_angle_beta   73.87602691
_cell_angle_gamma   74.27945225
_symmetry_Int_Tables_number   1
_chemical_formula_structural   Mn6O5F7
_chemical_formula_sum   'Mn6 O5 F7'
_cell_volume   215.51281617
_cell_formula_units_Z   1
loop_
 _symmetry_equiv_pos_site_id
 _symmetry_equiv_pos_as_xyz
  1  'x, y, z'
loop_
 _atom_site_type_symbol
 _atom_site_label
 _atom_site_symmetry_multiplicity
 _atom_site_fract_x
 _atom_site_fract_y
 _atom_site_fract_z
 _atom_site_occupancy
  Mn  Mn0  1  0.83162688  0.66112727  0.68679380  1
  Mn  Mn1  1  0.66880882  0.37228548  0.33026600  1
  Mn  Mn2  1  0.32949883  0.64735402  0.65309836  1
  Mn  Mn3  1  0.16312292  0.33210771  0.33145524  1
  Mn  Mn4  1  0.51016342  0.98582065  0.99491676  1
  Mn  Mn5  1  0.99745164  0.99334725  0.00740249  1
  O  O6  1  0.62422302  0.57506486  0.57247415  1
  O  O7  1  0.95850741  0.24760171  0.23439304  1
  O  O8  1  0.04364367  0.74874211  0.76998658  1
  O  O9  1  0.37132008  0.43783626  0.41836112  1
  O  O10  1  0.67053291  0.67168141  0.02139749  1
  F  F11  1  0.66314308  0.04683335  0.64184630  1
  F  F12  1  0.33882380  0.32422797  0.97159025  1
  F  F13  1  0.30851882  0.87151481  0.88602003  1
  F  F14  1  0.68956954  0.13167880  0.11427701  1
  F  F15  1  0.33181848  0.97086397  0.34701525  1
  F  F16  1  0.00778278  0.28992431  0.69219835  1
  F  F17  1  0.99144492  0.69198605  0.32650579  1
