# generated using pymatgen
data_Li3Mn4O8
_symmetry_space_group_name_H-M   'P 1'
_cell_length_a   11.97668315
_cell_length_b   8.82792971
_cell_length_c   10.16435078
_cell_angle_alpha   64.20663907
_cell_angle_beta   30.45412550
_cell_angle_gamma   42.54754474
_symmetry_Int_Tables_number   1
_chemical_formula_structural   Li3Mn4O8
_chemical_formula_sum   'Li6 Mn8 O16'
_cell_volume   299.14748921
_cell_formula_units_Z   2
loop_
 _symmetry_equiv_pos_site_id
 _symmetry_equiv_pos_as_xyz
  1  'x, y, z'
loop_
 _atom_site_type_symbol
 _atom_site_label
 _atom_site_symmetry_multiplicity
 _atom_site_fract_x
 _atom_site_fract_y
 _atom_site_fract_z
 _atom_site_occupancy
  Li  Li0  1  0.49743322  0.98991539  0.50056588  1
  Li  Li1  1  0.24626445  0.00521127  0.50226693  1
  Li  Li2  1  0.24773816  0.50030550  0.50077799  1
  Li  Li3  1  0.99928970  0.01036169  0.49965731  1
  Li  Li4  1  0.74876293  0.99579065  0.49868211  1
  Li  Li5  1  0.74750635  0.50186662  0.50046650  1
  Mn  Mn6  1  0.74699510  0.00192315  0.00099088  1
  Mn  Mn7  1  0.99824669  0.50012953  0.50014667  1
  Mn  Mn8  1  0.50047855  0.00147419  0.99701747  1
  Mn  Mn9  1  0.24589549  0.00240768  0.00181607  1
  Mn  Mn10  1  0.49572025  0.50288000  0.00289213  1
  Mn  Mn11  1  0.99928947  0.49974094  0.99837955  1
  Mn  Mn12  1  0.99478352  0.00174734  0.00384551  1
  Mn  Mn13  1  0.49763879  0.50213295  0.50077805  1
  O  O14  1  0.00884610  0.75781288  0.97796972  1
  O  O15  1  0.75331796  0.77623253  0.00108534  1
  O  O16  1  0.27830641  0.24090174  0.45955388  1
  O  O17  1  0.51100635  0.75675034  0.97608253  1
  O  O18  1  0.51460762  0.72037212  0.48295262  1
  O  O19  1  0.74178682  0.22709342  0.00005021  1
  O  O20  1  0.21627834  0.76223225  0.54203306  1
  O  O21  1  0.01461057  0.71525419  0.48305001  1
  O  O22  1  0.48397141  0.24655510  0.02529788  1
  O  O23  1  0.71671051  0.75996701  0.54163823  1
  O  O24  1  0.24437303  0.22552445  0.99690858  1
  O  O25  1  0.98005205  0.28425988  0.51860863  1
  O  O26  1  0.77854905  0.24338119  0.45934172  1
  O  O27  1  0.25047488  0.77703281  0.00452674  1
  O  O28  1  0.48073394  0.28632142  0.51793006  1
  O  O29  1  0.98571729  0.24503179  0.02382272  1
