# generated using pymatgen
data_Li3SiNi3O8
_symmetry_space_group_name_H-M   'P 1'
_cell_length_a   5.16754757
_cell_length_b   5.50389799
_cell_length_c   5.05744485
_cell_angle_alpha   90.00000265
_cell_angle_beta   68.36692582
_cell_angle_gamma   89.99999991
_symmetry_Int_Tables_number   1
_chemical_formula_structural   Li3SiNi3O8
_chemical_formula_sum   'Li3 Si1 Ni3 O8'
_cell_volume   133.71041370
_cell_formula_units_Z   1
loop_
 _symmetry_equiv_pos_site_id
 _symmetry_equiv_pos_as_xyz
  1  'x, y, z'
loop_
 _atom_site_type_symbol
 _atom_site_label
 _atom_site_symmetry_multiplicity
 _atom_site_fract_x
 _atom_site_fract_y
 _atom_site_fract_z
 _atom_site_occupancy
  Li  Li0  1  0.00000000  0.50000000  0.00000000  1
  Li  Li1  1  0.00000000  0.24459318  0.50000000  1
  Li  Li2  1  0.00000000  0.75540682  0.50000000  1
  Si  Si3  1  0.50000000  0.00000000  0.50000000  1
  Ni  Ni4  1  0.50000000  0.24786485  0.00000000  1
  Ni  Ni5  1  0.50000000  0.75213515  1.00000000  1
  Ni  Ni6  1  0.50000000  0.50000000  0.50000000  1
  O  O7  1  0.30370974  0.00000000  0.26436047  1
  O  O8  1  0.27764273  0.50000000  0.22512492  1
  O  O9  1  0.71415579  0.23849822  0.28803940  1
  O  O10  1  0.28584421  0.23849822  0.71196060  1
  O  O11  1  0.71415579  0.76150178  0.28803940  1
  O  O12  1  0.69629026  0.00000000  0.73563953  1
  O  O13  1  0.72235727  0.50000000  0.77487508  1
  O  O14  1  0.28584421  0.76150178  0.71196060  1
