# generated using pymatgen
data_Li4Ti2Fe3Cu3O16
_symmetry_space_group_name_H-M   'P 1'
_cell_length_a   5.91861399
_cell_length_b   5.93202298
_cell_length_c   9.56284137
_cell_angle_alpha   90.00644033
_cell_angle_beta   89.54120833
_cell_angle_gamma   120.01127511
_symmetry_Int_Tables_number   1
_chemical_formula_structural   Li4Ti2Fe3Cu3O16
_chemical_formula_sum   'Li4 Ti2 Fe3 Cu3 O16'
_cell_volume   290.71856003
_cell_formula_units_Z   1
loop_
 _symmetry_equiv_pos_site_id
 _symmetry_equiv_pos_as_xyz
  1  'x, y, z'
loop_
 _atom_site_type_symbol
 _atom_site_label
 _atom_site_symmetry_multiplicity
 _atom_site_fract_x
 _atom_site_fract_y
 _atom_site_fract_z
 _atom_site_occupancy
  Li  Li0  1  0.32636939  0.66291812  0.89764266  1
  Li  Li1  1  0.00066712  0.00003398  0.99583610  1
  Li  Li2  1  0.00766153  0.00410160  0.49107048  1
  Li  Li3  1  0.66665275  0.33348045  0.39524302  1
  Ti  Ti4  1  0.34088634  0.67047488  0.49783449  1
  Ti  Ti5  1  0.67414285  0.33698090  0.99607414  1
  Fe  Fe6  1  0.65935511  0.82966770  0.21668433  1
  Fe  Fe7  1  0.83102210  0.65944697  0.71637140  1
  Fe  Fe8  1  0.83106851  0.17166861  0.71633778  1
  Cu  Cu9  1  0.17585215  0.83316898  0.21438222  1
  Cu  Cu10  1  0.17574312  0.34266205  0.21453147  1
  Cu  Cu11  1  0.34066098  0.17031423  0.71278159  1
  O  O12  1  0.16239528  0.82909530  0.59209819  1
  O  O13  1  0.04557372  0.52260779  0.34238743  1
  O  O14  1  0.32389094  0.66193215  0.11005222  1
  O  O15  1  0.01265810  0.00635565  0.30092696  1
  O  O16  1  0.01528984  0.00746341  0.80511108  1
  O  O17  1  0.16255442  0.33368392  0.59218533  1
  O  O18  1  0.48398219  0.96363553  0.34557206  1
  O  O19  1  0.48426029  0.52080408  0.34560443  1
  O  O20  1  0.32779805  0.16411566  0.09344754  1
  O  O21  1  0.66294738  0.83161765  0.59318469  1
  O  O22  1  0.51691128  0.48014723  0.84331493  1
  O  O23  1  0.51694432  0.03653926  0.84336143  1
  O  O24  1  0.65522214  0.32777808  0.60694157  1
  O  O25  1  0.81915712  0.65990358  0.09232743  1
  O  O26  1  0.96132287  0.48060462  0.84438129  1
  O  O27  1  0.81900908  0.15909663  0.09215272  1
