# generated using pymatgen
data_LiFePO4
_symmetry_space_group_name_H-M   'P 1'
_cell_length_a   7.70809435
_cell_length_b   13.88989867
_cell_length_c   5.88721701
_cell_angle_alpha   90.00000000
_cell_angle_beta   90.00000000
_cell_angle_gamma   90.00000000
_symmetry_Int_Tables_number   1
_chemical_formula_structural   LiFePO4
_chemical_formula_sum   'Li8 Fe8 P8 O32'
_cell_volume   630.31282547
_cell_formula_units_Z   8
loop_
 _symmetry_equiv_pos_site_id
 _symmetry_equiv_pos_as_xyz
  1  'x, y, z'
loop_
 _atom_site_type_symbol
 _atom_site_label
 _atom_site_symmetry_multiplicity
 _atom_site_fract_x
 _atom_site_fract_y
 _atom_site_fract_z
 _atom_site_occupancy
  Li  Li0  1  0.19675962  0.22441040  0.15538664  1
  Li  Li1  1  0.19675962  0.27558960  0.65538664  1
  Li  Li2  1  0.30324038  0.77558960  0.65538664  1
  Li  Li3  1  0.30324038  0.72441040  0.15538664  1
  Li  Li4  1  0.69675962  0.22441040  0.34461336  1
  Li  Li5  1  0.69675962  0.27558960  0.84461336  1
  Li  Li6  1  0.80324038  0.72441040  0.34461336  1
  Li  Li7  1  0.80324038  0.77558960  0.84461336  1
  Fe  Fe8  1  0.18200446  0.53557666  0.39763572  1
  Fe  Fe9  1  0.18200446  0.96442334  0.89763572  1
  Fe  Fe10  1  0.31799554  0.03557666  0.39763572  1
  Fe  Fe11  1  0.31799554  0.46442334  0.89763572  1
  Fe  Fe12  1  0.68200446  0.53557666  0.10236428  1
  Fe  Fe13  1  0.68200446  0.96442334  0.60236428  1
  Fe  Fe14  1  0.81799554  0.03557666  0.10236428  1
  Fe  Fe15  1  0.81799554  0.46442334  0.60236428  1
  P  P16  1  0.04622645  0.62910392  0.89927876  1
  P  P17  1  0.04622645  0.87089608  0.39927876  1
  P  P18  1  0.45377355  0.12910392  0.89927876  1
  P  P19  1  0.45377355  0.37089608  0.39927876  1
  P  P20  1  0.54622645  0.62910392  0.60072124  1
  P  P21  1  0.54622645  0.87089608  0.10072124  1
  P  P22  1  0.95377355  0.12910392  0.60072124  1
  P  P23  1  0.95377355  0.37089608  0.10072124  1
  O  O24  1  0.96865101  0.05624100  0.80515751  1
  O  O25  1  0.96865101  0.44375900  0.30515751  1
  O  O26  1  0.10217733  0.77069951  0.32571545  1
  O  O27  1  0.10217733  0.72930049  0.82571545  1
  O  O28  1  0.13009758  0.13676495  0.47720599  1
  O  O29  1  0.13009758  0.36323505  0.97720599  1
  O  O30  1  0.19079293  0.58530296  0.06242685  1
  O  O31  1  0.19079293  0.91469704  0.56242685  1
  O  O32  1  0.30920707  0.08530296  0.06242685  1
  O  O33  1  0.30920707  0.41469704  0.56242685  1
  O  O34  1  0.36990242  0.63676495  0.47720599  1
  O  O35  1  0.36990242  0.86323505  0.97720599  1
  O  O36  1  0.39782267  0.22930049  0.82571545  1
  O  O37  1  0.39782267  0.27069951  0.32571545  1
  O  O38  1  0.53134899  0.55624100  0.80515751  1
  O  O39  1  0.53134899  0.94375900  0.30515751  1
  O  O40  1  0.46865101  0.44375900  0.19484249  1
  O  O41  1  0.46865101  0.05624100  0.69484249  1
  O  O42  1  0.60217733  0.72930049  0.67428455  1
  O  O43  1  0.60217733  0.77069951  0.17428455  1
  O  O44  1  0.63009758  0.13676495  0.02279401  1
  O  O45  1  0.63009758  0.36323505  0.52279401  1
  O  O46  1  0.69079293  0.58530296  0.43757315  1
  O  O47  1  0.69079293  0.91469704  0.93757315  1
  O  O48  1  0.80920707  0.08530296  0.43757315  1
  O  O49  1  0.80920707  0.41469704  0.93757315  1
  O  O50  1  0.86990242  0.63676495  0.02279401  1
  O  O51  1  0.86990242  0.86323505  0.52279401  1
  O  O52  1  0.89782267  0.22930049  0.67428455  1
  O  O53  1  0.89782267  0.27069951  0.17428455  1
  O  O54  1  0.03134899  0.55624100  0.69484249  1
  O  O55  1  0.03134899  0.94375900  0.19484249  1
