# generated using pymatgen
data_MnF4
_symmetry_space_group_name_H-M   'P 1'
_cell_length_a   5.55465768
_cell_length_b   4.74221118
_cell_length_c   5.33840511
_cell_angle_alpha   90.00000000
_cell_angle_beta   116.55100288
_cell_angle_gamma   90.00000000
_symmetry_Int_Tables_number   1
_chemical_formula_structural   MnF4
_chemical_formula_sum   'Mn2 F8'
_cell_volume   125.79052707
_cell_formula_units_Z   2
loop_
 _symmetry_equiv_pos_site_id
 _symmetry_equiv_pos_as_xyz
  1  'x, y, z'
loop_
 _atom_site_type_symbol
 _atom_site_label
 _atom_site_symmetry_multiplicity
 _atom_site_fract_x
 _atom_site_fract_y
 _atom_site_fract_z
 _atom_site_occupancy
  Mn  Mn0  1  0.00000000  0.50000000  0.50000000  1
  Mn  Mn1  1  0.00000000  0.00000000  0.00000000  1
  F  F2  1  0.13372301  0.27728454  0.83352148  1
  F  F3  1  0.13372301  0.22271546  0.33352148  1
  F  F4  1  0.31301759  0.67349488  0.63096111  1
  F  F5  1  0.31301759  0.82650512  0.13096111  1
  F  F6  1  0.68698241  0.17349488  0.86903889  1
  F  F7  1  0.68698241  0.32650512  0.36903889  1
  F  F8  1  0.86627699  0.77728454  0.66647852  1
  F  F9  1  0.86627699  0.72271546  0.16647852  1
