# generated using pymatgen
data_Sn(PO3)2
_symmetry_space_group_name_H-M   'P 1'
_cell_length_a   8.04830141
_cell_length_b   15.04507063
_cell_length_c   5.29785846
_cell_angle_alpha   90.00000000
_cell_angle_beta   108.59726601
_cell_angle_gamma   90.00000000
_symmetry_Int_Tables_number   1
_chemical_formula_structural   Sn(PO3)2
_chemical_formula_sum   'Sn4 P8 O24'
_cell_volume   608.00621277
_cell_formula_units_Z   4
loop_
 _symmetry_equiv_pos_site_id
 _symmetry_equiv_pos_as_xyz
  1  'x, y, z'
loop_
 _atom_site_type_symbol
 _atom_site_label
 _atom_site_symmetry_multiplicity
 _atom_site_fract_x
 _atom_site_fract_y
 _atom_site_fract_z
 _atom_site_occupancy
  Sn  Sn0  1  0.23143617  0.93753228  0.84366281  1
  Sn  Sn1  1  0.26856383  0.43753228  0.65633719  1
  Sn  Sn2  1  0.73143617  0.56246772  0.34366281  1
  Sn  Sn3  1  0.76856383  0.06246772  0.15633719  1
  P  P4  1  0.06146350  0.33626608  0.07884741  1
  P  P5  1  0.20125489  0.15635397  0.16729223  1
  P  P6  1  0.29874511  0.65635397  0.33270777  1
  P  P7  1  0.43853650  0.83626608  0.42115259  1
  P  P8  1  0.56146350  0.16373392  0.57884741  1
  P  P9  1  0.70125489  0.34364603  0.66729223  1
  P  P10  1  0.79874511  0.84364603  0.83270777  1
  P  P11  1  0.93853650  0.66373392  0.92115259  1
  O  O12  1  0.95233370  0.86730282  0.74204516  1
  O  O13  1  0.16121215  0.25104561  0.00807355  1
  O  O14  1  0.12467375  0.41700607  0.96597883  1
  O  O15  1  0.26518972  0.09273915  0.00129905  1
  O  O16  1  0.08869561  0.33906598  0.37587942  1
  O  O17  1  0.14009117  0.68521075  0.06784177  1
  O  O18  1  0.23481028  0.59273915  0.49870095  1
  O  O19  1  0.37532625  0.91700607  0.53402117  1
  O  O20  1  0.33878785  0.75104561  0.49192645  1
  O  O21  1  0.35990883  0.18521075  0.43215823  1
  O  O22  1  0.54766630  0.36730282  0.75795484  1
  O  O23  1  0.41130439  0.83906598  0.12412058  1
  O  O24  1  0.58869561  0.16093402  0.87587942  1
  O  O25  1  0.45233370  0.63269718  0.24204516  1
  O  O26  1  0.64009117  0.81478925  0.56784177  1
  O  O27  1  0.66121215  0.24895439  0.50807355  1
  O  O28  1  0.62467375  0.08299393  0.46597883  1
  O  O29  1  0.76518972  0.40726085  0.50129905  1
  O  O30  1  0.85990883  0.31478925  0.93215823  1
  O  O31  1  0.91130439  0.66093402  0.62412058  1
  O  O32  1  0.73481028  0.90726085  0.99870095  1
  O  O33  1  0.87532625  0.58299393  0.03402117  1
  O  O34  1  0.83878785  0.74895439  0.99192645  1
  O  O35  1  0.04766630  0.13269718  0.25795484  1
