# generated using pymatgen
data_Li2Ni3(P2O7)2
_symmetry_space_group_name_H-M   'P 1'
_cell_length_a   5.41892837
_cell_length_b   6.86905648
_cell_length_c   7.35312481
_cell_angle_alpha   74.35496893
_cell_angle_beta   81.97509761
_cell_angle_gamma   67.97139526
_symmetry_Int_Tables_number   1
_chemical_formula_structural   Li2Ni3(P2O7)2
_chemical_formula_sum   'Li2 Ni3 P4 O14'
_cell_volume   244.09641192
_cell_formula_units_Z   1
loop_
 _symmetry_equiv_pos_site_id
 _symmetry_equiv_pos_as_xyz
  1  'x, y, z'
loop_
 _atom_site_type_symbol
 _atom_site_label
 _atom_site_symmetry_multiplicity
 _atom_site_fract_x
 _atom_site_fract_y
 _atom_site_fract_z
 _atom_site_occupancy
  Li  Li0  1  0.61977579  0.01852633  0.68725541  1
  Li  Li1  1  0.38022421  0.98147367  0.31274459  1
  Ni  Ni2  1  0.00000000  0.00000000  0.00000000  1
  Ni  Ni3  1  0.18922538  0.51274739  0.31559940  1
  Ni  Ni4  1  0.81077462  0.48725261  0.68440060  1
  P  P5  1  0.19974550  0.73763755  0.65271544  1
  P  P6  1  0.35273462  0.31340486  0.93421603  1
  P  P7  1  0.64726538  0.68659514  0.06578397  1
  P  P8  1  0.80025450  0.26236245  0.34728456  1
  O  O9  1  0.17220257  0.22980737  0.85347613  1
  O  O10  1  0.05612789  0.64850429  0.54446843  1
  O  O11  1  0.32480800  0.27967534  0.14754933  1
  O  O12  1  0.02810907  0.94360528  0.71342941  1
  O  O13  1  0.25650563  0.56845036  0.85770815  1
  O  O14  1  0.53358819  0.26216588  0.45099483  1
  O  O15  1  0.35334231  0.76950979  0.14285556  1
  O  O16  1  0.64665769  0.23049021  0.85714444  1
  O  O17  1  0.46641181  0.73783412  0.54900517  1
  O  O18  1  0.74349437  0.43154964  0.14229185  1
  O  O19  1  0.97189093  0.05639472  0.28657059  1
  O  O20  1  0.67519200  0.72032466  0.85245067  1
  O  O21  1  0.94387211  0.35149571  0.45553157  1
  O  O22  1  0.82779743  0.77019263  0.14652387  1
