# generated using pymatgen
data_Li2MnF5
_symmetry_space_group_name_H-M   'P 1'
_cell_length_a   6.56444623
_cell_length_b   7.66188286
_cell_length_c   8.12597459
_cell_angle_alpha   90.00000000
_cell_angle_beta   90.00000000
_cell_angle_gamma   90.00000000
_symmetry_Int_Tables_number   1
_chemical_formula_structural   Li2MnF5
_chemical_formula_sum   'Li8 Mn4 F20'
_cell_volume   408.70416469
_cell_formula_units_Z   4
loop_
 _symmetry_equiv_pos_site_id
 _symmetry_equiv_pos_as_xyz
  1  'x, y, z'
loop_
 _atom_site_type_symbol
 _atom_site_label
 _atom_site_symmetry_multiplicity
 _atom_site_fract_x
 _atom_site_fract_y
 _atom_site_fract_z
 _atom_site_occupancy
  Li  Li0  1  0.02301824  0.76813675  0.08071225  1
  Li  Li1  1  0.02301824  0.76813675  0.41928775  1
  Li  Li2  1  0.47698176  0.26813675  0.58071225  1
  Li  Li3  1  0.47698176  0.26813675  0.91928775  1
  Li  Li4  1  0.52301824  0.73186325  0.08071225  1
  Li  Li5  1  0.52301824  0.73186325  0.41928775  1
  Li  Li6  1  0.97698176  0.23186325  0.58071225  1
  Li  Li7  1  0.97698176  0.23186325  0.91928775  1
  Mn  Mn8  1  0.23517654  0.39333534  0.25000000  1
  Mn  Mn9  1  0.26482346  0.89333534  0.75000000  1
  Mn  Mn10  1  0.73517654  0.10666466  0.25000000  1
  Mn  Mn11  1  0.76482346  0.60666466  0.75000000  1
  F  F12  1  0.02553548  0.06354083  0.75000000  1
  F  F13  1  0.08185972  0.59985460  0.25000000  1
  F  F14  1  0.07734299  0.71014135  0.75000000  1
  F  F15  1  0.21831595  0.35261437  0.01558766  1
  F  F16  1  0.21831595  0.35261437  0.48441234  1
  F  F17  1  0.28168405  0.85261437  0.51558766  1
  F  F18  1  0.28168405  0.85261437  0.98441234  1
  F  F19  1  0.42265701  0.21014135  0.25000000  1
  F  F20  1  0.41814028  0.09985460  0.75000000  1
  F  F21  1  0.47446452  0.56354083  0.25000000  1
  F  F22  1  0.52553548  0.43645917  0.75000000  1
  F  F23  1  0.58185972  0.90014540  0.25000000  1
  F  F24  1  0.57734299  0.78985865  0.75000000  1
  F  F25  1  0.71831595  0.14738563  0.48441234  1
  F  F26  1  0.71831595  0.14738563  0.01558766  1
  F  F27  1  0.78168405  0.64738563  0.98441234  1
  F  F28  1  0.78168405  0.64738563  0.51558766  1
  F  F29  1  0.92265701  0.28985865  0.25000000  1
  F  F30  1  0.91814028  0.40014540  0.75000000  1
  F  F31  1  0.97446452  0.93645917  0.25000000  1
