# generated using pymatgen
data_LiFe2(PO4)2
_symmetry_space_group_name_H-M   'P 1'
_cell_length_a   8.56422557
_cell_length_b   5.25453488
_cell_length_c   8.29921579
_cell_angle_alpha   90.00000000
_cell_angle_beta   106.88056174
_cell_angle_gamma   90.00000000
_symmetry_Int_Tables_number   1
_chemical_formula_structural   LiFe2(PO4)2
_chemical_formula_sum   'Li2 Fe4 P4 O16'
_cell_volume   357.38103644
_cell_formula_units_Z   2
loop_
 _symmetry_equiv_pos_site_id
 _symmetry_equiv_pos_as_xyz
  1  'x, y, z'
loop_
 _atom_site_type_symbol
 _atom_site_label
 _atom_site_symmetry_multiplicity
 _atom_site_fract_x
 _atom_site_fract_y
 _atom_site_fract_z
 _atom_site_occupancy
  Li  Li0  1  0.28211779  0.33209350  0.49966941  1
  Li  Li1  1  0.78211779  0.66790650  0.49966941  1
  Fe  Fe2  1  0.21480204  0.31633029  0.87764789  1
  Fe  Fe3  1  0.38334530  0.82954523  0.34861643  1
  Fe  Fe4  1  0.71480204  0.68366971  0.87764789  1
  Fe  Fe5  1  0.88334530  0.17045477  0.34861643  1
  P  P6  1  0.00920360  0.67297096  0.25267518  1
  P  P7  1  0.33614622  0.81116799  0.73646130  1
  P  P8  1  0.50920360  0.32702904  0.25267518  1
  P  P9  1  0.83614622  0.18883201  0.73646130  1
  O  O10  1  0.06074558  0.40001233  0.31905630  1
  O  O11  1  0.20760724  0.65676069  0.79523916  1
  O  O12  1  0.15016088  0.81605752  0.21712612  1
  O  O13  1  0.27951187  0.09823045  0.71319122  1
  O  O14  1  0.35014668  0.69660738  0.57157180  1
  O  O15  1  0.50382510  0.79774431  0.87334300  1
  O  O16  1  0.43845028  0.19328028  0.38354136  1
  O  O17  1  0.36839142  0.33918627  0.08391184  1
  O  O18  1  0.56074558  0.59998767  0.31905630  1
  O  O19  1  0.70760724  0.34323931  0.79523916  1
  O  O20  1  0.65016088  0.18394248  0.21712612  1
  O  O21  1  0.77951187  0.90176955  0.71319122  1
  O  O22  1  0.85014668  0.30339262  0.57157180  1
  O  O23  1  0.00382510  0.20225569  0.87334300  1
  O  O24  1  0.93845028  0.80671972  0.38354136  1
  O  O25  1  0.86839142  0.66081373  0.08391184  1
