# generated using pymatgen
data_LiMn2F5
_symmetry_space_group_name_H-M   'P 1'
_cell_length_a   6.69437205
_cell_length_b   8.06432000
_cell_length_c   9.65247231
_cell_angle_alpha   111.10889018
_cell_angle_beta   110.28986923
_cell_angle_gamma   65.47683187
_symmetry_Int_Tables_number   1
_chemical_formula_structural   LiMn2F5
_chemical_formula_sum   'Li4 Mn8 F20'
_cell_volume   430.16115800
_cell_formula_units_Z   4
loop_
 _symmetry_equiv_pos_site_id
 _symmetry_equiv_pos_as_xyz
  1  'x, y, z'
loop_
 _atom_site_type_symbol
 _atom_site_label
 _atom_site_symmetry_multiplicity
 _atom_site_fract_x
 _atom_site_fract_y
 _atom_site_fract_z
 _atom_site_occupancy
  Li  Li0  1  0.30192353  0.94056182  0.31861129  1
  Li  Li1  1  0.92387307  0.55943818  0.18138871  1
  Li  Li2  1  0.07612693  0.44056182  0.81861129  1
  Li  Li3  1  0.69807647  0.05943818  0.68138871  1
  Mn  Mn4  1  0.22127656  0.93338273  0.64878440  1
  Mn  Mn5  1  0.82795548  0.88514586  0.98598479  1
  Mn  Mn6  1  0.72711755  0.61485414  0.51401521  1
  Mn  Mn7  1  0.49412412  0.43338273  0.14878440  1
  Mn  Mn8  1  0.50587588  0.56661727  0.85121560  1
  Mn  Mn9  1  0.27288245  0.38514586  0.48598479  1
  Mn  Mn10  1  0.17204452  0.11485414  0.01401521  1
  Mn  Mn11  1  0.77872344  0.06661727  0.35121560  1
  F  F12  1  0.10108875  0.98776879  0.13793063  1
  F  F13  1  0.88025103  0.93856448  0.53932490  1
  F  F14  1  0.56118741  0.87945427  0.64256697  1
  F  F15  1  0.84621648  0.80956882  0.18364928  1
  F  F16  1  0.47213701  0.69043118  0.31635072  1
  F  F17  1  0.38667085  0.86453131  0.89763643  1
  F  F18  1  0.35356574  0.63546869  0.60236357  1
  F  F19  1  0.95092692  0.51223121  0.36206937  1
  F  F20  1  0.72050939  0.43856448  0.03932490  1
  F  F21  1  0.79807371  0.62054573  0.85743303  1
  F  F22  1  0.20192629  0.37945427  0.14256697  1
  F  F23  1  0.27949061  0.56143552  0.96067510  1
  F  F24  1  0.04907308  0.48776879  0.63793063  1
  F  F25  1  0.64643426  0.36453131  0.39763643  1
  F  F26  1  0.61332915  0.13546869  0.10236357  1
  F  F27  1  0.52786299  0.30956882  0.68364928  1
  F  F28  1  0.15378352  0.19043118  0.81635072  1
  F  F29  1  0.43881259  0.12054573  0.35743303  1
  F  F30  1  0.11974897  0.06143552  0.46067510  1
  F  F31  1  0.89891125  0.01223121  0.86206937  1
