# generated using pymatgen
data_Li4V2Si3O10
_symmetry_space_group_name_H-M   'P 1'
_cell_length_a   5.37558910
_cell_length_b   5.37558910
_cell_length_c   17.07024400
_cell_angle_alpha   81.93669537
_cell_angle_beta   98.06330463
_cell_angle_gamma   117.21868689
_symmetry_Int_Tables_number   1
_chemical_formula_structural   Li4V2Si3O10
_chemical_formula_sum   'Li8 V4 Si6 O20'
_cell_volume   432.69366116
_cell_formula_units_Z   2
loop_
 _symmetry_equiv_pos_site_id
 _symmetry_equiv_pos_as_xyz
  1  'x, y, z'
loop_
 _atom_site_type_symbol
 _atom_site_label
 _atom_site_symmetry_multiplicity
 _atom_site_fract_x
 _atom_site_fract_y
 _atom_site_fract_z
 _atom_site_occupancy
  Li  Li0  1  0.17054363  0.67551066  0.94789221  1
  Li  Li1  1  0.41986838  0.79267610  0.76884754  1
  Li  Li2  1  0.32448834  0.82945637  0.44789221  1
  Li  Li3  1  0.20732390  0.58013162  0.26884754  1
  Li  Li4  1  0.79267610  0.41986838  0.73115246  1
  Li  Li5  1  0.67551066  0.17054363  0.55210779  1
  Li  Li6  1  0.58013162  0.20732390  0.23115246  1
  Li  Li7  1  0.82945637  0.32448834  0.05210779  1
  V  V8  1  0.79724651  0.99618418  0.91653244  1
  V  V9  1  0.00381582  0.20275349  0.41653244  1
  V  V10  1  0.99618418  0.79724651  0.58346756  1
  V  V11  1  0.20275349  0.00381582  0.08346756  1
  Si  Si12  1  0.33980887  0.46389986  0.59951832  1
  Si  Si13  1  0.11121199  0.11121199  0.75000000  1
  Si  Si14  1  0.46389986  0.33980887  0.90048168  1
  Si  Si15  1  0.53610014  0.66019113  0.09951832  1
  Si  Si16  1  0.88878801  0.88878801  0.25000000  1
  Si  Si17  1  0.66019113  0.53610014  0.40048168  1
  O  O18  1  0.07628771  0.83732151  0.71153795  1
  O  O19  1  0.16267849  0.92371229  0.21153795  1
  O  O20  1  0.38904145  0.78188607  0.56667063  1
  O  O21  1  0.42683769  0.62946827  0.88497758  1
  O  O22  1  0.20411213  0.39997611  0.68724483  1
  O  O23  1  0.22792723  0.09667455  0.95615798  1
  O  O24  1  0.09667455  0.22792723  0.54384202  1
  O  O25  1  0.21811393  0.61095855  0.06667063  1
  O  O26  1  0.37053173  0.57316231  0.38497758  1
  O  O27  1  0.39997611  0.20411213  0.81275517  1
  O  O28  1  0.60002389  0.79588787  0.18724483  1
  O  O29  1  0.62946827  0.42683769  0.61502242  1
  O  O30  1  0.78188607  0.38904145  0.93332937  1
  O  O31  1  0.90332545  0.77207277  0.45615798  1
  O  O32  1  0.77207277  0.90332545  0.04384202  1
  O  O33  1  0.79588787  0.60002389  0.31275517  1
  O  O34  1  0.57316231  0.37053173  0.11502242  1
  O  O35  1  0.61095855  0.21811393  0.43332937  1
  O  O36  1  0.83732151  0.07628771  0.78846205  1
  O  O37  1  0.92371229  0.16267849  0.28846205  1
