# generated using pymatgen
data_Ti3Ni
_symmetry_space_group_name_H-M   'P 1'
_cell_length_a   5.44450107
_cell_length_b   5.44752255
_cell_length_c   4.62493413
_cell_angle_alpha   90.00338513
_cell_angle_beta   89.99668493
_cell_angle_gamma   119.98533393
_symmetry_Int_Tables_number   1
_chemical_formula_structural   Ti3Ni
_chemical_formula_sum   'Ti6 Ni2'
_cell_volume   118.81122398
_cell_formula_units_Z   2
loop_
 _symmetry_equiv_pos_site_id
 _symmetry_equiv_pos_as_xyz
  1  'x, y, z'
loop_
 _atom_site_type_symbol
 _atom_site_label
 _atom_site_symmetry_multiplicity
 _atom_site_fract_x
 _atom_site_fract_y
 _atom_site_fract_z
 _atom_site_occupancy
  Ti  Ti0  1  0.17305915  0.34605969  0.24999802  1
  Ti  Ti1  1  0.82691079  0.17296707  0.74997641  1
  Ti  Ti2  1  0.34608301  0.17302551  0.75000304  1
  Ti  Ti3  1  0.82693196  0.65395053  0.75000344  1
  Ti  Ti4  1  0.17308570  0.82701629  0.25002479  1
  Ti  Ti5  1  0.65392899  0.82698706  0.24999748  1
  Ni  Ni6  1  0.66666149  0.33330374  0.25001114  1
  Ni  Ni7  1  0.33334191  0.66669511  0.74998967  1
