# generated using pymatgen
data_LiFe2(BO3)2
_symmetry_space_group_name_H-M   'P 1'
_cell_length_a   5.28479602
_cell_length_b   9.07932033
_cell_length_c   11.35869887
_cell_angle_alpha   113.35446884
_cell_angle_beta   77.56489717
_cell_angle_gamma   89.83907652
_symmetry_Int_Tables_number   1
_chemical_formula_structural   LiFe2(BO3)2
_chemical_formula_sum   'Li4 Fe8 B8 O24'
_cell_volume   486.25683081
_cell_formula_units_Z   4
loop_
 _symmetry_equiv_pos_site_id
 _symmetry_equiv_pos_as_xyz
  1  'x, y, z'
loop_
 _atom_site_type_symbol
 _atom_site_label
 _atom_site_symmetry_multiplicity
 _atom_site_fract_x
 _atom_site_fract_y
 _atom_site_fract_z
 _atom_site_occupancy
  Li  Li0  1  0.17113002  0.16181850  0.34125286  1
  Li  Li1  1  0.60867145  0.04903440  0.08487242  1
  Li  Li2  1  0.93451628  0.43082830  0.83345336  1
  Li  Li3  1  0.67142669  0.65639068  0.34200398  1
  Fe  Fe4  1  0.40621999  0.27006372  0.86864978  1
  Fe  Fe5  1  0.09675355  0.23197848  0.11706423  1
  Fe  Fe6  1  0.84091317  0.14130462  0.62326433  1
  Fe  Fe7  1  0.65021453  0.34472379  0.37795290  1
  Fe  Fe8  1  0.34991694  0.64933269  0.63149002  1
  Fe  Fe9  1  0.15524556  0.84453643  0.36725557  1
  Fe  Fe10  1  0.90316989  0.78188312  0.86549916  1
  Fe  Fe11  1  0.60231504  0.71534096  0.11195992  1
  B  B12  1  0.64118994  0.01111913  0.37144169  1
  B  B13  1  0.89011587  0.11127258  0.87681131  1
  B  B14  1  0.15432998  0.51891568  0.37212106  1
  B  B15  1  0.40365412  0.59742178  0.86687554  1
  B  B16  1  0.85043239  0.48181022  0.62380454  1
  B  B17  1  0.59954630  0.38901339  0.12962933  1
  B  B18  1  0.35425125  0.97456595  0.61497597  1
  B  B19  1  0.09081085  0.90430679  0.12970380  1
  O  O20  1  0.11358989  0.14598222  0.92538479  1
  O  O21  1  0.47436468  0.11646392  0.65491366  1
  O  O22  1  0.21456627  0.04401251  0.13983710  1
  O  O23  1  0.51585431  0.13635677  0.36370610  1
  O  O24  1  0.88221477  0.02821202  0.41001572  1
  O  O25  1  0.81630135  0.21233903  0.81901819  1
  O  O26  1  0.26811062  0.47173484  0.87020575  1
  O  O27  1  0.05654584  0.36668079  0.32874323  1
  O  O28  1  0.71740318  0.27296793  0.16084149  1
  O  O29  1  0.62675786  0.48060431  0.57930827  1
  O  O30  1  0.94096568  0.34682305  0.63515098  1
  O  O31  1  0.38128960  0.34727531  0.07914408  1
  O  O32  1  0.64394809  0.61940206  0.90377687  1
  O  O33  1  0.38418458  0.53714828  0.41458027  1
  O  O34  1  0.30316868  0.70832454  0.82622322  1
  O  O35  1  0.98243050  0.61891810  0.65607374  1
  O  O36  1  0.69839049  0.53124749  0.14876461  1
  O  O37  1  0.20137461  0.80222738  0.17467734  1
  O  O38  1  0.12925578  0.97451643  0.56648705  1
  O  O39  1  0.45348474  0.83967291  0.61852216  1
  O  O40  1  0.02374695  0.64883395  0.36852036  1
  O  O41  1  0.74596570  0.99407513  0.89092722  1
  O  O42  1  0.53912540  0.86170897  0.34136662  1
  O  O43  1  0.86588357  0.87684684  0.08485042  1
