# generated using pymatgen
data_Li9V5(SiO8)2
_symmetry_space_group_name_H-M   'P 1'
_cell_length_a   5.11518558
_cell_length_b   11.31757526
_cell_length_c   5.10471759
_cell_angle_alpha   94.68319198
_cell_angle_beta   80.34114683
_cell_angle_gamma   99.09918787
_symmetry_Int_Tables_number   1
_chemical_formula_structural   Li9V5(SiO8)2
_chemical_formula_sum   'Li9 V5 Si2 O16'
_cell_volume   287.20300419
_cell_formula_units_Z   1
loop_
 _symmetry_equiv_pos_site_id
 _symmetry_equiv_pos_as_xyz
  1  'x, y, z'
loop_
 _atom_site_type_symbol
 _atom_site_label
 _atom_site_symmetry_multiplicity
 _atom_site_fract_x
 _atom_site_fract_y
 _atom_site_fract_z
 _atom_site_occupancy
  Li  Li0  1  0.01025449  0.99701070  0.00285414  1
  Li  Li1  1  0.12130860  0.11395122  0.50879770  1
  Li  Li2  1  0.25318025  0.24512005  0.00263133  1
  Li  Li3  1  0.37315344  0.37826709  0.49709315  1
  Li  Li4  1  0.50184656  0.49673291  0.00290685  1
  Li  Li5  1  0.62181975  0.62987995  0.49736867  1
  Li  Li6  1  0.75369140  0.76104878  0.99120230  1
  Li  Li7  1  0.86474551  0.87798930  0.49714586  1
  Li  Li8  1  0.43750000  0.93750000  0.25000000  1
  V  V9  1  0.67578966  0.17488748  0.25262321  1
  V  V10  1  0.80693581  0.30522878  0.74851176  1
  V  V11  1  0.93750000  0.43750000  0.25000000  1
  V  V12  1  0.06806419  0.56977122  0.75148824  1
  V  V13  1  0.19921034  0.70011252  0.24737679  1
  Si  Si14  1  0.55726159  0.05348761  0.75365492  1
  Si  Si15  1  0.31773841  0.82151239  0.74634508  1
  O  O16  1  0.37508126  0.08912268  0.08514474  1
  O  O17  1  0.75397892  0.03614460  0.42000450  1
  O  O18  1  0.01146774  0.28145449  0.37660887  1
  O  O19  1  0.85746961  0.13779840  0.86674524  1
  O  O20  1  0.47815765  0.19613457  0.64150147  1
  O  O21  1  0.13628765  0.40469923  0.87730305  1
  O  O22  1  0.60595759  0.33431902  0.12011039  1
  O  O23  1  0.73871235  0.47030077  0.62269695  1
  O  O24  1  0.26904241  0.54068098  0.37988961  1
  O  O25  1  0.39684235  0.67886543  0.85849853  1
  O  O26  1  0.86353226  0.59354551  0.12339113  1
  O  O27  1  0.49991874  0.78587732  0.41485526  1
  O  O28  1  0.12102108  0.83885540  0.07999550  1
  O  O29  1  0.01753039  0.73720160  0.63325476  1
  O  O30  1  0.25881232  0.96478583  0.65104487  1
  O  O31  1  0.61618768  0.91021417  0.84895513  1
