# generated using pymatgen
data_Li4Mn3OF11
_symmetry_space_group_name_H-M   'P 1'
_cell_length_a   5.77084437
_cell_length_b   6.05243773
_cell_length_c   6.44728631
_cell_angle_alpha   103.14522185
_cell_angle_beta   98.93848659
_cell_angle_gamma   100.01362165
_symmetry_Int_Tables_number   1
_chemical_formula_structural   Li4Mn3OF11
_chemical_formula_sum   'Li4 Mn3 O1 F11'
_cell_volume   211.43959170
_cell_formula_units_Z   1
loop_
 _symmetry_equiv_pos_site_id
 _symmetry_equiv_pos_as_xyz
  1  'x, y, z'
loop_
 _atom_site_type_symbol
 _atom_site_label
 _atom_site_symmetry_multiplicity
 _atom_site_fract_x
 _atom_site_fract_y
 _atom_site_fract_z
 _atom_site_occupancy
  Li  Li0  1  0.15196921  0.58953054  0.33050171  1
  Li  Li1  1  0.38320548  0.66343134  0.85787089  1
  Li  Li2  1  0.60934196  0.33106591  0.13717348  1
  Li  Li3  1  0.85865098  0.40652992  0.67914719  1
  Mn  Mn4  1  0.72437191  0.86228779  0.37653140  1
  Mn  Mn5  1  0.00195636  0.00160722  0.01111483  1
  Mn  Mn6  1  0.29375164  0.13519816  0.58246044  1
  O  O7  1  0.05100422  0.96961358  0.33349526  1
  F  F8  1  0.04648452  0.69570037  0.90360997  1
  F  F9  1  0.40439309  0.85332099  0.59119023  1
  F  F10  1  0.68121554  0.87899410  0.01086139  1
  F  F11  1  0.18104493  0.41511536  0.58093633  1
  F  F12  1  0.43422594  0.61850251  0.19752387  1
  F  F13  1  0.56202116  0.36031113  0.79312427  1
  F  F14  1  0.82568723  0.59462531  0.42623150  1
  F  F15  1  0.31490718  0.11086622  0.99083947  1
  F  F16  1  0.60206599  0.14575036  0.38590332  1
  F  F17  1  0.95236341  0.30747156  0.11048777  1
  F  F18  1  0.92133825  0.06007663  0.70099568  1
