# generated using pymatgen
data_WOF4
_symmetry_space_group_name_H-M   'P 1'
_cell_length_a   8.09933493
_cell_length_b   5.00368484
_cell_length_c   10.27646598
_cell_angle_alpha   90.00000000
_cell_angle_beta   109.62314150
_cell_angle_gamma   90.00000000
_symmetry_Int_Tables_number   1
_chemical_formula_structural   WOF4
_chemical_formula_sum   'W4 O4 F16'
_cell_volume   392.28164207
_cell_formula_units_Z   4
loop_
 _symmetry_equiv_pos_site_id
 _symmetry_equiv_pos_as_xyz
  1  'x, y, z'
loop_
 _atom_site_type_symbol
 _atom_site_label
 _atom_site_symmetry_multiplicity
 _atom_site_fract_x
 _atom_site_fract_y
 _atom_site_fract_z
 _atom_site_occupancy
  W  W0  1  0.23669891  0.54713326  0.54710018  1
  W  W1  1  0.23669891  0.95286674  0.04710018  1
  W  W2  1  0.76330109  0.04713326  0.95289982  1
  W  W3  1  0.76330109  0.45286674  0.45289982  1
  O  O4  1  0.38541931  0.75900657  0.51672922  1
  O  O5  1  0.61458069  0.25900657  0.98327078  1
  O  O6  1  0.38541931  0.74099343  0.01672922  1
  O  O7  1  0.61458069  0.24099343  0.48327078  1
  F  F8  1  0.01203555  0.79043563  0.93338569  1
  F  F9  1  0.19844705  0.19873664  0.90126324  1
  F  F10  1  0.01203555  0.70956437  0.43338569  1
  F  F11  1  0.19615190  0.72039033  0.69633585  1
  F  F12  1  0.19844705  0.30126336  0.40126324  1
  F  F13  1  0.37868688  0.29572372  0.66922358  1
  F  F14  1  0.19615190  0.77960967  0.19633585  1
  F  F15  1  0.62131312  0.79572372  0.83077642  1
  F  F16  1  0.37868688  0.20427628  0.16922358  1
  F  F17  1  0.80384810  0.22039033  0.80366415  1
  F  F18  1  0.62131312  0.70427628  0.33077642  1
  F  F19  1  0.80155295  0.69873664  0.59873676  1
  F  F20  1  0.80384810  0.27960967  0.30366415  1
  F  F21  1  0.98796445  0.29043563  0.56661431  1
  F  F22  1  0.80155295  0.80126336  0.09873676  1
  F  F23  1  0.98796445  0.20956437  0.06661431  1
