# generated using pymatgen
data_Li6CrCo3(PO4)6
_symmetry_space_group_name_H-M   'P 1'
_cell_length_a   8.45435391
_cell_length_b   8.52825092
_cell_length_c   8.52839755
_cell_angle_alpha   61.98399180
_cell_angle_beta   62.13924646
_cell_angle_gamma   62.23229672
_symmetry_Int_Tables_number   1
_chemical_formula_structural   Li6CrCo3(PO4)6
_chemical_formula_sum   'Li6 Cr1 Co3 P6 O24'
_cell_volume   455.38500617
_cell_formula_units_Z   1
loop_
 _symmetry_equiv_pos_site_id
 _symmetry_equiv_pos_as_xyz
  1  'x, y, z'
loop_
 _atom_site_type_symbol
 _atom_site_label
 _atom_site_symmetry_multiplicity
 _atom_site_fract_x
 _atom_site_fract_y
 _atom_site_fract_z
 _atom_site_occupancy
  Li  Li0  1  0.02489381  0.00885853  0.99780335  1
  Li  Li1  1  0.74890324  0.15285932  0.34638096  1
  Li  Li2  1  0.47500252  0.50577043  0.49325103  1
  Li  Li3  1  0.27104837  0.83971880  0.64899210  1
  Li  Li4  1  0.65257800  0.27341352  0.83606888  1
  Li  Li5  1  0.83553258  0.65113155  0.27213753  1
  Cr  Cr6  1  0.85738296  0.85564201  0.85553587  1
  Co  Co7  1  0.14548450  0.14688275  0.13724781  1
  Co  Co8  1  0.35383003  0.36146062  0.35338621  1
  Co  Co9  1  0.64831565  0.65073975  0.64988690  1
  P  P10  1  0.04867940  0.75259043  0.45097677  1
  P  P11  1  0.45199515  0.04858519  0.74987019  1
  P  P12  1  0.75102494  0.45375343  0.04555989  1
  P  P13  1  0.24999092  0.54121052  0.95659399  1
  P  P14  1  0.54311206  0.95974724  0.25013904  1
  P  P15  1  0.95477300  0.24937144  0.53772747  1
  O  O16  1  0.12881979  0.29231686  0.49807625  1
  O  O17  1  0.30494075  0.50926941  0.11843883  1
  O  O18  1  0.04843557  0.92061432  0.26677837  1
  O  O19  1  0.53231596  0.11902697  0.29627901  1
  O  O20  1  0.23665236  0.59246821  0.43319998  1
  O  O21  1  0.01456461  0.80802652  0.61451399  1
  O  O22  1  0.26108672  0.06978508  0.90586983  1
  O  O23  1  0.45539372  0.22956337  0.57790729  1
  O  O24  1  0.59328726  0.43346031  0.23893526  1
  O  O25  1  0.18488160  0.38353940  0.99526192  1
  O  O26  1  0.09638764  0.73863985  0.92585954  1
  O  O27  1  0.37458229  0.00600397  0.19656849  1
  O  O28  1  0.61558613  0.00966681  0.80983398  1
  O  O29  1  0.90520588  0.25926008  0.06817637  1
  O  O30  1  0.81117801  0.61404758  0.00989933  1
  O  O31  1  0.41530934  0.55275843  0.76653088  1
  O  O32  1  0.55027868  0.77078621  0.41706393  1
  O  O33  1  0.73856274  0.92143878  0.09464386  1
  O  O34  1  0.97161551  0.19401304  0.38236267  1
  O  O35  1  0.76837042  0.41813066  0.55519795  1
  O  O36  1  0.47826199  0.88463043  0.69467125  1
  O  O37  1  0.92715011  0.09502804  0.73541223  1
  O  O38  1  0.69078516  0.48154298  0.88562458  1
  O  O39  1  0.88380062  0.69324713  0.48233722  1
