# generated using pymatgen
data_LiNiPO4
_symmetry_space_group_name_H-M   'P 1'
_cell_length_a   4.82311213
_cell_length_b   8.36010041
_cell_length_c   4.82311242
_cell_angle_alpha   73.23420693
_cell_angle_beta   60.00000701
_cell_angle_gamma   90.00000395
_symmetry_Int_Tables_number   1
_chemical_formula_structural   LiNiPO4
_chemical_formula_sum   'Li2 Ni2 P2 O8'
_cell_volume   158.80385332
_cell_formula_units_Z   2
loop_
 _symmetry_equiv_pos_site_id
 _symmetry_equiv_pos_as_xyz
  1  'x, y, z'
loop_
 _atom_site_type_symbol
 _atom_site_label
 _atom_site_symmetry_multiplicity
 _atom_site_fract_x
 _atom_site_fract_y
 _atom_site_fract_z
 _atom_site_occupancy
  Li  Li0  1  0.00335668  0.01007004  0.99328664  1
  Li  Li1  1  0.57196364  0.71589192  0.85607272  1
  Ni  Ni2  1  0.44991713  0.34975038  0.10016575  1
  Ni  Ni3  1  0.12558832  0.37676397  0.74882335  1
  P  P4  1  0.86194974  0.58584921  0.27610053  1
  P  P5  1  0.71357154  0.14071461  0.57285692  1
  O  O6  1  0.15667921  0.51934516  0.02070097  1
  O  O7  1  0.03541994  0.20732709  0.54565341  1
  O  O8  1  0.54004613  0.51934516  0.30327466  1
  O  O9  1  0.41892665  0.20732709  0.82809285  1
  O  O10  1  0.75298050  0.20732709  0.21160056  1
  O  O11  1  0.92531613  0.77594740  0.14936873  1
  O  O12  1  0.65019557  0.95058671  0.69960886  1
  O  O13  1  0.82261883  0.51934516  0.63733405  1
