# generated using pymatgen
data_Li2Bi(BO3)2
_symmetry_space_group_name_H-M   'P 1'
_cell_length_a   8.63821434
_cell_length_b   6.39880034
_cell_length_c   10.20526662
_cell_angle_alpha   90.00000000
_cell_angle_beta   67.24190357
_cell_angle_gamma   90.00000000
_symmetry_Int_Tables_number   1
_chemical_formula_structural   Li2Bi(BO3)2
_chemical_formula_sum   'Li8 Bi4 B8 O24'
_cell_volume   520.17170705
_cell_formula_units_Z   4
loop_
 _symmetry_equiv_pos_site_id
 _symmetry_equiv_pos_as_xyz
  1  'x, y, z'
loop_
 _atom_site_type_symbol
 _atom_site_label
 _atom_site_symmetry_multiplicity
 _atom_site_fract_x
 _atom_site_fract_y
 _atom_site_fract_z
 _atom_site_occupancy
  Li  Li0  1  0.11116284  0.27970878  0.48461521  1
  Li  Li1  1  0.38883716  0.77970878  0.01538479  1
  Li  Li2  1  0.27962036  0.76141047  0.54845252  1
  Li  Li3  1  0.22037964  0.26141047  0.95154748  1
  Li  Li4  1  0.77962036  0.73858953  0.04845252  1
  Li  Li5  1  0.72037964  0.23858953  0.45154748  1
  Li  Li6  1  0.61116284  0.22029122  0.98461521  1
  Li  Li7  1  0.88883716  0.72029122  0.51538479  1
  Bi  Bi8  1  0.01390933  0.02358222  0.79082938  1
  Bi  Bi9  1  0.51390933  0.47641778  0.29082938  1
  Bi  Bi10  1  0.48609067  0.52358222  0.70917062  1
  Bi  Bi11  1  0.98609067  0.97641778  0.20917062  1
  B  B12  1  0.27916461  0.15959108  0.18730567  1
  B  B13  1  0.22083539  0.65959108  0.31269433  1
  B  B14  1  0.16889453  0.67853291  0.88983816  1
  B  B15  1  0.33110547  0.17853291  0.61016184  1
  B  B16  1  0.66889453  0.82146709  0.38983816  1
  B  B17  1  0.83110547  0.32146709  0.11016184  1
  B  B18  1  0.77916461  0.34040892  0.68730567  1
  B  B19  1  0.72083539  0.84040892  0.81269433  1
  O  O20  1  0.06660615  0.72744516  0.32247497  1
  O  O21  1  0.12715350  0.19037506  0.30015062  1
  O  O22  1  0.26965771  0.05103768  0.07101604  1
  O  O23  1  0.23034229  0.55103768  0.42898396  1
  O  O24  1  0.37284650  0.69037506  0.19984938  1
  O  O25  1  0.02834816  0.78808907  0.97845892  1
  O  O26  1  0.23173107  0.06073624  0.55988809  1
  O  O27  1  0.43339485  0.22744516  0.17752503  1
  O  O28  1  0.21663290  0.70286371  0.74467100  1
  O  O29  1  0.28336710  0.20286371  0.75532900  1
  O  O30  1  0.26826893  0.56073624  0.94011191  1
  O  O31  1  0.47165184  0.28808907  0.52154108  1
  O  O32  1  0.52834816  0.71191093  0.47845892  1
  O  O33  1  0.73173107  0.43926376  0.05988809  1
  O  O34  1  0.71663290  0.79713629  0.24467100  1
  O  O35  1  0.78336710  0.29713629  0.25532900  1
  O  O36  1  0.56660615  0.77255484  0.82247497  1
  O  O37  1  0.76826893  0.93926376  0.44011191  1
  O  O38  1  0.97165184  0.21191093  0.02154108  1
  O  O39  1  0.62715350  0.30962494  0.80015062  1
  O  O40  1  0.76965771  0.44896232  0.57101604  1
  O  O41  1  0.73034229  0.94896232  0.92898396  1
  O  O42  1  0.87284650  0.80962494  0.69984938  1
  O  O43  1  0.93339385  0.27255484  0.67752503  1
