# generated using pymatgen
data_Ba2YBr7
_symmetry_space_group_name_H-M   'P 1'
_cell_length_a   14.35504316
_cell_length_b   13.40985643
_cell_length_c   16.40513488
_cell_angle_alpha   90.00000000
_cell_angle_beta   148.32353292
_cell_angle_gamma   90.00000000
_symmetry_Int_Tables_number   1
_chemical_formula_structural   Ba2YBr7
_chemical_formula_sum   'Ba8 Y4 Br28'
_cell_volume   1658.32167973
_cell_formula_units_Z   4
loop_
 _symmetry_equiv_pos_site_id
 _symmetry_equiv_pos_as_xyz
  1  'x, y, z'
loop_
 _atom_site_type_symbol
 _atom_site_label
 _atom_site_symmetry_multiplicity
 _atom_site_fract_x
 _atom_site_fract_y
 _atom_site_fract_z
 _atom_site_occupancy
  Ba  Ba0  1  0.19111898  0.23705413  0.71430368  1
  Ba  Ba1  1  0.58618133  0.36393741  0.80312638  1
  Ba  Ba2  1  0.41381867  0.86393741  0.69687362  1
  Ba  Ba3  1  0.19111898  0.26294587  0.21430368  1
  Ba  Ba4  1  0.80888102  0.73705413  0.78569632  1
  Ba  Ba5  1  0.58618133  0.13606259  0.30312638  1
  Ba  Ba6  1  0.41381867  0.63606259  0.19687362  1
  Ba  Ba7  1  0.80888102  0.76294587  0.28569632  1
  Y  Y8  1  0.04966890  0.70106470  0.72665080  1
  Y  Y9  1  0.04966890  0.79893530  0.22665080  1
  Y  Y10  1  0.95033110  0.20106470  0.77334920  1
  Y  Y11  1  0.95033110  0.29893530  0.27334920  1
  Br  Br12  1  0.01436203  0.55926158  0.82670860  1
  Br  Br13  1  0.14865306  0.82671613  0.92931757  1
  Br  Br14  1  0.29570259  0.27068217  0.98273831  1
  Br  Br15  1  0.15846849  0.40948455  0.54256582  1
  Br  Br16  1  0.01436203  0.94073842  0.32670860  1
  Br  Br17  1  0.39048015  0.08426324  0.75137593  1
  Br  Br18  1  0.14827084  0.81617803  0.66155343  1
  Br  Br19  1  0.59052331  0.36680080  0.00811424  1
  Br  Br20  1  0.14865306  0.67328387  0.42931757  1
  Br  Br21  1  0.29570259  0.22931783  0.48273831  1
  Br  Br22  1  0.40947669  0.86680080  0.49188576  1
  Br  Br23  1  0.85172916  0.31617803  0.83844657  1
  Br  Br24  1  0.60951985  0.58426324  0.74862407  1
  Br  Br25  1  0.15846849  0.09051545  0.04256582  1
  Br  Br26  1  0.84153151  0.90948455  0.95743418  1
  Br  Br27  1  0.39048015  0.41573676  0.25137593  1
  Br  Br28  1  0.14827084  0.68382197  0.16155343  1
  Br  Br29  1  0.59052331  0.13319920  0.50811424  1
  Br  Br30  1  0.70429741  0.77068217  0.51726169  1
  Br  Br31  1  0.85134694  0.32671613  0.57068243  1
  Br  Br32  1  0.40947669  0.63319920  0.99188576  1
  Br  Br33  1  0.85172916  0.18382197  0.33844657  1
  Br  Br34  1  0.60951985  0.91573676  0.24862407  1
  Br  Br35  1  0.98563797  0.05926158  0.67329140  1
  Br  Br36  1  0.84153151  0.59051545  0.45743418  1
  Br  Br37  1  0.70429741  0.72931783  0.01726169  1
  Br  Br38  1  0.85134694  0.17328387  0.07068243  1
  Br  Br39  1  0.98563797  0.44073842  0.17329140  1
