# generated using pymatgen
data_TbTiO3
_symmetry_space_group_name_H-M   'P 1'
_cell_length_a   5.36562141
_cell_length_b   5.71340039
_cell_length_c   7.72340103
_cell_angle_alpha   90.00000000
_cell_angle_beta   90.00000000
_cell_angle_gamma   90.00000000
_symmetry_Int_Tables_number   1
_chemical_formula_structural   TbTiO3
_chemical_formula_sum   'Tb4 Ti4 O12'
_cell_volume   236.76814527
_cell_formula_units_Z   4
loop_
 _symmetry_equiv_pos_site_id
 _symmetry_equiv_pos_as_xyz
  1  'x, y, z'
loop_
 _atom_site_type_symbol
 _atom_site_label
 _atom_site_symmetry_multiplicity
 _atom_site_fract_x
 _atom_site_fract_y
 _atom_site_fract_z
 _atom_site_occupancy
  Tb  Tb0  1  0.02110414  0.93021063  0.75000000  1
  Tb  Tb1  1  0.47889586  0.43021063  0.75000000  1
  Tb  Tb2  1  0.52110414  0.56978937  0.25000000  1
  Tb  Tb3  1  0.97889586  0.06978937  0.25000000  1
  Ti  Ti4  1  0.00000000  0.50000000  0.00000000  1
  Ti  Ti5  1  0.00000000  0.50000000  0.50000000  1
  Ti  Ti6  1  0.50000000  0.00000000  0.00000000  1
  Ti  Ti7  1  0.50000000  0.00000000  0.50000000  1
  O  O8  1  0.11769361  0.45696710  0.25000000  1
  O  O9  1  0.19213020  0.19905858  0.55762440  1
  O  O10  1  0.19213020  0.19905858  0.94237560  1
  O  O11  1  0.30786980  0.69905858  0.94237560  1
  O  O12  1  0.30786980  0.69905858  0.55762440  1
  O  O13  1  0.38230639  0.95696710  0.25000000  1
  O  O14  1  0.61769361  0.04303290  0.75000000  1
  O  O15  1  0.69213020  0.30094142  0.05762440  1
  O  O16  1  0.69213020  0.30094142  0.44237560  1
  O  O17  1  0.80786980  0.80094142  0.05762440  1
  O  O18  1  0.80786980  0.80094142  0.44237560  1
  O  O19  1  0.88230639  0.54303290  0.75000000  1
