# generated using pymatgen
data_Ba3Y2Br12
_symmetry_space_group_name_H-M   'P 1'
_cell_length_a   13.50206051
_cell_length_b   13.00816324
_cell_length_c   13.89564435
_cell_angle_alpha   90.00000000
_cell_angle_beta   88.66611099
_cell_angle_gamma   90.00000000
_symmetry_Int_Tables_number   1
_chemical_formula_structural   Ba3Y2Br12
_chemical_formula_sum   'Ba12 Y8 Br48'
_cell_volume   2439.92802533
_cell_formula_units_Z   4
loop_
 _symmetry_equiv_pos_site_id
 _symmetry_equiv_pos_as_xyz
  1  'x, y, z'
loop_
 _atom_site_type_symbol
 _atom_site_label
 _atom_site_symmetry_multiplicity
 _atom_site_fract_x
 _atom_site_fract_y
 _atom_site_fract_z
 _atom_site_occupancy
  Ba  Ba0  1  0.02816034  0.21993007  0.80417889  1
  Ba  Ba1  1  0.01659163  0.61018089  0.69081100  1
  Ba  Ba2  1  0.19274798  0.99048044  0.52459729  1
  Ba  Ba3  1  0.30725202  0.49048044  0.97540271  1
  Ba  Ba4  1  0.48340837  0.11018089  0.80918900  1
  Ba  Ba5  1  0.47183966  0.71993007  0.69582111  1
  Ba  Ba6  1  0.52816034  0.28006993  0.30417889  1
  Ba  Ba7  1  0.51659263  0.88981911  0.19081100  1
  Ba  Ba8  1  0.69274798  0.50951956  0.02459729  1
  Ba  Ba9  1  0.80725202  0.00951956  0.47540271  1
  Ba  Ba10  1  0.98340737  0.38981911  0.30918900  1
  Ba  Ba11  1  0.97183966  0.78006993  0.19582111  1
  Y  Y12  1  0.18984561  0.85031098  0.93446250  1
  Y  Y13  1  0.19239172  0.17652729  0.14534001  1
  Y  Y14  1  0.31015439  0.35031098  0.56553750  1
  Y  Y15  1  0.30760828  0.67652729  0.35465999  1
  Y  Y16  1  0.69239172  0.32347271  0.64534001  1
  Y  Y17  1  0.68984561  0.64968902  0.43446250  1
  Y  Y18  1  0.80760828  0.82347271  0.85465999  1
  Y  Y19  1  0.81015439  0.14968902  0.06553750  1
  Br  Br20  1  0.99320877  0.74951271  0.92291764  1
  Br  Br21  1  0.99640880  0.12422290  0.58524140  1
  Br  Br22  1  0.09684222  0.45340821  0.85289309  1
  Br  Br23  1  0.11979439  0.42058456  0.53534719  1
  Br  Br24  1  0.08206847  0.15469031  0.31631252  1
  Br  Br25  1  0.11622603  0.61175838  0.31986870  1
  Br  Br26  1  0.11417968  0.97729816  0.08657976  1
  Br  Br27  1  0.13741710  0.97867696  0.78777642  1
  Br  Br28  1  0.18606132  0.69537991  0.07421836  1
  Br  Br29  1  0.22037908  0.38155615  0.19201018  1
  Br  Br30  1  0.25791371  0.22364199  0.95470008  1
  Br  Br31  1  0.24371103  0.70019291  0.80301349  1
  Br  Br32  1  0.25628897  0.20019291  0.69698651  1
  Br  Br33  1  0.24208629  0.72364199  0.54529992  1
  Br  Br34  1  0.27962092  0.88155615  0.30798982  1
  Br  Br35  1  0.31393868  0.19537991  0.42578164  1
  Br  Br36  1  0.36258290  0.47867696  0.71222358  1
  Br  Br37  1  0.38582032  0.47729816  0.41342024  1
  Br  Br38  1  0.38377397  0.11175838  0.18013130  1
  Br  Br39  1  0.38020561  0.92058456  0.96465281  1
  Br  Br40  1  0.41793153  0.65469031  0.18368748  1
  Br  Br41  1  0.40315778  0.95340821  0.64710691  1
  Br  Br42  1  0.50359120  0.62422290  0.91475860  1
  Br  Br43  1  0.50679123  0.24951271  0.57708236  1
  Br  Br44  1  0.49320877  0.75048729  0.42291764  1
  Br  Br45  1  0.49640880  0.37577710  0.08524140  1
  Br  Br46  1  0.59684222  0.04659179  0.35289309  1
  Br  Br47  1  0.58206847  0.34530969  0.81631252  1
  Br  Br48  1  0.61979439  0.07941544  0.03534719  1
  Br  Br49  1  0.61622603  0.88824162  0.81986870  1
  Br  Br50  1  0.61417968  0.52270184  0.58657976  1
  Br  Br51  1  0.63741710  0.52132304  0.28777642  1
  Br  Br52  1  0.68606132  0.80462009  0.57421836  1
  Br  Br53  1  0.72037908  0.11844385  0.69201018  1
  Br  Br54  1  0.75791371  0.27635801  0.45470008  1
  Br  Br55  1  0.74371103  0.79980709  0.30301349  1
  Br  Br56  1  0.75628897  0.29980709  0.19698651  1
  Br  Br57  1  0.74208629  0.77635801  0.04529992  1
  Br  Br58  1  0.77962092  0.61844385  0.80798982  1
  Br  Br59  1  0.81393868  0.30462009  0.92578164  1
  Br  Br60  1  0.86258290  0.02132304  0.21222358  1
  Br  Br61  1  0.88582032  0.02270184  0.91342024  1
  Br  Br62  1  0.88377397  0.38824162  0.68013130  1
  Br  Br63  1  0.91793153  0.84530969  0.68368748  1
  Br  Br64  1  0.88020561  0.57941544  0.46465281  1
  Br  Br65  1  0.90315778  0.54659179  0.14710691  1
  Br  Br66  1  0.00359120  0.87577710  0.41475860  1
  Br  Br67  1  0.00679123  0.25048729  0.07708236  1
