# generated using pymatgen
data_Na2SnPCO7
_symmetry_space_group_name_H-M   'P 1'
_cell_length_a   9.19870171
_cell_length_b   6.87703761
_cell_length_c   5.32092322
_cell_angle_alpha   90.00000000
_cell_angle_beta   92.66824307
_cell_angle_gamma   90.00000000
_symmetry_Int_Tables_number   1
_chemical_formula_structural   Na2SnPCO7
_chemical_formula_sum   'Na4 Sn2 P2 C2 O14'
_cell_volume   336.23570079
_cell_formula_units_Z   2
loop_
 _symmetry_equiv_pos_site_id
 _symmetry_equiv_pos_as_xyz
  1  'x, y, z'
loop_
 _atom_site_type_symbol
 _atom_site_label
 _atom_site_symmetry_multiplicity
 _atom_site_fract_x
 _atom_site_fract_y
 _atom_site_fract_z
 _atom_site_occupancy
  Na  Na0  1  0.22067434  0.49607371  0.23492702  1
  Na  Na1  1  0.22067434  0.00392629  0.23492702  1
  Na  Na2  1  0.77932566  0.50392629  0.76507298  1
  Na  Na3  1  0.77932566  0.99607371  0.76507298  1
  Sn  Sn4  1  0.36493666  0.75000000  0.78090584  1
  Sn  Sn5  1  0.63506334  0.25000000  0.21909416  1
  P  P6  1  0.41328284  0.25000000  0.71311513  1
  P  P7  1  0.58671716  0.75000000  0.28688487  1
  C  C8  1  0.07166083  0.75000000  0.72742609  1
  C  C9  1  0.92833917  0.25000000  0.27257391  1
  O  O10  1  0.06538170  0.25000000  0.28988709  1
  O  O11  1  0.14628832  0.75000000  0.94674288  1
  O  O12  1  0.15290541  0.75000000  0.52860253  1
  O  O13  1  0.33680561  0.06909924  0.82349843  1
  O  O14  1  0.33680561  0.43090076  0.82349843  1
  O  O15  1  0.42001437  0.75000000  0.20089333  1
  O  O16  1  0.40056144  0.25000000  0.42062389  1
  O  O17  1  0.59943856  0.75000000  0.57937611  1
  O  O18  1  0.57998563  0.25000000  0.79910667  1
  O  O19  1  0.66319439  0.56909924  0.17650157  1
  O  O20  1  0.66319439  0.93090076  0.17650157  1
  O  O21  1  0.84709459  0.25000000  0.47139747  1
  O  O22  1  0.85371168  0.25000000  0.05325712  1
  O  O23  1  0.93461830  0.75000000  0.71011291  1
