# generated using pymatgen
data_LiVWO6
_symmetry_space_group_name_H-M   'P 1'
_cell_length_a   5.13011693
_cell_length_b   7.35261347
_cell_length_c   6.81762006
_cell_angle_alpha   113.97386030
_cell_angle_beta   79.15581967
_cell_angle_gamma   109.21962851
_symmetry_Int_Tables_number   1
_chemical_formula_structural   LiVWO6
_chemical_formula_sum   'Li2 V2 W2 O12'
_cell_volume   221.43639492
_cell_formula_units_Z   2
loop_
 _symmetry_equiv_pos_site_id
 _symmetry_equiv_pos_as_xyz
  1  'x, y, z'
loop_
 _atom_site_type_symbol
 _atom_site_label
 _atom_site_symmetry_multiplicity
 _atom_site_fract_x
 _atom_site_fract_y
 _atom_site_fract_z
 _atom_site_occupancy
  Li  Li0  1  0.00000000  0.00000000  0.00000000  1
  Li  Li1  1  0.50000000  0.50000000  0.00000000  1
  V  V2  1  0.04605765  0.77214678  0.35417583  1
  V  V3  1  0.95394235  0.22785322  0.64582417  1
  W  W4  1  0.45145063  0.73288357  0.64041733  1
  W  W5  1  0.54854937  0.26711643  0.35958267  1
  O  O6  1  0.17076599  0.84825057  0.71970728  1
  O  O7  1  0.31453021  0.66305964  0.30837310  1
  O  O8  1  0.75727918  0.93744394  0.56231637  1
  O  O9  1  0.25783532  0.43389632  0.56486047  1
  O  O10  1  0.56053755  0.77556174  0.89088137  1
  O  O11  1  0.04836710  0.27842024  0.88348932  1
  O  O12  1  0.95163290  0.72157976  0.11651068  1
  O  O13  1  0.43946245  0.22443826  0.10911863  1
  O  O14  1  0.24272082  0.06255606  0.43768363  1
  O  O15  1  0.74216468  0.56610368  0.43513953  1
  O  O16  1  0.68546979  0.33694036  0.69162690  1
  O  O17  1  0.82923401  0.15174943  0.28029272  1
