# generated using pymatgen
data_Li3Mn2SnO6
_symmetry_space_group_name_H-M   'P 1'
_cell_length_a   15.99183835
_cell_length_b   10.11819833
_cell_length_c   10.11819830
_cell_angle_alpha   17.47129560
_cell_angle_beta   17.04455167
_cell_angle_gamma   17.04455260
_symmetry_Int_Tables_number   1
_chemical_formula_structural   Li3Mn2SnO6
_chemical_formula_sum   'Li3 Mn2 Sn1 O6'
_cell_volume   124.67429895
_cell_formula_units_Z   1
loop_
 _symmetry_equiv_pos_site_id
 _symmetry_equiv_pos_as_xyz
  1  'x, y, z'
loop_
 _atom_site_type_symbol
 _atom_site_label
 _atom_site_symmetry_multiplicity
 _atom_site_fract_x
 _atom_site_fract_y
 _atom_site_fract_z
 _atom_site_occupancy
  Li  Li0  1  0.16666700  0.50000000  0.50000000  1
  Li  Li1  1  0.50088069  0.49644321  0.49644321  1
  Li  Li2  1  0.83245331  0.50355679  0.50355679  1
  Mn  Mn3  1  0.98308893  0.01401887  0.01401887  1
  Mn  Mn4  1  0.35024407  0.98598113  0.98598113  1
  Sn  Sn5  1  0.66666700  0.00000000  0.00000000  1
  O  O6  1  0.25754255  0.25172056  0.25172056  1
  O  O7  1  0.56592529  0.26621330  0.26621330  1
  O  O8  1  0.07579145  0.74827944  0.74827944  1
  O  O9  1  0.89082410  0.27123202  0.27123202  1
  O  O10  1  0.44250890  0.72876798  0.72876798  1
  O  O11  1  0.76740771  0.73378670  0.73378670  1
