# generated using pymatgen
data_Ba2YF7
_symmetry_space_group_name_H-M   'P 1'
_cell_length_a   8.98916788
_cell_length_b   8.14378615
_cell_length_c   11.34482923
_cell_angle_alpha   90.00000000
_cell_angle_beta   90.00000000
_cell_angle_gamma   90.00000000
_symmetry_Int_Tables_number   1
_chemical_formula_structural   Ba2YF7
_chemical_formula_sum   'Ba8 Y4 F28'
_cell_volume   830.50799033
_cell_formula_units_Z   4
loop_
 _symmetry_equiv_pos_site_id
 _symmetry_equiv_pos_as_xyz
  1  'x, y, z'
loop_
 _atom_site_type_symbol
 _atom_site_label
 _atom_site_symmetry_multiplicity
 _atom_site_fract_x
 _atom_site_fract_y
 _atom_site_fract_z
 _atom_site_occupancy
  Ba  Ba0  1  0.10699880  0.25000000  0.74259747  1
  Ba  Ba1  1  0.19477765  0.75000000  0.89453406  1
  Ba  Ba2  1  0.30522235  0.25000000  0.39453406  1
  Ba  Ba3  1  0.39300120  0.75000000  0.24259747  1
  Ba  Ba4  1  0.60699880  0.25000000  0.75740253  1
  Ba  Ba5  1  0.69477765  0.75000000  0.60546594  1
  Ba  Ba6  1  0.80522235  0.25000000  0.10546594  1
  Ba  Ba7  1  0.89300120  0.75000000  0.25740253  1
  Y  Y8  1  0.18617268  0.75000000  0.55649607  1
  Y  Y9  1  0.31382732  0.25000000  0.05649607  1
  Y  Y10  1  0.68617268  0.75000000  0.94350393  1
  Y  Y11  1  0.81382732  0.25000000  0.44350393  1
  F  F12  1  0.04305437  0.25000000  0.51260930  1
  F  F13  1  0.09355703  0.25000000  0.13402065  1
  F  F14  1  0.13334012  0.75000000  0.12381935  1
  F  F15  1  0.12595155  0.56978062  0.69203725  1
  F  F16  1  0.12595155  0.93021938  0.69203725  1
  F  F17  1  0.25108150  0.57492366  0.41644886  1
  F  F18  1  0.25108150  0.92507634  0.41644886  1
  F  F19  1  0.24891850  0.07492366  0.91644886  1
  F  F20  1  0.24891850  0.42507634  0.91644886  1
  F  F21  1  0.37404845  0.06978062  0.19203725  1
  F  F22  1  0.37404845  0.43021938  0.19203725  1
  F  F23  1  0.36665988  0.25000000  0.62381935  1
  F  F24  1  0.40644297  0.75000000  0.63402065  1
  F  F25  1  0.45694563  0.75000000  0.01260930  1
  F  F26  1  0.54305437  0.25000000  0.98739070  1
  F  F27  1  0.59355703  0.25000000  0.36597935  1
  F  F28  1  0.63334012  0.75000000  0.37618065  1
  F  F29  1  0.62595155  0.56978062  0.80796275  1
  F  F30  1  0.62595155  0.93021938  0.80796275  1
  F  F31  1  0.75108150  0.57492366  0.08355114  1
  F  F32  1  0.75108150  0.92507634  0.08355114  1
  F  F33  1  0.74891850  0.07492366  0.58355114  1
  F  F34  1  0.74891850  0.42507634  0.58355114  1
  F  F35  1  0.87404845  0.06978062  0.30796275  1
  F  F36  1  0.87404845  0.43021938  0.30796275  1
  F  F37  1  0.86665988  0.25000000  0.87618065  1
  F  F38  1  0.90644297  0.75000000  0.86597935  1
  F  F39  1  0.95694563  0.75000000  0.48739070  1
