# generated using pymatgen
data_Li3NbS4
_symmetry_space_group_name_H-M   'P 1'
_cell_length_a   11.24561734
_cell_length_b   10.09484668
_cell_length_c   12.52552999
_cell_angle_alpha   90.00000000
_cell_angle_beta   90.00000000
_cell_angle_gamma   90.00000000
_symmetry_Int_Tables_number   1
_chemical_formula_structural   Li3NbS4
_chemical_formula_sum   'Li24 Nb8 S32'
_cell_volume   1421.93302138
_cell_formula_units_Z   8
loop_
 _symmetry_equiv_pos_site_id
 _symmetry_equiv_pos_as_xyz
  1  'x, y, z'
loop_
 _atom_site_type_symbol
 _atom_site_label
 _atom_site_symmetry_multiplicity
 _atom_site_fract_x
 _atom_site_fract_y
 _atom_site_fract_z
 _atom_site_occupancy
  Li  Li0  1  0.04512031  0.12530182  0.10731433  1
  Li  Li1  1  0.04512031  0.37469818  0.60731433  1
  Li  Li2  1  0.12875104  0.50340838  0.10117929  1
  Li  Li3  1  0.12875104  0.99659162  0.60117929  1
  Li  Li4  1  0.16935423  0.20150412  0.86442025  1
  Li  Li5  1  0.16935423  0.29849588  0.36442025  1
  Li  Li6  1  0.33064577  0.70150412  0.86442025  1
  Li  Li7  1  0.33064577  0.79849588  0.36442025  1
  Li  Li8  1  0.37124896  0.49659162  0.60117929  1
  Li  Li9  1  0.37124896  0.00340838  0.10117929  1
  Li  Li10  1  0.45487969  0.62530182  0.10731433  1
  Li  Li11  1  0.45487969  0.87469818  0.60731433  1
  Li  Li12  1  0.54512031  0.12530182  0.39268567  1
  Li  Li13  1  0.54512031  0.37469818  0.89268567  1
  Li  Li14  1  0.62875104  0.99659162  0.89882071  1
  Li  Li15  1  0.62875104  0.50340838  0.39882071  1
  Li  Li16  1  0.66935423  0.29849588  0.13557975  1
  Li  Li17  1  0.66935423  0.20150412  0.63557975  1
  Li  Li18  1  0.83064577  0.70150412  0.63557975  1
  Li  Li19  1  0.83064577  0.79849588  0.13557975  1
  Li  Li20  1  0.87124896  0.49659162  0.89882071  1
  Li  Li21  1  0.87124896  0.00340838  0.39882071  1
  Li  Li22  1  0.95487969  0.87469818  0.89268567  1
  Li  Li23  1  0.95487969  0.62530182  0.39268567  1
  Nb  Nb24  1  0.10443542  0.82015220  0.11716579  1
  Nb  Nb25  1  0.10443542  0.67984780  0.61716579  1
  Nb  Nb26  1  0.39556458  0.32015220  0.11716579  1
  Nb  Nb27  1  0.39556458  0.17984780  0.61716579  1
  Nb  Nb28  1  0.60443542  0.67984780  0.88283421  1
  Nb  Nb29  1  0.60443542  0.82015220  0.38283421  1
  Nb  Nb30  1  0.89556458  0.17984780  0.88283421  1
  Nb  Nb31  1  0.89556458  0.32015220  0.38283421  1
  S  S32  1  0.01063536  0.43411883  0.26533175  1
  S  S33  1  0.01063536  0.06588117  0.76533175  1
  S  S34  1  0.01878866  0.17938509  0.47576879  1
  S  S35  1  0.01878866  0.32061491  0.97576879  1
  S  S36  1  0.18058302  0.96688982  0.99598656  1
  S  S37  1  0.18058302  0.53311018  0.49598656  1
  S  S38  1  0.24792839  0.80202434  0.70130353  1
  S  S39  1  0.24792839  0.69797566  0.20130353  1
  S  S40  1  0.25207161  0.19797566  0.20130353  1
  S  S41  1  0.25207161  0.30202434  0.70130353  1
  S  S42  1  0.31941698  0.03311018  0.49598656  1
  S  S43  1  0.31941698  0.46688982  0.99598656  1
  S  S44  1  0.48121134  0.67938509  0.47576879  1
  S  S45  1  0.48121134  0.82061491  0.97576879  1
  S  S46  1  0.48936464  0.56588117  0.76533175  1
  S  S47  1  0.48936464  0.93411883  0.26533175  1
  S  S48  1  0.51063536  0.43411883  0.23466825  1
  S  S49  1  0.51063536  0.06588117  0.73466825  1
  S  S50  1  0.51878866  0.17938509  0.02423121  1
  S  S51  1  0.51878866  0.32061491  0.52423121  1
  S  S52  1  0.68058302  0.53311018  0.00401344  1
  S  S53  1  0.68058302  0.96688982  0.50401344  1
  S  S54  1  0.74792839  0.69797566  0.29869647  1
  S  S55  1  0.74792839  0.80202434  0.79869647  1
  S  S56  1  0.75207161  0.30202434  0.79869647  1
  S  S57  1  0.75207161  0.19797566  0.29869647  1
  S  S58  1  0.81941698  0.03311018  0.00401344  1
  S  S59  1  0.81941698  0.46688982  0.50401344  1
  S  S60  1  0.98121134  0.67938509  0.02423121  1
  S  S61  1  0.98121134  0.82061491  0.52423121  1
  S  S62  1  0.98936464  0.56588117  0.73466825  1
  S  S63  1  0.98936464  0.93411883  0.23466825  1
