# generated using pymatgen
data_Bi12BO20
_symmetry_space_group_name_H-M   'P 1'
_cell_length_a   8.78572562
_cell_length_b   8.78572562
_cell_length_c   8.78572562
_cell_angle_alpha   109.50177145
_cell_angle_beta   109.47781968
_cell_angle_gamma   109.43407805
_symmetry_Int_Tables_number   1
_chemical_formula_structural   Bi12BO20
_chemical_formula_sum   'Bi12 B1 O20'
_cell_volume   522.04851164
_cell_formula_units_Z   1
loop_
 _symmetry_equiv_pos_site_id
 _symmetry_equiv_pos_as_xyz
  1  'x, y, z'
loop_
 _atom_site_type_symbol
 _atom_site_label
 _atom_site_symmetry_multiplicity
 _atom_site_fract_x
 _atom_site_fract_y
 _atom_site_fract_z
 _atom_site_occupancy
  Bi  Bi0  1  0.83925586  0.32854960  0.14102183  1
  Bi  Bi1  1  0.48959841  0.16086352  0.30203221  1
  Bi  Bi2  1  0.85883131  0.18756620  0.69796779  1
  Bi  Bi3  1  0.69849505  0.85876880  0.18798495  1
  Bi  Bi4  1  0.30150495  0.48948990  0.16027375  1
  Bi  Bi5  1  0.81247123  0.67145040  0.51070626  1
  Bi  Bi6  1  0.16074414  0.30176597  0.48929374  1
  Bi  Bi7  1  0.67078386  0.51051010  0.81201505  1
  Bi  Bi8  1  0.32921614  0.14123120  0.83972625  1
  Bi  Bi9  1  0.51040159  0.81243380  0.67126611  1
  Bi  Bi10  1  0.14116869  0.83913648  0.32873389  1
  Bi  Bi11  1  0.18752877  0.69823403  0.85897817  1
  B  B12  1  0.00000000  0.00000000  0.00000000  1
  O  O13  1  0.39952669  0.99984577  -0.00000934  1
  O  O14  1  0.74048507  0.12294001  0.35489119  1
  O  O15  1  0.87682696  0.61752504  0.23146737  1
  O  O16  1  0.61394232  0.38247496  0.25930091  1
  O  O17  1  0.17213378  0.17206543  0.17271157  1
  O  O18  1  0.82786622  0.00057779  0.99993166  1
  O  O19  1  0.76804981  0.38559388  0.64510881  1
  O  O20  1  0.99985511  0.39953603  0.00000934  1
  O  O21  1  0.38271728  0.25939971  0.61369155  1
  O  O22  1  0.61728272  0.23097427  0.87668243  1
  O  O23  1  0.35429184  0.74060029  0.12331757  1
  O  O24  1  0.64570816  0.76902573  0.38630845  1
  O  O25  1  0.60047331  0.60046397  0.60031808  1
  O  O26  1  0.25951493  0.61440612  0.38245594  1
  O  O27  1  0.99935386  0.99942221  0.82728843  1
  O  O28  1  0.00064614  0.82793457  0.00006834  1
  O  O29  1  0.12317304  0.35464041  0.74069909  1
  O  O30  1  0.38605768  0.64535959  0.76853263  1
  O  O31  1  0.23195019  0.87705999  0.61754406  1
  O  O32  1  0.00014489  0.00015423  0.39968192  1
