# generated using pymatgen
data_Li6Fe3Cu(PO4)6
_symmetry_space_group_name_H-M   'P 1'
_cell_length_a   8.52490330
_cell_length_b   8.57576905
_cell_length_c   8.58605249
_cell_angle_alpha   61.71305604
_cell_angle_beta   61.81324415
_cell_angle_gamma   61.81381143
_symmetry_Int_Tables_number   1
_chemical_formula_structural   Li6Fe3Cu(PO4)6
_chemical_formula_sum   'Li6 Fe3 Cu1 P6 O24'
_cell_volume   461.55419225
_cell_formula_units_Z   1
loop_
 _symmetry_equiv_pos_site_id
 _symmetry_equiv_pos_as_xyz
  1  'x, y, z'
loop_
 _atom_site_type_symbol
 _atom_site_label
 _atom_site_symmetry_multiplicity
 _atom_site_fract_x
 _atom_site_fract_y
 _atom_site_fract_z
 _atom_site_occupancy
  Li  Li0  1  0.02459799  0.00299436  0.99210798  1
  Li  Li1  1  0.75492177  0.14852415  0.34925044  1
  Li  Li2  1  0.47443968  0.50609887  0.49417251  1
  Li  Li3  1  0.22008139  0.84861093  0.65852129  1
  Li  Li4  1  0.66188890  0.21954654  0.84718751  1
  Li  Li5  1  0.84550393  0.66250483  0.21773535  1
  Fe  Fe6  1  0.14572797  0.14517168  0.13607047  1
  Fe  Fe7  1  0.35387589  0.36318953  0.35398970  1
  Fe  Fe8  1  0.64645211  0.64612810  0.64811251  1
  Cu  Cu9  1  0.85306966  0.85152278  0.85221835  1
  P  P10  1  0.05061843  0.75010907  0.45321089  1
  P  P11  1  0.45268083  0.05169226  0.74775590  1
  P  P12  1  0.74892134  0.45549665  0.04958776  1
  P  P13  1  0.24884840  0.54471467  0.95587333  1
  P  P14  1  0.54656407  0.96132638  0.24980698  1
  P  P15  1  0.95321813  0.24806419  0.53950107  1
  O  O16  1  0.12330997  0.30199821  0.48944499  1
  O  O17  1  0.31314782  0.50580439  0.11372209  1
  O  O18  1  0.04003275  0.92250839  0.27312268  1
  O  O19  1  0.52992154  0.11573190  0.30677178  1
  O  O20  1  0.24449989  0.59714936  0.42173891  1
  O  O21  1  0.03239705  0.79814170  0.61580787  1
  O  O22  1  0.26381461  0.06383418  0.90847449  1
  O  O23  1  0.44373552  0.23822799  0.58168825  1
  O  O24  1  0.59544565  0.42651757  0.24549425  1
  O  O25  1  0.19348200  0.38297189  0.99125918  1
  O  O26  1  0.08170230  0.73420449  0.95117488  1
  O  O27  1  0.37205189  0.00707240  0.20680637  1
  O  O28  1  0.61568063  0.02832682  0.80091403  1
  O  O29  1  0.90658587  0.26208458  0.06532056  1
  O  O30  1  0.80340958  0.61463421  0.02828489  1
  O  O31  1  0.40020658  0.57859768  0.75863026  1
  O  O32  1  0.57737919  0.76329412  0.40037816  1
  O  O33  1  0.73173255  0.95151771  0.07795248  1
  O  O34  1  0.96664642  0.20057039  0.38132790  1
  O  O35  1  0.75944339  0.40169820  0.58191623  1
  O  O36  1  0.49485461  0.88872211  0.68757772  1
  O  O37  1  0.95397236  0.07982271  0.72763829  1
  O  O38  1  0.68511719  0.49743995  0.89013201  1
  O  O39  1  0.89001916  0.68243006  0.50032169  1
