# generated using pymatgen
data_Sm2Cu2O5
_symmetry_space_group_name_H-M   'P 1'
_cell_length_a   11.05891161
_cell_length_b   12.74684169
_cell_length_c   3.65156448
_cell_angle_alpha   90.00000000
_cell_angle_beta   90.00000000
_cell_angle_gamma   90.00000000
_symmetry_Int_Tables_number   1
_chemical_formula_structural   Sm2Cu2O5
_chemical_formula_sum   'Sm8 Cu8 O20'
_cell_volume   514.74715257
_cell_formula_units_Z   4
loop_
 _symmetry_equiv_pos_site_id
 _symmetry_equiv_pos_as_xyz
  1  'x, y, z'
loop_
 _atom_site_type_symbol
 _atom_site_label
 _atom_site_symmetry_multiplicity
 _atom_site_fract_x
 _atom_site_fract_y
 _atom_site_fract_z
 _atom_site_occupancy
  Sm  Sm0  1  0.04298880  0.32976794  0.21710867  1
  Sm  Sm1  1  0.20790967  0.00321850  0.21373237  1
  Sm  Sm2  1  0.29209033  0.50321850  0.71373237  1
  Sm  Sm3  1  0.45701120  0.82976794  0.71710867  1
  Sm  Sm4  1  0.54298880  0.32976794  0.28289133  1
  Sm  Sm5  1  0.70790967  0.00321850  0.28626763  1
  Sm  Sm6  1  0.79209033  0.50321850  0.78626763  1
  Sm  Sm7  1  0.95701120  0.82976794  0.78289133  1
  Cu  Cu8  1  0.01140291  0.61413201  0.33962577  1
  Cu  Cu9  1  0.23689884  0.71771399  0.15626215  1
  Cu  Cu10  1  0.26310116  0.21771399  0.65626215  1
  Cu  Cu11  1  0.48859709  0.11413201  0.83962577  1
  Cu  Cu12  1  0.51140291  0.61413201  0.16037423  1
  Cu  Cu13  1  0.73689884  0.71771399  0.34373785  1
  Cu  Cu14  1  0.76310116  0.21771399  0.84373785  1
  Cu  Cu15  1  0.98859709  0.11413201  0.66037423  1
  O  O16  1  0.07363219  0.76253517  0.27727484  1
  O  O17  1  0.07532395  0.97685068  0.72207233  1
  O  O18  1  0.12524597  0.16639780  0.36914949  1
  O  O19  1  0.17570883  0.35455551  0.72396446  1
  O  O20  1  0.17439642  0.56847541  0.21534106  1
  O  O21  1  0.32560358  0.06847541  0.71534106  1
  O  O22  1  0.32429117  0.85455551  0.22396446  1
  O  O23  1  0.37475403  0.66639780  0.86914949  1
  O  O24  1  0.42467605  0.47685068  0.22207233  1
  O  O25  1  0.42636781  0.26253517  0.77727484  1
  O  O26  1  0.57363219  0.76253517  0.22272516  1
  O  O27  1  0.57532395  0.97685068  0.77792767  1
  O  O28  1  0.62524597  0.16639780  0.13085051  1
  O  O29  1  0.67570883  0.35455551  0.77603554  1
  O  O30  1  0.67439642  0.56847541  0.28465894  1
  O  O31  1  0.82560358  0.06847541  0.78465894  1
  O  O32  1  0.82429117  0.85455551  0.27603554  1
  O  O33  1  0.87475403  0.66639780  0.63085051  1
  O  O34  1  0.92467605  0.47685068  0.27792767  1
  O  O35  1  0.92636781  0.26253517  0.72272516  1
