# generated using pymatgen
data_Li7MgNi7O16
_symmetry_space_group_name_H-M   'P 1'
_cell_length_a   4.99618963
_cell_length_b   7.57737226
_cell_length_c   7.57737194
_cell_angle_alpha   98.37072790
_cell_angle_beta   77.39396260
_cell_angle_gamma   77.39396174
_symmetry_Int_Tables_number   1
_chemical_formula_structural   Li7MgNi7O16
_chemical_formula_sum   'Li7 Mg1 Ni7 O16'
_cell_volume   267.51920827
_cell_formula_units_Z   1
loop_
 _symmetry_equiv_pos_site_id
 _symmetry_equiv_pos_as_xyz
  1  'x, y, z'
loop_
 _atom_site_type_symbol
 _atom_site_label
 _atom_site_symmetry_multiplicity
 _atom_site_fract_x
 _atom_site_fract_y
 _atom_site_fract_z
 _atom_site_occupancy
  Li  Li0  1  0.50098020  0.00232644  0.50261966  1
  Li  Li1  1  0.52751192  0.24352042  0.23984598  1
  Li  Li2  1  0.50000000  0.11929764  0.88070236  1
  Li  Li3  1  0.49901980  0.49738034  0.99767356  1
  Li  Li4  1  0.50000000  0.37816675  0.62183325  1
  Li  Li5  1  0.50000000  0.62083603  0.37916397  1
  Li  Li6  1  0.47248808  0.76015402  0.75647958  1
  Mg  Mg7  1  0.50000000  0.88214888  0.11785112  1
  Ni  Ni8  1  0.00098497  0.12360224  0.36864539  1
  Ni  Ni9  1  1.00000000  0.25110254  0.74889746  1
  Ni  Ni10  1  0.99798278  0.36968965  0.12151768  1
  Ni  Ni11  1  0.00000000  0.49888109  0.50111891  1
  Ni  Ni12  1  0.99901503  0.63135461  0.87639776  1
  Ni  Ni13  1  1.00000000  0.75032918  0.24967082  1
  Ni  Ni14  1  0.00201722  0.87848232  0.63031035  1
  O  O15  1  0.22675233  0.01460176  0.73251450  1
  O  O16  1  0.24980078  0.13494178  0.15004762  1
  O  O17  1  0.78666092  0.12659721  0.61962835  1
  O  O18  1  0.21822274  0.26208633  0.51627381  1
  O  O19  1  0.20892647  0.50578187  0.25583065  1
  O  O20  1  0.76520358  0.36453334  0.36276885  1
  O  O21  1  0.21333908  0.38037165  0.87340279  1
  O  O22  1  0.77324767  0.26748550  0.98539824  1
  O  O23  1  0.23479642  0.63723115  0.63546666  1
  O  O24  1  0.77380577  0.63628620  0.12745202  1
  O  O25  1  0.23908160  0.73555101  0.02313686  1
  O  O26  1  0.78177726  0.48372619  0.73791367  1
  O  O27  1  0.22619423  0.87254798  0.36371380  1
  O  O28  1  0.79107353  0.74416935  0.49421813  1
  O  O29  1  0.76091840  0.97686314  0.26444899  1
  O  O30  1  0.75019922  0.84995238  0.86505822  1
