# generated using pymatgen
data_Ba3Y2Cl12
_symmetry_space_group_name_H-M   'P 1'
_cell_length_a   12.90062150
_cell_length_b   12.38327469
_cell_length_c   13.14076911
_cell_angle_alpha   90.00000000
_cell_angle_beta   90.41058040
_cell_angle_gamma   90.00000000
_symmetry_Int_Tables_number   1
_chemical_formula_structural   Ba3Y2Cl12
_chemical_formula_sum   'Ba12 Y8 Cl48'
_cell_volume   2099.20945391
_cell_formula_units_Z   4
loop_
 _symmetry_equiv_pos_site_id
 _symmetry_equiv_pos_as_xyz
  1  'x, y, z'
loop_
 _atom_site_type_symbol
 _atom_site_label
 _atom_site_symmetry_multiplicity
 _atom_site_fract_x
 _atom_site_fract_y
 _atom_site_fract_z
 _atom_site_occupancy
  Ba  Ba0  1  0.02413499  0.21731298  0.79896458  1
  Ba  Ba1  1  0.01291468  0.61123653  0.69037418  1
  Ba  Ba2  1  0.19311211  0.99171787  0.51855632  1
  Ba  Ba3  1  0.30688789  0.49171787  0.98144368  1
  Ba  Ba4  1  0.48708532  0.11123653  0.80962582  1
  Ba  Ba5  1  0.47586501  0.71731298  0.70103542  1
  Ba  Ba6  1  0.52413499  0.28268702  0.29896458  1
  Ba  Ba7  1  0.51291468  0.88876347  0.19037418  1
  Ba  Ba8  1  0.69311211  0.50828213  0.01855632  1
  Ba  Ba9  1  0.80688789  0.00828213  0.48144368  1
  Ba  Ba10  1  0.98708532  0.38876347  0.30962582  1
  Ba  Ba11  1  0.97586501  0.78268702  0.20103542  1
  Y  Y12  1  0.19191798  0.85292793  0.92540841  1
  Y  Y13  1  0.19075917  0.16519110  0.14756548  1
  Y  Y14  1  0.30808202  0.35292793  0.57459159  1
  Y  Y15  1  0.30924083  0.66519110  0.35243452  1
  Y  Y16  1  0.69075917  0.33480890  0.64756548  1
  Y  Y17  1  0.69191798  0.64707207  0.42540841  1
  Y  Y18  1  0.80924083  0.83480890  0.85243452  1
  Y  Y19  1  0.80808202  0.14707207  0.07459159  1
  Cl  Cl20  1  0.99949338  0.75598490  0.90203880  1
  Cl  Cl21  1  0.00012903  0.13822776  0.57097597  1
  Cl  Cl22  1  0.09592995  0.45237159  0.85011910  1
  Cl  Cl23  1  0.12125491  0.42896989  0.54029553  1
  Cl  Cl24  1  0.09629870  0.11817428  0.31600094  1
  Cl  Cl25  1  0.11732433  0.60838922  0.31775346  1
  Cl  Cl26  1  0.11170323  0.97466566  0.07560568  1
  Cl  Cl27  1  0.13832797  0.98288519  0.77934236  1
  Cl  Cl28  1  0.18669506  0.70254683  0.06724640  1
  Cl  Cl29  1  0.21750913  0.36714446  0.20362218  1
  Cl  Cl30  1  0.23919068  0.22531702  0.95987647  1
  Cl  Cl31  1  0.24364889  0.70431986  0.79622108  1
  Cl  Cl32  1  0.25635111  0.20431986  0.70377892  1
  Cl  Cl33  1  0.26080932  0.72531702  0.54012353  1
  Cl  Cl34  1  0.28249087  0.86714446  0.29637782  1
  Cl  Cl35  1  0.31330494  0.20254683  0.43275360  1
  Cl  Cl36  1  0.36167203  0.48288519  0.72065764  1
  Cl  Cl37  1  0.38829677  0.47466566  0.42439432  1
  Cl  Cl38  1  0.38267567  0.10838922  0.18224654  1
  Cl  Cl39  1  0.37874509  0.92896989  0.95970447  1
  Cl  Cl40  1  0.40370130  0.61817428  0.18399906  1
  Cl  Cl41  1  0.40407005  0.95237159  0.64988090  1
  Cl  Cl42  1  0.49987097  0.63822776  0.92902403  1
  Cl  Cl43  1  0.50050662  0.25598490  0.59796120  1
  Cl  Cl44  1  0.49949338  0.74401510  0.40203880  1
  Cl  Cl45  1  0.50012903  0.36177224  0.07097597  1
  Cl  Cl46  1  0.59592995  0.04762841  0.35011910  1
  Cl  Cl47  1  0.59629870  0.38182572  0.81600094  1
  Cl  Cl48  1  0.62125491  0.07103011  0.04029553  1
  Cl  Cl49  1  0.61732433  0.89161078  0.81775346  1
  Cl  Cl50  1  0.61170323  0.52533434  0.57560568  1
  Cl  Cl51  1  0.63832797  0.51711481  0.27934236  1
  Cl  Cl52  1  0.68669506  0.79745317  0.56724640  1
  Cl  Cl53  1  0.71750913  0.13285554  0.70362218  1
  Cl  Cl54  1  0.73919068  0.27468298  0.45987647  1
  Cl  Cl55  1  0.74364889  0.79568014  0.29622108  1
  Cl  Cl56  1  0.75635111  0.29568014  0.20377892  1
  Cl  Cl57  1  0.76080932  0.77468298  0.04012353  1
  Cl  Cl58  1  0.78249087  0.63285554  0.79637782  1
  Cl  Cl59  1  0.81330494  0.29745317  0.93275360  1
  Cl  Cl60  1  0.86167203  0.01711481  0.22065764  1
  Cl  Cl61  1  0.88829677  0.02533434  0.92439432  1
  Cl  Cl62  1  0.88267567  0.39161078  0.68224654  1
  Cl  Cl63  1  0.90370130  0.88182572  0.68399906  1
  Cl  Cl64  1  0.87874509  0.57103011  0.45970447  1
  Cl  Cl65  1  0.90407005  0.54762841  0.14988090  1
  Cl  Cl66  1  0.99987097  0.86177224  0.42902403  1
  Cl  Cl67  1  0.00050662  0.24401510  0.09796120  1
