# generated using pymatgen
data_SbSO4F3
_symmetry_space_group_name_H-M   'P 1'
_cell_length_a   5.46264332
_cell_length_b   9.19941159
_cell_length_c   12.75350201
_cell_angle_alpha   90.00000000
_cell_angle_beta   90.00000000
_cell_angle_gamma   90.00000000
_symmetry_Int_Tables_number   1
_chemical_formula_structural   SbSO4F3
_chemical_formula_sum   'Sb4 S4 O16 F12'
_cell_volume   640.90306632
_cell_formula_units_Z   4
loop_
 _symmetry_equiv_pos_site_id
 _symmetry_equiv_pos_as_xyz
  1  'x, y, z'
loop_
 _atom_site_type_symbol
 _atom_site_label
 _atom_site_symmetry_multiplicity
 _atom_site_fract_x
 _atom_site_fract_y
 _atom_site_fract_z
 _atom_site_occupancy
  Sb  Sb0  1  0.08967311  0.98879582  0.50529969  1
  Sb  Sb1  1  0.41032689  0.01120418  0.00529969  1
  Sb  Sb2  1  0.58967311  0.51120418  0.49470031  1
  Sb  Sb3  1  0.91032689  0.48879582  0.99470031  1
  S  S4  1  0.04719101  0.20869701  0.16029390  1
  S  S5  1  0.45280899  0.79130299  0.66029390  1
  S  S6  1  0.54719101  0.29130299  0.83970610  1
  S  S7  1  0.95280899  0.70869701  0.33970610  1
  O  O8  1  0.12410824  0.12916172  0.05349800  1
  O  O9  1  0.08578272  0.84712931  0.38866717  1
  O  O10  1  0.15112141  0.62908363  0.29336278  1
  O  O11  1  0.25910996  0.24865972  0.21847402  1
  O  O12  1  0.24089004  0.75134028  0.71847402  1
  O  O13  1  0.34887859  0.37091637  0.79336278  1
  O  O14  1  0.41421728  0.15287069  0.88866717  1
  O  O15  1  0.37589176  0.87083828  0.55349800  1
  O  O16  1  0.62410824  0.37083828  0.94650200  1
  O  O17  1  0.58578272  0.65287069  0.61133283  1
  O  O18  1  0.65112141  0.87091637  0.70663722  1
  O  O19  1  0.75910996  0.25134028  0.78152598  1
  O  O20  1  0.74089004  0.74865972  0.28152598  1
  O  O21  1  0.84887859  0.12908363  0.20663722  1
  O  O22  1  0.91421728  0.34712931  0.11133283  1
  O  O23  1  0.87589176  0.62916172  0.44650200  1
  F  F24  1  0.04734981  0.07157433  0.63920242  1
  F  F25  1  0.22777287  0.55122537  0.03320347  1
  F  F26  1  0.28209189  0.12759193  0.43791641  1
  F  F27  1  0.21790811  0.87240807  0.93791641  1
  F  F28  1  0.27222713  0.44877463  0.53320347  1
  F  F29  1  0.45265019  0.92842567  0.13920242  1
  F  F30  1  0.54734981  0.42842567  0.36079758  1
  F  F31  1  0.72777287  0.94877463  0.96679653  1
  F  F32  1  0.78209189  0.37240807  0.56208359  1
  F  F33  1  0.71790811  0.62759193  0.06208359  1
  F  F34  1  0.77222713  0.05122537  0.46679653  1
  F  F35  1  0.95265019  0.57157433  0.86079758  1
