# generated using pymatgen
data_Li3CrFe3O8
_symmetry_space_group_name_H-M   'P 1'
_cell_length_a   5.19835013
_cell_length_b   7.86057682
_cell_length_c   7.88047700
_cell_angle_alpha   81.70537470
_cell_angle_beta   70.96020008
_cell_angle_gamma   83.96367325
_symmetry_Int_Tables_number   1
_chemical_formula_structural   Li3CrFe3O8
_chemical_formula_sum   'Li6 Cr2 Fe6 O16'
_cell_volume   300.63000089
_cell_formula_units_Z   2
loop_
 _symmetry_equiv_pos_site_id
 _symmetry_equiv_pos_as_xyz
  1  'x, y, z'
loop_
 _atom_site_type_symbol
 _atom_site_label
 _atom_site_symmetry_multiplicity
 _atom_site_fract_x
 _atom_site_fract_y
 _atom_site_fract_z
 _atom_site_occupancy
  Li  Li0  1  0.00005389  0.00008629  0.00004465  1
  Li  Li1  1  0.99874995  0.61764126  0.12010689  1
  Li  Li2  1  0.99963925  0.11716415  0.62506243  1
  Li  Li3  1  0.00013655  0.49981358  0.50013606  1
  Li  Li4  1  0.00041855  0.88242832  0.37507965  1
  Li  Li5  1  0.00088143  0.38231793  0.87993541  1
  Cr  Cr6  1  0.49110886  0.68768910  0.43770627  1
  Cr  Cr7  1  0.50907431  0.31229495  0.56215574  1
  Fe  Fe8  1  0.49595529  0.43333617  0.18655303  1
  Fe  Fe9  1  0.51700051  0.81313627  0.05694621  1
  Fe  Fe10  1  0.50546217  0.06403664  0.30755951  1
  Fe  Fe11  1  0.49482509  0.93604224  0.69243566  1
  Fe  Fe12  1  0.48277887  0.18700045  0.94307834  1
  Fe  Fe13  1  0.50386800  0.56667009  0.81338172  1
  O  O14  1  0.27664586  0.02181000  0.15148820  1
  O  O15  1  0.27577907  0.41378643  0.01812414  1
  O  O16  1  0.27505127  0.65469639  0.28752448  1
  O  O17  1  0.29322613  0.28162000  0.41223086  1
  O  O18  1  0.28446082  0.90147984  0.51481906  1
  O  O19  1  0.26974165  0.15973040  0.77137994  1
  O  O20  1  0.28741662  0.51620748  0.64175167  1
  O  O21  1  0.71545733  0.21929280  0.09517606  1
  O  O22  1  0.28444628  0.78076582  0.90476866  1
  O  O23  1  0.71252164  0.48404844  0.35804490  1
  O  O24  1  0.73039799  0.84028970  0.22864149  1
  O  O25  1  0.71559316  0.09836815  0.48520495  1
  O  O26  1  0.70700175  0.71822718  0.58774111  1
  O  O27  1  0.72498243  0.34543101  0.71249092  1
  O  O28  1  0.72401589  0.58636857  0.98182874  1
  O  O29  1  0.72330939  0.97821737  0.84860825  1
