# generated using pymatgen
data_LiTiVO4
_symmetry_space_group_name_H-M   'P 1'
_cell_length_a   5.28796522
_cell_length_b   6.01892064
_cell_length_c   7.88580196
_cell_angle_alpha   79.15564878
_cell_angle_beta   71.73768334
_cell_angle_gamma   90.78954465
_symmetry_Int_Tables_number   1
_chemical_formula_structural   LiTiVO4
_chemical_formula_sum   'Li3 Ti3 V3 O12'
_cell_volume   233.37686965
_cell_formula_units_Z   3
loop_
 _symmetry_equiv_pos_site_id
 _symmetry_equiv_pos_as_xyz
  1  'x, y, z'
loop_
 _atom_site_type_symbol
 _atom_site_label
 _atom_site_symmetry_multiplicity
 _atom_site_fract_x
 _atom_site_fract_y
 _atom_site_fract_z
 _atom_site_occupancy
  Li  Li0  1  0.99695250  0.48446373  0.00403227  1
  Li  Li1  1  0.99725693  0.66691903  0.33255912  1
  Li  Li2  1  0.00509321  0.85495456  0.66167112  1
  Ti  Ti3  1  0.50597965  0.76235418  0.00127593  1
  Ti  Ti4  1  0.46922165  0.40421811  0.34142757  1
  Ti  Ti5  1  0.50198480  0.57703258  0.66887569  1
  V  V6  1  0.49488717  0.24798043  0.00291871  1
  V  V7  1  0.52617466  0.91998283  0.32693373  1
  V  V8  1  0.50146222  0.08321292  0.66592232  1
  O  O9  1  0.29775347  0.94757501  0.15860200  1
  O  O10  1  0.27812416  0.47279009  0.16164855  1
  O  O11  1  0.29182718  0.12296953  0.49123452  1
  O  O12  1  0.29032349  0.63310021  0.48767671  1
  O  O13  1  0.29889876  0.30079742  0.82252862  1
  O  O14  1  0.28657955  0.77535768  0.82443512  1
  O  O15  1  0.71277038  0.69164172  0.17140616  1
  O  O16  1  0.70271815  0.22572749  0.17624144  1
  O  O17  1  0.69726285  0.39395583  0.50028078  1
  O  O18  1  0.72024403  0.86244589  0.51509470  1
  O  O19  1  0.70837065  0.54837154  0.84338023  1
  O  O20  1  0.70902055  0.02522523  0.84104072  1
