# generated using pymatgen
data_LiMn(PO3)4
_symmetry_space_group_name_H-M   'P 1'
_cell_length_a   6.98936412
_cell_length_b   13.15669422
_cell_length_c   6.98936412
_cell_angle_alpha   67.39626233
_cell_angle_beta   72.51364191
_cell_angle_gamma   112.60373767
_symmetry_Int_Tables_number   1
_chemical_formula_structural   LiMn(PO3)4
_chemical_formula_sum   'Li2 Mn2 P8 O24'
_cell_volume   465.90592386
_cell_formula_units_Z   2
loop_
 _symmetry_equiv_pos_site_id
 _symmetry_equiv_pos_as_xyz
  1  'x, y, z'
loop_
 _atom_site_type_symbol
 _atom_site_label
 _atom_site_symmetry_multiplicity
 _atom_site_fract_x
 _atom_site_fract_y
 _atom_site_fract_z
 _atom_site_occupancy
  Li  Li0  1  0.89786363  0.75000000  0.89786363  1
  Li  Li1  1  0.10213637  0.25000000  0.10213637  1
  Mn  Mn2  1  0.63253057  0.75000000  0.63253057  1
  Mn  Mn3  1  0.36746943  0.25000000  0.36746943  1
  P  P4  1  0.30702008  0.02246524  0.81196419  1
  P  P5  1  0.18803581  0.52246524  0.69297992  1
  P  P6  1  0.23007991  0.95972171  0.32475601  1
  P  P7  1  0.32475601  0.54027829  0.23007991  1
  P  P8  1  0.67524399  0.45972171  0.76992009  1
  P  P9  1  0.76992009  0.04027829  0.67524399  1
  P  P10  1  0.81196419  0.47753476  0.30702008  1
  P  P11  1  0.69297992  0.97753476  0.18803581  1
  O  O12  1  0.16668166  0.89942904  0.82678105  1
  O  O13  1  0.29946882  0.63746302  0.72079071  1
  O  O14  1  0.97995503  0.83295904  0.53398790  1
  O  O15  1  0.17321895  0.39942904  0.83331834  1
  O  O16  1  0.68656269  0.91687170  0.67980357  1
  O  O17  1  0.27920929  0.13746302  0.70053118  1
  O  O18  1  0.07565931  0.51231982  0.24740022  1
  O  O19  1  0.40395590  0.90864929  0.33603194  1
  O  O20  1  0.33603194  0.59135071  0.40395590  1
  O  O21  1  0.24740022  0.98768018  0.07565931  1
  O  O22  1  0.46601210  0.33295904  0.02004497  1
  O  O23  1  0.67980357  0.58312830  0.68656269  1
  O  O24  1  0.32019643  0.41687170  0.31343731  1
  O  O25  1  0.53398790  0.66704096  0.97995503  1
  O  O26  1  0.75259978  0.01231982  0.92434069  1
  O  O27  1  0.66396806  0.40864929  0.59604410  1
  O  O28  1  0.59604410  0.09135071  0.66396806  1
  O  O29  1  0.92434069  0.48768018  0.75259978  1
  O  O30  1  0.72079071  0.86253698  0.29946882  1
  O  O31  1  0.31343731  0.08312830  0.32019643  1
  O  O32  1  0.82678105  0.60057096  0.16668166  1
  O  O33  1  0.02004497  0.16704096  0.46601210  1
  O  O34  1  0.70053118  0.36253698  0.27920929  1
  O  O35  1  0.83331834  0.10057096  0.17321895  1
