# generated using pymatgen
data_Li4Co3WO8
_symmetry_space_group_name_H-M   'P 1'
_cell_length_a   10.38175831
_cell_length_b   10.38043932
_cell_length_c   14.66000201
_cell_angle_alpha   19.69193954
_cell_angle_beta   19.69273689
_cell_angle_gamma   33.93608869
_symmetry_Int_Tables_number   1
_chemical_formula_structural   Li4Co3WO8
_chemical_formula_sum   'Li4 Co3 W1 O8'
_cell_volume   155.34226700
_cell_formula_units_Z   1
loop_
 _symmetry_equiv_pos_site_id
 _symmetry_equiv_pos_as_xyz
  1  'x, y, z'
loop_
 _atom_site_type_symbol
 _atom_site_label
 _atom_site_symmetry_multiplicity
 _atom_site_fract_x
 _atom_site_fract_y
 _atom_site_fract_z
 _atom_site_occupancy
  Li  Li0  1  0.00000034  0.99999975  0.50000006  1
  Li  Li1  1  0.99999963  0.49999959  0.50000053  1
  Li  Li2  1  0.50000044  0.00000049  0.49999961  1
  Li  Li3  1  0.49999923  0.50000001  0.50000037  1
  Co  Co4  1  0.00000031  0.50000017  0.99999972  1
  Co  Co5  1  0.50000063  0.00000056  0.99999912  1
  Co  Co6  1  0.49999991  0.50000019  0.99999982  1
  W  W7  1  0.99999896  0.99999897  0.00000134  1
  O  O8  1  0.00015333  0.00009920  0.26130610  1
  O  O9  1  0.00228407  0.54455636  0.22299542  1
  O  O10  1  0.54244277  0.99782210  0.22740677  1
  O  O11  1  0.99984736  0.99990211  0.73869256  1
  O  O12  1  0.45553203  0.45777706  0.31198451  1
  O  O13  1  0.99771507  0.45544362  0.77700488  1
  O  O14  1  0.45755625  0.00217801  0.77259340  1
  O  O15  1  0.54446768  0.54222280  0.68801581  1
