# generated using pymatgen
data_Li6Mn3Ni(PO4)6
_symmetry_space_group_name_H-M   'P 1'
_cell_length_a   8.49806479
_cell_length_b   8.57857624
_cell_length_c   8.51006293
_cell_angle_alpha   61.60054735
_cell_angle_beta   61.81406950
_cell_angle_gamma   62.31215272
_symmetry_Int_Tables_number   1
_chemical_formula_structural   Li6Mn3Ni(PO4)6
_chemical_formula_sum   'Li6 Mn3 Ni1 P6 O24'
_cell_volume   457.39334179
_cell_formula_units_Z   1
loop_
 _symmetry_equiv_pos_site_id
 _symmetry_equiv_pos_as_xyz
  1  'x, y, z'
loop_
 _atom_site_type_symbol
 _atom_site_label
 _atom_site_symmetry_multiplicity
 _atom_site_fract_x
 _atom_site_fract_y
 _atom_site_fract_z
 _atom_site_occupancy
  Li  Li0  1  0.01307860  0.00036938  0.99547257  1
  Li  Li1  1  0.75141589  0.14746514  0.34754087  1
  Li  Li2  1  0.47705534  0.50555016  0.50200687  1
  Li  Li3  1  0.22015311  0.85210124  0.66089159  1
  Li  Li4  1  0.66605156  0.22011556  0.83461417  1
  Li  Li5  1  0.84539242  0.65988801  0.22265031  1
  Mn  Mn6  1  0.14413877  0.14090332  0.13860437  1
  Mn  Mn7  1  0.35922144  0.36224740  0.35452386  1
  Mn  Mn8  1  0.64079949  0.65091687  0.64764058  1
  Ni  Ni9  1  0.85495281  0.85291443  0.85310121  1
  P  P10  1  0.05072447  0.74672741  0.45115935  1
  P  P11  1  0.44447187  0.05870234  0.75094250  1
  P  P12  1  0.74577585  0.45705783  0.04693784  1
  P  P13  1  0.25065255  0.54030137  0.96200909  1
  P  P14  1  0.54861577  0.96612652  0.25268937  1
  P  P15  1  0.96445904  0.24485517  0.53190561  1
  O  O16  1  0.13712531  0.29492030  0.48450521  1
  O  O17  1  0.31297000  0.50533434  0.12196545  1
  O  O18  1  0.05305309  0.91296780  0.26279536  1
  O  O19  1  0.53195159  0.12698609  0.30348004  1
  O  O20  1  0.24019378  0.58349357  0.43233254  1
  O  O21  1  0.03283541  0.79907243  0.60880511  1
  O  O22  1  0.25193801  0.08016696  0.91058231  1
  O  O23  1  0.44292268  0.24628511  0.57718869  1
  O  O24  1  0.58142625  0.43891185  0.24406297  1
  O  O25  1  0.20013234  0.37802068  0.99260460  1
  O  O26  1  0.08915850  0.72823282  0.94979776  1
  O  O27  1  0.37714230  0.99950914  0.21574459  1
  O  O28  1  0.60685688  0.03290961  0.80347919  1
  O  O29  1  0.88967303  0.26031465  0.07322170  1
  O  O30  1  0.80467835  0.60939860  0.02862777  1
  O  O31  1  0.40858234  0.56956753  0.76315447  1
  O  O32  1  0.57311114  0.76987283  0.41363758  1
  O  O33  1  0.73606402  0.94736651  0.08696676  1
  O  O34  1  0.97962720  0.19390596  0.37220431  1
  O  O35  1  0.77285530  0.39897980  0.56153927  1
  O  O36  1  0.46910682  0.90179071  0.69590806  1
  O  O37  1  0.95767233  0.08096624  0.72218007  1
  O  O38  1  0.68741770  0.49652044  0.88277295  1
  O  O39  1  0.88654464  0.68726587  0.49075710  1
