# generated using pymatgen
data_Yb3Er
_symmetry_space_group_name_H-M   'P 1'
_cell_length_a   7.48243936
_cell_length_b   7.48244053
_cell_length_c   6.04547586
_cell_angle_alpha   90.00000000
_cell_angle_beta   90.00000000
_cell_angle_gamma   120.00000627
_symmetry_Int_Tables_number   1
_chemical_formula_structural   Yb3Er
_chemical_formula_sum   'Yb6 Er2'
_cell_volume   293.12143320
_cell_formula_units_Z   2
loop_
 _symmetry_equiv_pos_site_id
 _symmetry_equiv_pos_as_xyz
  1  'x, y, z'
loop_
 _atom_site_type_symbol
 _atom_site_label
 _atom_site_symmetry_multiplicity
 _atom_site_fract_x
 _atom_site_fract_y
 _atom_site_fract_z
 _atom_site_occupancy
  Yb  Yb0  1  0.17067506  0.34134912  0.24999900  1
  Yb  Yb1  1  0.65865088  0.82932494  0.24999900  1
  Yb  Yb2  1  0.17067406  0.82932494  0.24999900  1
  Yb  Yb3  1  0.82932494  0.65865188  0.74999800  1
  Yb  Yb4  1  0.34134812  0.17067506  0.74999800  1
  Yb  Yb5  1  0.82932494  0.17067506  0.74999800  1
  Er  Er6  1  0.33333300  0.66666600  0.74999800  1
  Er  Er7  1  0.66666800  0.33333500  0.24999900  1
