# generated using pymatgen
data_NaCrPCO7
_symmetry_space_group_name_H-M   'P 1'
_cell_length_a   9.06650910
_cell_length_b   6.29847624
_cell_length_c   5.28253846
_cell_angle_alpha   90.00000000
_cell_angle_beta   87.83251241
_cell_angle_gamma   90.00000000
_symmetry_Int_Tables_number   1
_chemical_formula_structural   NaCrPCO7
_chemical_formula_sum   'Na2 Cr2 P2 C2 O14'
_cell_volume   301.44454751
_cell_formula_units_Z   2
loop_
 _symmetry_equiv_pos_site_id
 _symmetry_equiv_pos_as_xyz
  1  'x, y, z'
loop_
 _atom_site_type_symbol
 _atom_site_label
 _atom_site_symmetry_multiplicity
 _atom_site_fract_x
 _atom_site_fract_y
 _atom_site_fract_z
 _atom_site_occupancy
  Na  Na0  1  0.23212415  0.47728118  0.23755485  1
  Na  Na1  1  0.76787585  0.97728118  0.76244515  1
  Cr  Cr2  1  0.34012038  0.76422760  0.78626746  1
  Cr  Cr3  1  0.65987962  0.26422760  0.21373254  1
  P  P4  1  0.43361627  0.25703482  0.72016245  1
  P  P5  1  0.56638373  0.75703482  0.27983755  1
  C  C6  1  0.07917401  0.74389761  0.72841443  1
  C  C7  1  0.92082599  0.24389761  0.27158557  1
  O  O8  1  0.05318904  0.24294483  0.31180494  1
  O  O9  1  0.14067778  0.74978087  0.95079551  1
  O  O10  1  0.18766607  0.74119778  0.54417623  1
  O  O11  1  0.33299199  0.06113804  0.78095822  1
  O  O12  1  0.33632504  0.44985679  0.79546257  1
  O  O13  1  0.42741125  0.74560409  0.12007079  1
  O  O14  1  0.47548221  0.26488640  0.43478914  1
  O  O15  1  0.52451779  0.76488640  0.56521086  1
  O  O16  1  0.57258875  0.24560409  0.87992921  1
  O  O17  1  0.66367496  0.94985679  0.20453743  1
  O  O18  1  0.66700801  0.56113804  0.21904178  1
  O  O19  1  0.81233393  0.24119778  0.45582377  1
  O  O20  1  0.85932222  0.24978087  0.04920449  1
  O  O21  1  0.94681096  0.74294483  0.68819506  1
