# generated using pymatgen
data_Li2TiCo2O5
_symmetry_space_group_name_H-M   'P 1'
_cell_length_a   5.15055351
_cell_length_b   7.84995009
_cell_length_c   5.13452627
_cell_angle_alpha   70.92111265
_cell_angle_beta   109.78319150
_cell_angle_gamma   96.54309668
_symmetry_Int_Tables_number   1
_chemical_formula_structural   Li2TiCo2O5
_chemical_formula_sum   'Li4 Ti2 Co4 O10'
_cell_volume   184.61301254
_cell_formula_units_Z   2
loop_
 _symmetry_equiv_pos_site_id
 _symmetry_equiv_pos_as_xyz
  1  'x, y, z'
loop_
 _atom_site_type_symbol
 _atom_site_label
 _atom_site_symmetry_multiplicity
 _atom_site_fract_x
 _atom_site_fract_y
 _atom_site_fract_z
 _atom_site_occupancy
  Li  Li0  1  0.49971046  0.19998770  0.89968446  1
  Li  Li1  1  0.50013991  0.00039420  0.49914549  1
  Li  Li2  1  0.00014474  0.19978033  0.40074986  1
  Li  Li3  1  0.00092241  0.59247799  0.20423506  1
  Ti  Ti4  1  0.49995763  0.38206790  0.30923211  1
  Ti  Ti5  1  0.99994002  0.99337914  0.00398684  1
  Co  Co6  1  0.50167219  0.60269756  0.69964571  1
  Co  Co7  1  0.99806453  0.39918046  0.80019427  1
  Co  Co8  1  0.00016928  0.80019213  0.60034950  1
  Co  Co9  1  0.49893962  0.80668442  0.09621575  1
  O  O10  1  0.75726433  0.81470061  0.85302939  1
  O  O11  1  0.25934375  0.59278671  0.96089706  1
  O  O12  1  0.74710463  0.20322670  0.64487357  1
  O  O13  1  0.74080496  0.59317410  0.44469592  1
  O  O14  1  0.24232265  0.81517871  0.33104114  1
  O  O15  1  0.22921457  0.99944428  0.76558142  1
  O  O16  1  0.27014915  0.40175954  0.53442178  1
  O  O17  1  0.77080488  0.99775755  0.23603452  1
  O  O18  1  0.73140830  0.40137968  0.06482498  1
  O  O19  1  0.25192200  0.20375127  0.15116017  1
