# generated using pymatgen
data_SbPO4
_symmetry_space_group_name_H-M   'P 1'
_cell_length_a   7.25783363
_cell_length_b   9.98405301
_cell_length_c   4.78708951
_cell_angle_alpha   90.00000000
_cell_angle_beta   90.00000000
_cell_angle_gamma   90.00000000
_symmetry_Int_Tables_number   1
_chemical_formula_structural   SbPO4
_chemical_formula_sum   'Sb4 P4 O16'
_cell_volume   346.88493174
_cell_formula_units_Z   4
loop_
 _symmetry_equiv_pos_site_id
 _symmetry_equiv_pos_as_xyz
  1  'x, y, z'
loop_
 _atom_site_type_symbol
 _atom_site_label
 _atom_site_symmetry_multiplicity
 _atom_site_fract_x
 _atom_site_fract_y
 _atom_site_fract_z
 _atom_site_occupancy
  Sb  Sb0  1  0.25000000  0.29453281  0.89131096  1
  Sb  Sb1  1  0.25000000  0.79453281  0.60868904  1
  Sb  Sb2  1  0.75000000  0.20546719  0.39131096  1
  Sb  Sb3  1  0.75000000  0.70546719  0.10868904  1
  P  P4  1  0.25000000  0.09652118  0.31820411  1
  P  P5  1  0.25000000  0.59652118  0.18179589  1
  P  P6  1  0.75000000  0.40347882  0.81820411  1
  P  P7  1  0.75000000  0.90347882  0.68179589  1
  O  O8  1  0.08470538  0.17616086  0.17711276  1
  O  O9  1  0.08470538  0.67616086  0.32288724  1
  O  O10  1  0.25000000  0.11265984  0.63915250  1
  O  O11  1  0.25000000  0.44742170  0.25222435  1
  O  O12  1  0.25000000  0.94742170  0.24777565  1
  O  O13  1  0.25000000  0.61265984  0.86084750  1
  O  O14  1  0.41529462  0.17616086  0.17711276  1
  O  O15  1  0.41529462  0.67616086  0.32288724  1
  O  O16  1  0.58470538  0.82383914  0.82288724  1
  O  O17  1  0.58470538  0.32383914  0.67711276  1
  O  O18  1  0.75000000  0.55257830  0.74777565  1
  O  O19  1  0.75000000  0.05257830  0.75222435  1
  O  O20  1  0.75000000  0.38734016  0.13915250  1
  O  O21  1  0.75000000  0.88734016  0.36084750  1
  O  O22  1  0.91529462  0.32383914  0.67711276  1
  O  O23  1  0.91529462  0.82383914  0.82288724  1
