# generated using pymatgen
data_Li2TiMn2O5
_symmetry_space_group_name_H-M   'P 1'
_cell_length_a   5.41583760
_cell_length_b   7.97699002
_cell_length_c   5.44055277
_cell_angle_alpha   97.65860521
_cell_angle_beta   113.11705021
_cell_angle_gamma   70.15691799
_symmetry_Int_Tables_number   1
_chemical_formula_structural   Li2TiMn2O5
_chemical_formula_sum   'Li4 Ti2 Mn4 O10'
_cell_volume   203.33540370
_cell_formula_units_Z   2
loop_
 _symmetry_equiv_pos_site_id
 _symmetry_equiv_pos_as_xyz
  1  'x, y, z'
loop_
 _atom_site_type_symbol
 _atom_site_label
 _atom_site_symmetry_multiplicity
 _atom_site_fract_x
 _atom_site_fract_y
 _atom_site_fract_z
 _atom_site_occupancy
  Li  Li0  1  0.10191264  0.79614968  0.49999639  1
  Li  Li1  1  0.50206459  0.99589007  0.50000709  1
  Li  Li2  1  0.79737488  0.40534631  0.99995888  1
  Li  Li3  1  0.19857329  0.60284778  0.00000337  1
  Ti  Ti4  1  0.69629381  0.60740902  0.50001747  1
  Ti  Ti5  1  0.00099520  0.99810227  0.00003254  1
  Mn  Mn6  1  0.90222458  0.19550420  0.50002199  1
  Mn  Mn7  1  0.29888520  0.40215941  0.49999678  1
  Mn  Mn8  1  0.60350252  0.79299307  0.99998552  1
  Mn  Mn9  1  0.39415853  0.21175472  0.00000072  1
  O  O10  1  0.85086819  0.79974745  0.75005848  1
  O  O11  1  0.66857444  0.18175346  0.76255697  1
  O  O12  1  0.48386896  0.59969520  0.71520309  1
  O  O13  1  0.91637532  0.59967623  0.28478499  1
  O  O14  1  0.03625871  0.41672638  0.73684414  1
  O  O15  1  0.22004483  0.99799568  0.78244672  1
  O  O16  1  0.34937768  0.79977342  0.24989367  1
  O  O17  1  0.78201756  0.99798084  0.21754956  1
  O  O18  1  0.54694522  0.41672545  0.26321863  1
  O  O19  1  0.14968284  0.18176936  0.23742201  1
