# generated using pymatgen
data_Li3Cr3CuO8
_symmetry_space_group_name_H-M   'P 1'
_cell_length_a   10.23118059
_cell_length_b   10.23110305
_cell_length_c   14.46991907
_cell_angle_alpha   19.40510817
_cell_angle_beta   19.40557891
_cell_angle_gamma   33.46155440
_symmetry_Int_Tables_number   1
_chemical_formula_structural   Li3Cr3CuO8
_chemical_formula_sum   'Li3 Cr3 Cu1 O8'
_cell_volume   144.66130327
_cell_formula_units_Z   1
loop_
 _symmetry_equiv_pos_site_id
 _symmetry_equiv_pos_as_xyz
  1  'x, y, z'
loop_
 _atom_site_type_symbol
 _atom_site_label
 _atom_site_symmetry_multiplicity
 _atom_site_fract_x
 _atom_site_fract_y
 _atom_site_fract_z
 _atom_site_occupancy
  Li  Li0  1  0.00001535  0.50000207  0.49998785  1
  Li  Li1  1  0.50001467  0.00001539  0.49997851  1
  Li  Li2  1  0.50000064  0.49999889  0.50000241  1
  Cr  Cr3  1  0.00001286  0.49998209  -0.00000339  1
  Cr  Cr4  1  0.49999525  0.00001929  -0.00000860  1
  Cr  Cr5  1  0.50001001  0.49995237  0.00002115  1
  Cu  Cu6  1  -0.00002451  0.00008352  -0.00002726  1
  O  O7  1  0.00079020  0.00078826  0.25683279  1
  O  O8  1  0.00046699  0.51198195  0.25275636  1
  O  O9  1  0.51187975  0.00046566  0.25281619  1
  O  O10  1  0.99920256  0.99920718  0.74317650  1
  O  O11  1  0.48495446  0.48494763  0.28151724  1
  O  O12  1  0.99950327  0.48800454  0.74726849  1
  O  O13  1  0.48810724  0.99949550  0.74721495  1
  O  O14  1  0.51507126  0.51505665  0.71846682  1
