# generated using pymatgen
data_Li4V3Co2Sb3O16
_symmetry_space_group_name_H-M   'P 1'
_cell_length_a   6.14497978
_cell_length_b   6.13860131
_cell_length_c   9.86087847
_cell_angle_alpha   90.00632736
_cell_angle_beta   90.44057938
_cell_angle_gamma   119.96541275
_symmetry_Int_Tables_number   1
_chemical_formula_structural   Li4V3Co2Sb3O16
_chemical_formula_sum   'Li4 V3 Co2 Sb3 O16'
_cell_volume   322.23300687
_cell_formula_units_Z   1
loop_
 _symmetry_equiv_pos_site_id
 _symmetry_equiv_pos_as_xyz
  1  'x, y, z'
loop_
 _atom_site_type_symbol
 _atom_site_label
 _atom_site_symmetry_multiplicity
 _atom_site_fract_x
 _atom_site_fract_y
 _atom_site_fract_z
 _atom_site_occupancy
  Li  Li0  1  0.32904334  0.66454700  0.87752088  1
  Li  Li1  1  0.97862913  0.98929445  0.99086288  1
  Li  Li2  1  0.98457803  0.99229483  0.50482677  1
  Li  Li3  1  0.65584110  0.32794410  0.39999345  1
  V  V4  1  0.66372350  0.83188611  0.21620256  1
  V  V5  1  0.83460041  0.66342519  0.71481364  1
  V  V6  1  0.83458648  0.17117382  0.71482227  1
  Co  Co7  1  0.34580921  0.67288371  0.51913075  1
  Co  Co8  1  0.68715970  0.34360532  0.97612172  1
  Sb  Sb9  1  0.16954482  0.83173727  0.21526598  1
  Sb  Sb10  1  0.16953783  0.33783058  0.21525933  1
  Sb  Sb11  1  0.34125872  0.17064103  0.71513284  1
  O  O12  1  0.16151702  0.84619631  0.60159184  1
  O  O13  1  0.02813257  0.51410727  0.33073219  1
  O  O14  1  0.32364097  0.66183317  0.10131482  1
  O  O15  1  0.00982269  0.00492880  0.32058256  1
  O  O16  1  0.01402304  0.00703390  0.81315383  1
  O  O17  1  0.16151925  0.31531702  0.60160093  1
  O  O18  1  0.48125040  0.96850114  0.32528894  1
  O  O19  1  0.48124835  0.51283248  0.32529845  1
  O  O20  1  0.30844714  0.15420681  0.10198501  1
  O  O21  1  0.68562069  0.84279984  0.60783870  1
  O  O22  1  0.51572322  0.48097933  0.83496313  1
  O  O23  1  0.51570724  0.03479069  0.83496691  1
  O  O24  1  0.65538552  0.32767651  0.60197061  1
  O  O25  1  0.84925542  0.69026456  0.10763585  1
  O  O26  1  0.96516011  0.48260657  0.83132382  1
  O  O27  1  0.84923509  0.15896420  0.10763634  1
