# generated using pymatgen
data_Li2TiCo2O5
_symmetry_space_group_name_H-M   'P 1'
_cell_length_a   5.07943354
_cell_length_b   5.11582354
_cell_length_c   7.90691460
_cell_angle_alpha   84.17212976
_cell_angle_beta   71.27841190
_cell_angle_gamma   71.62545122
_symmetry_Int_Tables_number   1
_chemical_formula_structural   Li2TiCo2O5
_chemical_formula_sum   'Li4 Ti2 Co4 O10'
_cell_volume   184.67258370
_cell_formula_units_Z   2
loop_
 _symmetry_equiv_pos_site_id
 _symmetry_equiv_pos_as_xyz
  1  'x, y, z'
loop_
 _atom_site_type_symbol
 _atom_site_label
 _atom_site_symmetry_multiplicity
 _atom_site_fract_x
 _atom_site_fract_y
 _atom_site_fract_z
 _atom_site_occupancy
  Li  Li0  1  0.19957052  0.99995857  0.60070950  1
  Li  Li1  1  0.00194650  0.00023417  0.99573457  1
  Li  Li2  1  0.70050890  0.50005563  0.59912256  1
  Li  Li3  1  0.89772086  0.50001582  0.20440210  1
  Ti  Ti4  1  0.09826580  0.49982024  0.80480130  1
  Ti  Ti5  1  0.80314165  0.99963613  0.39521640  1
  Co  Co6  1  0.60156896  0.99929590  0.79702880  1
  Co  Co7  1  0.40077750  0.00025049  0.19775175  1
  Co  Co8  1  0.29880099  0.49939726  0.40299166  1
  Co  Co9  1  0.49844666  0.50033630  0.00224148  1
  O  O10  1  0.03907716  0.23294541  0.39754335  1
  O  O11  1  0.33642422  0.73327955  0.80231402  1
  O  O12  1  0.45055974  0.24899611  0.60067360  1
  O  O13  1  0.13461932  0.75981686  0.21224010  1
  O  O14  1  0.24660863  0.26018948  0.98786122  1
  O  O15  1  0.85964940  0.26800442  0.80332547  1
  O  O16  1  0.65250738  0.24037436  0.21329138  1
  O  O17  1  0.56308968  0.76766767  0.39679257  1
  O  O18  1  0.95124969  0.74901303  0.59929113  1
  O  O19  1  0.76546643  0.74071260  0.98666306  1
