# generated using pymatgen
data_Li4TiCo3O8
_symmetry_space_group_name_H-M   'P 1'
_cell_length_a   10.26384173
_cell_length_b   10.23904761
_cell_length_c   14.52229355
_cell_angle_alpha   19.12058626
_cell_angle_beta   19.08627276
_cell_angle_gamma   33.02776847
_symmetry_Int_Tables_number   1
_chemical_formula_structural   Li4TiCo3O8
_chemical_formula_sum   'Li4 Ti1 Co3 O8'
_cell_volume   140.73655205
_cell_formula_units_Z   1
loop_
 _symmetry_equiv_pos_site_id
 _symmetry_equiv_pos_as_xyz
  1  'x, y, z'
loop_
 _atom_site_type_symbol
 _atom_site_label
 _atom_site_symmetry_multiplicity
 _atom_site_fract_x
 _atom_site_fract_y
 _atom_site_fract_z
 _atom_site_occupancy
  Li  Li0  1  0.00000000  0.99999900  0.50000100  1
  Li  Li1  1  0.00000000  0.50000100  0.50000000  1
  Li  Li2  1  0.50000000  0.00000000  0.50000000  1
  Li  Li3  1  0.49999900  0.50000000  0.50000100  1
  Ti  Ti4  1  0.00000000  0.00000000  0.00000000  1
  Co  Co5  1  0.00000000  0.50000000  0.00000000  1
  Co  Co6  1  0.50000100  0.00000000  0.99999900  1
  Co  Co7  1  0.50000000  0.50000000  0.00000000  1
  O  O8  1  0.02399754  0.02190809  0.23053377  1
  O  O9  1  0.97814249  0.50154448  0.26978156  1
  O  O10  1  0.50348150  0.97759656  0.26915343  1
  O  O11  1  0.97600246  0.97809091  0.76946623  1
  O  O12  1  0.50914391  0.50727139  0.24788946  1
  O  O13  1  0.02185751  0.49845652  0.73021744  1
  O  O14  1  0.49651950  0.02240344  0.73084657  1
  O  O15  1  0.49085509  0.49272761  0.75211154  1
