# generated using pymatgen
data_Li8ZrO6
_symmetry_space_group_name_H-M   'P 1'
_cell_length_a   5.74966691
_cell_length_b   5.74965280
_cell_length_c   10.90589060
_cell_angle_alpha   89.99986686
_cell_angle_beta   90.00037945
_cell_angle_gamma   119.99997118
_symmetry_Int_Tables_number   1
_chemical_formula_structural   Li8ZrO6
_chemical_formula_sum   'Li16 Zr2 O12'
_cell_volume   312.23112990
_cell_formula_units_Z   2
loop_
 _symmetry_equiv_pos_site_id
 _symmetry_equiv_pos_as_xyz
  1  'x, y, z'
loop_
 _atom_site_type_symbol
 _atom_site_label
 _atom_site_symmetry_multiplicity
 _atom_site_fract_x
 _atom_site_fract_y
 _atom_site_fract_z
 _atom_site_occupancy
  Li  Li0  1  0.99998298  0.67602295  0.76829480  1
  Li  Li1  1  0.00000136  0.59068895  0.12726791  1
  Li  Li2  1  0.99997747  0.40931895  0.62726620  1
  Li  Li3  1  0.00000163  0.32397665  0.26829510  1
  Li  Li4  1  0.33333970  0.66668613  0.40699729  1
  Li  Li5  1  0.33331753  0.66665568  0.90699783  1
  Li  Li6  1  0.32393593  0.32393356  0.76829513  1
  Li  Li7  1  0.40933444  0.40935490  0.12726021  1
  Li  Li8  1  0.59063762  0.59063836  0.62725923  1
  Li  Li9  1  0.32396005  0.00002184  0.26829441  1
  Li  Li10  1  0.67604570  0.67606489  0.26829289  1
  Li  Li11  1  0.40931322  0.99997786  0.62726358  1
  Li  Li12  1  0.66665770  0.33331630  0.90699755  1
  Li  Li13  1  0.66666481  0.33334674  0.40699686  1
  Li  Li14  1  0.59065649  0.00002245  0.12726085  1
  Li  Li15  1  0.67602051  0.99998003  0.76829502  1
  Zr  Zr16  1  0.99998476  0.99998052  0.99459770  1
  Zr  Zr17  1  -0.00000581  0.00001191  0.49460035  1
  O  O18  1  0.99998541  0.66594119  0.94852294  1
  O  O19  1  0.99999823  0.33407458  0.44852256  1
  O  O20  1  0.33334127  0.66668276  0.21276554  1
  O  O21  1  0.00000244  0.99996125  0.17925437  1
  O  O22  1  0.00003625  0.00003783  0.67926330  1
  O  O23  1  0.33332375  0.66665689  0.71276472  1
  O  O24  1  0.33403081  0.33403026  0.94852793  1
  O  O25  1  0.33405197  0.00001714  0.44852411  1
  O  O26  1  0.66593148  0.66595331  0.44852522  1
  O  O27  1  0.66665674  0.33331726  0.71276511  1
  O  O28  1  0.66666866  0.33334677  0.21276401  1
  O  O29  1  0.66594790  0.99998409  0.94852729  1
