# generated using pymatgen
data_Na3BSbAsO7
_symmetry_space_group_name_H-M   'P 1'
_cell_length_a   9.55391508
_cell_length_b   7.10855537
_cell_length_c   5.50184186
_cell_angle_alpha   90.00000000
_cell_angle_beta   93.17999919
_cell_angle_gamma   90.00000000
_symmetry_Int_Tables_number   1
_chemical_formula_structural   Na3BSbAsO7
_chemical_formula_sum   'Na6 B2 Sb2 As2 O14'
_cell_volume   373.07966976
_cell_formula_units_Z   2
loop_
 _symmetry_equiv_pos_site_id
 _symmetry_equiv_pos_as_xyz
  1  'x, y, z'
loop_
 _atom_site_type_symbol
 _atom_site_label
 _atom_site_symmetry_multiplicity
 _atom_site_fract_x
 _atom_site_fract_y
 _atom_site_fract_z
 _atom_site_occupancy
  Na  Na0  1  0.06727948  0.25000000  0.76554414  1
  Na  Na1  1  0.24108509  0.00756457  0.24831907  1
  Na  Na2  1  0.24108509  0.49243543  0.24831907  1
  Na  Na3  1  0.75891491  0.50756457  0.75168093  1
  Na  Na4  1  0.75891491  0.99243543  0.75168093  1
  Na  Na5  1  0.93272052  0.75000000  0.23445586  1
  B  B6  1  0.06274588  0.75000000  0.73192099  1
  B  B7  1  0.93725412  0.25000000  0.26807901  1
  Sb  Sb8  1  0.33533827  0.75000000  0.77503700  1
  Sb  Sb9  1  0.66466173  0.25000000  0.22496300  1
  As  As10  1  0.40174434  0.25000000  0.71661116  1
  As  As11  1  0.59825566  0.75000000  0.28338884  1
  O  O12  1  0.07647463  0.25000000  0.27173322  1
  O  O13  1  0.14969639  0.75000000  0.95464929  1
  O  O14  1  0.14497335  0.75000000  0.52575104  1
  O  O15  1  0.30369533  0.06316486  0.82302331  1
  O  O16  1  0.30369533  0.43683514  0.82302331  1
  O  O17  1  0.39510762  0.25000000  0.40872207  1
  O  O18  1  0.42364143  0.75000000  0.17544834  1
  O  O19  1  0.57635857  0.25000000  0.82455166  1
  O  O20  1  0.60489238  0.75000000  0.59127793  1
  O  O21  1  0.69630467  0.56316486  0.17697669  1
  O  O22  1  0.69630467  0.93683514  0.17697669  1
  O  O23  1  0.85502665  0.25000000  0.47424896  1
  O  O24  1  0.85030361  0.25000000  0.04535071  1
  O  O25  1  0.92352537  0.75000000  0.72826678  1
