# generated using pymatgen
data_V(SbO3)4
_symmetry_space_group_name_H-M   'P 1'
_cell_length_a   5.56027734
_cell_length_b   10.91710658
_cell_length_c   9.70179808
_cell_angle_alpha   28.05271021
_cell_angle_beta   50.64997187
_cell_angle_gamma   56.69080847
_symmetry_Int_Tables_number   1
_chemical_formula_structural   V(SbO3)4
_chemical_formula_sum   'V1 Sb4 O12'
_cell_volume   214.08134845
_cell_formula_units_Z   1
loop_
 _symmetry_equiv_pos_site_id
 _symmetry_equiv_pos_as_xyz
  1  'x, y, z'
loop_
 _atom_site_type_symbol
 _atom_site_label
 _atom_site_symmetry_multiplicity
 _atom_site_fract_x
 _atom_site_fract_y
 _atom_site_fract_z
 _atom_site_occupancy
  V  V0  1  0.31435145  0.01818705  0.26236288  1
  Sb  Sb1  1  0.02537718  0.99212581  0.97933149  1
  Sb  Sb2  1  0.95780068  0.50089863  0.00511576  1
  Sb  Sb3  1  0.49564564  0.98408046  0.51592405  1
  Sb  Sb4  1  0.48016444  0.51274632  0.46883213  1
  O  O5  1  0.34167860  0.28446796  0.12967396  1
  O  O6  1  0.24460641  0.14431819  0.58750763  1
  O  O7  1  0.10250787  0.30953619  0.74995047  1
  O  O8  1  0.89953928  0.17013996  0.23629756  1
  O  O9  1  0.38332105  0.82463523  0.09124096  1
  O  O10  1  0.73856876  0.35731324  0.38472358  1
  O  O11  1  0.21411111  0.65488928  0.59150105  1
  O  O12  1  0.58697437  0.17712407  0.88707372  1
  O  O13  1  0.13135048  0.83371507  0.68671488  1
  O  O14  1  0.86029088  0.68514556  0.23923857  1
  O  O15  1  0.69006216  0.89184138  0.34902298  1
  O  O16  1  0.59294963  0.65883358  0.89478834  1
