# generated using pymatgen
data_Li6Mn3Cr(PO4)6
_symmetry_space_group_name_H-M   'P 1'
_cell_length_a   8.77316914
_cell_length_b   8.59772915
_cell_length_c   8.50166218
_cell_angle_alpha   61.41351401
_cell_angle_beta   61.78238103
_cell_angle_gamma   60.75792396
_symmetry_Int_Tables_number   1
_chemical_formula_structural   Li6Mn3Cr(PO4)6
_chemical_formula_sum   'Li6 Mn3 Cr1 P6 O24'
_cell_volume   466.80829825
_cell_formula_units_Z   1
loop_
 _symmetry_equiv_pos_site_id
 _symmetry_equiv_pos_as_xyz
  1  'x, y, z'
loop_
 _atom_site_type_symbol
 _atom_site_label
 _atom_site_symmetry_multiplicity
 _atom_site_fract_x
 _atom_site_fract_y
 _atom_site_fract_z
 _atom_site_occupancy
  Li  Li0  1  0.02306149  0.01629474  0.99267467  1
  Li  Li1  1  0.75305122  0.16136984  0.33927943  1
  Li  Li2  1  0.47861551  0.50379651  0.48808044  1
  Li  Li3  1  0.24797723  0.83845499  0.65898611  1
  Li  Li4  1  0.65332671  0.26048936  0.84033098  1
  Li  Li5  1  0.85059629  0.65674910  0.25138388  1
  Mn  Mn6  1  0.14355440  0.14121955  0.14378859  1
  Mn  Mn7  1  0.35371051  0.35858860  0.35919113  1
  Mn  Mn8  1  0.64781237  0.65092629  0.64429099  1
  Cr  Cr9  1  0.85562936  0.85448136  0.85347416  1
  P  P10  1  0.05270742  0.75006098  0.44588853  1
  P  P11  1  0.45253322  0.04907098  0.75081302  1
  P  P12  1  0.74992380  0.45818287  0.04361975  1
  P  P13  1  0.24558496  0.53494117  0.96339599  1
  P  P14  1  0.54533951  0.96230210  0.25211985  1
  P  P15  1  0.95418798  0.24749724  0.54062835  1
  O  O16  1  0.12279459  0.27981780  0.50624414  1
  O  O17  1  0.29675710  0.50812038  0.12551727  1
  O  O18  1  0.05955564  0.92351190  0.25945132  1
  O  O19  1  0.53104351  0.12638201  0.29238912  1
  O  O20  1  0.23987562  0.58785787  0.43237317  1
  O  O21  1  0.01841529  0.80472095  0.61122684  1
  O  O22  1  0.26739613  0.06987871  0.90946348  1
  O  O23  1  0.44838202  0.23385064  0.57714764  1
  O  O24  1  0.60036103  0.43792476  0.23798632  1
  O  O25  1  0.19508334  0.37149309  -0.00028837  1
  O  O26  1  0.08246729  0.72935592  0.94179080  1
  O  O27  1  0.37596395  0.99139316  0.22161951  1
  O  O28  1  0.61523544  0.01660801  0.80127726  1
  O  O29  1  0.90247780  0.26243578  0.05903440  1
  O  O30  1  0.81035931  0.61588199  0.00672019  1
  O  O31  1  0.40073895  0.55798506  0.77034912  1
  O  O32  1  0.57426559  0.76769178  0.41651558  1
  O  O33  1  0.72979411  0.93372826  0.08789370  1
  O  O34  1  0.96466983  0.20295704  0.37929266  1
  O  O35  1  0.76745474  0.41637684  0.56375471  1
  O  O36  1  0.47865649  0.88607109  0.69833816  1
  O  O37  1  0.92632702  0.08722736  0.73616267  1
  O  O38  1  0.68689610  0.49325292  0.88265561  1
  O  O39  1  0.89741614  0.70005098  0.46613882  1
