# generated using pymatgen
data_TiMn9O20
_symmetry_space_group_name_H-M   'P 1'
_cell_length_a   5.82640982
_cell_length_b   5.82276432
_cell_length_c   24.05972505
_cell_angle_alpha   89.87249814
_cell_angle_beta   97.08677468
_cell_angle_gamma   120.19738637
_symmetry_Int_Tables_number   1
_chemical_formula_structural   TiMn9O20
_chemical_formula_sum   'Ti2 Mn18 O40'
_cell_volume   698.38444430
_cell_formula_units_Z   2
loop_
 _symmetry_equiv_pos_site_id
 _symmetry_equiv_pos_as_xyz
  1  'x, y, z'
loop_
 _atom_site_type_symbol
 _atom_site_label
 _atom_site_symmetry_multiplicity
 _atom_site_fract_x
 _atom_site_fract_y
 _atom_site_fract_z
 _atom_site_occupancy
  Ti  Ti0  1  0.24463496  0.87292504  0.12456982  1
  Ti  Ti1  1  0.74879604  0.87310465  0.62503620  1
  Mn  Mn2  1  0.34777367  0.67277223  0.02456713  1
  Mn  Mn3  1  0.24684964  0.37431375  0.12507965  1
  Mn  Mn4  1  0.05075452  0.77571020  0.32548495  1
  Mn  Mn5  1  0.74620386  0.87473823  0.12508001  1
  Mn  Mn6  1  0.14726791  0.07532470  0.22535582  1
  Mn  Mn7  1  0.04922607  0.27479657  0.32518231  1
  Mn  Mn8  1  0.54985365  0.27651339  0.32520244  1
  Mn  Mn9  1  0.34875360  0.67086345  0.52453384  1
  Mn  Mn10  1  0.84841808  0.67076135  0.52444145  1
  Mn  Mn11  1  0.95005847  0.47268497  0.42491629  1
  Mn  Mn12  1  0.64947335  0.57409116  0.72564906  1
  Mn  Mn13  1  0.14883983  0.07453500  0.72571215  1
  Mn  Mn14  1  0.44802528  0.97368801  0.92470455  1
  Mn  Mn15  1  0.84858865  0.17084969  0.52428555  1
  Mn  Mn16  1  0.44752453  0.47350732  0.92485303  1
  Mn  Mn17  1  0.64837902  0.07351918  0.72567625  1
  Mn  Mn18  1  0.54815529  0.27488654  0.82515946  1
  Mn  Mn19  1  0.94771164  0.47365084  0.92474247  1
  O  O20  1  0.08596965  0.53895020  0.07677330  1
  O  O21  1  0.53280703  0.98652868  0.07687430  1
  O  O22  1  0.33114576  0.94740673  0.27810774  1
  O  O23  1  0.52926623  0.54472963  0.07820807  1
  O  O24  1  0.44348551  0.71925055  0.16661254  1
  O  O25  1  0.04885077  0.02991434  0.08334241  1
  O  O26  1  0.20942643  0.60420930  0.37227977  1
  O  O27  1  0.40713692  0.20910092  0.17287628  1
  O  O28  1  0.95954437  0.76175592  0.17293644  1
  O  O29  1  0.89003582  0.94496712  0.27856082  1
  O  O30  1  0.33090325  0.38749973  0.27829007  1
  O  O31  1  0.13193209  0.78333213  0.47776874  1
  O  O32  1  0.13111837  0.34185822  0.47761559  1
  O  O33  1  0.04264880  0.51771699  0.56553393  1
  O  O34  1  0.24473521  0.12331837  0.36642180  1
  O  O35  1  0.96454489  0.20403610  0.17202006  1
  O  O36  1  0.76930911  0.60485629  0.37248406  1
  O  O37  1  0.85597761  0.42908153  0.28425816  1
  O  O38  1  0.65397808  0.82339478  0.48342440  1
  O  O39  1  0.01078318  0.00243973  0.57073654  1
  O  O40  1  0.76598903  0.16208997  0.37190760  1
  O  O41  1  0.36597340  0.96281757  0.77262330  1
  O  O42  1  0.56398626  0.55520614  0.57088368  1
  O  O43  1  0.69034267  0.34148521  0.47735382  1
  O  O44  1  0.48663240  0.74178402  0.67918119  1
  O  O45  1  0.84300164  0.92119709  0.76665423  1
  O  O46  1  0.93451471  0.74306481  0.67955108  1
  O  O47  1  0.25345354  0.62618177  0.88370088  1
  O  O48  1  0.56413065  0.00296642  0.57070203  1
  O  O49  1  0.45449409  0.22657585  0.68457122  1
  O  O50  1  0.36706357  0.40443877  0.77241593  1
  O  O51  1  0.16637818  0.80270347  0.97179503  1
  O  O52  1  0.80742367  0.40343838  0.77259893  1
  O  O53  1  0.60663988  0.80277435  0.97175690  1
  O  O54  1  0.16488687  0.36090695  0.97163023  1
  O  O55  1  0.28872368  0.14395340  0.87778412  1
  O  O56  1  0.93344343  0.18988665  0.67929715  1
  O  O57  1  0.73072204  0.58673851  0.87802775  1
  O  O58  1  0.72976615  0.14461354  0.87776786  1
  O  O59  1  0.64206299  0.32061059  0.96577663  1
