# generated using pymatgen
data_LaAlO3
_symmetry_space_group_name_H-M   'P 1'
_cell_length_a   7.66406743
_cell_length_b   6.05392113
_cell_length_c   12.41780225
_cell_angle_alpha   90.00000000
_cell_angle_beta   81.33528085
_cell_angle_gamma   90.00000000
_symmetry_Int_Tables_number   1
_chemical_formula_structural   LaAlO3
_chemical_formula_sum   'La8 Al8 O24'
_cell_volume   569.58119302
_cell_formula_units_Z   8
loop_
 _symmetry_equiv_pos_site_id
 _symmetry_equiv_pos_as_xyz
  1  'x, y, z'
loop_
 _atom_site_type_symbol
 _atom_site_label
 _atom_site_symmetry_multiplicity
 _atom_site_fract_x
 _atom_site_fract_y
 _atom_site_fract_z
 _atom_site_occupancy
  La  La0  1  0.09434974  0.60511452  0.13095926  1
  La  La1  1  0.09029436  0.90848386  0.64895608  1
  La  La2  1  0.40565026  0.10511452  0.36904074  1
  La  La3  1  0.40970564  0.40848386  0.85104392  1
  La  La4  1  0.59029436  0.59151614  0.14895608  1
  La  La5  1  0.59434974  0.89488548  0.63095926  1
  La  La6  1  0.90970564  0.09151614  0.35104392  1
  La  La7  1  0.90565026  0.39488548  0.86904074  1
  Al  Al8  1  0.17358148  0.63540861  0.37798731  1
  Al  Al9  1  0.25840523  0.40510496  0.59594435  1
  Al  Al10  1  0.32641852  0.13540861  0.12201269  1
  Al  Al11  1  0.24159477  0.90510496  0.90405565  1
  Al  Al12  1  0.75840523  0.09489504  0.09594435  1
  Al  Al13  1  0.67358148  0.86459139  0.87798731  1
  Al  Al14  1  0.74159477  0.59489504  0.40405565  1
  Al  Al15  1  0.82641852  0.36459139  0.62201269  1
  O  O16  1  0.03527845  0.40115963  0.66717737  1
  O  O17  1  0.15225237  0.88580096  0.45247452  1
  O  O18  1  0.18021596  0.17933673  0.24492740  1
  O  O19  1  0.26244092  0.91927248  0.04395199  1
  O  O20  1  0.15427152  0.13571203  0.84438305  1
  O  O21  1  0.23755908  0.41927248  0.45604801  1
  O  O22  1  0.14256688  0.64108110  0.89857152  1
  O  O23  1  0.31978404  0.67933673  0.25507260  1
  O  O24  1  0.34774763  0.38580096  0.04752648  1
  O  O25  1  0.35743312  0.14108110  0.60142848  1
  O  O26  1  0.34572848  0.63571203  0.65561695  1
  O  O27  1  0.53527845  0.09884037  0.16717737  1
  O  O28  1  0.46472155  0.90115963  0.83282263  1
  O  O29  1  0.65427152  0.36428797  0.34438305  1
  O  O30  1  0.64256688  0.85891890  0.39857152  1
  O  O31  1  0.65225237  0.61419904  0.95247352  1
  O  O32  1  0.68021596  0.32066327  0.74492740  1
  O  O33  1  0.85743312  0.35891890  0.10142848  1
  O  O34  1  0.76244092  0.58072752  0.54395199  1
  O  O35  1  0.84572848  0.86428797  0.15561695  1
  O  O36  1  0.73755908  0.08072752  0.95604801  1
  O  O37  1  0.81978404  0.82066327  0.75507260  1
  O  O38  1  0.84774763  0.11419904  0.54752648  1
  O  O39  1  0.96472155  0.59884037  0.33282263  1
