# generated using pymatgen
data_V3Fe2Co(PO4)6
_symmetry_space_group_name_H-M   'P 1'
_cell_length_a   8.48289740
_cell_length_b   8.58738813
_cell_length_c   8.58738762
_cell_angle_alpha   60.00000582
_cell_angle_beta   59.59168777
_cell_angle_gamma   59.59168616
_symmetry_Int_Tables_number   1
_chemical_formula_structural   V3Fe2Co(PO4)6
_chemical_formula_sum   'V3 Fe2 Co1 P6 O24'
_cell_volume   439.58546864
_cell_formula_units_Z   1
loop_
 _symmetry_equiv_pos_site_id
 _symmetry_equiv_pos_as_xyz
  1  'x, y, z'
loop_
 _atom_site_type_symbol
 _atom_site_label
 _atom_site_symmetry_multiplicity
 _atom_site_fract_x
 _atom_site_fract_y
 _atom_site_fract_z
 _atom_site_occupancy
  V  V0  1  0.07328037  0.64224021  0.64224021  1
  V  V1  1  0.42438591  0.85853803  0.85853803  1
  V  V2  1  0.92861529  0.35712857  0.35712857  1
  Fe  Fe3  1  0.99521931  0.00159390  0.00159390  1
  Fe  Fe4  1  0.49594252  0.50135216  0.50135216  1
  Co  Co5  1  0.57786532  0.14071123  0.14071123  1
  P  P6  1  0.25814161  0.24660060  0.53490972  1
  P  P7  1  0.25814161  0.96034807  0.24660060  1
  P  P8  1  0.25814161  0.53490972  0.96034807  1
  P  P9  1  0.74687803  0.45744499  0.04433656  1
  P  P10  1  0.74687803  0.04433656  0.75134042  1
  P  P11  1  0.74687803  0.75134042  0.45744499  1
  O  O12  1  0.06769167  0.12121858  0.31033997  1
  O  O13  1  0.06769167  0.50074979  0.12121858  1
  O  O14  1  0.06769167  0.31033997  0.50074979  1
  O  O15  1  0.23274270  0.08341775  0.73565194  1
  O  O16  1  0.44219756  0.18591141  0.37712660  1
  O  O17  1  0.27164587  0.40534782  0.56111436  1
  O  O18  1  0.23274270  0.94818761  0.08341775  1
  O  O19  1  0.27164587  0.76189094  0.40534782  1
  O  O20  1  0.55994818  0.61986299  0.00588852  1
  O  O21  1  0.27164587  0.56111436  0.76189094  1
  O  O22  1  0.76635983  0.26010067  0.05774676  1
  O  O23  1  0.55994818  0.00588852  0.81430031  1
  O  O24  1  0.44219756  0.99476442  0.18591141  1
  O  O25  1  0.23274270  0.73565194  0.94818761  1
  O  O26  1  0.72677702  0.44159712  0.24340568  1
  O  O27  1  0.44219756  0.37712660  0.99476442  1
  O  O28  1  0.72677702  0.24340568  0.58822017  1
  O  O29  1  0.76635983  0.05774676  0.91579374  1
  O  O30  1  0.72677702  0.58822017  0.44159712  1
  O  O31  1  0.55994818  0.81430031  0.61986299  1
  O  O32  1  0.76635983  0.91579374  0.26010067  1
  O  O33  1  0.92918162  0.68042550  0.49932336  1
  O  O34  1  0.92918162  0.49932336  0.89106952  1
  O  O35  1  0.92918162  0.89106952  0.68042550  1
