# generated using pymatgen
data_Na2MnBAsO7
_symmetry_space_group_name_H-M   'P 1'
_cell_length_a   9.23247340
_cell_length_b   6.58286872
_cell_length_c   5.46718264
_cell_angle_alpha   90.00000000
_cell_angle_beta   86.95533724
_cell_angle_gamma   90.00000000
_symmetry_Int_Tables_number   1
_chemical_formula_structural   Na2MnBAsO7
_chemical_formula_sum   'Na4 Mn2 B2 As2 O14'
_cell_volume   331.80534180
_cell_formula_units_Z   2
loop_
 _symmetry_equiv_pos_site_id
 _symmetry_equiv_pos_as_xyz
  1  'x, y, z'
loop_
 _atom_site_type_symbol
 _atom_site_label
 _atom_site_symmetry_multiplicity
 _atom_site_fract_x
 _atom_site_fract_y
 _atom_site_fract_z
 _atom_site_occupancy
  Na  Na0  1  0.21166473  0.50466945  0.23582480  1
  Na  Na1  1  0.21166473  0.99533055  0.23582480  1
  Na  Na2  1  0.78833527  0.49533055  0.76417520  1
  Na  Na3  1  0.78833527  0.00466945  0.76417520  1
  Mn  Mn4  1  0.33680200  0.75000000  0.78376255  1
  Mn  Mn5  1  0.66319800  0.25000000  0.21623745  1
  B  B6  1  0.07901080  0.75000000  0.72732208  1
  B  B7  1  0.92098920  0.25000000  0.27267792  1
  As  As8  1  0.43324510  0.25000000  0.71883403  1
  As  As9  1  0.56675490  0.75000000  0.28116597  1
  O  O10  1  0.06130364  0.25000000  0.30549554  1
  O  O11  1  0.14672836  0.75000000  0.95211428  1
  O  O12  1  0.19264505  0.75000000  0.54151643  1
  O  O13  1  0.32249937  0.04795884  0.80290384  1
  O  O14  1  0.32249937  0.45204116  0.80290384  1
  O  O15  1  0.40920980  0.75000000  0.12974239  1
  O  O16  1  0.47151185  0.25000000  0.40469854  1
  O  O17  1  0.52848815  0.75000000  0.59530146  1
  O  O18  1  0.59079020  0.25000000  0.87025761  1
  O  O19  1  0.67750063  0.54795884  0.19709616  1
  O  O20  1  0.67750063  0.95204116  0.19709616  1
  O  O21  1  0.80735495  0.25000000  0.45848357  1
  O  O22  1  0.85327164  0.25000000  0.04788572  1
  O  O23  1  0.93869636  0.75000000  0.69450446  1
