# generated using pymatgen
data_MnFe5(PO4)6
_symmetry_space_group_name_H-M   'P 1'
_cell_length_a   8.43542532
_cell_length_b   8.66532771
_cell_length_c   8.66532817
_cell_angle_alpha   59.99999989
_cell_angle_beta   59.09425945
_cell_angle_gamma   59.09426292
_symmetry_Int_Tables_number   1
_chemical_formula_structural   MnFe5(PO4)6
_chemical_formula_sum   'Mn1 Fe5 P6 O24'
_cell_volume   441.65048253
_cell_formula_units_Z   1
loop_
 _symmetry_equiv_pos_site_id
 _symmetry_equiv_pos_as_xyz
  1  'x, y, z'
loop_
 _atom_site_type_symbol
 _atom_site_label
 _atom_site_symmetry_multiplicity
 _atom_site_fract_x
 _atom_site_fract_y
 _atom_site_fract_z
 _atom_site_occupancy
  Mn  Mn0  1  0.56473754  0.14508749  0.14508749  1
  Fe  Fe1  1  0.00255618  0.99914794  0.99914794  1
  Fe  Fe2  1  0.06189675  0.64603475  0.64603475  1
  Fe  Fe3  1  0.49848298  0.50050534  0.50050534  1
  Fe  Fe4  1  0.43882800  0.85372433  0.85372433  1
  Fe  Fe5  1  0.93702181  0.35432606  0.35432606  1
  P  P6  1  0.24863102  0.25092526  0.54674720  1
  P  P7  1  0.24863102  0.95369651  0.25092526  1
  P  P8  1  0.24863102  0.54674720  0.95369651  1
  P  P9  1  0.75008681  0.45231439  0.04639075  1
  P  P10  1  0.75008681  0.04639075  0.75120905  1
  P  P11  1  0.75008681  0.75120905  0.45231439  1
  O  O12  1  0.06387496  0.10600789  0.32766766  1
  O  O13  1  0.06387496  0.50244950  0.10600789  1
  O  O14  1  0.06387496  0.32766766  0.50244950  1
  O  O15  1  0.21469605  0.09390831  0.74800332  1
  O  O16  1  0.43552917  0.17855382  0.39430950  1
  O  O17  1  0.28212064  0.40442222  0.56442563  1
  O  O18  1  0.21469605  0.94339232  0.09390831  1
  O  O19  1  0.28212064  0.74903151  0.40442222  1
  O  O20  1  0.56694359  0.60697642  0.00127221  1
  O  O21  1  0.28212064  0.56442563  0.74903151  1
  O  O22  1  0.78756954  0.24971491  0.05849051  1
  O  O23  1  0.56694359  0.00127221  0.82480777  1
  O  O24  1  0.43552917  0.99160752  0.17855382  1
  O  O25  1  0.21469605  0.74800332  0.94339232  1
  O  O26  1  0.71444776  0.43883328  0.24961731  1
  O  O27  1  0.43552917  0.39430950  0.99160752  1
  O  O28  1  0.71444776  0.24961731  0.59710264  1
  O  O29  1  0.78756954  0.05849051  0.90422503  1
  O  O30  1  0.71444776  0.59710264  0.43883328  1
  O  O31  1  0.56694359  0.82480777  0.60697642  1
  O  O32  1  0.78756954  0.90422503  0.24971491  1
  O  O33  1  0.93492735  0.67894108  0.49564365  1
  O  O34  1  0.93492735  0.49564365  0.89048791  1
  O  O35  1  0.93492735  0.89048791  0.67894108  1
