# generated using pymatgen
data_Li4Ti3Mn3Cr2O16
_symmetry_space_group_name_H-M   'P 1'
_cell_length_a   5.89489468
_cell_length_b   5.98015931
_cell_length_c   9.58415797
_cell_angle_alpha   90.03501847
_cell_angle_beta   90.30817519
_cell_angle_gamma   120.48312046
_symmetry_Int_Tables_number   1
_chemical_formula_structural   Li4Ti3Mn3Cr2O16
_chemical_formula_sum   'Li4 Ti3 Mn3 Cr2 O16'
_cell_volume   291.15815084
_cell_formula_units_Z   1
loop_
 _symmetry_equiv_pos_site_id
 _symmetry_equiv_pos_as_xyz
  1  'x, y, z'
loop_
 _atom_site_type_symbol
 _atom_site_label
 _atom_site_symmetry_multiplicity
 _atom_site_fract_x
 _atom_site_fract_y
 _atom_site_fract_z
 _atom_site_occupancy
  Li  Li0  1  0.34336267  0.67152754  0.89027397  1
  Li  Li1  1  0.99867704  0.99934484  0.99522091  1
  Li  Li2  1  0.98408868  0.99211734  0.49680991  1
  Li  Li3  1  0.66185050  0.33092101  0.39350422  1
  Ti  Ti4  1  0.17018982  0.83241112  0.21446060  1
  Ti  Ti5  1  0.17013846  0.33780216  0.21452937  1
  Ti  Ti6  1  0.33481242  0.16769970  0.71171905  1
  Mn  Mn7  1  0.66250812  0.83124435  0.21184033  1
  Mn  Mn8  1  0.83107905  0.65918947  0.71360989  1
  Mn  Mn9  1  0.83059984  0.17169019  0.71371873  1
  Cr  Cr10  1  0.32982614  0.66523668  0.48639417  1
  Cr  Cr11  1  0.67957723  0.33963136  0.98251785  1
  O  O12  1  0.16080591  0.83907841  0.60357409  1
  O  O13  1  0.03481179  0.51747090  0.33523460  1
  O  O14  1  0.33961543  0.66971261  0.10629590  1
  O  O15  1  0.99341719  0.99677560  0.30919613  1
  O  O16  1  0.99584462  0.99839637  0.80824900  1
  O  O17  1  0.16081154  0.32191343  0.60364493  1
  O  O18  1  0.46494824  0.95690036  0.34519882  1
  O  O19  1  0.46509649  0.50827820  0.34522028  1
  O  O20  1  0.33316047  0.16650435  0.10681897  1
  O  O21  1  0.66318016  0.83233279  0.60180625  1
  O  O22  1  0.52394328  0.47908244  0.83673514  1
  O  O23  1  0.52369556  0.04460573  0.83667698  1
  O  O24  1  0.66438844  0.33171782  0.60561698  1
  O  O25  1  0.85489076  0.67323559  0.09851915  1
  O  O26  1  0.96990918  0.48400119  0.84183513  1
  O  O27  1  0.85477297  0.18147744  0.09861668  1
