# generated using pymatgen
data_Li4Fe5Ni3O16
_symmetry_space_group_name_H-M   'P 1'
_cell_length_a   5.86378215
_cell_length_b   5.82698883
_cell_length_c   9.45438503
_cell_angle_alpha   89.96478296
_cell_angle_beta   90.50488365
_cell_angle_gamma   119.83359129
_symmetry_Int_Tables_number   1
_chemical_formula_structural   Li4Fe5Ni3O16
_chemical_formula_sum   'Li4 Fe5 Ni3 O16'
_cell_volume   280.21460877
_cell_formula_units_Z   1
loop_
 _symmetry_equiv_pos_site_id
 _symmetry_equiv_pos_as_xyz
  1  'x, y, z'
loop_
 _atom_site_type_symbol
 _atom_site_label
 _atom_site_symmetry_multiplicity
 _atom_site_fract_x
 _atom_site_fract_y
 _atom_site_fract_z
 _atom_site_occupancy
  Li  Li0  1  0.32848909  0.66425714  0.89260584  1
  Li  Li1  1  0.98933694  0.99454593  0.99333722  1
  Li  Li2  1  0.99776780  0.99891922  0.49686279  1
  Li  Li3  1  0.67267071  0.33654111  0.39632737  1
  Fe  Fe4  1  0.16999325  0.83073237  0.21442647  1
  Fe  Fe5  1  0.34052290  0.67043712  0.48937641  1
  Fe  Fe6  1  0.17008985  0.33928292  0.21441337  1
  Fe  Fe7  1  0.34135991  0.17077978  0.71486024  1
  Fe  Fe8  1  0.66580512  0.33273389  0.98790679  1
  Ni  Ni9  1  0.65891685  0.82958989  0.21210993  1
  Ni  Ni10  1  0.82969667  0.66037273  0.71301450  1
  Ni  Ni11  1  0.82962967  0.16928583  0.71301692  1
  O  O12  1  0.17379478  0.84031044  0.60048713  1
  O  O13  1  0.03819740  0.51900525  0.34264710  1
  O  O14  1  0.33295967  0.66650956  0.10381706  1
  O  O15  1  -0.00778345  -0.00396197  0.30755174  1
  O  O16  1  -0.00883393  -0.00497959  0.80427152  1
  O  O17  1  0.17427331  0.33393977  0.60033722  1
  O  O18  1  0.48374352  0.96468108  0.34325532  1
  O  O19  1  0.48503666  0.52081046  0.34280753  1
  O  O20  1  0.32682847  0.16338349  0.09885027  1
  O  O21  1  0.67766782  0.83914544  0.60115553  1
  O  O22  1  0.51535448  0.47960817  0.84180721  1
  O  O23  1  0.51514969  0.03581616  0.84199984  1
  O  O24  1  0.67481335  0.33797666  0.60823721  1
  O  O25  1  0.83368885  0.66714594  0.09780429  1
  O  O26  1  0.95809407  0.47874935  0.83646626  1
  O  O27  1  0.83273558  0.16467986  0.09808793  1
