# generated using pymatgen
data_Li5Mn3V2O10
_symmetry_space_group_name_H-M   'P 1'
_cell_length_a   5.21238131
_cell_length_b   5.26133296
_cell_length_c   7.89044180
_cell_angle_alpha   107.84308470
_cell_angle_beta   100.81241457
_cell_angle_gamma   101.66975618
_symmetry_Int_Tables_number   1
_chemical_formula_structural   Li5Mn3V2O10
_chemical_formula_sum   'Li5 Mn3 V2 O10'
_cell_volume   194.35863040
_cell_formula_units_Z   1
loop_
 _symmetry_equiv_pos_site_id
 _symmetry_equiv_pos_as_xyz
  1  'x, y, z'
loop_
 _atom_site_type_symbol
 _atom_site_label
 _atom_site_symmetry_multiplicity
 _atom_site_fract_x
 _atom_site_fract_y
 _atom_site_fract_z
 _atom_site_occupancy
  Li  Li0  1  0.20258828  0.90293623  0.40007727  1
  Li  Li1  1  0.38614864  0.29065785  0.78209828  1
  Li  Li2  1  0.50000000  0.50000000  0.50000000  1
  Li  Li3  1  0.61385136  0.70934215  0.21790172  1
  Li  Li4  1  0.79741172  0.09706377  0.59992273  1
  Mn  Mn5  1  0.00000000  0.50000000  0.00000000  1
  Mn  Mn6  1  0.69349751  0.88835408  0.89651476  1
  Mn  Mn7  1  0.30650249  0.11164592  0.10348524  1
  V  V8  1  0.10247348  0.70342321  0.68734716  1
  V  V9  1  0.89752652  0.29657679  0.31265284  1
  O  O10  1  0.05201316  0.07173108  0.83481303  1
  O  O11  1  0.32291460  0.68864131  0.93792512  1
  O  O12  1  0.13656003  0.32701652  0.54146161  1
  O  O13  1  0.21105756  0.49191213  0.23902741  1
  O  O14  1  0.42103118  0.88221074  0.65358958  1
  O  O15  1  0.57896882  0.11778926  0.34641042  1
  O  O16  1  0.78894244  0.50808787  0.76097259  1
  O  O17  1  0.86343997  0.67298348  0.45853839  1
  O  O18  1  0.67708540  0.31135869  0.06207488  1
  O  O19  1  0.94798684  0.92826892  0.16518697  1
