# generated using pymatgen
data_ErMnGa
_symmetry_space_group_name_H-M   'P 1'
_cell_length_a   7.10426717
_cell_length_b   8.13306092
_cell_length_c   8.13306092
_cell_angle_alpha   58.99158104
_cell_angle_beta   64.10314638
_cell_angle_gamma   64.10314638
_symmetry_Int_Tables_number   1
_chemical_formula_structural   ErMnGa
_chemical_formula_sum   'Er6 Mn6 Ga6'
_cell_volume   348.39019535
_cell_formula_units_Z   6
loop_
 _symmetry_equiv_pos_site_id
 _symmetry_equiv_pos_as_xyz
  1  'x, y, z'
loop_
 _atom_site_type_symbol
 _atom_site_label
 _atom_site_symmetry_multiplicity
 _atom_site_fract_x
 _atom_site_fract_y
 _atom_site_fract_z
 _atom_site_occupancy
  Er  Er0  1  0.91287585  0.04401642  0.54401642  1
  Er  Er1  1  0.50090870  0.95598358  0.45598358  1
  Er  Er2  1  0.09043628  0.24993178  0.74993178  1
  Er  Er3  1  0.09029983  0.75006822  0.25006822  1
  Er  Er4  1  0.50186013  0.45852338  0.95852338  1
  Er  Er5  1  0.91890688  0.54147662  0.04147662  1
  Mn  Mn6  1  0.26962317  0.11662346  0.11971733  1
  Mn  Mn7  1  0.50596396  0.88337654  0.88028267  1
  Mn  Mn8  1  0.26962317  0.61971733  0.61662346  1
  Mn  Mn9  1  0.50596396  0.38028267  0.38337654  1
  Mn  Mn10  1  0.73749773  0.50000000  0.50000000  1
  Mn  Mn11  1  0.73749773  1.00000000  1.00000000  1
  Ga  Ga12  1  0.16847066  0.33394389  0.33521510  1
  Ga  Ga13  1  0.83762965  0.66605611  0.66478490  1
  Ga  Ga14  1  0.16847066  0.83521510  0.83394389  1
  Ga  Ga15  1  0.83762965  0.16478490  0.16605611  1
  Ga  Ga16  1  0.50171327  0.25245773  0.75245773  1
  Ga  Ga17  1  0.50662873  0.74754227  0.24754227  1
