# generated using pymatgen
data_Li6FeCo3(PO4)6
_symmetry_space_group_name_H-M   'P 1'
_cell_length_a   8.43590637
_cell_length_b   8.50614748
_cell_length_c   8.50531719
_cell_angle_alpha   62.16938834
_cell_angle_beta   62.32957923
_cell_angle_gamma   62.26737504
_symmetry_Int_Tables_number   1
_chemical_formula_structural   Li6FeCo3(PO4)6
_chemical_formula_sum   'Li6 Fe1 Co3 P6 O24'
_cell_volume   453.28834854
_cell_formula_units_Z   1
loop_
 _symmetry_equiv_pos_site_id
 _symmetry_equiv_pos_as_xyz
  1  'x, y, z'
loop_
 _atom_site_type_symbol
 _atom_site_label
 _atom_site_symmetry_multiplicity
 _atom_site_fract_x
 _atom_site_fract_y
 _atom_site_fract_z
 _atom_site_occupancy
  Li  Li0  1  0.02110557  0.00412360  0.99617982  1
  Li  Li1  1  0.74829190  0.15065582  0.35090725  1
  Li  Li2  1  0.48023170  0.50670540  0.49472035  1
  Li  Li3  1  0.26370643  0.84579586  0.65058396  1
  Li  Li4  1  0.65415783  0.26837110  0.84211161  1
  Li  Li5  1  0.84124083  0.65269531  0.26315241  1
  Fe  Fe6  1  0.85398472  0.85327292  0.85212447  1
  Co  Co7  1  0.14483347  0.14638245  0.13831913  1
  Co  Co8  1  0.35515033  0.36357876  0.35226365  1
  Co  Co9  1  0.64815836  0.64977120  0.64863774  1
  P  P10  1  0.04977448  0.75097633  0.44780113  1
  P  P11  1  0.44825865  0.05105267  0.74809672  1
  P  P12  1  0.75057370  0.45098927  0.04741713  1
  P  P13  1  0.25048539  0.54210228  0.95750763  1
  P  P14  1  0.54344990  0.96131097  0.25081911  1
  P  P15  1  0.95560219  0.24980873  0.53835758  1
  O  O16  1  0.12796931  0.29923929  0.49188673  1
  O  O17  1  0.31366658  0.50201749  0.11829776  1
  O  O18  1  0.04673686  0.91975063  0.26508877  1
  O  O19  1  0.52955095  0.11847143  0.30325087  1
  O  O20  1  0.23991869  0.59329107  0.43003505  1
  O  O21  1  0.01357880  0.80907939  0.61213119  1
  O  O22  1  0.25806120  0.07126745  0.90481895  1
  O  O23  1  0.45474097  0.23262505  0.57753410  1
  O  O24  1  0.59527338  0.43277631  0.24137047  1
  O  O25  1  0.18362698  0.38449149  0.99751813  1
  O  O26  1  0.09532000  0.73877680  0.93397499  1
  O  O27  1  0.37373173  0.01034720  0.19558609  1
  O  O28  1  0.61249108  0.00855686  0.81196437  1
  O  O29  1  0.90584700  0.25657778  0.06859977  1
  O  O30  1  0.81425576  0.61167381  0.00851802  1
  O  O31  1  0.41154379  0.55744996  0.76519782  1
  O  O32  1  0.55390916  0.76938040  0.41312306  1
  O  O33  1  0.73745829  0.92809716  0.09269475  1
  O  O34  1  0.97120278  0.19321282  0.38319111  1
  O  O35  1  0.76528043  0.41418322  0.56164014  1
  O  O36  1  0.47874755  0.88696907  0.69024645  1
  O  O37  1  0.93484110  0.09280419  0.73433150  1
  O  O38  1  0.68704480  0.48266035  0.88800159  1
  O  O39  1  0.88619435  0.68770809  0.48299761  1
