# generated using pymatgen
data_Li11Ti4Fe9O32
_symmetry_space_group_name_H-M   'P 1'
_cell_length_a   8.50297941
_cell_length_b   8.33833471
_cell_length_c   8.36210211
_cell_angle_alpha   89.79888552
_cell_angle_beta   89.70854535
_cell_angle_gamma   89.80466719
_symmetry_Int_Tables_number   1
_chemical_formula_structural   Li11Ti4Fe9O32
_chemical_formula_sum   'Li11 Ti4 Fe9 O32'
_cell_volume   592.86406331
_cell_formula_units_Z   1
loop_
 _symmetry_equiv_pos_site_id
 _symmetry_equiv_pos_as_xyz
  1  'x, y, z'
loop_
 _atom_site_type_symbol
 _atom_site_label
 _atom_site_symmetry_multiplicity
 _atom_site_fract_x
 _atom_site_fract_y
 _atom_site_fract_z
 _atom_site_occupancy
  Li  Li0  1  0.99866872  0.49867371  0.50589455  1
  Li  Li1  1  0.12280666  0.87133859  0.37766056  1
  Li  Li2  1  0.24751235  0.74946406  0.74563177  1
  Li  Li3  1  0.25058593  0.24951874  0.24799694  1
  Li  Li4  1  0.37563297  0.12034089  0.87835535  1
  Li  Li5  1  0.50264547  0.50289608  0.00304115  1
  Li  Li6  1  0.50227041  0.99811270  0.50100504  1
  Li  Li7  1  0.63112607  0.62901036  0.61981049  1
  Li  Li8  1  0.74840279  0.74868513  0.25017053  1
  Li  Li9  1  0.74745569  0.25286946  0.74635385  1
  Li  Li10  1  0.86651636  0.37303911  0.12443271  1
  Ti  Ti11  1  0.14216786  0.12081720  0.60617898  1
  Ti  Ti12  1  0.11597762  0.37273386  0.87411666  1
  Ti  Ti13  1  0.10976165  0.61446815  0.13937577  1
  Ti  Ti14  1  0.38323697  0.37680654  0.63759640  1
  Fe  Fe15  1  0.37890871  0.62359267  0.37355192  1
  Fe  Fe16  1  0.37312105  0.87382092  0.12437059  1
  Fe  Fe17  1  0.62033099  0.37200698  0.37271974  1
  Fe  Fe18  1  0.61907877  0.12638089  0.12455197  1
  Fe  Fe19  1  0.62318131  0.87799385  0.87722954  1
  Fe  Fe20  1  0.87522119  0.12571640  0.37633402  1
  Fe  Fe21  1  0.87892456  0.87900504  0.62477561  1
  Fe  Fe22  1  0.87624890  0.62350205  0.87584935  1
  Fe  Fe23  1  0.00480846  0.00226404  0.00465079  1
  O  O24  1  0.10807755  0.12836859  0.38925089  1
  O  O25  1  0.10216394  0.61556575  0.88365261  1
  O  O26  1  0.13001798  0.39129416  0.10288323  1
  O  O27  1  0.14799813  0.62158637  0.35913913  1
  O  O28  1  0.10429650  0.89532874  0.62743230  1
  O  O29  1  0.12061899  0.13986522  0.86588216  1
  O  O30  1  0.14059770  0.36067293  0.63712740  1
  O  O31  1  0.13703760  0.86173805  0.12014378  1
  O  O32  1  0.35784337  0.13890408  0.62227478  1
  O  O33  1  0.36339495  0.64153534  0.14078976  1
  O  O34  1  0.37655290  0.84778866  0.35652455  1
  O  O35  1  0.38519959  0.09514512  0.12783082  1
  O  O36  1  0.35885571  0.38716277  0.85428865  1
  O  O37  1  0.37560421  0.61216061  0.59409700  1
  O  O38  1  0.39103424  0.39387882  0.37738057  1
  O  O39  1  0.39469564  0.86556149  0.89593755  1
  O  O40  1  0.60451017  0.36915263  0.59876236  1
  O  O41  1  0.61891906  0.88981024  0.10905980  1
  O  O42  1  0.62218108  0.11186921  0.89985507  1
  O  O43  1  0.64619663  0.88231152  0.65599687  1
  O  O44  1  0.60174512  0.60081701  0.37098199  1
  O  O45  1  0.62436701  0.35320521  0.14407612  1
  O  O46  1  0.63223767  0.13543552  0.35490752  1
  O  O47  1  0.65685439  0.64599309  0.87884411  1
  O  O48  1  0.84705958  0.35208645  0.37690068  1
  O  O49  1  0.87130567  0.87575128  0.86939141  1
  O  O50  1  0.87544449  0.65830580  0.63911136  1
  O  O51  1  0.89231921  0.39232657  0.87032716  1
  O  O52  1  0.86794541  0.11995904  0.14224543  1
  O  O53  1  0.87182414  0.89635795  0.39574617  1
  O  O54  1  0.88371563  0.11115270  0.61164809  1
  O  O55  1  0.89479728  0.62594365  0.11594739  1
