# generated using pymatgen
data_Li4Ti3Mn3(WO8)2
_symmetry_space_group_name_H-M   'P 1'
_cell_length_a   6.15143806
_cell_length_b   6.04086699
_cell_length_c   9.86907167
_cell_angle_alpha   90.23716535
_cell_angle_beta   91.54654120
_cell_angle_gamma   119.71010719
_symmetry_Int_Tables_number   1
_chemical_formula_structural   Li4Ti3Mn3(WO8)2
_chemical_formula_sum   'Li4 Ti3 Mn3 W2 O16'
_cell_volume   318.34459893
_cell_formula_units_Z   1
loop_
 _symmetry_equiv_pos_site_id
 _symmetry_equiv_pos_as_xyz
  1  'x, y, z'
loop_
 _atom_site_type_symbol
 _atom_site_label
 _atom_site_symmetry_multiplicity
 _atom_site_fract_x
 _atom_site_fract_y
 _atom_site_fract_z
 _atom_site_occupancy
  Li  Li0  1  0.31282997  0.65789611  0.90522176  1
  Li  Li1  1  0.00334287  0.00115998  0.98445487  1
  Li  Li2  1  0.02106557  0.00971277  0.49260257  1
  Li  Li3  1  0.65132775  0.32817406  0.40899541  1
  Ti  Ti4  1  0.19186703  0.85247918  0.21466496  1
  Ti  Ti5  1  0.16914455  0.34114886  0.21725267  1
  Ti  Ti6  1  0.34486189  0.18979611  0.72292453  1
  Mn  Mn7  1  0.66451944  0.82530006  0.20833382  1
  Mn  Mn8  1  0.84570155  0.65997433  0.70511360  1
  Mn  Mn9  1  0.83194151  0.17006313  0.70832784  1
  W  W10  1  0.34096497  0.67123192  0.48867815  1
  W  W11  1  0.68131536  0.34013311  0.98469188  1
  O  O12  1  0.18144756  0.83515018  0.58914344  1
  O  O13  1  0.04675613  0.52103181  0.34034902  1
  O  O14  1  0.30108008  0.65105258  0.10987594  1
  O  O15  1  0.02040362  0.00668286  0.30404527  1
  O  O16  1  0.02382757  0.01022662  0.79900352  1
  O  O17  1  0.18765393  0.34723386  0.59624881  1
  O  O18  1  0.45907625  0.96271828  0.34131208  1
  O  O19  1  0.45400283  0.49453968  0.34046827  1
  O  O20  1  0.33226912  0.16312520  0.10723505  1
  O  O21  1  0.66425357  0.82973624  0.56905438  1
  O  O22  1  0.49781047  0.46772528  0.85381824  1
  O  O23  1  0.49644406  0.04053027  0.86049341  1
  O  O24  1  0.62314821  0.30816167  0.60806119  1
  O  O25  1  0.84627360  0.65814192  0.09326221  1
  O  O26  1  0.95396204  0.47491008  0.85749038  1
  O  O27  1  0.85271050  0.18226084  0.09671573  1
