# generated using pymatgen
data_Al8SiO14
_symmetry_space_group_name_H-M   'P 1'
_cell_length_a   23.31123086
_cell_length_b   7.72251537
_cell_length_c   5.94973511
_cell_angle_alpha   90.00000000
_cell_angle_beta   90.00000000
_cell_angle_gamma   90.00000000
_symmetry_Int_Tables_number   1
_chemical_formula_structural   Al8SiO14
_chemical_formula_sum   'Al32 Si4 O56'
_cell_volume   1071.07927888
_cell_formula_units_Z   4
loop_
 _symmetry_equiv_pos_site_id
 _symmetry_equiv_pos_as_xyz
  1  'x, y, z'
loop_
 _atom_site_type_symbol
 _atom_site_label
 _atom_site_symmetry_multiplicity
 _atom_site_fract_x
 _atom_site_fract_y
 _atom_site_fract_z
 _atom_site_occupancy
  Al  Al0  1  0.00000000  0.50000000  0.00000000  1
  Al  Al1  1  0.00000000  0.50000000  0.50000000  1
  Al  Al2  1  0.09043500  0.27512015  0.25000000  1
  Al  Al3  1  0.08849490  0.27355925  0.75000000  1
  Al  Al4  1  0.11414483  0.65408175  0.25000000  1
  Al  Al5  1  0.17119658  0.99768610  0.50157775  1
  Al  Al6  1  0.17119658  0.99768610  0.99842225  1
  Al  Al7  1  0.21582265  0.33060675  0.25000000  1
  Al  Al8  1  0.21696449  0.32612912  0.75000000  1
  Al  Al9  1  0.28303551  0.82612912  0.25000000  1
  Al  Al10  1  0.28417735  0.83060675  0.75000000  1
  Al  Al11  1  0.32880342  0.49768610  0.00157775  1
  Al  Al12  1  0.32880342  0.49768610  0.49842225  1
  Al  Al13  1  0.38585517  0.15408175  0.75000000  1
  Al  Al14  1  0.41150510  0.77355925  0.25000000  1
  Al  Al15  1  0.40956500  0.77512015  0.75000000  1
  Al  Al16  1  0.50000000  0.00000000  0.50000000  1
  Al  Al17  1  0.50000000  0.00000000  0.00000000  1
  Al  Al18  1  0.59043500  0.22487985  0.25000000  1
  Al  Al19  1  0.58849490  0.22644075  0.75000000  1
  Al  Al20  1  0.61414483  0.84591825  0.25000000  1
  Al  Al21  1  0.67119658  0.50231390  0.99842225  1
  Al  Al22  1  0.67119658  0.50231390  0.50157775  1
  Al  Al23  1  0.71582265  0.16939325  0.25000000  1
  Al  Al24  1  0.71696449  0.17387088  0.75000000  1
  Al  Al25  1  0.78303551  0.67387088  0.25000000  1
  Al  Al26  1  0.78417735  0.66939325  0.75000000  1
  Al  Al27  1  0.82880342  0.00231390  0.49842225  1
  Al  Al28  1  0.82880342  0.00231390  0.00157775  1
  Al  Al29  1  0.88585517  0.34591825  0.75000000  1
  Al  Al30  1  0.91150510  0.72644075  0.25000000  1
  Al  Al31  1  0.90956500  0.72487985  0.75000000  1
  Si  Si32  1  0.11522263  0.65050727  0.75000000  1
  Si  Si33  1  0.38477737  0.15050727  0.25000000  1
  Si  Si34  1  0.61522263  0.84949273  0.75000000  1
  Si  Si35  1  0.88477737  0.34949273  0.25000000  1
  O  O36  1  0.05104997  0.30852371  0.00082484  1
  O  O37  1  0.05104997  0.30852371  0.49917516  1
  O  O38  1  0.04134390  0.59253528  0.25000000  1
  O  O39  1  0.04662790  0.59950614  0.75000000  1
  O  O40  1  0.12377619  0.07113211  0.25000000  1
  O  O41  1  0.12485770  0.07769339  0.75000000  1
  O  O42  1  0.13105425  0.75651260  0.51594231  1
  O  O43  1  0.13105425  0.75651260  0.98405769  1
  O  O44  1  0.14781348  0.44508496  0.25000000  1
  O  O45  1  0.14763231  0.45417901  0.75000000  1
  O  O46  1  0.21059464  0.21135820  0.00108185  1
  O  O47  1  0.21059464  0.21135820  0.49891815  1
  O  O48  1  0.21478530  0.91636564  0.25000000  1
  O  O49  1  0.21702574  0.92606706  0.75000000  1
  O  O50  1  0.28297426  0.42606706  0.25000000  1
  O  O51  1  0.28521470  0.41636564  0.75000000  1
  O  O52  1  0.28940536  0.71135820  0.99891815  1
  O  O53  1  0.28940536  0.71135820  0.50108185  1
  O  O54  1  0.35236769  0.95417901  0.25000000  1
  O  O55  1  0.35218652  0.94508496  0.75000000  1
  O  O56  1  0.36894575  0.25651260  0.01594231  1
  O  O57  1  0.36894575  0.25651260  0.48405769  1
  O  O58  1  0.37514230  0.57769339  0.25000000  1
  O  O59  1  0.37622381  0.57113211  0.75000000  1
  O  O60  1  0.45865610  0.09253528  0.75000000  1
  O  O61  1  0.45337210  0.09950614  0.25000000  1
  O  O62  1  0.44895003  0.80852371  0.99917516  1
  O  O63  1  0.44895003  0.80852371  0.50082484  1
  O  O64  1  0.55104997  0.19147629  0.00082484  1
  O  O65  1  0.55104997  0.19147629  0.49917516  1
  O  O66  1  0.54134390  0.90746472  0.25000000  1
  O  O67  1  0.54662790  0.90049386  0.75000000  1
  O  O68  1  0.62377619  0.42886789  0.25000000  1
  O  O69  1  0.62485770  0.42230661  0.75000000  1
  O  O70  1  0.63105425  0.74348740  0.98405769  1
  O  O71  1  0.63105425  0.74348740  0.51594231  1
  O  O72  1  0.64781348  0.05491504  0.25000000  1
  O  O73  1  0.64763231  0.04582099  0.75000000  1
  O  O74  1  0.71059464  0.28864180  0.00108185  1
  O  O75  1  0.71059464  0.28864180  0.49891815  1
  O  O76  1  0.71478530  0.58363436  0.25000000  1
  O  O77  1  0.71702574  0.57393294  0.75000000  1
  O  O78  1  0.78521470  0.08363436  0.75000000  1
  O  O79  1  0.78297426  0.07393294  0.25000000  1
  O  O80  1  0.78940536  0.78864180  0.99891815  1
  O  O81  1  0.78940536  0.78864180  0.50108185  1
  O  O82  1  0.85236769  0.54582099  0.25000000  1
  O  O83  1  0.85218652  0.55491504  0.75000000  1
  O  O84  1  0.86894575  0.24348740  0.01594231  1
  O  O85  1  0.86894575  0.24348740  0.48405769  1
  O  O86  1  0.87514230  0.92230661  0.25000000  1
  O  O87  1  0.87622381  0.92886789  0.75000000  1
  O  O88  1  0.95337210  0.40049386  0.25000000  1
  O  O89  1  0.95865610  0.40746472  0.75000000  1
  O  O90  1  0.94895003  0.69147629  0.99917516  1
  O  O91  1  0.94895003  0.69147629  0.50082484  1
