# generated using pymatgen
data_LiZn2Fe9O16
_symmetry_space_group_name_H-M   'P 1'
_cell_length_a   6.04503356
_cell_length_b   6.04983454
_cell_length_c   20.01459574
_cell_angle_alpha   98.87053179
_cell_angle_beta   89.74757798
_cell_angle_gamma   119.97587189
_symmetry_Int_Tables_number   1
_chemical_formula_structural   LiZn2Fe9O16
_chemical_formula_sum   'Li2 Zn4 Fe18 O32'
_cell_volume   624.20842180
_cell_formula_units_Z   2
loop_
 _symmetry_equiv_pos_site_id
 _symmetry_equiv_pos_as_xyz
  1  'x, y, z'
loop_
 _atom_site_type_symbol
 _atom_site_label
 _atom_site_symmetry_multiplicity
 _atom_site_fract_x
 _atom_site_fract_y
 _atom_site_fract_z
 _atom_site_occupancy
  Li  Li0  1  0.18200323  0.36968570  0.56016841  1
  Li  Li1  1  0.93885443  0.87683891  0.81310110  1
  Zn  Zn2  1  0.34418343  0.68854433  0.03079526  1
  Zn  Zn3  1  0.22041190  0.93873483  0.15627845  1
  Zn  Zn4  1  0.09738565  0.18829226  0.28279243  1
  Zn  Zn5  1  0.97280716  0.43617335  0.40870186  1
  Fe  Fe6  1  0.99586615  0.99724273  0.99619753  1
  Fe  Fe7  1  0.72053337  0.93905081  0.15634596  1
  Fe  Fe8  1  0.21914434  0.43761259  0.15639137  1
  Fe  Fe9  1  0.69323995  0.37525244  0.06535651  1
  Fe  Fe10  1  0.44604517  0.87128031  0.31358090  1
  Fe  Fe11  1  0.74711429  0.50604536  0.25064326  1
  Fe  Fe12  1  0.97196994  0.94357980  0.40809477  1
  Fe  Fe13  1  0.46315193  0.43391537  0.40765717  1
  Fe  Fe14  1  0.20492699  0.92762967  0.65480779  1
  Fe  Fe15  1  0.83855203  0.68505790  0.53414676  1
  Fe  Fe16  1  0.72094043  0.92707094  0.65475566  1
  Fe  Fe17  1  0.49004278  0.00373402  0.50135490  1
  Fe  Fe18  1  0.25104490  0.49714310  0.74767107  1
  Fe  Fe19  1  0.46854935  0.93851051  0.90392830  1
  Fe  Fe20  1  0.72432090  0.44506753  0.65486566  1
  Fe  Fe21  1  0.46971790  0.43178426  0.90365434  1
  Fe  Fe22  1  0.59775950  0.19010105  0.78313889  1
  Fe  Fe23  1  0.96282212  0.43238412  0.90429209  1
  O  O24  1  0.04941272  0.56385773  0.09568148  1
  O  O25  1  0.52704908  0.57246604  0.09712902  1
  O  O26  1  0.41066199  0.80431027  0.21341864  1
  O  O27  1  0.02759828  0.06897010  0.09572689  1
  O  O28  1  0.90506833  0.82615361  0.21574489  1
  O  O29  1  0.39196276  0.31260372  0.21556517  1
  O  O30  1  0.13062452  0.80934739  0.47177536  1
  O  O31  1  0.28673296  0.55217681  0.34652031  1
  O  O32  1  0.53474350  0.04829194  0.09530923  1
  O  O33  1  0.28338193  0.06810045  0.34867130  1
  O  O34  1  0.01864645  0.57512955  0.59741564  1
  O  O35  1  0.15898588  0.29811048  0.45947033  1
  O  O36  1  0.91026508  0.30523108  0.21437858  1
  O  O37  1  0.78131236  0.57072951  0.34993287  1
  O  O38  1  0.65718334  0.80408020  0.46816008  1
  O  O39  1  0.65693831  0.33344855  0.47165983  1
  O  O40  1  0.41568512  0.83133027  0.71783068  1
  O  O41  1  0.79780331  0.06191520  0.34663436  1
  O  O42  1  0.55839800  0.57511284  0.59708459  1
  O  O43  1  0.01238383  0.02890553  0.59623366  1
  O  O44  1  0.90124530  0.80571778  0.71103489  1
  O  O45  1  0.16290165  0.80529374  0.96288611  1
  O  O46  1  0.41599431  0.29930855  0.71714550  1
  O  O47  1  0.53094897  0.06464567  0.60095771  1
  O  O48  1  0.28468152  0.56626579  0.84744060  1
  O  O49  1  0.63958879  0.80375065  0.96185217  1
  O  O50  1  0.88781912  0.30036813  0.71700744  1
  O  O51  1  0.16202465  0.32516623  0.96280501  1
  O  O52  1  0.31730030  0.08111539  0.84763017  1
  O  O53  1  0.76913195  0.53329297  0.84721103  1
  O  O54  1  0.76630361  0.08177879  0.84762936  1
  O  O55  1  0.65494522  0.31138320  0.96577166  1
