# generated using pymatgen
data_Na3CoSiBO7
_symmetry_space_group_name_H-M   'P 1'
_cell_length_a   8.97177432
_cell_length_b   6.33323438
_cell_length_c   5.19941337
_cell_angle_alpha   90.00000000
_cell_angle_beta   87.77694829
_cell_angle_gamma   90.00000000
_symmetry_Int_Tables_number   1
_chemical_formula_structural   Na3CoSiBO7
_chemical_formula_sum   'Na6 Co2 Si2 B2 O14'
_cell_volume   295.21014030
_cell_formula_units_Z   2
loop_
 _symmetry_equiv_pos_site_id
 _symmetry_equiv_pos_as_xyz
  1  'x, y, z'
loop_
 _atom_site_type_symbol
 _atom_site_label
 _atom_site_symmetry_multiplicity
 _atom_site_fract_x
 _atom_site_fract_y
 _atom_site_fract_z
 _atom_site_occupancy
  Na  Na0  1  0.08234391  0.25000000  0.76305965  1
  Na  Na1  1  0.26247955  0.00842025  0.25186645  1
  Na  Na2  1  0.26247955  0.49157975  0.25186645  1
  Na  Na3  1  0.73752045  0.50842025  0.74813355  1
  Na  Na4  1  0.73752045  0.99157975  0.74813355  1
  Na  Na5  1  0.91765609  0.75000000  0.23694035  1
  Co  Co6  1  0.33153634  0.75000000  0.78673837  1
  Co  Co7  1  0.66846366  0.25000000  0.21326163  1
  Si  Si8  1  0.43128493  0.25000000  0.71386483  1
  Si  Si9  1  0.56871507  0.75000000  0.28613517  1
  B  B10  1  0.06902420  0.75000000  0.73224828  1
  B  B11  1  0.93097580  0.25000000  0.26775172  1
  O  O12  1  0.07793325  0.25000000  0.29885055  1
  O  O13  1  0.13838355  0.75000000  0.96748727  1
  O  O14  1  0.17968458  0.75000000  0.53530133  1
  O  O15  1  0.31590490  0.05009324  0.77961865  1
  O  O16  1  0.31590490  0.44990676  0.77961865  1
  O  O17  1  0.47748087  0.25000000  0.40399591  1
  O  O18  1  0.42309449  0.75000000  0.11171990  1
  O  O19  1  0.57690551  0.25000000  0.88828010  1
  O  O20  1  0.52251913  0.75000000  0.59600409  1
  O  O21  1  0.68409510  0.55009324  0.22038135  1
  O  O22  1  0.68409510  0.94990676  0.22038135  1
  O  O23  1  0.82031542  0.25000000  0.46469867  1
  O  O24  1  0.86161645  0.25000000  0.03251273  1
  O  O25  1  0.92206675  0.75000000  0.70114945  1
