# generated using pymatgen
data_Li4Fe5Cu3O16
_symmetry_space_group_name_H-M   'P 1'
_cell_length_a   5.91311908
_cell_length_b   5.85010285
_cell_length_c   9.50225351
_cell_angle_alpha   89.98934970
_cell_angle_beta   89.23732898
_cell_angle_gamma   119.62670318
_symmetry_Int_Tables_number   1
_chemical_formula_structural   Li4Fe5Cu3O16
_chemical_formula_sum   'Li4 Fe5 Cu3 O16'
_cell_volume   285.69794206
_cell_formula_units_Z   1
loop_
 _symmetry_equiv_pos_site_id
 _symmetry_equiv_pos_as_xyz
  1  'x, y, z'
loop_
 _atom_site_type_symbol
 _atom_site_label
 _atom_site_symmetry_multiplicity
 _atom_site_fract_x
 _atom_site_fract_y
 _atom_site_fract_z
 _atom_site_occupancy
  Li  Li0  1  0.32012219  0.66032198  0.89536253  1
  Li  Li1  1  0.00042777  0.00030159  0.99692270  1
  Li  Li2  1  0.01279862  0.00620991  0.49298571  1
  Li  Li3  1  0.67364065  0.33681484  0.39340586  1
  Fe  Fe4  1  0.34206943  0.67096790  0.49113990  1
  Fe  Fe5  1  0.65702447  0.82862354  0.21441300  1
  Fe  Fe6  1  0.65560178  0.32793769  0.99054345  1
  Fe  Fe7  1  0.83109390  0.66158588  0.71555430  1
  Fe  Fe8  1  0.83111561  0.16946586  0.71552073  1
  Cu  Cu9  1  0.16919980  0.82928991  0.21287242  1
  Cu  Cu10  1  0.16937547  0.34016294  0.21281843  1
  Cu  Cu11  1  0.34227212  0.17120283  0.71144959  1
  O  O12  1  0.16698747  0.83388542  0.59637591  1
  O  O13  1  0.04469755  0.52219731  0.34103442  1
  O  O14  1  0.32256889  0.66139611  0.10727849  1
  O  O15  1  0.00856247  0.00409865  0.30264361  1
  O  O16  1  0.01547498  0.00762657  0.80795767  1
  O  O17  1  0.16742769  0.33258966  0.59642989  1
  O  O18  1  0.49313248  0.96586814  0.34260133  1
  O  O19  1  0.49360763  0.52765861  0.34264567  1
  O  O20  1  0.31904974  0.15957729  0.09914247  1
  O  O21  1  0.67915976  0.83949431  0.60023828  1
  O  O22  1  0.51489693  0.48212908  0.84285849  1
  O  O23  1  0.51441733  0.03314808  0.84272030  1
  O  O24  1  0.66303002  0.33151605  0.60382398  1
  O  O25  1  0.81607259  0.66517577  0.09870686  1
  O  O26  1  0.96052707  0.48024698  0.84178716  1
  O  O27  1  0.81564257  0.15080508  0.09860686  1
