# generated using pymatgen
data_CrCu3(PO4)4
_symmetry_space_group_name_H-M   'P 1'
_cell_length_a   4.85516621
_cell_length_b   9.81500114
_cell_length_c   5.90004052
_cell_angle_alpha   90.00000000
_cell_angle_beta   90.00000000
_cell_angle_gamma   88.29456768
_symmetry_Int_Tables_number   1
_chemical_formula_structural   CrCu3(PO4)4
_chemical_formula_sum   'Cr1 Cu3 P4 O16'
_cell_volume   281.03281516
_cell_formula_units_Z   1
loop_
 _symmetry_equiv_pos_site_id
 _symmetry_equiv_pos_as_xyz
  1  'x, y, z'
loop_
 _atom_site_type_symbol
 _atom_site_label
 _atom_site_symmetry_multiplicity
 _atom_site_fract_x
 _atom_site_fract_y
 _atom_site_fract_z
 _atom_site_occupancy
  Cr  Cr0  1  0.96161844  0.27898509  0.25000000  1
  Cu  Cu1  1  0.05968039  0.71725381  0.75000000  1
  Cu  Cu2  1  0.39397052  0.20896237  0.75000000  1
  Cu  Cu3  1  0.57148924  0.78231350  0.25000000  1
  P  P4  1  0.09701474  0.59825630  0.25000000  1
  P  P5  1  0.41306519  0.09566259  0.25000000  1
  P  P6  1  0.57476180  0.90015600  0.75000000  1
  P  P7  1  0.91995191  0.40417063  0.75000000  1
  O  O8  1  0.16778934  0.44498779  0.25000000  1
  O  O9  1  0.24038242  0.67053770  0.04566725  1
  O  O10  1  0.24038242  0.67053770  0.45433275  1
  O  O11  1  0.23951758  0.38412026  0.75000000  1
  O  O12  1  0.26117759  0.88309041  0.75000000  1
  O  O13  1  0.24704551  0.17153170  0.05161809  1
  O  O14  1  0.24704551  0.17153170  0.44838191  1
  O  O15  1  0.34683142  0.94383666  0.25000000  1
  O  O16  1  0.62783669  0.05516174  0.75000000  1
  O  O17  1  0.73480556  0.82908698  0.54765366  1
  O  O18  1  0.73480556  0.82908698  0.95234634  1
  O  O19  1  0.71815085  0.12089113  0.25000000  1
  O  O20  1  0.77857151  0.61555180  0.25000000  1
  O  O21  1  0.78887779  0.33302299  0.53999298  1
  O  O22  1  0.78887779  0.33302299  0.96000702  1
  O  O23  1  0.84635224  0.55824117  0.75000000  1
