# generated using pymatgen
data_FeCo(PO4)2
_symmetry_space_group_name_H-M   'P 1'
_cell_length_a   8.37318588
_cell_length_b   8.63470719
_cell_length_c   8.63470717
_cell_angle_alpha   60.00000539
_cell_angle_beta   58.96132438
_cell_angle_gamma   58.96131939
_symmetry_Int_Tables_number   1
_chemical_formula_structural   FeCo(PO4)2
_chemical_formula_sum   'Fe3 Co3 P6 O24'
_cell_volume   434.38142714
_cell_formula_units_Z   3
loop_
 _symmetry_equiv_pos_site_id
 _symmetry_equiv_pos_as_xyz
  1  'x, y, z'
loop_
 _atom_site_type_symbol
 _atom_site_label
 _atom_site_symmetry_multiplicity
 _atom_site_fract_x
 _atom_site_fract_y
 _atom_site_fract_z
 _atom_site_occupancy
  Fe  Fe0  1  0.06447766  0.64517445  0.64517445  1
  Fe  Fe1  1  0.43453401  0.85515500  0.85515500  1
  Fe  Fe2  1  0.93558734  0.35480455  0.35480455  1
  Co  Co3  1  0.99519473  0.00160142  0.00160142  1
  Co  Co4  1  0.56091731  0.14636090  0.14636090  1
  Co  Co5  1  0.50101242  0.49966253  0.49966253  1
  P  P6  1  0.25081352  0.24954041  0.54689413  1
  P  P7  1  0.25081352  0.95275294  0.24954041  1
  P  P8  1  0.25081352  0.54689413  0.95275294  1
  P  P9  1  0.74951725  0.45157037  0.04781467  1
  P  P10  1  0.74951725  0.04781467  0.75109670  1
  P  P11  1  0.74951725  0.75109670  0.45157037  1
  O  O12  1  0.06452000  0.10724621  0.32456022  1
  O  O13  1  0.06452000  0.50367357  0.10724621  1
  O  O14  1  0.06452000  0.32456022  0.50367357  1
  O  O15  1  0.21623032  0.09609743  0.74964345  1
  O  O16  1  0.43796918  0.17529258  0.39081176  1
  O  O17  1  0.28549897  0.40401838  0.56026155  1
  O  O18  1  0.21623032  0.93802980  0.09609743  1
  O  O19  1  0.28549897  0.75022110  0.40401838  1
  O  O20  1  0.56377525  0.60703315  0.00443121  1
  O  O21  1  0.28549897  0.56026155  0.75022110  1
  O  O22  1  0.78209613  0.24919251  0.06304667  1
  O  O23  1  0.56377525  0.00443121  0.82476039  1
  O  O24  1  0.43796918  0.99592649  0.17529258  1
  O  O25  1  0.21623032  0.74964345  0.93802980  1
  O  O26  1  0.71634917  0.43625885  0.25064437  1
  O  O27  1  0.43796918  0.39081176  0.99592649  1
  O  O28  1  0.71634917  0.25064437  0.59674661  1
  O  O29  1  0.78209613  0.06304667  0.90566368  1
  O  O30  1  0.71634917  0.59674661  0.43625885  1
  O  O31  1  0.56377525  0.82476039  0.60703315  1
  O  O32  1  0.78209613  0.90566368  0.24919251  1
  O  O33  1  0.93598905  0.67785469  0.49397111  1
  O  O34  1  0.93598905  0.49397111  0.89218515  1
  O  O35  1  0.93598905  0.89218515  0.67785469  1
