# generated using pymatgen
data_Li6Mn(BO3)3
_symmetry_space_group_name_H-M   'P 1'
_cell_length_a   6.98972382
_cell_length_b   16.35957647
_cell_length_c   6.97857922
_cell_angle_alpha   90.00000000
_cell_angle_beta   105.28876433
_cell_angle_gamma   90.00000000
_symmetry_Int_Tables_number   1
_chemical_formula_structural   Li6Mn(BO3)3
_chemical_formula_sum   'Li24 Mn4 B12 O36'
_cell_volume   769.75135178
_cell_formula_units_Z   4
loop_
 _symmetry_equiv_pos_site_id
 _symmetry_equiv_pos_as_xyz
  1  'x, y, z'
loop_
 _atom_site_type_symbol
 _atom_site_label
 _atom_site_symmetry_multiplicity
 _atom_site_fract_x
 _atom_site_fract_y
 _atom_site_fract_z
 _atom_site_occupancy
  Li  Li0  1  0.06244647  0.99251193  0.67003394  1
  Li  Li1  1  0.14487089  0.55111713  0.58306820  1
  Li  Li2  1  0.06244647  0.50748807  0.17003394  1
  Li  Li3  1  0.31618010  0.46077586  0.95424684  1
  Li  Li4  1  0.14487089  0.94888287  0.08306820  1
  Li  Li5  1  0.26857111  0.70092121  0.62040138  1
  Li  Li6  1  0.31618010  0.03922414  0.45424684  1
  Li  Li7  1  0.39675662  0.29019187  0.94984309  1
  Li  Li8  1  0.45897390  0.95188894  0.83143724  1
  Li  Li9  1  0.26857111  0.79907879  0.12040138  1
  Li  Li10  1  0.39675662  0.20980813  0.44984309  1
  Li  Li11  1  0.45897390  0.54811106  0.33143724  1
  Li  Li12  1  0.54102610  0.45188894  0.66856276  1
  Li  Li13  1  0.60324338  0.79019187  0.55015691  1
  Li  Li14  1  0.73142889  0.20092121  0.87959862  1
  Li  Li15  1  0.54102610  0.04811106  0.16856276  1
  Li  Li16  1  0.60324338  0.70980813  0.05015691  1
  Li  Li17  1  0.68381990  0.96077586  0.54575316  1
  Li  Li18  1  0.73142889  0.29907879  0.37959862  1
  Li  Li19  1  0.85512911  0.05111713  0.91693180  1
  Li  Li20  1  0.68381990  0.53922414  0.04575316  1
  Li  Li21  1  0.93755353  0.49251193  0.82996606  1
  Li  Li22  1  0.85512911  0.44888287  0.41693180  1
  Li  Li23  1  0.93755353  0.00748807  0.32996606  1
  Mn  Mn24  1  0.05751521  0.19460345  0.67725160  1
  Mn  Mn25  1  0.05751521  0.30539655  0.17725160  1
  Mn  Mn26  1  0.94248479  0.69460345  0.82274840  1
  Mn  Mn27  1  0.94248479  0.80539655  0.32274840  1
  B  B28  1  0.08185804  0.36519646  0.64135468  1
  B  B29  1  0.08185804  0.13480354  0.14135468  1
  B  B30  1  0.27075302  0.86934281  0.49168196  1
  B  B31  1  0.42210681  0.10900024  0.80430893  1
  B  B32  1  0.27075302  0.63065719  0.99168196  1
  B  B33  1  0.42210681  0.39099976  0.30430893  1
  B  B34  1  0.57789319  0.60900024  0.69569107  1
  B  B35  1  0.72924698  0.36934281  0.00831804  1
  B  B36  1  0.57789319  0.89099976  0.19569107  1
  B  B37  1  0.72924698  0.13065719  0.50831804  1
  B  B38  1  0.91814196  0.86519646  0.85864532  1
  B  B39  1  0.91814196  0.63480354  0.35864532  1
  O  O40  1  0.99643355  0.65568202  0.55409488  1
  O  O41  1  0.09260526  0.58822028  0.95934726  1
  O  O42  1  0.11351426  0.44672151  0.69436034  1
  O  O43  1  0.11599312  0.30501842  0.78748648  1
  O  O44  1  0.99643355  0.84431798  0.05409488  1
  O  O45  1  0.09260526  0.91177972  0.45934726  1
  O  O46  1  0.24210650  0.71155264  0.92132595  1
  O  O47  1  0.11351426  0.05327849  0.19436134  1
  O  O48  1  0.11599312  0.19498158  0.28748648  1
  O  O49  1  0.30074621  0.04505373  0.72824146  1
  O  O50  1  0.24210650  0.78844736  0.42132595  1
  O  O51  1  0.30074621  0.45494627  0.22824146  1
  O  O52  1  0.35818763  0.18950740  0.74615271  1
  O  O53  1  0.39442142  0.59632796  0.56524800  1
  O  O54  1  0.54490452  0.39958074  0.92378395  1
  O  O55  1  0.45509548  0.89958074  0.57621605  1
  O  O56  1  0.35818763  0.31049260  0.24615271  1
  O  O57  1  0.60557858  0.09632796  0.93475200  1
  O  O58  1  0.39442142  0.90367204  0.06524800  1
  O  O59  1  0.64181237  0.68950740  0.75384729  1
  O  O60  1  0.54490452  0.10041926  0.42378395  1
  O  O61  1  0.45509548  0.60041926  0.07621605  1
  O  O62  1  0.60557858  0.40367204  0.43475200  1
  O  O63  1  0.64181237  0.81049260  0.25384729  1
  O  O64  1  0.69925379  0.54505373  0.77175854  1
  O  O65  1  0.75789350  0.21155264  0.57867405  1
  O  O66  1  0.69925379  0.95494627  0.27175954  1
  O  O67  1  0.88400688  0.80501842  0.71251352  1
  O  O68  1  0.88648574  0.94672151  0.80563966  1
  O  O69  1  0.75789350  0.28844736  0.07867405  1
  O  O70  1  0.90739474  0.08822028  0.54065274  1
  O  O71  1  0.00356645  0.15568202  0.94590512  1
  O  O72  1  0.88400688  0.69498158  0.21251352  1
  O  O73  1  0.88648574  0.55327849  0.30563966  1
  O  O74  1  0.90739474  0.41177972  0.04065274  1
  O  O75  1  0.00356645  0.34431798  0.44590512  1
