# generated using pymatgen
data_NaLi5Mn2P2(CO7)2
_symmetry_space_group_name_H-M   'P 1'
_cell_length_a   8.65647415
_cell_length_b   6.63461209
_cell_length_c   9.98593457
_cell_angle_alpha   89.91887070
_cell_angle_beta   88.44984888
_cell_angle_gamma   90.44380987
_symmetry_Int_Tables_number   1
_chemical_formula_structural   NaLi5Mn2P2(CO7)2
_chemical_formula_sum   'Na2 Li10 Mn4 P4 C4 O28'
_cell_volume   573.28782274
_cell_formula_units_Z   2
loop_
 _symmetry_equiv_pos_site_id
 _symmetry_equiv_pos_as_xyz
  1  'x, y, z'
loop_
 _atom_site_type_symbol
 _atom_site_label
 _atom_site_symmetry_multiplicity
 _atom_site_fract_x
 _atom_site_fract_y
 _atom_site_fract_z
 _atom_site_occupancy
  Na  Na0  1  0.08412929  0.25323928  0.87688268  1
  Na  Na1  1  0.25024468  0.99793378  0.12589694  1
  Li  Li2  1  0.08023676  0.25690880  0.37716005  1
  Li  Li3  1  0.26333214  0.02014042  0.61518547  1
  Li  Li4  1  0.26474915  0.47847009  0.61371957  1
  Li  Li5  1  0.26648777  0.48243570  0.11833335  1
  Li  Li6  1  0.73515086  0.52004460  0.88444377  1
  Li  Li7  1  0.73475883  0.98017605  0.88516429  1
  Li  Li8  1  0.73831102  0.51567557  0.38308238  1
  Li  Li9  1  0.73940083  0.98466113  0.38290014  1
  Li  Li10  1  0.91605401  0.74947230  0.62477545  1
  Li  Li11  1  0.91415160  0.74193467  0.12538360  1
  Mn  Mn12  1  0.35821611  0.74672100  0.88470420  1
  Mn  Mn13  1  0.35617679  0.74887392  0.39009795  1
  Mn  Mn14  1  0.64774846  0.25047006  0.61195179  1
  Mn  Mn15  1  0.64359434  0.24947279  0.11241673  1
  P  P16  1  0.41364394  0.24978235  0.84951446  1
  P  P17  1  0.40725467  0.25444064  0.35435671  1
  P  P18  1  0.59472604  0.75029060  0.64636407  1
  P  P19  1  0.59471110  0.74543075  0.14718416  1
  C  C20  1  0.04231796  0.74938498  0.86517179  1
  C  C21  1  0.04190951  0.74799862  0.36700133  1
  C  C22  1  0.95798790  0.25008648  0.62856697  1
  C  C23  1  0.94696188  0.25840751  0.14095488  1
  O  O24  1  0.10693983  0.24811096  0.64435595  1
  O  O25  1  0.09514426  0.27583776  0.15716190  1
  O  O26  1  0.08878026  0.75044426  0.98776502  1
  O  O27  1  0.08904333  0.74959246  0.48883599  1
  O  O28  1  0.14212425  0.74647998  0.76573760  1
  O  O29  1  0.14139576  0.74411471  0.26715764  1
  O  O30  1  0.32242231  0.06097916  0.89846761  1
  O  O31  1  0.32123505  0.43241163  0.90515989  1
  O  O32  1  0.31187731  0.06506749  0.39969682  1
  O  O33  1  0.31183644  0.43431120  0.41080312  1
  O  O34  1  0.41634491  0.25456243  0.69259649  1
  O  O35  1  0.42364404  0.75043774  0.60083082  1
  O  O36  1  0.41599657  0.26716222  0.19813626  1
  O  O37  1  0.42665759  0.73276395  0.09741875  1
  O  O38  1  0.58430025  0.25133185  0.89543197  1
  O  O39  1  0.58894898  0.74962287  0.80325373  1
  O  O40  1  0.57632219  0.25123314  0.40288076  1
  O  O41  1  0.58551664  0.74894467  0.30405371  1
  O  O42  1  0.68872895  0.56683173  0.59387437  1
  O  O43  1  0.68900459  0.93525090  0.59335778  1
  O  O44  1  0.69600353  0.56626884  0.09754936  1
  O  O45  1  0.68423851  0.93394481  0.09360339  1
  O  O46  1  0.86386806  0.25034808  0.73202491  1
  O  O47  1  0.85481007  0.24749318  0.24591419  1
  O  O48  1  0.90350991  0.25202948  0.50873959  1
  O  O49  1  0.88924491  0.25101613  0.02282697  1
  O  O50  1  0.89513159  0.75081682  0.83983827  1
  O  O51  1  0.89467525  0.75013745  0.34131341  1
