# generated using pymatgen
data_Li2MnCo3O8
_symmetry_space_group_name_H-M   'P 1'
_cell_length_a   5.66696578
_cell_length_b   5.68222083
_cell_length_c   5.86962950
_cell_angle_alpha   118.94931054
_cell_angle_beta   90.34641439
_cell_angle_gamma   59.91090835
_symmetry_Int_Tables_number   1
_chemical_formula_structural   Li2MnCo3O8
_chemical_formula_sum   'Li2 Mn1 Co3 O8'
_cell_volume   135.93572719
_cell_formula_units_Z   1
loop_
 _symmetry_equiv_pos_site_id
 _symmetry_equiv_pos_as_xyz
  1  'x, y, z'
loop_
 _atom_site_type_symbol
 _atom_site_label
 _atom_site_symmetry_multiplicity
 _atom_site_fract_x
 _atom_site_fract_y
 _atom_site_fract_z
 _atom_site_occupancy
  Li  Li0  1  0.50000000  0.00000000  0.50000000  1
  Li  Li1  1  0.50000000  0.50000000  0.50000000  1
  Mn  Mn2  1  0.00000000  0.00000000  0.00000000  1
  Co  Co3  1  0.00000000  0.50000000  0.00000000  1
  Co  Co4  1  0.50000000  0.00000000  0.00000000  1
  Co  Co5  1  0.50000000  0.50000000  0.00000000  1
  O  O6  1  0.24037524  0.02414481  0.78967641  1
  O  O7  1  0.24037524  0.52515636  0.78967641  1
  O  O8  1  0.27638296  0.45885169  0.19408533  1
  O  O9  1  0.72707980  0.03499459  0.79706899  1
  O  O10  1  0.27292020  0.96500541  0.20293101  1
  O  O11  1  0.72361704  0.54114831  0.80591467  1
  O  O12  1  0.75962476  0.47484364  0.21032359  1
  O  O13  1  0.75962476  0.97585519  0.21032359  1
