# generated using pymatgen
data_Li5Fe5(PO4)6
_symmetry_space_group_name_H-M   'P 1'
_cell_length_a   8.46160110
_cell_length_b   8.80572345
_cell_length_c   8.81901029
_cell_angle_alpha   59.98101924
_cell_angle_beta   59.55177719
_cell_angle_gamma   59.56908423
_symmetry_Int_Tables_number   1
_chemical_formula_structural   Li5Fe5(PO4)6
_chemical_formula_sum   'Li5 Fe5 P6 O24'
_cell_volume   461.46976780
_cell_formula_units_Z   1
loop_
 _symmetry_equiv_pos_site_id
 _symmetry_equiv_pos_as_xyz
  1  'x, y, z'
loop_
 _atom_site_type_symbol
 _atom_site_label
 _atom_site_symmetry_multiplicity
 _atom_site_fract_x
 _atom_site_fract_y
 _atom_site_fract_z
 _atom_site_occupancy
  Li  Li0  1  0.52829979  0.15998666  0.15682967  1
  Li  Li1  1  0.24991235  0.86023615  0.64310573  1
  Li  Li2  1  0.71717667  0.14676514  0.32985006  1
  Li  Li3  1  0.71692240  0.80984502  0.14110937  1
  Li  Li4  1  0.71345094  0.33497422  0.80876063  1
  Fe  Fe5  1  0.99955764  0.00076498  0.00524985  1
  Fe  Fe6  1  0.06633978  0.64228772  0.64584176  1
  Fe  Fe7  1  0.49520006  0.49618597  0.49989026  1
  Fe  Fe8  1  0.43348605  0.85355506  0.85875487  1
  Fe  Fe9  1  0.95294396  0.34911720  0.34501814  1
  P  P10  1  0.25731925  0.24939447  0.54728881  1
  P  P11  1  0.25801973  0.94790062  0.24370276  1
  P  P12  1  0.25777138  0.54780405  0.94724968  1
  P  P13  1  0.75391308  0.45924690  0.04177330  1
  P  P14  1  0.76757459  0.03847489  0.74326315  1
  P  P15  1  0.74017290  0.74705368  0.46243773  1
  O  O16  1  0.07482937  0.10998511  0.30407073  1
  O  O17  1  0.07391142  0.50867194  0.10865621  1
  O  O18  1  0.07328006  0.31370209  0.50292396  1
  O  O19  1  0.22634653  0.08546266  0.73830161  1
  O  O20  1  0.44625844  0.18917815  0.39679452  1
  O  O21  1  0.26681060  0.40602385  0.57666182  1
  O  O22  1  0.22736964  0.93327401  0.09078717  1
  O  O23  1  0.26860281  0.75791083  0.41082346  1
  O  O24  1  0.56844417  0.61378873  0.00450119  1
  O  O25  1  0.27085938  0.57937468  0.74828191  1
  O  O26  1  0.78300043  0.26798555  0.04448840  1
  O  O27  1  0.59540453  0.98487098  0.79852741  1
  O  O28  1  0.44798775  0.97467447  0.18021228  1
  O  O29  1  0.22557021  0.74962107  0.92676708  1
  O  O30  1  0.73113383  0.42443586  0.24560947  1
  O  O31  1  0.44591878  0.39711350  0.97272266  1
  O  O32  1  0.73636117  0.24067021  0.59445946  1
  O  O33  1  0.78166923  0.05065220  0.90705124  1
  O  O34  1  0.72848215  0.59707276  0.42226514  1
  O  O35  1  0.54234211  0.80745121  0.61190662  1
  O  O36  1  0.77831787  0.90646826  0.27201546  1
  O  O37  1  0.90577685  0.67077006  0.53305052  1
  O  O38  1  0.93126507  0.51551398  0.89620296  1
  O  O39  1  0.96199706  0.89473412  0.66979394  1
