# generated using pymatgen
data_Na2Ti2O5
_symmetry_space_group_name_H-M   'P 1'
_cell_length_a   5.66041259
_cell_length_b   10.65487538
_cell_length_c   9.05360064
_cell_angle_alpha   90.00000000
_cell_angle_beta   90.00000000
_cell_angle_gamma   90.00000000
_symmetry_Int_Tables_number   1
_chemical_formula_structural   Na2Ti2O5
_chemical_formula_sum   'Na8 Ti8 O20'
_cell_volume   546.03162442
_cell_formula_units_Z   4
loop_
 _symmetry_equiv_pos_site_id
 _symmetry_equiv_pos_as_xyz
  1  'x, y, z'
loop_
 _atom_site_type_symbol
 _atom_site_label
 _atom_site_symmetry_multiplicity
 _atom_site_fract_x
 _atom_site_fract_y
 _atom_site_fract_z
 _atom_site_occupancy
  Na  Na0  1  0.06782680  0.51082076  0.97718601  1
  Na  Na1  1  0.06782680  0.98917924  0.47718601  1
  Na  Na2  1  0.08759091  0.26638101  0.25220101  1
  Na  Na3  1  0.08759091  0.23361899  0.75220101  1
  Na  Na4  1  0.91240909  0.73361899  0.75220101  1
  Na  Na5  1  0.91240909  0.76638101  0.25220101  1
  Na  Na6  1  0.93217320  0.48917924  0.47718601  1
  Na  Na7  1  0.93217320  0.01082076  0.97718601  1
  Ti  Ti8  1  0.37402407  0.79742301  0.05353039  1
  Ti  Ti9  1  0.37402407  0.70257699  0.55353039  1
  Ti  Ti10  1  0.47039878  0.53325696  0.24943378  1
  Ti  Ti11  1  0.47039878  0.96674304  0.74943378  1
  Ti  Ti12  1  0.52960122  0.03325696  0.24943378  1
  Ti  Ti13  1  0.52960122  0.46674304  0.74943378  1
  Ti  Ti14  1  0.62597593  0.29742301  0.05353039  1
  Ti  Ti15  1  0.62597593  0.20257699  0.55353039  1
  O  O16  1  0.08845350  0.75880325  0.99319299  1
  O  O17  1  0.08845350  0.74119675  0.49319299  1
  O  O18  1  0.17044714  0.49152987  0.24730055  1
  O  O19  1  0.17044714  0.00847013  0.74730055  1
  O  O20  1  0.33207485  0.89573751  0.22072557  1
  O  O21  1  0.33207485  0.60426249  0.72072557  1
  O  O22  1  0.43893598  0.10392564  0.42840406  1
  O  O23  1  0.43893598  0.39607436  0.92840406  1
  O  O24  1  0.45578792  0.15833960  0.11363564  1
  O  O25  1  0.45578792  0.34166040  0.61363564  1
  O  O26  1  0.54421208  0.65833960  0.11363564  1
  O  O27  1  0.54421208  0.84166040  0.61363564  1
  O  O28  1  0.56106402  0.89607436  0.92840406  1
  O  O29  1  0.56106402  0.60392564  0.42840406  1
  O  O30  1  0.66792515  0.10426249  0.72072557  1
  O  O31  1  0.66792515  0.39573751  0.22072557  1
  O  O32  1  0.82955286  0.50847013  0.74730055  1
  O  O33  1  0.82955286  0.99152987  0.24730055  1
  O  O34  1  0.91154650  0.24119675  0.49319299  1
  O  O35  1  0.91154650  0.25880325  0.99319299  1
