# generated using pymatgen
data_Nb3Au2
_symmetry_space_group_name_H-M   'P 1'
_cell_length_a   7.13659207
_cell_length_b   7.13659207
_cell_length_c   7.13659207
_cell_angle_alpha   90.00000000
_cell_angle_beta   90.00000000
_cell_angle_gamma   90.00000000
_symmetry_Int_Tables_number   1
_chemical_formula_structural   Nb3Au2
_chemical_formula_sum   'Nb12 Au8'
_cell_volume   363.47338801
_cell_formula_units_Z   4
loop_
 _symmetry_equiv_pos_site_id
 _symmetry_equiv_pos_as_xyz
  1  'x, y, z'
loop_
 _atom_site_type_symbol
 _atom_site_label
 _atom_site_symmetry_multiplicity
 _atom_site_fract_x
 _atom_site_fract_y
 _atom_site_fract_z
 _atom_site_occupancy
  Nb  Nb0  1  0.80826142  0.94173858  0.37500000  1
  Nb  Nb1  1  0.69173858  0.05826142  0.87500000  1
  Nb  Nb2  1  0.19173858  0.44173858  0.12500000  1
  Nb  Nb3  1  0.30826142  0.55826142  0.62500000  1
  Nb  Nb4  1  0.94173858  0.37500000  0.80826142  1
  Nb  Nb5  1  0.05826142  0.87500000  0.69173858  1
  Nb  Nb6  1  0.44173858  0.12500000  0.19173858  1
  Nb  Nb7  1  0.55826142  0.62500000  0.30826142  1
  Nb  Nb8  1  0.37500000  0.80826142  0.94173858  1
  Nb  Nb9  1  0.87500000  0.69173858  0.05826142  1
  Nb  Nb10  1  0.12500000  0.19173858  0.44173858  1
  Nb  Nb11  1  0.62500000  0.30826142  0.55826142  1
  Au  Au12  1  0.19956340  0.80043660  0.30043660  1
  Au  Au13  1  0.30043660  0.19956340  0.80043660  1
  Au  Au14  1  0.80043660  0.30043660  0.19956340  1
  Au  Au15  1  0.69956340  0.69956340  0.69956340  1
  Au  Au16  1  0.55043660  0.44956340  0.94956340  1
  Au  Au17  1  0.44956340  0.94956340  0.55043660  1
  Au  Au18  1  0.94956340  0.55043660  0.44956340  1
  Au  Au19  1  0.05043660  0.05043660  0.05043660  1
