# generated using pymatgen
data_Li3Cr3SiO8
_symmetry_space_group_name_H-M   'P 1'
_cell_length_a   5.12864811
_cell_length_b   5.81267981
_cell_length_c   5.04382892
_cell_angle_alpha   90.00000244
_cell_angle_beta   71.77060979
_cell_angle_gamma   90.00000557
_symmetry_Int_Tables_number   1
_chemical_formula_structural   Li3Cr3SiO8
_chemical_formula_sum   'Li3 Cr3 Si1 O8'
_cell_volume   142.81610089
_cell_formula_units_Z   1
loop_
 _symmetry_equiv_pos_site_id
 _symmetry_equiv_pos_as_xyz
  1  'x, y, z'
loop_
 _atom_site_type_symbol
 _atom_site_label
 _atom_site_symmetry_multiplicity
 _atom_site_fract_x
 _atom_site_fract_y
 _atom_site_fract_z
 _atom_site_occupancy
  Li  Li0  1  0.00000000  0.50000000  0.00000000  1
  Li  Li1  1  0.00000000  0.23695406  0.50000000  1
  Li  Li2  1  0.00000000  0.76304594  0.50000000  1
  Cr  Cr3  1  0.50000000  0.24525474  0.00000000  1
  Cr  Cr4  1  0.50000000  0.75474526  1.00000000  1
  Cr  Cr5  1  0.50000000  0.50000000  0.50000000  1
  Si  Si6  1  0.50000000  0.00000000  0.50000000  1
  O  O7  1  0.29477682  0.00000000  0.27097615  1
  O  O8  1  0.70685691  0.23308808  0.28179577  1
  O  O9  1  0.27340462  0.50000000  0.23376497  1
  O  O10  1  0.29314309  0.23308808  0.71820423  1
  O  O11  1  0.70685691  0.76691192  0.28179577  1
  O  O12  1  0.70522318  1.00000000  0.72902385  1
  O  O13  1  0.72659538  0.50000000  0.76623503  1
  O  O14  1  0.29314309  0.76691192  0.71820423  1
