# generated using pymatgen
data_Co(SO4)2
_symmetry_space_group_name_H-M   'P 1'
_cell_length_a   8.90595664
_cell_length_b   8.90595629
_cell_length_c   8.90595629
_cell_angle_alpha   56.11049840
_cell_angle_beta   56.11049712
_cell_angle_gamma   56.11049648
_symmetry_Int_Tables_number   1
_chemical_formula_structural   Co(SO4)2
_chemical_formula_sum   'Co3 S6 O24'
_cell_volume   454.50424432
_cell_formula_units_Z   3
loop_
 _symmetry_equiv_pos_site_id
 _symmetry_equiv_pos_as_xyz
  1  'x, y, z'
loop_
 _atom_site_type_symbol
 _atom_site_label
 _atom_site_symmetry_multiplicity
 _atom_site_fract_x
 _atom_site_fract_y
 _atom_site_fract_z
 _atom_site_occupancy
  Co  Co0  1  0.14786228  0.14786228  0.14786228  1
  Co  Co1  1  0.64503463  0.64503463  0.64503463  1
  Co  Co2  1  0.85153230  0.85153230  0.85153230  1
  S  S3  1  0.04268753  0.74774147  0.46278918  1
  S  S4  1  0.46278918  0.04268753  0.74774147  1
  S  S5  1  0.74774147  0.46278918  0.04268753  1
  S  S6  1  0.25336728  0.53857820  0.95743720  1
  S  S7  1  0.53857820  0.95743720  0.25336728  1
  S  S8  1  0.95743720  0.25336728  0.53857820  1
  O  O9  1  0.11156101  0.29399597  0.50997785  1
  O  O10  1  0.29399597  0.50997785  0.11156101  1
  O  O11  1  0.01441283  0.95484714  0.32719917  1
  O  O12  1  0.50997785  0.11156101  0.29399597  1
  O  O13  1  0.02187205  0.72278117  0.65277001  1
  O  O14  1  0.23757461  0.62626928  0.37442323  1
  O  O15  1  0.37442323  0.23757461  0.62626928  1
  O  O16  1  0.32719917  0.01441283  0.95484714  1
  O  O17  1  0.62626928  0.37442323  0.23757461  1
  O  O18  1  0.04822297  0.67377187  0.97687424  1
  O  O19  1  0.28147936  0.34829523  0.97430118  1
  O  O20  1  0.34829523  0.97430118  0.28147936  1
  O  O21  1  0.65277001  0.02187205  0.72278117  1
  O  O22  1  0.72278117  0.65277001  0.02187205  1
  O  O23  1  0.95484714  0.32719917  0.01441283  1
  O  O24  1  0.38407834  0.62193681  0.76059226  1
  O  O25  1  0.67377187  0.97687424  0.04822297  1
  O  O26  1  0.62193681  0.76059226  0.38407834  1
  O  O27  1  0.76059226  0.38407834  0.62193681  1
  O  O28  1  0.97430118  0.28147936  0.34829523  1
  O  O29  1  0.48851901  0.89043465  0.70174170  1
  O  O30  1  0.97687424  0.04822297  0.67377187  1
  O  O31  1  0.70174170  0.48851901  0.89043465  1
  O  O32  1  0.89043465  0.70174170  0.48851901  1
