# generated using pymatgen
data_Li2(NiO2)3
_symmetry_space_group_name_H-M   'P 1'
_cell_length_a   4.94311614
_cell_length_b   4.98049720
_cell_length_c   10.11504263
_cell_angle_alpha   89.88133067
_cell_angle_beta   89.92209398
_cell_angle_gamma   60.04859415
_symmetry_Int_Tables_number   1
_chemical_formula_structural   Li2(NiO2)3
_chemical_formula_sum   'Li4 Ni6 O12'
_cell_volume   215.76617018
_cell_formula_units_Z   2
loop_
 _symmetry_equiv_pos_site_id
 _symmetry_equiv_pos_as_xyz
  1  'x, y, z'
loop_
 _atom_site_type_symbol
 _atom_site_label
 _atom_site_symmetry_multiplicity
 _atom_site_fract_x
 _atom_site_fract_y
 _atom_site_fract_z
 _atom_site_occupancy
  Li  Li0  1  0.49792157  0.15804621  0.75038769  1
  Li  Li1  1  0.49892734  0.34340173  0.25242959  1
  Li  Li2  1  0.48899549  0.66214325  0.75249551  1
  Li  Li3  1  0.49560269  0.84494111  0.25012146  1
  Ni  Ni4  1  0.99661479  0.00308470  0.00156153  1
  Ni  Ni5  1  0.99584329  0.50129246  0.50105361  1
  Ni  Ni6  1  0.33282560  0.33481910  0.00146583  1
  Ni  Ni7  1  0.33210379  0.83305003  0.50106821  1
  Ni  Ni8  1  0.67261115  0.16169451  0.50084590  1
  Ni  Ni9  1  0.67350376  0.66333293  0.00161727  1
  O  O10  1  0.00314108  0.16693703  0.59470460  1
  O  O11  1  0.00459458  0.32731833  0.09589452  1
  O  O12  1  0.00430179  0.66969677  0.90775988  1
  O  O13  1  0.34821253  0.00220323  0.90135743  1
  O  O14  1  0.00407951  0.82616905  0.40663140  1
  O  O15  1  0.35189253  0.14628743  0.39968162  1
  O  O16  1  0.34727948  0.50009987  0.60126656  1
  O  O17  1  0.35269663  0.64705071  0.10290102  1
  O  O18  1  0.64196284  0.03171625  0.10915889  1
  O  O19  1  0.63789854  0.33245250  0.89198896  1
  O  O20  1  0.64136080  0.53078934  0.39330927  1
  O  O21  1  0.63709824  0.83005543  0.61052526  1
