# generated using pymatgen
data_Li5CoO4
_symmetry_space_group_name_H-M   'P 1'
_cell_length_a   7.99330916
_cell_length_b   7.08101468
_cell_length_c   6.68264947
_cell_angle_alpha   90.00000000
_cell_angle_beta   90.00000000
_cell_angle_gamma   90.00000000
_symmetry_Int_Tables_number   1
_chemical_formula_structural   Li5CoO4
_chemical_formula_sum   'Li20 Co4 O16'
_cell_volume   378.24290185
_cell_formula_units_Z   4
loop_
 _symmetry_equiv_pos_site_id
 _symmetry_equiv_pos_as_xyz
  1  'x, y, z'
loop_
 _atom_site_type_symbol
 _atom_site_label
 _atom_site_symmetry_multiplicity
 _atom_site_fract_x
 _atom_site_fract_y
 _atom_site_fract_z
 _atom_site_occupancy
  Li  Li0  1  0.00000000  0.50000000  0.24338033  1
  Li  Li1  1  0.00000000  0.50000000  0.75661967  1
  Li  Li2  1  0.09777417  0.74397649  0.50000000  1
  Li  Li3  1  0.15552401  0.97794312  0.25511676  1
  Li  Li4  1  0.15552401  0.97794312  0.74488324  1
  Li  Li5  1  0.20380875  0.24209562  0.50000000  1
  Li  Li6  1  0.29619125  0.74209562  0.00000000  1
  Li  Li7  1  0.34447599  0.47794312  0.24488324  1
  Li  Li8  1  0.34447599  0.47794312  0.75511676  1
  Li  Li9  1  0.40222583  0.24397649  0.00000000  1
  Li  Li10  1  0.50000000  0.00000000  0.74338033  1
  Li  Li11  1  0.50000000  0.00000000  0.25661967  1
  Li  Li12  1  0.59777417  0.75602351  0.00000000  1
  Li  Li13  1  0.65552401  0.52205688  0.24488324  1
  Li  Li14  1  0.65552401  0.52205688  0.75511676  1
  Li  Li15  1  0.70380875  0.25790438  0.00000000  1
  Li  Li16  1  0.79619125  0.75790438  0.50000000  1
  Li  Li17  1  0.84447599  0.02205688  0.25511676  1
  Li  Li18  1  0.84447599  0.02205688  0.74488324  1
  Li  Li19  1  0.90222583  0.25602351  0.50000000  1
  Co  Co20  1  0.10280510  0.23234390  0.00000000  1
  Co  Co21  1  0.39719490  0.73234390  0.50000000  1
  Co  Co22  1  0.60280510  0.26765610  0.50000000  1
  Co  Co23  1  0.89719490  0.76765610  0.00000000  1
  O  O24  1  0.02402149  0.21758575  0.25957193  1
  O  O25  1  0.02402149  0.21758575  0.74042807  1
  O  O26  1  0.21618404  0.46851361  0.00000000  1
  O  O27  1  0.23690838  0.52324027  0.50000000  1
  O  O28  1  0.26309162  0.02324027  0.00000000  1
  O  O29  1  0.28381596  0.96851361  0.50000000  1
  O  O30  1  0.47597851  0.71758575  0.24042807  1
  O  O31  1  0.47597851  0.71758575  0.75957193  1
  O  O32  1  0.52402149  0.28241425  0.24042807  1
  O  O33  1  0.52402149  0.28241425  0.75957193  1
  O  O34  1  0.71618404  0.03148639  0.50000000  1
  O  O35  1  0.73690838  0.97675973  0.00000000  1
  O  O36  1  0.76309162  0.47675973  0.50000000  1
  O  O37  1  0.78381596  0.53148639  0.00000000  1
  O  O38  1  0.97597851  0.78241425  0.25957193  1
  O  O39  1  0.97597851  0.78241425  0.74042807  1
