# generated using pymatgen
data_Mn2Cu(PO4)3
_symmetry_space_group_name_H-M   'P 1'
_cell_length_a   8.55713307
_cell_length_b   8.55713333
_cell_length_c   8.55713321
_cell_angle_alpha   59.81677090
_cell_angle_beta   59.81676982
_cell_angle_gamma   59.81676939
_symmetry_Int_Tables_number   1
_chemical_formula_structural   Mn2Cu(PO4)3
_chemical_formula_sum   'Mn4 Cu2 P6 O24'
_cell_volume   441.22474721
_cell_formula_units_Z   2
loop_
 _symmetry_equiv_pos_site_id
 _symmetry_equiv_pos_as_xyz
  1  'x, y, z'
loop_
 _atom_site_type_symbol
 _atom_site_label
 _atom_site_symmetry_multiplicity
 _atom_site_fract_x
 _atom_site_fract_y
 _atom_site_fract_z
 _atom_site_occupancy
  Mn  Mn0  1  0.14243858  0.14243858  0.14243858  1
  Mn  Mn1  1  0.35756142  0.35756142  0.35756142  1
  Mn  Mn2  1  0.64243858  0.64243858  0.64243858  1
  Mn  Mn3  1  0.85756142  0.85756142  0.85756142  1
  Cu  Cu4  1  0.00000000  0.00000000  0.00000000  1
  Cu  Cu5  1  0.50000000  0.50000000  0.50000000  1
  P  P6  1  0.03907159  0.75000000  0.46092841  1
  P  P7  1  0.46092841  0.03907159  0.75000000  1
  P  P8  1  0.75000000  0.46092841  0.03907159  1
  P  P9  1  0.25000000  0.53907159  0.96092841  1
  P  P10  1  0.53907159  0.96092841  0.25000000  1
  P  P11  1  0.96092841  0.25000000  0.53907159  1
  O  O12  1  0.12126428  0.30232953  0.51048103  1
  O  O13  1  0.30232953  0.51048103  0.12126428  1
  O  O14  1  0.05465637  0.91800351  0.26344916  1
  O  O15  1  0.51048103  0.12126428  0.30232953  1
  O  O16  1  0.01048103  0.80232953  0.62126428  1
  O  O17  1  0.23655084  0.58199649  0.44534363  1
  O  O18  1  0.26344916  0.05465637  0.91800351  1
  O  O19  1  0.44534363  0.23655084  0.58199649  1
  O  O20  1  0.19767047  0.37873572  0.98951897  1
  O  O21  1  0.58199649  0.44534363  0.23655084  1
  O  O22  1  0.08199649  0.73655084  0.94534363  1
  O  O23  1  0.37873572  0.98951897  0.19767047  1
  O  O24  1  0.62126428  0.01048103  0.80232953  1
  O  O25  1  0.91800351  0.26344916  0.05465637  1
  O  O26  1  0.41800351  0.55465637  0.76344916  1
  O  O27  1  0.80232953  0.62126428  0.01048103  1
  O  O28  1  0.55465637  0.76344916  0.41800351  1
  O  O29  1  0.73655084  0.94534363  0.08199649  1
  O  O30  1  0.76344916  0.41800351  0.55465637  1
  O  O31  1  0.98951897  0.19767047  0.37873572  1
  O  O32  1  0.48951897  0.87873572  0.69767047  1
  O  O33  1  0.94534363  0.08199649  0.73655084  1
  O  O34  1  0.69767047  0.48951897  0.87873572  1
  O  O35  1  0.87873572  0.69767047  0.48951897  1
