# generated using pymatgen
data_Li2Ti2O5
_symmetry_space_group_name_H-M   'P 1'
_cell_length_a   8.60759842
_cell_length_b   5.31635140
_cell_length_c   11.58563953
_cell_angle_alpha   90.00000000
_cell_angle_beta   110.82020906
_cell_angle_gamma   90.00000000
_symmetry_Int_Tables_number   1
_chemical_formula_structural   Li2Ti2O5
_chemical_formula_sum   'Li8 Ti8 O20'
_cell_volume   495.55070820
_cell_formula_units_Z   4
loop_
 _symmetry_equiv_pos_site_id
 _symmetry_equiv_pos_as_xyz
  1  'x, y, z'
loop_
 _atom_site_type_symbol
 _atom_site_label
 _atom_site_symmetry_multiplicity
 _atom_site_fract_x
 _atom_site_fract_y
 _atom_site_fract_z
 _atom_site_occupancy
  Li  Li0  1  0.11652918  0.17105143  0.01526375  1
  Li  Li1  1  0.21515661  0.34238484  0.30956032  1
  Li  Li2  1  0.28484339  0.84238484  0.19043968  1
  Li  Li3  1  0.38347082  0.67105143  0.48473625  1
  Li  Li4  1  0.61652918  0.32894857  0.51526375  1
  Li  Li5  1  0.71515661  0.15761516  0.80956032  1
  Li  Li6  1  0.78484339  0.65761516  0.69043968  1
  Li  Li7  1  0.88347082  0.82894857  0.98473625  1
  Ti  Ti8  1  0.16934398  0.66712586  0.88642935  1
  Ti  Ti9  1  0.99005962  0.83586033  0.28674340  1
  Ti  Ti10  1  0.33065602  0.16712586  0.61357065  1
  Ti  Ti11  1  0.49005962  0.66413967  0.78674340  1
  Ti  Ti12  1  0.50994038  0.33586033  0.21325660  1
  Ti  Ti13  1  0.66934398  0.83287414  0.38642935  1
  Ti  Ti14  1  0.00994038  0.16413967  0.71325660  1
  Ti  Ti15  1  0.83065602  0.33287414  0.11357065  1
  O  O16  1  0.12947527  0.78613356  0.01540477  1
  O  O17  1  0.12837134  0.32182730  0.86207019  1
  O  O18  1  0.98571375  0.17913691  0.25154786  1
  O  O19  1  0.11692297  0.22952487  0.60395531  1
  O  O20  1  0.38307703  0.72952487  0.89604469  1
  O  O21  1  0.19734065  0.72933977  0.32847118  1
  O  O22  1  0.37162866  0.82182730  0.63792981  1
  O  O23  1  0.37052473  0.28613356  0.48459523  1
  O  O24  1  0.30265935  0.22933977  0.17152882  1
  O  O25  1  0.48571375  0.32086309  0.75154786  1
  O  O26  1  0.51428625  0.67913691  0.24845214  1
  O  O27  1  0.69734065  0.77066023  0.82847118  1
  O  O28  1  0.62947527  0.71386644  0.51540477  1
  O  O29  1  0.62837134  0.17817270  0.36207019  1
  O  O30  1  0.80265935  0.27066023  0.67152882  1
  O  O31  1  0.61692297  0.27047513  0.10395531  1
  O  O32  1  0.88307703  0.77047513  0.39604469  1
  O  O33  1  0.01428625  0.82086309  0.74845214  1
  O  O34  1  0.87162866  0.67817270  0.13792981  1
  O  O35  1  0.87052473  0.21386644  0.98459523  1
