# generated using pymatgen
data_Li2V12O29
_symmetry_space_group_name_H-M   'P 1'
_cell_length_a   14.28099925
_cell_length_b   14.28099925
_cell_length_c   10.37556609
_cell_angle_alpha   78.32427736
_cell_angle_beta   101.67572264
_cell_angle_gamma   165.20690091
_symmetry_Int_Tables_number   1
_chemical_formula_structural   Li2V12O29
_chemical_formula_sum   'Li2 V12 O29'
_cell_volume   528.92357699
_cell_formula_units_Z   1
loop_
 _symmetry_equiv_pos_site_id
 _symmetry_equiv_pos_as_xyz
  1  'x, y, z'
loop_
 _atom_site_type_symbol
 _atom_site_label
 _atom_site_symmetry_multiplicity
 _atom_site_fract_x
 _atom_site_fract_y
 _atom_site_fract_z
 _atom_site_occupancy
  Li  Li0  1  0.24931253  0.75068747  0.59832425  1
  Li  Li1  1  0.75068747  0.24931253  0.40167575  1
  V  V2  1  0.06225728  0.93774272  0.09043150  1
  V  V3  1  0.14839399  0.85160601  0.35692351  1
  V  V4  1  0.17662767  0.82337233  0.03281815  1
  V  V5  1  0.30379957  0.69620043  0.20165746  1
  V  V6  1  0.39249051  0.60750949  0.45860004  1
  V  V7  1  0.41474230  0.58525770  0.13833658  1
  V  V8  1  0.58525770  0.41474230  0.86166342  1
  V  V9  1  0.60750949  0.39249051  0.54139996  1
  V  V10  1  0.69620043  0.30379957  0.79834254  1
  V  V11  1  0.82337233  0.17662767  0.96718185  1
  V  V12  1  0.85160601  0.14839399  0.64307649  1
  V  V13  1  0.93774272  0.06225728  0.90956850  1
  O  O14  1  0.05927545  0.94072455  0.24527197  1
  O  O15  1  0.09879310  0.90120690  0.91091270  1
  O  O16  1  0.12388853  0.87611147  0.52449596  1
  O  O17  1  0.14079757  0.85920243  0.16151296  1
  O  O18  1  0.19364885  0.80635115  0.85636531  1
  O  O19  1  0.20909197  0.79090803  0.40899452  1
  O  O20  1  0.23287872  0.76712128  0.12592019  1
  O  O21  1  0.29636419  0.70363581  0.35749047  1
  O  O22  1  0.37028868  0.62971132  0.62695323  1
  O  O23  1  0.33240157  0.66759843  0.01444786  1
  O  O24  1  0.37812372  0.62187628  0.27059701  1
  O  O25  1  0.42844331  0.57155669  0.95344548  1
  O  O26  1  0.44983989  0.55016011  0.48996948  1
  O  O27  1  0.46853856  0.53146144  0.22281666  1
  O  O28  1  0.53146144  0.46853856  0.77718334  1
  O  O29  1  0.00000000  0.00000000  0.00000000  1
  O  O30  1  0.55016011  0.44983989  0.51003052  1
  O  O31  1  0.57155669  0.42844331  0.04655452  1
  O  O32  1  0.62187628  0.37812372  0.72940299  1
  O  O33  1  0.66759843  0.33240157  0.98555214  1
  O  O34  1  0.62971132  0.37028868  0.37304677  1
  O  O35  1  0.70363581  0.29636419  0.64250953  1
  O  O36  1  0.76712128  0.23287872  0.87407981  1
  O  O37  1  0.79090803  0.20909197  0.59100548  1
  O  O38  1  0.80635115  0.19364885  0.14363469  1
  O  O39  1  0.85920243  0.14079757  0.83848704  1
  O  O40  1  0.87611147  0.12388853  0.47550404  1
  O  O41  1  0.90120690  0.09879310  0.08908730  1
  O  O42  1  0.94072455  0.05927545  0.75472803  1
