# generated using pymatgen
data_NaLi5Mn2P2(CO7)2
_symmetry_space_group_name_H-M   'P 1'
_cell_length_a   8.65351659
_cell_length_b   6.63298603
_cell_length_c   9.98749927
_cell_angle_alpha   89.98664296
_cell_angle_beta   88.43699248
_cell_angle_gamma   90.43578803
_symmetry_Int_Tables_number   1
_chemical_formula_structural   NaLi5Mn2P2(CO7)2
_chemical_formula_sum   'Na2 Li10 Mn4 P4 C4 O28'
_cell_volume   573.03909628
_cell_formula_units_Z   2
loop_
 _symmetry_equiv_pos_site_id
 _symmetry_equiv_pos_as_xyz
  1  'x, y, z'
loop_
 _atom_site_type_symbol
 _atom_site_label
 _atom_site_symmetry_multiplicity
 _atom_site_fract_x
 _atom_site_fract_y
 _atom_site_fract_z
 _atom_site_occupancy
  Na  Na0  1  0.08500487  0.25512056  0.37836615  1
  Na  Na1  1  0.25080557  0.99761221  0.12306912  1
  Li  Li2  1  0.07759409  0.25468390  0.87468956  1
  Li  Li3  1  0.26365081  0.01860648  0.62047249  1
  Li  Li4  1  0.26524389  0.47977909  0.61787461  1
  Li  Li5  1  0.26667716  0.48102982  0.11323744  1
  Li  Li6  1  0.73915558  0.51718723  0.88304464  1
  Li  Li7  1  0.73949955  0.98290966  0.88407298  1
  Li  Li8  1  0.73435225  0.51896474  0.38461385  1
  Li  Li9  1  0.73490143  0.98135474  0.38446453  1
  Li  Li10  1  0.91658138  0.74931189  0.62652295  1
  Li  Li11  1  0.91389298  0.74189798  0.12361786  1
  Mn  Mn12  1  0.35622442  0.74636978  0.88429619  1
  Mn  Mn13  1  0.35813588  0.74906760  0.39038513  1
  Mn  Mn14  1  0.64582091  0.25053104  0.61452522  1
  Mn  Mn15  1  0.64554935  0.24936943  0.10978228  1
  P  P16  1  0.40549772  0.24975902  0.84930227  1
  P  P17  1  0.41535346  0.25457954  0.35445440  1
  P  P18  1  0.59344062  0.75044014  0.64818272  1
  P  P19  1  0.59595778  0.74518039  0.14538965  1
  C  C20  1  0.04190036  0.74919619  0.86479418  1
  C  C21  1  0.04191807  0.74836789  0.36716776  1
  C  C22  1  0.95169490  0.25021130  0.63964272  1
  C  C23  1  0.95371864  0.25893703  0.13004321  1
  O  O24  1  0.10156151  0.24848090  0.65252621  1
  O  O25  1  0.10088458  0.27849949  0.14758691  1
  O  O26  1  0.08845816  0.75015110  0.98725420  1
  O  O27  1  0.08893463  0.74949115  0.48914422  1
  O  O28  1  0.14113404  0.74630000  0.76497988  1
  O  O29  1  0.14234510  0.74524829  0.26767620  1
  O  O30  1  0.31235296  0.06104891  0.89559146  1
  O  O31  1  0.30948551  0.43122384  0.90271928  1
  O  O32  1  0.32210114  0.06458204  0.40160920  1
  O  O33  1  0.32317189  0.43548156  0.41343916  1
  O  O34  1  0.41353514  0.25484198  0.69235162  1
  O  O35  1  0.42245618  0.75085682  0.60251159  1
  O  O36  1  0.41883012  0.26690116  0.19822748  1
  O  O37  1  0.42752269  0.73220988  0.09600467  1
  O  O38  1  0.57510171  0.25222864  0.89808915  1
  O  O39  1  0.58752984  0.74973209  0.80493262  1
  O  O40  1  0.58551612  0.25105830  0.40008531  1
  O  O41  1  0.58706122  0.74873753  0.30236560  1
  O  O42  1  0.68730158  0.56697607  0.59532481  1
  O  O43  1  0.68768293  0.93514174  0.59497177  1
  O  O44  1  0.69733796  0.56590020  0.09571008  1
  O  O45  1  0.68529673  0.93390787  0.09204317  1
  O  O46  1  0.86229455  0.25059801  0.74653140  1
  O  O47  1  0.85838115  0.24783453  0.23281358  1
  O  O48  1  0.89033979  0.25178513  0.52323801  1
  O  O49  1  0.90124066  0.24945533  0.00941052  1
  O  O50  1  0.89457151  0.75065448  0.83961499  1
  O  O51  1  0.89499891  0.75020827  0.34123301  1
