# generated using pymatgen
data_K2MoO2F5
_symmetry_space_group_name_H-M   'P 1'
_cell_length_a   6.33251821
_cell_length_b   6.33251821
_cell_length_c   9.61271788
_cell_angle_alpha   84.79778222
_cell_angle_beta   84.79778222
_cell_angle_gamma   90.07933658
_symmetry_Int_Tables_number   1
_chemical_formula_structural   K2MoO2F5
_chemical_formula_sum   'K4 Mo2 O4 F10'
_cell_volume   382.29050952
_cell_formula_units_Z   2
loop_
 _symmetry_equiv_pos_site_id
 _symmetry_equiv_pos_as_xyz
  1  'x, y, z'
loop_
 _atom_site_type_symbol
 _atom_site_label
 _atom_site_symmetry_multiplicity
 _atom_site_fract_x
 _atom_site_fract_y
 _atom_site_fract_z
 _atom_site_occupancy
  K  K0  1  0.29803115  0.29803115  0.20125360  1
  K  K1  1  0.70196885  0.70196885  0.79874640  1
  K  K2  1  0.24369910  0.75630090  0.50000000  1
  K  K3  1  0.75630090  0.24369910  0.50000000  1
  Mo  Mo4  1  0.78121877  0.78121877  0.26385656  1
  Mo  Mo5  1  0.21878123  0.21878123  0.73614344  1
  O  O6  1  0.78576141  0.78576141  0.08413927  1
  O  O7  1  0.21423859  0.21423859  0.91586073  1
  O  O8  1  0.30268028  0.69731972  -0.00000000  1
  O  O9  1  0.69731972  0.30268028  -0.00000000  1
  F  F10  1  0.00127645  0.00127645  0.27522365  1
  F  F11  1  0.99872355  0.99872355  0.72477635  1
  F  F12  1  0.77320878  0.77320878  0.48125554  1
  F  F13  1  0.22679122  0.22679122  0.51874446  1
  F  F14  1  0.55729539  0.55729539  0.31441176  1
  F  F15  1  0.44270461  0.44270461  0.68558824  1
  F  F16  1  0.99630817  0.55687370  0.29486347  1
  F  F17  1  0.55687370  0.99630817  0.29486347  1
  F  F18  1  0.00369183  0.44312630  0.70513653  1
  F  F19  1  0.44312630  0.00369183  0.70513653  1
