# generated using pymatgen
data_Na5VO4
_symmetry_space_group_name_H-M   'P 1'
_cell_length_a   10.69326927
_cell_length_b   10.44382781
_cell_length_c   10.82132299
_cell_angle_alpha   90.00000000
_cell_angle_beta   90.00000000
_cell_angle_gamma   90.00000000
_symmetry_Int_Tables_number   1
_chemical_formula_structural   Na5VO4
_chemical_formula_sum   'Na40 V8 O32'
_cell_volume   1208.51088322
_cell_formula_units_Z   8
loop_
 _symmetry_equiv_pos_site_id
 _symmetry_equiv_pos_as_xyz
  1  'x, y, z'
loop_
 _atom_site_type_symbol
 _atom_site_label
 _atom_site_symmetry_multiplicity
 _atom_site_fract_x
 _atom_site_fract_y
 _atom_site_fract_z
 _atom_site_occupancy
  Na  Na0  1  0.10676957  0.83228950  0.11450361  1
  Na  Na1  1  0.10676957  0.66771050  0.61450361  1
  Na  Na2  1  0.11470818  0.14465185  0.39888661  1
  Na  Na3  1  0.11470818  0.35534815  0.89888661  1
  Na  Na4  1  0.11907711  0.39912945  0.16187655  1
  Na  Na5  1  0.11907711  0.10087055  0.66187655  1
  Na  Na6  1  0.12241410  0.58795444  0.35466788  1
  Na  Na7  1  0.12241410  0.91204556  0.85466788  1
  Na  Na8  1  0.15408181  0.86404603  0.38138361  1
  Na  Na9  1  0.15408181  0.63595397  0.88138361  1
  Na  Na10  1  0.34591819  0.13595397  0.88138361  1
  Na  Na11  1  0.34591819  0.36404603  0.38138361  1
  Na  Na12  1  0.37758590  0.08795444  0.35466788  1
  Na  Na13  1  0.37758590  0.41204556  0.85466788  1
  Na  Na14  1  0.38092289  0.60087055  0.66187655  1
  Na  Na15  1  0.38092289  0.89912945  0.16187655  1
  Na  Na16  1  0.38529182  0.64465185  0.39888661  1
  Na  Na17  1  0.38529182  0.85534815  0.89888661  1
  Na  Na18  1  0.39323043  0.16771050  0.61450361  1
  Na  Na19  1  0.39323043  0.33228950  0.11450361  1
  Na  Na20  1  0.60676957  0.66771050  0.88549639  1
  Na  Na21  1  0.60676957  0.83228950  0.38549639  1
  Na  Na22  1  0.61470818  0.14465185  0.10111339  1
  Na  Na23  1  0.61470818  0.35534815  0.60111339  1
  Na  Na24  1  0.61907711  0.39912945  0.33812345  1
  Na  Na25  1  0.61907711  0.10087055  0.83812345  1
  Na  Na26  1  0.62241410  0.58795444  0.14533212  1
  Na  Na27  1  0.62241410  0.91204556  0.64533212  1
  Na  Na28  1  0.65408181  0.63595397  0.61861639  1
  Na  Na29  1  0.65408181  0.86404603  0.11861639  1
  Na  Na30  1  0.84591819  0.13595397  0.61861639  1
  Na  Na31  1  0.84591819  0.36404603  0.11861639  1
  Na  Na32  1  0.87758590  0.08795444  0.14533212  1
  Na  Na33  1  0.87758590  0.41204556  0.64533212  1
  Na  Na34  1  0.88092289  0.60087055  0.83812345  1
  Na  Na35  1  0.88092289  0.89912945  0.33812345  1
  Na  Na36  1  0.88529182  0.64465185  0.10111339  1
  Na  Na37  1  0.88529182  0.85534815  0.60111339  1
  Na  Na38  1  0.89323043  0.16771050  0.88549639  1
  Na  Na39  1  0.89323043  0.33228950  0.38549639  1
  V  V40  1  0.14605483  0.11486544  0.12702361  1
  V  V41  1  0.14605483  0.38513456  0.62702361  1
  V  V42  1  0.35394517  0.88513456  0.62702361  1
  V  V43  1  0.35394517  0.61486544  0.12702361  1
  V  V44  1  0.64605483  0.11486544  0.37297639  1
  V  V45  1  0.64605483  0.38513456  0.87297639  1
  V  V46  1  0.85394517  0.61486544  0.37297639  1
  V  V47  1  0.85394517  0.88513456  0.87297639  1
  O  O48  1  0.02290783  0.22983930  0.05054779  1
  O  O49  1  0.02290783  0.27016070  0.55054779  1
  O  O50  1  0.05143708  0.00322004  0.24226799  1
  O  O51  1  0.05143708  0.49677996  0.74226799  1
  O  O52  1  0.24009198  0.00111424  0.01989794  1
  O  O53  1  0.24009198  0.49888576  0.51989794  1
  O  O54  1  0.24466613  0.22301624  0.23815017  1
  O  O55  1  0.24466613  0.27698376  0.73815017  1
  O  O56  1  0.25533387  0.72301624  0.23815017  1
  O  O57  1  0.25533387  0.77698376  0.73815017  1
  O  O58  1  0.25990802  0.99888576  0.51989794  1
  O  O59  1  0.25990802  0.50111424  0.01989794  1
  O  O60  1  0.44856292  0.50322004  0.24226799  1
  O  O61  1  0.44856292  0.99677996  0.74226799  1
  O  O62  1  0.47709217  0.77016070  0.55054779  1
  O  O63  1  0.47709217  0.72983930  0.05054779  1
  O  O64  1  0.52290783  0.27016070  0.94945221  1
  O  O65  1  0.52290783  0.22983930  0.44945221  1
  O  O66  1  0.55143708  0.00322004  0.25773201  1
  O  O67  1  0.55143708  0.49677996  0.75773201  1
  O  O68  1  0.74009198  0.49888576  0.98010206  1
  O  O69  1  0.74009198  0.00111424  0.48010206  1
  O  O70  1  0.74466613  0.22301624  0.26184983  1
  O  O71  1  0.74466613  0.27698376  0.76184983  1
  O  O72  1  0.75533387  0.72301624  0.26184983  1
  O  O73  1  0.75533387  0.77698376  0.76184983  1
  O  O74  1  0.75990802  0.99888576  0.98010206  1
  O  O75  1  0.75990802  0.50111424  0.48010206  1
  O  O76  1  0.94856292  0.99677996  0.75773201  1
  O  O77  1  0.94856292  0.50322004  0.25773201  1
  O  O78  1  0.97709217  0.77016070  0.94945221  1
  O  O79  1  0.97709217  0.72983930  0.44945221  1
