# generated using pymatgen
data_Li3La5Ti6Nb2O26
_symmetry_space_group_name_H-M   'P 1'
_cell_length_a   17.16234725
_cell_length_b   11.08620584
_cell_length_c   5.54799669
_cell_angle_alpha   90.00000000
_cell_angle_beta   90.00000000
_cell_angle_gamma   80.95824575
_symmetry_Int_Tables_number   1
_chemical_formula_structural   Li3La5Ti6Nb2O26
_chemical_formula_sum   'Li6 La10 Ti12 Nb4 O52'
_cell_volume   1042.47463732
_cell_formula_units_Z   2
loop_
 _symmetry_equiv_pos_site_id
 _symmetry_equiv_pos_as_xyz
  1  'x, y, z'
loop_
 _atom_site_type_symbol
 _atom_site_label
 _atom_site_symmetry_multiplicity
 _atom_site_fract_x
 _atom_site_fract_y
 _atom_site_fract_z
 _atom_site_occupancy
  Li  Li0  1  0.50055390  0.00716802  0.75746777  1
  Li  Li1  1  0.49944610  0.99283198  0.24253223  1
  Li  Li2  1  0.49944610  0.49283198  0.75746777  1
  Li  Li3  1  0.50000000  0.25000000  0.22240849  1
  Li  Li4  1  0.50055390  0.50716802  0.24253223  1
  Li  Li5  1  0.50000000  0.75000000  0.77759151  1
  La  La6  1  0.76308830  0.05546498  0.49314155  1
  La  La7  1  0.23691170  0.44453502  0.49314155  1
  La  La8  1  0.23559494  0.18942692  0.00620336  1
  La  La9  1  0.00000000  0.25000000  0.01149737  1
  La  La10  1  0.76308830  0.55546498  0.50685845  1
  La  La11  1  0.76440506  0.31057308  0.00620336  1
  La  La12  1  0.23691170  0.94453502  0.50685845  1
  La  La13  1  0.00000000  0.75000000  0.98850263  1
  La  La14  1  0.23559494  0.68942692  0.99379664  1
  La  La15  1  0.76440506  0.81057308  0.99379664  1
  Ti  Ti16  1  0.11444377  0.22153526  0.50255046  1
  Ti  Ti17  1  0.88555623  0.27846474  0.50255046  1
  Ti  Ti18  1  0.88487188  0.02830430  0.99823540  1
  Ti  Ti19  1  0.63687719  0.08950348  0.99587985  1
  Ti  Ti20  1  0.11512812  0.47169570  0.99823540  1
  Ti  Ti21  1  0.11444377  0.72153526  0.49744954  1
  Ti  Ti22  1  0.36312281  0.41049652  0.99587985  1
  Ti  Ti23  1  0.88555623  0.77846474  0.49744954  1
  Ti  Ti24  1  0.88487188  0.52830430  0.00176460  1
  Ti  Ti25  1  0.63687719  0.58950348  0.00412015  1
  Ti  Ti26  1  0.11512812  0.97169570  0.00176460  1
  Ti  Ti27  1  0.36312281  0.91049652  0.00412015  1
  Nb  Nb28  1  0.36501153  0.16214507  0.50407954  1
  Nb  Nb29  1  0.63498847  0.33785493  0.50407954  1
  Nb  Nb30  1  0.36501153  0.66214507  0.49592046  1
  Nb  Nb31  1  0.63498847  0.83785493  0.49592046  1
  O  O32  1  0.11915912  0.10285405  0.76049769  1
  O  O33  1  0.34252582  0.04253642  0.75448035  1
  O  O34  1  0.33398724  0.29449839  0.74959773  1
  O  O35  1  0.12600764  0.34102405  0.75518390  1
  O  O36  1  0.87399236  0.15897595  0.75518390  1
  O  O37  1  0.23099809  0.18613994  0.48816987  1
  O  O38  1  0.66601276  0.20550161  0.74959773  1
  O  O39  1  0.47277675  0.12837346  0.48632237  1
  O  O40  1  0.12010241  0.09985838  0.23952389  1
  O  O41  1  0.00000000  0.25000000  0.49503738  1
  O  O42  1  0.00000000  0.00000000  0.00000000  1
  O  O43  1  0.34121064  0.03854254  0.25391920  1
  O  O44  1  0.12070824  0.33858858  0.23652375  1
  O  O45  1  0.65747418  0.45746358  0.75448035  1
  O  O46  1  0.34121064  0.53854254  0.74608080  1
  O  O47  1  0.12010241  0.59985838  0.76047611  1
  O  O48  1  0.76900191  0.31386006  0.48816987  1
  O  O49  1  0.88084088  0.39714595  0.76049769  1
  O  O50  1  0.87929176  0.16141142  0.23652375  1
  O  O51  1  0.52722325  0.37162654  0.48632237  1
  O  O52  1  0.65827632  0.20803816  0.24914423  1
  O  O53  1  0.34172368  0.29196184  0.24914423  1
  O  O54  1  0.76967352  0.05023853  0.01749131  1
  O  O55  1  0.53399612  0.11091975  0.00741668  1
  O  O56  1  0.23099809  0.68613994  0.51183013  1
  O  O57  1  0.23032648  0.44976147  0.01749131  1
  O  O58  1  0.87929176  0.66141142  0.76347625  1
  O  O59  1  0.47277675  0.62837346  0.51367763  1
  O  O60  1  0.34252582  0.54253642  0.24551965  1
  O  O61  1  0.46600388  0.38908025  0.00741668  1
  O  O62  1  0.87989759  0.40014162  0.23952389  1
  O  O63  1  0.65827632  0.70803816  0.75085577  1
  O  O64  1  0.34172368  0.79196184  0.75085577  1
  O  O65  1  0.12070824  0.83858858  0.76347625  1
  O  O66  1  0.00000000  0.50000000  0.00000000  1
  O  O67  1  0.11915912  0.60285405  0.23950231  1
  O  O68  1  0.65878936  0.46145746  0.25391920  1
  O  O69  1  0.00000000  0.75000000  0.50496262  1
  O  O70  1  0.12600764  0.84102405  0.24481610  1
  O  O71  1  0.87989759  0.90014162  0.76047611  1
  O  O72  1  0.65878936  0.96145746  0.74608080  1
  O  O73  1  0.76900191  0.81386006  0.51183013  1
  O  O74  1  0.76967352  0.55023853  0.98250869  1
  O  O75  1  0.52722325  0.87162654  0.51367763  1
  O  O76  1  0.53399612  0.61091975  0.99258332  1
  O  O77  1  0.87399236  0.65897595  0.24481610  1
  O  O78  1  0.66601276  0.70550161  0.25040227  1
  O  O79  1  0.33398724  0.79449839  0.25040227  1
  O  O80  1  0.88084088  0.89714595  0.23950231  1
  O  O81  1  0.46600388  0.88908025  0.99258332  1
  O  O82  1  0.23032648  0.94976147  0.98250869  1
  O  O83  1  0.65747418  0.95746358  0.24551965  1
