# generated using pymatgen
data_Li5V5Cr2O12
_symmetry_space_group_name_H-M   'P 1'
_cell_length_a   5.22586476
_cell_length_b   5.22586466
_cell_length_c   9.98500457
_cell_angle_alpha   84.28063706
_cell_angle_beta   95.71936353
_cell_angle_gamma   59.63522935
_symmetry_Int_Tables_number   1
_chemical_formula_structural   Li5V5Cr2O12
_chemical_formula_sum   'Li5 V5 Cr2 O12'
_cell_volume   230.50740628
_cell_formula_units_Z   1
loop_
 _symmetry_equiv_pos_site_id
 _symmetry_equiv_pos_as_xyz
  1  'x, y, z'
loop_
 _atom_site_type_symbol
 _atom_site_label
 _atom_site_symmetry_multiplicity
 _atom_site_fract_x
 _atom_site_fract_y
 _atom_site_fract_z
 _atom_site_occupancy
  Li  Li0  1  0.15549644  0.67073519  0.51417289  1
  Li  Li1  1  0.32932378  0.83665475  0.98709674  1
  Li  Li2  1  0.67073519  0.15549644  0.98582711  1
  Li  Li3  1  0.83665475  0.32932378  0.51290326  1
  Li  Li4  1  0.91776637  0.91776637  0.75000000  1
  V  V5  1  0.00513721  0.50661533  0.99486604  1
  V  V6  1  0.50661533  0.00513721  0.50513396  1
  V  V7  1  0.41867370  0.41867370  0.25000000  1
  V  V8  1  0.58046665  0.58046665  0.75000000  1
  V  V9  1  0.08232731  0.08232731  0.25000000  1
  Cr  Cr10  1  0.25070278  0.25070278  0.75000000  1
  Cr  Cr11  1  0.75085843  0.75085843  0.25000000  1
  O  O12  1  0.96480123  0.22480464  0.87029646  1
  O  O13  1  0.22480464  0.96480123  0.62970354  1
  O  O14  1  0.12310230  0.37350059  0.36193919  1
  O  O15  1  0.37350059  0.12310230  0.13806081  1
  O  O16  1  0.30092296  0.52213615  0.86830882  1
  O  O17  1  0.52213615  0.30092296  0.63169118  1
  O  O18  1  0.46393515  0.71873776  0.36345592  1
  O  O19  1  0.71873776  0.46393515  0.13654408  1
  O  O20  1  0.61133830  0.86801617  0.86910566  1
  O  O21  1  0.86801617  0.61133830  0.63089434  1
  O  O22  1  0.79422691  0.02971990  0.36506717  1
  O  O23  1  0.02971990  0.79422691  0.13493283  1
