# generated using pymatgen
data_Mn3OF5
_symmetry_space_group_name_H-M   'P 1'
_cell_length_a   4.84930441
_cell_length_b   4.86634708
_cell_length_c   9.84773699
_cell_angle_alpha   90.00046291
_cell_angle_beta   90.00035869
_cell_angle_gamma   89.98246394
_symmetry_Int_Tables_number   1
_chemical_formula_structural   Mn3OF5
_chemical_formula_sum   'Mn6 O2 F10'
_cell_volume   232.39080920
_cell_formula_units_Z   2
loop_
 _symmetry_equiv_pos_site_id
 _symmetry_equiv_pos_as_xyz
  1  'x, y, z'
loop_
 _atom_site_type_symbol
 _atom_site_label
 _atom_site_symmetry_multiplicity
 _atom_site_fract_x
 _atom_site_fract_y
 _atom_site_fract_z
 _atom_site_occupancy
  Mn  Mn0  1  0.02715018  0.02194261  0.99999804  1
  Mn  Mn1  1  0.00437778  0.98500525  0.34161387  1
  Mn  Mn2  1  0.00437468  0.98500797  0.65838710  1
  Mn  Mn3  1  0.49569790  0.48523540  0.84158615  1
  Mn  Mn4  1  0.49568856  0.48523738  0.15841519  1
  Mn  Mn5  1  0.47272325  0.52166506  0.50000150  1
  O  O6  1  0.18049067  0.80587571  0.49999992  1
  O  O7  1  0.31972440  0.30619739  0.00000196  1
  F  F8  1  0.20496970  0.80458297  0.16763361  1
  F  F9  1  0.20496622  0.80458088  0.83236401  1
  F  F10  1  0.29500053  0.30455431  0.33232184  1
  F  F11  1  0.29500091  0.30455940  0.66768063  1
  F  F12  1  0.72178932  0.71108196  0.99999780  1
  F  F13  1  0.68545767  0.69081004  0.32358195  1
  F  F14  1  0.68545194  0.69080727  0.67641605  1
  F  F15  1  0.81444440  0.19091877  0.17637927  1
  F  F16  1  0.77825346  0.21101330  0.50000216  1
  F  F17  1  0.81443842  0.19092433  0.82361893  1
