# generated using pymatgen
data_Sn2N2O
_symmetry_space_group_name_H-M   'P 1'
_cell_length_a   8.83747864
_cell_length_b   8.84701626
_cell_length_c   8.86281214
_cell_angle_alpha   109.56122412
_cell_angle_beta   109.48669929
_cell_angle_gamma   109.45200340
_symmetry_Int_Tables_number   1
_chemical_formula_structural   Sn2N2O
_chemical_formula_sum   'Sn16 N16 O8'
_cell_volume   532.85779482
_cell_formula_units_Z   8
loop_
 _symmetry_equiv_pos_site_id
 _symmetry_equiv_pos_as_xyz
  1  'x, y, z'
loop_
 _atom_site_type_symbol
 _atom_site_label
 _atom_site_symmetry_multiplicity
 _atom_site_fract_x
 _atom_site_fract_y
 _atom_site_fract_z
 _atom_site_occupancy
  Sn  Sn0  1  0.96295493  0.24818560  0.22331053  1
  Sn  Sn1  1  0.50641647  0.00534085  0.99706144  1
  Sn  Sn2  1  0.78101801  0.02963499  0.75436483  1
  Sn  Sn3  1  0.71293515  0.46317106  0.25024242  1
  Sn  Sn4  1  0.75846446  0.29117280  0.53710352  1
  Sn  Sn5  1  0.74918591  0.77689512  0.02925581  1
  Sn  Sn6  1  0.99994140  0.50288480  0.99177689  1
  Sn  Sn7  1  0.00386720  0.99156498  0.50515947  1
  Sn  Sn8  1  0.50400463  0.50921100  0.51057445  1
  Sn  Sn9  1  0.46516198  0.24985591  0.72172283  1
  Sn  Sn10  1  0.53397257  0.74993772  0.28554260  1
  Sn  Sn11  1  0.26419887  0.72371153  0.47306469  1
  Sn  Sn12  1  0.24811106  0.21714344  0.95580611  1
  Sn  Sn13  1  0.27388751  0.52606789  0.73581495  1
  Sn  Sn14  1  0.21796605  0.95460099  0.25044708  1
  Sn  Sn15  1  0.02822986  0.74591542  0.77855211  1
  N  N16  1  0.73575942  0.22801104  0.27528887  1
  N  N17  1  0.76323874  0.72495126  0.26303450  1
  N  N18  1  0.72558645  0.25777474  0.76247040  1
  N  N19  1  0.76117557  0.54041238  0.53165096  1
  N  N20  1  0.22298655  0.45537376  0.45046960  1
  N  N21  1  0.50493485  0.23917605  0.96896308  1
  N  N22  1  0.27183540  0.72382665  0.22288619  1
  N  N23  1  0.99557930  0.96195888  0.74030607  1
  N  N24  1  0.96220978  0.73785670  0.99904923  1
  N  N25  1  0.53835116  0.53554055  0.77242806  1
  N  N26  1  0.22023412  0.26850296  0.72702510  1
  N  N27  1  0.54528568  0.77538798  0.54254067  1
  N  N28  1  0.03832204  0.49538473  0.76309107  1
  N  N29  1  0.74184488  0.99723065  0.96755442  1
  N  N30  1  0.27222156  0.77751699  0.73514181  1
  N  N31  1  0.23680851  0.96113799  0.50254328  1
  O  O32  1  0.76795779  0.03775729  0.48631166  1
  O  O33  1  0.95289186  0.50182543  0.22170181  1
  O  O34  1  0.28211192  0.01504874  0.05875488  1
  O  O35  1  0.45358996  0.22396659  0.44537243  1
  O  O36  1  0.43937892  0.45329529  0.22175319  1
  O  O37  1  0.05079803  0.28116224  0.01350595  1
  O  O38  1  0.01070729  0.04795927  0.28341398  1
  O  O39  1  0.49587314  0.77364675  0.04494307  1
