# generated using pymatgen
data_LiV9O22
_symmetry_space_group_name_H-M   'P 1'
_cell_length_a   21.81035128
_cell_length_b   3.68096574
_cell_length_c   10.30663074
_cell_angle_alpha   90.00000000
_cell_angle_beta   103.58294863
_cell_angle_gamma   90.00000000
_symmetry_Int_Tables_number   1
_chemical_formula_structural   LiV9O22
_chemical_formula_sum   'Li2 V18 O44'
_cell_volume   804.30587273
_cell_formula_units_Z   2
loop_
 _symmetry_equiv_pos_site_id
 _symmetry_equiv_pos_as_xyz
  1  'x, y, z'
loop_
 _atom_site_type_symbol
 _atom_site_label
 _atom_site_symmetry_multiplicity
 _atom_site_fract_x
 _atom_site_fract_y
 _atom_site_fract_z
 _atom_site_occupancy
  Li  Li0  1  0.48655118  0.25000000  0.41087507  1
  Li  Li1  1  0.51344882  0.75000000  0.58912493  1
  V  V2  1  0.02584400  0.25000000  0.40519481  1
  V  V3  1  0.09264401  0.75000000  0.86586363  1
  V  V4  1  0.05986854  0.25000000  0.09106277  1
  V  V5  1  0.28543044  0.25000000  0.84394016  1
  V  V6  1  0.25332988  0.75000000  0.06735988  1
  V  V7  1  0.31124342  0.25000000  0.52352114  1
  V  V8  1  0.36433510  0.75000000  0.34276924  1
  V  V9  1  0.43016481  0.25000000  0.78665146  1
  V  V10  1  0.40435613  0.75000000  0.02201833  1
  V  V11  1  0.59564387  0.25000000  0.97798167  1
  V  V12  1  0.56983519  0.75000000  0.21334854  1
  V  V13  1  0.63566490  0.25000000  0.65723076  1
  V  V14  1  0.68875658  0.75000000  0.47647886  1
  V  V15  1  0.74667012  0.25000000  0.93264012  1
  V  V16  1  0.71456956  0.75000000  0.15605984  1
  V  V17  1  0.94013146  0.75000000  0.90893723  1
  V  V18  1  0.90735599  0.25000000  0.13413637  1
  V  V19  1  0.97415600  0.75000000  0.59480519  1
  O  O20  1  0.00329877  0.75000000  0.42437700  1
  O  O21  1  0.00742979  0.25000000  0.21809564  1
  O  O22  1  0.08123165  0.25000000  0.91000075  1
  O  O23  1  0.10162308  0.75000000  0.71443142  1
  O  O24  1  0.04494448  0.75000000  0.04479922  1
  O  O25  1  0.10086154  0.25000000  0.44524122  1
  O  O26  1  0.17328520  0.75000000  0.97223749  1
  O  O27  1  0.12876896  0.25000000  0.18906776  1
  O  O28  1  0.21511591  0.25000000  0.75290685  1
  O  O29  1  0.23626578  0.25000000  0.48825540  1
  O  O30  1  0.30263806  0.75000000  0.89217065  1
  O  O31  1  0.25025027  0.75000000  0.22422344  1
  O  O32  1  0.33323115  0.25000000  0.71228705  1
  O  O33  1  0.26707220  0.25000000  0.02629186  1
  O  O34  1  0.33223753  0.75000000  0.50828978  1
  O  O35  1  0.39315059  0.25000000  0.97343545  1
  O  O36  1  0.34075196  0.25000000  0.35673597  1
  O  O37  1  0.35686616  0.75000000  0.14558415  1
  O  O38  1  0.42644224  0.75000000  0.84409021  1
  O  O39  1  0.44111445  0.25000000  0.63242289  1
  O  O40  1  0.44392308  0.75000000  0.40351023  1
  O  O41  1  0.52242577  0.25000000  0.87804755  1
  O  O42  1  0.47757423  0.75000000  0.12195245  1
  O  O43  1  0.55607692  0.25000000  0.59648977  1
  O  O44  1  0.55888555  0.75000000  0.36757711  1
  O  O45  1  0.57355776  0.25000000  0.15590979  1
  O  O46  1  0.64313384  0.25000000  0.85441585  1
  O  O47  1  0.65924804  0.75000000  0.64326403  1
  O  O48  1  0.60684941  0.75000000  0.02656455  1
  O  O49  1  0.66776247  0.25000000  0.49171022  1
  O  O50  1  0.73292780  0.75000000  0.97370814  1
  O  O51  1  0.66676885  0.75000000  0.28771295  1
  O  O52  1  0.74974973  0.25000000  0.77577656  1
  O  O53  1  0.69736194  0.25000000  0.10782935  1
  O  O54  1  0.76373422  0.75000000  0.51174460  1
  O  O55  1  0.78488409  0.75000000  0.24709315  1
  O  O56  1  0.87123104  0.75000000  0.81093224  1
  O  O57  1  0.82671480  0.25000000  0.02776251  1
  O  O58  1  0.89913846  0.75000000  0.55475878  1
  O  O59  1  0.95505552  0.25000000  0.95520078  1
  O  O60  1  0.89837692  0.25000000  0.28556858  1
  O  O61  1  0.91876835  0.75000000  0.08999925  1
  O  O62  1  0.99257021  0.75000000  0.78190436  1
  O  O63  1  0.99670123  0.25000000  0.57562300  1
