# generated using pymatgen
data_Fe2Cu(PO4)3
_symmetry_space_group_name_H-M   'P 1'
_cell_length_a   8.50668336
_cell_length_b   8.50668359
_cell_length_c   8.50668351
_cell_angle_alpha   60.86941669
_cell_angle_beta   60.86941365
_cell_angle_gamma   60.86941254
_symmetry_Int_Tables_number   1
_chemical_formula_structural   Fe2Cu(PO4)3
_chemical_formula_sum   'Fe4 Cu2 P6 O24'
_cell_volume   443.80883350
_cell_formula_units_Z   2
loop_
 _symmetry_equiv_pos_site_id
 _symmetry_equiv_pos_as_xyz
  1  'x, y, z'
loop_
 _atom_site_type_symbol
 _atom_site_label
 _atom_site_symmetry_multiplicity
 _atom_site_fract_x
 _atom_site_fract_y
 _atom_site_fract_z
 _atom_site_occupancy
  Fe  Fe0  1  0.14433942  0.14433942  0.14433942  1
  Fe  Fe1  1  0.35566058  0.35566058  0.35566058  1
  Fe  Fe2  1  0.64433942  0.64433942  0.64433942  1
  Fe  Fe3  1  0.85566058  0.85566058  0.85566058  1
  Cu  Cu4  1  0.00000000  0.00000000  0.00000000  1
  Cu  Cu5  1  0.50000000  0.50000000  0.50000000  1
  P  P6  1  0.04594421  0.75000000  0.45405579  1
  P  P7  1  0.45405579  0.04594421  0.75000000  1
  P  P8  1  0.75000000  0.45405579  0.04594421  1
  P  P9  1  0.25000000  0.54594421  0.95405579  1
  P  P10  1  0.54594421  0.95405579  0.25000000  1
  P  P11  1  0.95405579  0.25000000  0.54594421  1
  O  O12  1  0.10918350  0.31964087  0.50438590  1
  O  O13  1  0.31964087  0.50438590  0.10918350  1
  O  O14  1  0.05986606  0.91039812  0.25492897  1
  O  O15  1  0.50438590  0.10918350  0.31964087  1
  O  O16  1  0.00438590  0.81964087  0.60918350  1
  O  O17  1  0.24507103  0.58960188  0.44013394  1
  O  O18  1  0.25492897  0.05986606  0.91039812  1
  O  O19  1  0.44013394  0.24507103  0.58960188  1
  O  O20  1  0.18035913  0.39081650  0.99561410  1
  O  O21  1  0.58960188  0.44013394  0.24507103  1
  O  O22  1  0.08960188  0.74507103  0.94013394  1
  O  O23  1  0.39081650  0.99561410  0.18035913  1
  O  O24  1  0.60918350  0.00438590  0.81964087  1
  O  O25  1  0.91039812  0.25492897  0.05986606  1
  O  O26  1  0.41039812  0.55986606  0.75492897  1
  O  O27  1  0.81964087  0.60918350  0.00438590  1
  O  O28  1  0.55986606  0.75492897  0.41039812  1
  O  O29  1  0.74507103  0.94013394  0.08960188  1
  O  O30  1  0.75492897  0.41039812  0.55986606  1
  O  O31  1  0.99561410  0.18035913  0.39081650  1
  O  O32  1  0.49561410  0.89081650  0.68035913  1
  O  O33  1  0.94013394  0.08960188  0.74507103  1
  O  O34  1  0.68035913  0.49561410  0.89081650  1
  O  O35  1  0.89081650  0.68035913  0.49561410  1
