# generated using pymatgen
data_Li2Ti3CoO8
_symmetry_space_group_name_H-M   'P 1'
_cell_length_a   5.94507731
_cell_length_b   5.94700993
_cell_length_c   9.73646652
_cell_angle_alpha   89.99462196
_cell_angle_beta   90.05336672
_cell_angle_gamma   120.01055095
_symmetry_Int_Tables_number   1
_chemical_formula_structural   Li2Ti3CoO8
_chemical_formula_sum   'Li4 Ti6 Co2 O16'
_cell_volume   298.08612737
_cell_formula_units_Z   2
loop_
 _symmetry_equiv_pos_site_id
 _symmetry_equiv_pos_as_xyz
  1  'x, y, z'
loop_
 _atom_site_type_symbol
 _atom_site_label
 _atom_site_symmetry_multiplicity
 _atom_site_fract_x
 _atom_site_fract_y
 _atom_site_fract_z
 _atom_site_occupancy
  Li  Li0  1  0.33334354  0.66666818  0.88830231  1
  Li  Li1  1  0.00006078  0.00008095  0.99882326  1
  Li  Li2  1  0.99996412  0.00002481  0.49908600  1
  Li  Li3  1  0.66658372  0.33328669  0.38886007  1
  Ti  Ti4  1  0.16913288  0.83146297  0.21542299  1
  Ti  Ti5  1  0.16912998  0.33773151  0.21543737  1
  Ti  Ti6  1  0.66205623  0.83103850  0.21491199  1
  Ti  Ti7  1  0.33808795  0.16905508  0.71513749  1
  Ti  Ti8  1  0.83131935  0.66274003  0.71554054  1
  Ti  Ti9  1  0.83131628  0.16859757  0.71555289  1
  Co  Co10  1  0.33052238  0.66534344  0.49277869  1
  Co  Co11  1  0.66689887  0.33346605  0.99496523  1
  O  O12  1  0.15827840  0.84138668  0.60707924  1
  O  O13  1  0.03629654  0.51813946  0.32915429  1
  O  O14  1  0.33307875  0.66656240  0.10419745  1
  O  O15  1  0.00011945  0.00005219  0.31464374  1
  O  O16  1  0.00002631  0.99998006  0.81493844  1
  O  O17  1  0.15828234  0.31691441  0.60708998  1
  O  O18  1  0.48255877  0.96441012  0.32901249  1
  O  O19  1  0.48253895  0.51814250  0.32901573  1
  O  O20  1  0.31682864  0.15843061  0.10677874  1
  O  O21  1  0.68317891  0.84159250  0.60666594  1
  O  O22  1  0.51789243  0.48212767  0.82903604  1
  O  O23  1  0.51789146  0.03569197  0.82900821  1
  O  O24  1  0.66663803  0.33333674  0.60421707  1
  O  O25  1  0.84156322  0.68304857  0.10662014  1
  O  O26  1  0.96486231  0.48240759  0.82893828  1
  O  O27  1  0.84154945  0.15858177  0.10662340  1
