# generated using pymatgen
data_Li2V3SnO8
_symmetry_space_group_name_H-M   'P 1'
_cell_length_a   8.56883659
_cell_length_b   8.58893766
_cell_length_c   8.58529227
_cell_angle_alpha   90.00007646
_cell_angle_beta   89.99974931
_cell_angle_gamma   90.00006996
_symmetry_Int_Tables_number   1
_chemical_formula_structural   Li2V3SnO8
_chemical_formula_sum   'Li8 V12 Sn4 O32'
_cell_volume   631.85350050
_cell_formula_units_Z   4
loop_
 _symmetry_equiv_pos_site_id
 _symmetry_equiv_pos_as_xyz
  1  'x, y, z'
loop_
 _atom_site_type_symbol
 _atom_site_label
 _atom_site_symmetry_multiplicity
 _atom_site_fract_x
 _atom_site_fract_y
 _atom_site_fract_z
 _atom_site_occupancy
  Li  Li0  1  0.12460134  0.87558532  0.37536214  1
  Li  Li1  1  0.24862776  0.74814454  0.75327525  1
  Li  Li2  1  0.25142093  0.25182497  0.25335990  1
  Li  Li3  1  0.37549920  0.12441807  0.87524578  1
  Li  Li4  1  0.62466306  0.62442872  0.62466656  1
  Li  Li5  1  0.74862282  0.75185960  0.24677339  1
  Li  Li6  1  0.75133614  0.24812033  0.74682990  1
  Li  Li7  1  0.87518394  0.37560658  0.12458310  1
  V  V8  1  0.11325435  0.62243585  0.12445523  1
  V  V9  1  0.11436174  0.37842605  0.89137169  1
  V  V10  1  0.12446095  0.11758069  0.61900488  1
  V  V11  1  0.37553535  0.88241013  0.11901275  1
  V  V12  1  0.38579362  0.62159989  0.39118710  1
  V  V13  1  0.38677708  0.37759910  0.62452259  1
  V  V14  1  0.61328702  0.87756135  0.87544369  1
  V  V15  1  0.61409792  0.12148132  0.10889513  1
  V  V16  1  0.62445980  0.38243604  0.38095986  1
  V  V17  1  0.87549741  0.61752053  0.88099268  1
  V  V18  1  0.88579938  0.87848436  0.60880208  1
  V  V19  1  0.88672515  0.12244599  0.37547708  1
  Sn  Sn20  1  0.00460085  0.49882021  0.50307921  1
  Sn  Sn21  1  0.49547829  0.50121266  0.00304182  1
  Sn  Sn22  1  0.50462069  0.00117521  0.49707120  1
  Sn  Sn23  1  0.99538045  0.99881935  0.99702532  1
  O  O24  1  0.11109369  0.12522637  0.39269529  1
  O  O25  1  0.09980481  0.88514605  0.63192222  1
  O  O26  1  0.11400859  0.60606407  0.88492534  1
  O  O27  1  0.13096570  0.38740785  0.10320142  1
  O  O28  1  0.12552817  0.14044601  0.86543566  1
  O  O29  1  0.13981170  0.36349202  0.64069865  1
  O  O30  1  0.14087666  0.62759756  0.36609045  1
  O  O31  1  0.13333257  0.86570020  0.12870266  1
  O  O32  1  0.36662948  0.13432645  0.62867448  1
  O  O33  1  0.35917871  0.37239657  0.86619031  1
  O  O34  1  0.36017719  0.63648465  0.14062166  1
  O  O35  1  0.37443722  0.85958314  0.36547184  1
  O  O36  1  0.36901738  0.61242294  0.60319614  1
  O  O37  1  0.38603894  0.39391289  0.38489267  1
  O  O38  1  0.40018683  0.11496933  0.13190627  1
  O  O39  1  0.38890231  0.87481670  0.89270795  1
  O  O40  1  0.61112195  0.37481894  0.60727708  1
  O  O41  1  0.59978777  0.61491328  0.36800620  1
  O  O42  1  0.61397394  0.89384491  0.11509244  1
  O  O43  1  0.63087341  0.11221184  0.89673493  1
  O  O44  1  0.62564030  0.35952000  0.13452256  1
  O  O45  1  0.63972263  0.13650367  0.35939083  1
  O  O46  1  0.64100027  0.87233971  0.63377541  1
  O  O47  1  0.63327279  0.63439383  0.87131699  1
  O  O48  1  0.86668663  0.36570034  0.37135357  1
  O  O49  1  0.85895652  0.12758191  0.13382002  1
  O  O50  1  0.86030717  0.86344934  0.85934685  1
  O  O51  1  0.87438623  0.64049866  0.63452926  1
  O  O52  1  0.86907781  0.88764523  0.39678105  1
  O  O53  1  0.88604504  0.10613550  0.61508669  1
  O  O54  1  0.90016627  0.38531101  0.86800835  1
  O  O55  1  0.88890509  0.62521915  0.10726645  1
