# generated using pymatgen
data_Li4Sn(PO4)2
_symmetry_space_group_name_H-M   'P 1'
_cell_length_a   8.27830372
_cell_length_b   10.42902543
_cell_length_c   9.01881712
_cell_angle_alpha   90.00000000
_cell_angle_beta   100.07837228
_cell_angle_gamma   90.00000000
_symmetry_Int_Tables_number   1
_chemical_formula_structural   Li4Sn(PO4)2
_chemical_formula_sum   'Li16 Sn4 P8 O32'
_cell_volume   766.62143142
_cell_formula_units_Z   4
loop_
 _symmetry_equiv_pos_site_id
 _symmetry_equiv_pos_as_xyz
  1  'x, y, z'
loop_
 _atom_site_type_symbol
 _atom_site_label
 _atom_site_symmetry_multiplicity
 _atom_site_fract_x
 _atom_site_fract_y
 _atom_site_fract_z
 _atom_site_occupancy
  Li  Li0  1  0.10434970  0.65920163  0.59862941  1
  Li  Li1  1  0.14653110  0.16393627  0.64369500  1
  Li  Li2  1  0.15838247  0.34567302  0.17191718  1
  Li  Li3  1  0.23066374  0.42229204  0.47901404  1
  Li  Li4  1  0.26933626  0.92229204  0.52098596  1
  Li  Li5  1  0.34161753  0.84567302  0.82808282  1
  Li  Li6  1  0.35346890  0.66393627  0.35630500  1
  Li  Li7  1  0.39565030  0.15920163  0.40137059  1
  Li  Li8  1  0.60434970  0.84079837  0.59862941  1
  Li  Li9  1  0.64653110  0.33606373  0.64369500  1
  Li  Li10  1  0.65838247  0.15432698  0.17191718  1
  Li  Li11  1  0.73066374  0.07770796  0.47901404  1
  Li  Li12  1  0.76933626  0.57770796  0.52098596  1
  Li  Li13  1  0.84161753  0.65432698  0.82808282  1
  Li  Li14  1  0.85346890  0.83606373  0.35630500  1
  Li  Li15  1  0.89565030  0.34079837  0.40137059  1
  Sn  Sn16  1  0.09406417  0.85324145  0.08650954  1
  Sn  Sn17  1  0.40593583  0.35324145  0.91349046  1
  Sn  Sn18  1  0.59406417  0.64675855  0.08650954  1
  Sn  Sn19  1  0.90593583  0.14675855  0.91349046  1
  P  P20  1  0.01461539  0.40713849  0.75129281  1
  P  P21  1  0.51461539  0.09286151  0.75129281  1
  P  P22  1  0.48538461  0.90713849  0.24870719  1
  P  P23  1  0.98538461  0.59286151  0.24870719  1
  P  P24  1  0.04678920  0.09656415  0.32068931  1
  P  P25  1  0.45321080  0.59656415  0.67931069  1
  P  P26  1  0.54678920  0.40343585  0.32068931  1
  P  P27  1  0.95321080  0.90343585  0.67931069  1
  O  O28  1  0.99128705  0.04875277  0.72487859  1
  O  O29  1  0.08971192  0.34829162  0.62061749  1
  O  O30  1  0.14019720  0.39476513  0.90510573  1
  O  O31  1  0.03565411  0.45287228  0.28716755  1
  O  O32  1  0.11378248  0.84453533  0.64052191  1
  O  O33  1  0.10473774  0.17009777  0.19215746  1
  O  O34  1  0.13946652  0.67338481  0.22387646  1
  O  O35  1  0.18928657  0.09509436  0.45873514  1
  O  O36  1  0.31071343  0.59509436  0.54126486  1
  O  O37  1  0.36053348  0.17338481  0.77612354  1
  O  O38  1  0.39526226  0.67009777  0.80784254  1
  O  O39  1  0.38621752  0.34453533  0.35947809  1
  O  O40  1  0.46434589  0.95287228  0.71283245  1
  O  O41  1  0.35980280  0.89476513  0.09489427  1
  O  O42  1  0.49128705  0.45124723  0.72487859  1
  O  O43  1  0.41028808  0.84829162  0.37938251  1
  O  O44  1  0.58971192  0.15170838  0.62061749  1
  O  O45  1  0.50871295  0.54875277  0.27512141  1
  O  O46  1  0.64019720  0.10523487  0.90510573  1
  O  O47  1  0.53565411  0.04712772  0.28716755  1
  O  O48  1  0.61378248  0.65546467  0.64052191  1
  O  O49  1  0.60473774  0.32990223  0.19215746  1
  O  O50  1  0.63946652  0.82661519  0.22387646  1
  O  O51  1  0.68928657  0.40490564  0.45873514  1
  O  O52  1  0.81071343  0.90490564  0.54126486  1
  O  O53  1  0.86053348  0.32661519  0.77612354  1
  O  O54  1  0.89526226  0.82990223  0.80784254  1
  O  O55  1  0.88621752  0.15546467  0.35947809  1
  O  O56  1  0.96434589  0.54712772  0.71283245  1
  O  O57  1  0.85980280  0.60523487  0.09489427  1
  O  O58  1  0.91028808  0.65170838  0.37938251  1
  O  O59  1  0.00871295  0.95124723  0.27512141  1
