# generated using pymatgen
data_Li2Cr3(FeO6)2
_symmetry_space_group_name_H-M   'P 1'
_cell_length_a   12.61183974
_cell_length_b   9.12543272
_cell_length_c   9.11853338
_cell_angle_alpha   90.00000000
_cell_angle_beta   90.00000000
_cell_angle_gamma   90.00000000
_symmetry_Int_Tables_number   1
_chemical_formula_structural   Li2Cr3(FeO6)2
_chemical_formula_sum   'Li8 Cr12 Fe8 O48'
_cell_volume   1049.43828352
_cell_formula_units_Z   4
loop_
 _symmetry_equiv_pos_site_id
 _symmetry_equiv_pos_as_xyz
  1  'x, y, z'
loop_
 _atom_site_type_symbol
 _atom_site_label
 _atom_site_symmetry_multiplicity
 _atom_site_fract_x
 _atom_site_fract_y
 _atom_site_fract_z
 _atom_site_occupancy
  Li  Li0  1  0.18795024  0.21832056  0.27295438  1
  Li  Li1  1  0.18795024  0.78167944  0.77295438  1
  Li  Li2  1  0.31204976  0.28167944  0.77295438  1
  Li  Li3  1  0.31204976  0.71832056  0.27295438  1
  Li  Li4  1  0.68795024  0.28167944  0.72704562  1
  Li  Li5  1  0.68795024  0.71832056  0.22704562  1
  Li  Li6  1  0.81204976  0.21832056  0.22704562  1
  Li  Li7  1  0.81204976  0.78167944  0.72704562  1
  Cr  Cr8  1  0.00000000  0.46202825  0.25000000  1
  Cr  Cr9  1  0.00000000  0.53797175  0.75000000  1
  Cr  Cr10  1  0.14281923  0.10083934  0.60440411  1
  Cr  Cr11  1  0.14281923  0.89916066  0.10440411  1
  Cr  Cr12  1  0.35718077  0.39916066  0.10440411  1
  Cr  Cr13  1  0.35718077  0.60083934  0.60440411  1
  Cr  Cr14  1  0.50000000  0.03797175  0.75000000  1
  Cr  Cr15  1  0.50000000  0.96202825  0.25000000  1
  Cr  Cr16  1  0.64281923  0.39916066  0.39559589  1
  Cr  Cr17  1  0.64281923  0.60083934  0.89559589  1
  Cr  Cr18  1  0.85718077  0.10083934  0.89559589  1
  Cr  Cr19  1  0.85718077  0.89916066  0.39559589  1
  Fe  Fe20  1  0.12104038  0.24502131  0.96334281  1
  Fe  Fe21  1  0.12104038  0.75497869  0.46334281  1
  Fe  Fe22  1  0.37895962  0.74502131  0.96334281  1
  Fe  Fe23  1  0.37895962  0.25497869  0.46334281  1
  Fe  Fe24  1  0.62104038  0.25497869  0.03665719  1
  Fe  Fe25  1  0.62104038  0.74502131  0.53665719  1
  Fe  Fe26  1  0.87895962  0.24502131  0.53665719  1
  Fe  Fe27  1  0.87895962  0.75497869  0.03665719  1
  O  O28  1  0.01708899  0.14942505  0.56767914  1
  O  O29  1  0.01708899  0.85057495  0.06767914  1
  O  O30  1  0.06440014  0.56420740  0.36917892  1
  O  O31  1  0.06440014  0.43579260  0.86917892  1
  O  O32  1  0.08769786  0.35288269  0.16289726  1
  O  O33  1  0.08769786  0.64711731  0.66289726  1
  O  O34  1  0.16086198  0.08715017  0.10564962  1
  O  O35  1  0.16086198  0.91284983  0.60564962  1
  O  O36  1  0.17577278  0.17261079  0.77400286  1
  O  O37  1  0.17577278  0.82738921  0.27400286  1
  O  O38  1  0.22746806  0.82691764  0.97504634  1
  O  O39  1  0.22746806  0.17308236  0.47504634  1
  O  O40  1  0.27253194  0.32691764  0.97504634  1
  O  O41  1  0.27253194  0.67308236  0.47504634  1
  O  O42  1  0.32422722  0.67261079  0.77400286  1
  O  O43  1  0.32422722  0.32738921  0.27400286  1
  O  O44  1  0.33913802  0.41284983  0.60564962  1
  O  O45  1  0.33913802  0.58715017  0.10564962  1
  O  O46  1  0.41230214  0.14711731  0.66289726  1
  O  O47  1  0.41230214  0.85288269  0.16289726  1
  O  O48  1  0.43559986  0.06420740  0.36917892  1
  O  O49  1  0.43559986  0.93579260  0.86917892  1
  O  O50  1  0.48291101  0.64942505  0.56767914  1
  O  O51  1  0.48291101  0.35057495  0.06767914  1
  O  O52  1  0.51708899  0.35057495  0.43232086  1
  O  O53  1  0.51708899  0.64942505  0.93232086  1
  O  O54  1  0.56440014  0.06420740  0.13082108  1
  O  O55  1  0.56440014  0.93579260  0.63082108  1
  O  O56  1  0.58769786  0.14711731  0.83710274  1
  O  O57  1  0.58769786  0.85288269  0.33710274  1
  O  O58  1  0.66086198  0.41284983  0.89435038  1
  O  O59  1  0.66086198  0.58715017  0.39435038  1
  O  O60  1  0.67577278  0.32738921  0.22599714  1
  O  O61  1  0.67577278  0.67261079  0.72599714  1
  O  O62  1  0.72746806  0.32691764  0.52495366  1
  O  O63  1  0.72746806  0.67308236  0.02495366  1
  O  O64  1  0.77253194  0.17308236  0.02495366  1
  O  O65  1  0.77253194  0.82691764  0.52495366  1
  O  O66  1  0.82422722  0.17261079  0.72599714  1
  O  O67  1  0.82422722  0.82738921  0.22599714  1
  O  O68  1  0.83913802  0.08715017  0.39435038  1
  O  O69  1  0.83913802  0.91284983  0.89435038  1
  O  O70  1  0.91230214  0.35288269  0.33710274  1
  O  O71  1  0.91230214  0.64711731  0.83710274  1
  O  O72  1  0.93559986  0.43579260  0.63082108  1
  O  O73  1  0.93559986  0.56420740  0.13082108  1
  O  O74  1  0.98291101  0.14942505  0.93232086  1
  O  O75  1  0.98291101  0.85057495  0.43232086  1
