# generated using pymatgen
data_Li2Mn3F8
_symmetry_space_group_name_H-M   'P 1'
_cell_length_a   6.86431368
_cell_length_b   9.55269952
_cell_length_c   11.38853235
_cell_angle_alpha   90.00000000
_cell_angle_beta   91.92703364
_cell_angle_gamma   90.00000000
_symmetry_Int_Tables_number   1
_chemical_formula_structural   Li2Mn3F8
_chemical_formula_sum   'Li8 Mn12 F32'
_cell_volume   746.35478007
_cell_formula_units_Z   4
loop_
 _symmetry_equiv_pos_site_id
 _symmetry_equiv_pos_as_xyz
  1  'x, y, z'
loop_
 _atom_site_type_symbol
 _atom_site_label
 _atom_site_symmetry_multiplicity
 _atom_site_fract_x
 _atom_site_fract_y
 _atom_site_fract_z
 _atom_site_occupancy
  Li  Li0  1  0.09857412  0.94472063  0.85694172  1
  Li  Li1  1  0.09857412  0.55527937  0.35694172  1
  Li  Li2  1  0.41151231  0.39327193  0.85976195  1
  Li  Li3  1  0.41151231  0.10672807  0.35976195  1
  Li  Li4  1  0.58848769  0.89327193  0.64023805  1
  Li  Li5  1  0.58848769  0.60672807  0.14023805  1
  Li  Li6  1  0.90142588  0.44472063  0.64305828  1
  Li  Li7  1  0.90142588  0.05527937  0.14305828  1
  Mn  Mn8  1  0.09259715  0.80335784  0.56635022  1
  Mn  Mn9  1  0.09259715  0.69664216  0.06635022  1
  Mn  Mn10  1  0.23960200  0.15629735  0.64375556  1
  Mn  Mn11  1  0.23960200  0.34370265  0.14375556  1
  Mn  Mn12  1  0.38973560  0.54597409  0.62345996  1
  Mn  Mn13  1  0.38973560  0.95402591  0.12345996  1
  Mn  Mn14  1  0.61026440  0.04597409  0.87654004  1
  Mn  Mn15  1  0.61026440  0.45402591  0.37654004  1
  Mn  Mn16  1  0.76039800  0.65629735  0.85624444  1
  Mn  Mn17  1  0.76039800  0.84370265  0.35624444  1
  Mn  Mn18  1  0.90740285  0.30335784  0.93364978  1
  Mn  Mn19  1  0.90740285  0.19664216  0.43364978  1
  F  F20  1  0.03908612  0.75256273  0.89098634  1
  F  F21  1  0.03908612  0.74743727  0.39098634  1
  F  F22  1  0.08112762  0.59755157  0.62556523  1
  F  F23  1  0.08112762  0.90244843  0.12556523  1
  F  F24  1  0.12776907  0.96045110  0.69090557  1
  F  F25  1  0.12776907  0.53954890  0.19090557  1
  F  F26  1  0.20090843  0.38370059  0.96336384  1
  F  F27  1  0.20090843  0.11629941  0.46336384  1
  F  F28  1  0.32786790  0.00810334  0.93880757  1
  F  F29  1  0.32384557  0.34949316  0.70413906  1
  F  F30  1  0.32786790  0.49189666  0.43880657  1
  F  F31  1  0.32384557  0.15050684  0.20413906  1
  F  F32  1  0.39562333  0.76687790  0.58260868  1
  F  F33  1  0.39562333  0.73312210  0.08260868  1
  F  F34  1  0.48896684  0.57457108  0.80653290  1
  F  F35  1  0.48896684  0.92542892  0.30653290  1
  F  F36  1  0.51103316  0.07457108  0.69346710  1
  F  F37  1  0.51103316  0.42542792  0.19346710  1
  F  F38  1  0.60437667  0.26687790  0.91739132  1
  F  F39  1  0.60437667  0.23312210  0.41739132  1
  F  F40  1  0.67615443  0.84949316  0.79586094  1
  F  F41  1  0.67213210  0.50810334  0.56119243  1
  F  F42  1  0.67615443  0.65050684  0.29586094  1
  F  F43  1  0.67213210  0.99189666  0.06119343  1
  F  F44  1  0.79909157  0.88370059  0.53663616  1
  F  F45  1  0.79909157  0.61629941  0.03663616  1
  F  F46  1  0.87223093  0.46045110  0.80909443  1
  F  F47  1  0.87223093  0.03954890  0.30909443  1
  F  F48  1  0.91887238  0.09755157  0.87443477  1
  F  F49  1  0.91887238  0.40244843  0.37443477  1
  F  F50  1  0.96091388  0.25256273  0.60901366  1
  F  F51  1  0.96091388  0.24743727  0.10901366  1
