# generated using pymatgen
data_Li4Fe2Ni3Sn3O16
_symmetry_space_group_name_H-M   'P 1'
_cell_length_a   6.02289297
_cell_length_b   6.07981139
_cell_length_c   9.61598901
_cell_angle_alpha   90.33916949
_cell_angle_beta   88.51425299
_cell_angle_gamma   120.33124398
_symmetry_Int_Tables_number   1
_chemical_formula_structural   Li4Fe2Ni3Sn3O16
_chemical_formula_sum   'Li4 Fe2 Ni3 Sn3 O16'
_cell_volume   303.80820327
_cell_formula_units_Z   1
loop_
 _symmetry_equiv_pos_site_id
 _symmetry_equiv_pos_as_xyz
  1  'x, y, z'
loop_
 _atom_site_type_symbol
 _atom_site_label
 _atom_site_symmetry_multiplicity
 _atom_site_fract_x
 _atom_site_fract_y
 _atom_site_fract_z
 _atom_site_occupancy
  Li  Li0  1  0.35271835  0.67271627  0.88438397  1
  Li  Li1  1  0.95553702  0.97872189  0.99276950  1
  Li  Li2  1  0.97000988  0.98547048  0.50283549  1
  Li  Li3  1  0.67556989  0.33579173  0.39821214  1
  Fe  Fe4  1  0.33544503  0.67278258  0.49674634  1
  Fe  Fe5  1  0.68377884  0.33953974  0.98849810  1
  Ni  Ni6  1  0.66273221  0.83190885  0.21857160  1
  Ni  Ni7  1  0.83410345  0.66022273  0.71562573  1
  Ni  Ni8  1  0.82892377  0.17009525  0.71408705  1
  Sn  Sn9  1  0.17283153  0.83216295  0.21166356  1
  Sn  Sn10  1  0.17399861  0.34081739  0.21268931  1
  Sn  Sn11  1  0.33797855  0.17180530  0.71407512  1
  O  O12  1  0.14738849  0.83033128  0.59951776  1
  O  O13  1  0.03694391  0.51949757  0.34776278  1
  O  O14  1  0.33792686  0.66759110  0.09265108  1
  O  O15  1  0.00502783  0.00284743  0.31826744  1
  O  O16  1  0.97661834  0.00369833  0.80789830  1
  O  O17  1  0.14927967  0.32104611  0.59791136  1
  O  O18  1  0.49239433  0.96511773  0.34109133  1
  O  O19  1  0.49470002  0.53139320  0.34259256  1
  O  O20  1  0.32526591  0.16191540  0.08395758  1
  O  O21  1  0.66023203  0.84438122  0.60837031  1
  O  O22  1  0.54140975  0.49482349  0.83867777  1
  O  O23  1  0.53659996  0.04236555  0.83776622  1
  O  O24  1  0.68862171  0.33028040  0.60723092  1
  O  O25  1  0.83004846  0.66949454  0.09938281  1
  O  O26  1  0.96705087  0.46758768  0.83226607  1
  O  O27  1  0.82686474  0.15589581  0.10234080  1
