# generated using pymatgen
data_Li3(CoO2)5
_symmetry_space_group_name_H-M   'P 1'
_cell_length_a   2.83398618
_cell_length_b   12.27620239
_cell_length_c   9.95666404
_cell_angle_alpha   88.98018802
_cell_angle_beta   89.40447405
_cell_angle_gamma   96.20678495
_symmetry_Int_Tables_number   1
_chemical_formula_structural   Li3(CoO2)5
_chemical_formula_sum   'Li6 Co10 O20'
_cell_volume   344.28667958
_cell_formula_units_Z   2
loop_
 _symmetry_equiv_pos_site_id
 _symmetry_equiv_pos_as_xyz
  1  'x, y, z'
loop_
 _atom_site_type_symbol
 _atom_site_label
 _atom_site_symmetry_multiplicity
 _atom_site_fract_x
 _atom_site_fract_y
 _atom_site_fract_z
 _atom_site_occupancy
  Li  Li0  1  0.66462671  0.81970788  0.74888500  1
  Li  Li1  1  0.45426032  0.90306535  0.24553137  1
  Li  Li2  1  0.82077264  0.67944558  0.24911545  1
  Li  Li3  1  0.20426449  0.46452322  0.24593730  1
  Li  Li4  1  0.87175006  0.22912368  0.74883006  1
  Li  Li5  1  0.57350668  0.24528406  0.25035115  1
  Co  Co6  1  0.70602468  0.90234788  0.50282451  1
  Co  Co7  1  0.39242671  0.79732974  0.00691596  1
  Co  Co8  1  0.79094511  0.59755565  0.00041828  1
  Co  Co9  1  0.10640731  0.70284192  0.49752853  1
  Co  Co10  1  0.50889351  0.50435113  0.50002957  1
  Co  Co11  1  0.91175121  0.30489599  0.49737727  1
  Co  Co12  1  0.19113483  0.39605865  0.99408265  1
  Co  Co13  1  0.58933058  0.19763695  0.00322014  1
  Co  Co14  1  0.30806585  0.10161751  0.50012467  1
  Co  Co15  1  0.99404324  0.99777152  0.99775061  1
  O  O16  1  0.23961541  0.97070627  0.40376725  1
  O  O17  1  0.92628895  0.86804672  0.10827559  1
  O  O18  1  0.46767919  0.93043377  0.90350893  1
  O  O19  1  0.86514704  0.73494828  0.90683862  1
  O  O20  1  0.63880869  0.77365700  0.39500496  1
  O  O21  1  0.16943389  0.83186886  0.60321609  1
  O  O22  1  0.31837726  0.66145038  0.10872499  1
  O  O23  1  0.56773293  0.63230663  0.59077540  1
  O  O24  1  0.26126657  0.52985459  0.91205761  1
  O  O25  1  0.71833916  0.45980005  0.10077758  1
  O  O26  1  0.03845554  0.56881576  0.39076555  1
  O  O27  1  0.97271287  0.43692511  0.59215940  1
  O  O28  1  0.66509310  0.33053750  0.89910583  1
  O  O29  1  0.44531602  0.37042223  0.39191373  1
  O  O30  1  0.84787133  0.17116872  0.40035109  1
  O  O31  1  0.37397790  0.23503719  0.60064661  1
  O  O32  1  0.11556825  0.26599297  0.10590728  1
  O  O33  1  0.76997443  0.03631204  0.59682778  1
  O  O34  1  0.52110042  0.06047293  0.09760656  1
  O  O35  1  0.06340111  0.13420731  0.90284763  1
