# generated using pymatgen
data_Li6Cr3Cu(PO4)6
_symmetry_space_group_name_H-M   'P 1'
_cell_length_a   8.50907809
_cell_length_b   8.53902148
_cell_length_c   8.54965988
_cell_angle_alpha   61.44214907
_cell_angle_beta   61.58280881
_cell_angle_gamma   61.60235928
_symmetry_Int_Tables_number   1
_chemical_formula_structural   Li6Cr3Cu(PO4)6
_chemical_formula_sum   'Li6 Cr3 Cu1 P6 O24'
_cell_volume   454.46523184
_cell_formula_units_Z   1
loop_
 _symmetry_equiv_pos_site_id
 _symmetry_equiv_pos_as_xyz
  1  'x, y, z'
loop_
 _atom_site_type_symbol
 _atom_site_label
 _atom_site_symmetry_multiplicity
 _atom_site_fract_x
 _atom_site_fract_y
 _atom_site_fract_z
 _atom_site_occupancy
  Li  Li0  1  0.02068375  0.99922455  0.98906841  1
  Li  Li1  1  0.75634686  0.14464065  0.34940690  1
  Li  Li2  1  0.47542171  0.50926587  0.49957519  1
  Li  Li3  1  0.21529363  0.85010340  0.66160007  1
  Li  Li4  1  0.66576136  0.21063397  0.84903621  1
  Li  Li5  1  0.84788468  0.66800190  0.20993585  1
  Cr  Cr6  1  0.13976943  0.14382508  0.13798688  1
  Cr  Cr7  1  0.36002865  0.36187537  0.35589717  1
  Cr  Cr8  1  0.64232845  0.64561963  0.64522388  1
  Cu  Cu9  1  0.85363797  0.85089397  0.84868107  1
  P  P10  1  0.04954905  0.75035800  0.45230140  1
  P  P11  1  0.45073257  0.05090828  0.75115858  1
  P  P12  1  0.75049276  0.45651735  0.04661186  1
  P  P13  1  0.25372341  0.53800476  0.95924474  1
  P  P14  1  0.54073192  0.96407341  0.25365097  1
  P  P15  1  0.95634615  0.25287921  0.53443906  1
  O  O16  1  0.11885852  0.31658550  0.48100326  1
  O  O17  1  0.33041065  0.49430752  0.10862272  1
  O  O18  1  0.04140858  0.92480743  0.27034423  1
  O  O19  1  0.52326718  0.11266205  0.31904073  1
  O  O20  1  0.24385543  0.59788582  0.41675084  1
  O  O21  1  0.03539342  0.79720502  0.61399447  1
  O  O22  1  0.26177335  0.06233836  0.91356657  1
  O  O23  1  0.43635199  0.24078508  0.58609112  1
  O  O24  1  0.59811036  0.42283670  0.24544106  1
  O  O25  1  0.20033788  0.37798736  0.98773922  1
  O  O26  1  0.08293646  0.72654666  0.96088065  1
  O  O27  1  0.36629586  0.00452125  0.21526137  1
  O  O28  1  0.61408742  0.02984580  0.80155268  1
  O  O29  1  0.90847094  0.26117132  0.06396247  1
  O  O30  1  0.80380952  0.61534397  0.02773599  1
  O  O31  1  0.40093392  0.58014415  0.75694793  1
  O  O32  1  0.57746179  0.76259239  0.40298059  1
  O  O33  1  0.72555718  0.95879696  0.07881519  1
  O  O34  1  0.96503397  0.20648744  0.37701915  1
  O  O35  1  0.75846965  0.40294656  0.58248410  1
  O  O36  1  0.49088607  0.88704507  0.69415624  1
  O  O37  1  0.96138302  0.07940643  0.72099288  1
  O  O38  1  0.69209432  0.49719596  0.88497701  1
  O  O39  1  0.88407918  0.69273082  0.49682130  1
