# generated using pymatgen
data_Zn2PO5
_symmetry_space_group_name_H-M   'P 1'
_cell_length_a   5.59933427
_cell_length_b   5.76029865
_cell_length_c   6.56256814
_cell_angle_alpha   76.41893667
_cell_angle_beta   77.76842615
_cell_angle_gamma   87.17997153
_symmetry_Int_Tables_number   1
_chemical_formula_structural   Zn2PO5
_chemical_formula_sum   'Zn4 P2 O10'
_cell_volume   201.07879423
_cell_formula_units_Z   2
loop_
 _symmetry_equiv_pos_site_id
 _symmetry_equiv_pos_as_xyz
  1  'x, y, z'
loop_
 _atom_site_type_symbol
 _atom_site_label
 _atom_site_symmetry_multiplicity
 _atom_site_fract_x
 _atom_site_fract_y
 _atom_site_fract_z
 _atom_site_occupancy
  Zn  Zn0  1  0.38753001  0.24318952  0.50871383  1
  Zn  Zn1  1  0.61246999  0.75681048  0.49128617  1
  Zn  Zn2  1  0.03294117  0.73973834  0.81022105  1
  Zn  Zn3  1  0.96705883  0.26026166  0.18977895  1
  P  P4  1  0.83468730  0.24931615  0.72728186  1
  P  P5  1  0.16531270  0.75068385  0.27271814  1
  O  O6  1  0.78039842  0.98928994  0.84849841  1
  O  O7  1  0.21960158  0.01071006  0.15150159  1
  O  O8  1  0.93871260  0.38785163  0.86799184  1
  O  O9  1  0.06128740  0.61214837  0.13200816  1
  O  O10  1  0.60269144  0.38161171  0.66389378  1
  O  O11  1  0.39730856  0.61838829  0.33610622  1
  O  O12  1  0.96837633  0.74724659  0.48468219  1
  O  O13  1  0.03162367  0.25275341  0.51531781  1
  O  O14  1  0.35880661  0.89256103  0.68863618  1
  O  O15  1  0.64119339  0.10743897  0.31136382  1
