# generated using pymatgen
data_Li4Fe2Co3Sn3O16
_symmetry_space_group_name_H-M   'P 1'
_cell_length_a   5.99788436
_cell_length_b   6.03055404
_cell_length_c   9.62479848
_cell_angle_alpha   90.22281249
_cell_angle_beta   89.12760656
_cell_angle_gamma   120.39129545
_symmetry_Int_Tables_number   1
_chemical_formula_structural   Li4Fe2Co3Sn3O16
_chemical_formula_sum   'Li4 Fe2 Co3 Sn3 O16'
_cell_volume   300.25969980
_cell_formula_units_Z   1
loop_
 _symmetry_equiv_pos_site_id
 _symmetry_equiv_pos_as_xyz
  1  'x, y, z'
loop_
 _atom_site_type_symbol
 _atom_site_label
 _atom_site_symmetry_multiplicity
 _atom_site_fract_x
 _atom_site_fract_y
 _atom_site_fract_z
 _atom_site_occupancy
  Li  Li0  1  0.35206338  0.67444735  0.88484141  1
  Li  Li1  1  0.95786866  0.97844371  0.99200135  1
  Li  Li2  1  0.97288770  0.98450206  0.50265176  1
  Li  Li3  1  0.67559892  0.33731751  0.39788620  1
  Fe  Fe4  1  0.33854456  0.67386466  0.49670345  1
  Fe  Fe5  1  0.67917256  0.34193379  0.98870408  1
  Co  Co6  1  0.65981508  0.83011871  0.21578249  1
  Co  Co7  1  0.83142396  0.65932585  0.71420772  1
  Co  Co8  1  0.83096155  0.16960121  0.71269857  1
  Sn  Sn9  1  0.17091213  0.83123458  0.21506351  1
  Sn  Sn10  1  0.17074108  0.33945540  0.21405786  1
  Sn  Sn11  1  0.33929354  0.17013233  0.71491067  1
  O  O12  1  0.15464360  0.83179916  0.59758439  1
  O  O13  1  0.03674463  0.51839863  0.34844316  1
  O  O14  1  0.35447117  0.67709965  0.09983925  1
  O  O15  1  0.97829924  0.98977250  0.31579498  1
  O  O16  1  0.97730697  0.99001012  0.80692444  1
  O  O17  1  0.14515386  0.32055404  0.59981990  1
  O  O18  1  0.49578910  0.96436448  0.33981832  1
  O  O19  1  0.49494455  0.53089144  0.34018602  1
  O  O20  1  0.32113662  0.15897549  0.08652908  1
  O  O21  1  0.67171948  0.84184276  0.61255344  1
  O  O22  1  0.53684332  0.49345434  0.83942716  1
  O  O23  1  0.54348888  0.04297328  0.83690415  1
  O  O24  1  0.68928604  0.34303807  0.60906062  1
  O  O25  1  0.82985064  0.67112824  0.10006903  1
  O  O26  1  0.96234544  0.47801790  0.82541563  1
  O  O27  1  0.82869334  0.15760273  0.09995936  1
