# generated using pymatgen
data_Ti2N2O
_symmetry_space_group_name_H-M   'P 1'
_cell_length_a   8.22850229
_cell_length_b   8.23174730
_cell_length_c   8.20165665
_cell_angle_alpha   109.35059367
_cell_angle_beta   109.37143638
_cell_angle_gamma   109.57881318
_symmetry_Int_Tables_number   1
_chemical_formula_structural   Ti2N2O
_chemical_formula_sum   'Ti16 N16 O8'
_cell_volume   428.24682250
_cell_formula_units_Z   8
loop_
 _symmetry_equiv_pos_site_id
 _symmetry_equiv_pos_as_xyz
  1  'x, y, z'
loop_
 _atom_site_type_symbol
 _atom_site_label
 _atom_site_symmetry_multiplicity
 _atom_site_fract_x
 _atom_site_fract_y
 _atom_site_fract_z
 _atom_site_occupancy
  Ti  Ti0  1  0.50032020  0.00048197  0.98643828  1
  Ti  Ti1  1  0.74793149  0.29890929  0.53853174  1
  Ti  Ti2  1  0.21213091  0.95672896  0.24996387  1
  Ti  Ti3  1  0.71214092  0.46423648  0.24699147  1
  Ti  Ti4  1  0.24093206  0.20444928  0.94629717  1
  Ti  Ti5  1  0.01304443  0.51478901  0.01006379  1
  Ti  Ti6  1  0.96689002  0.26103679  0.20485834  1
  Ti  Ti7  1  0.50145974  0.49772631  0.51188256  1
  Ti  Ti8  1  0.53998325  0.74717427  0.30033019  1
  Ti  Ti9  1  0.99612878  0.99639760  0.50791232  1
  Ti  Ti10  1  0.45599466  0.25829252  0.71420666  1
  Ti  Ti11  1  0.03412245  0.73639574  0.78419494  1
  Ti  Ti12  1  0.75407683  0.79104778  0.04397821  1
  Ti  Ti13  1  0.79545353  0.04172808  0.76042182  1
  Ti  Ti14  1  0.28685032  0.54130057  0.74580789  1
  Ti  Ti15  1  0.25308002  0.70151539  0.46288389  1
  N  N16  1  0.72489926  0.99265965  0.95342565  1
  N  N17  1  0.51110613  0.23356715  0.96034040  1
  N  N18  1  0.45812427  0.22349452  0.45022374  1
  N  N19  1  0.77397688  0.54831753  0.53691164  1
  N  N20  1  0.77317624  0.72740297  0.26633034  1
  N  N21  1  0.05280657  0.27573643  0.01203511  1
  N  N22  1  0.95770763  0.50668043  0.23304409  1
  N  N23  1  0.22388622  0.44830725  0.46070110  1
  N  N24  1  0.55091388  0.53948655  0.77797989  1
  N  N25  1  0.27900027  0.74033071  0.22544203  1
  N  N26  1  0.54110919  0.77333759  0.54650458  1
  N  N27  1  0.95139336  0.72636104  0.99281074  1
  N  N28  1  0.98863341  0.95030943  0.72335801  1
  N  N29  1  0.22299176  0.27048451  0.73293178  1
  N  N30  1  0.03744570  0.48679733  0.76172243  1
  N  N31  1  0.27052914  0.77953810  0.72755446  1
  O  O32  1  0.27386092  0.00758232  0.04943970  1
  O  O33  1  0.76814805  0.04262122  0.49021385  1
  O  O34  1  0.72987653  0.22169501  0.27725578  1
  O  O35  1  0.44859280  0.46187053  0.22067840  1
  O  O36  1  0.22504367  0.95607285  0.50269395  1
  O  O37  1  0.72327461  0.25826597  0.76727495  1
  O  O38  1  0.01114464  0.04964416  0.27462527  1
  O  O39  1  0.49182128  0.76722672  0.04174296  1
