# generated using pymatgen
data_Li2V(Si2O5)3
_symmetry_space_group_name_H-M   'P 1'
_cell_length_a   9.75243976
_cell_length_b   7.96770440
_cell_length_c   14.72718139
_cell_angle_alpha   90.00000000
_cell_angle_beta   40.97034919
_cell_angle_gamma   114.11051677
_symmetry_Int_Tables_number   1
_chemical_formula_structural   Li2V(Si2O5)3
_chemical_formula_sum   'Li4 V2 Si12 O30'
_cell_volume   586.90673992
_cell_formula_units_Z   2
loop_
 _symmetry_equiv_pos_site_id
 _symmetry_equiv_pos_as_xyz
  1  'x, y, z'
loop_
 _atom_site_type_symbol
 _atom_site_label
 _atom_site_symmetry_multiplicity
 _atom_site_fract_x
 _atom_site_fract_y
 _atom_site_fract_z
 _atom_site_occupancy
  Li  Li0  1  0.00067528  0.00022468  0.74491246  1
  Li  Li1  1  0.00067528  0.50045060  0.74491246  1
  Li  Li2  1  0.00009962  0.00005927  0.25424004  1
  Li  Li3  1  0.00009962  0.50004035  0.25424004  1
  V  V4  1  0.50043995  0.00022048  0.99969976  1
  V  V5  1  0.50014222  0.00007111  0.49987438  1
  Si  Si6  1  0.04621051  0.27310525  0.37557047  1
  Si  Si7  1  0.04587440  0.27293720  0.57831549  1
  Si  Si8  1  0.42844702  0.65153914  0.89001778  1
  Si  Si9  1  0.42844702  0.27690787  0.89001778  1
  Si  Si10  1  0.42805207  0.65126398  0.68176955  1
  Si  Si11  1  0.42805207  0.27678808  0.68176955  1
  Si  Si12  1  0.57251401  0.34897687  0.10947139  1
  Si  Si13  1  0.57251401  0.72353715  0.10947139  1
  Si  Si14  1  0.57205302  0.34873705  0.31815737  1
  Si  Si15  1  0.57205302  0.72331597  0.31815737  1
  Si  Si16  1  0.95448818  0.72724459  0.62392615  1
  Si  Si17  1  0.95448483  0.72724192  0.42134984  1
  O  O18  1  0.08583191  0.79291546  0.45700684  1
  O  O19  1  0.16891509  0.83445754  0.23388317  1
  O  O20  1  0.16898123  0.83449061  0.59710424  1
  O  O21  1  0.29805114  0.39902507  0.97551448  1
  O  O22  1  0.24416459  0.53618603  0.26342898  1
  O  O23  1  0.24416459  0.20797956  0.26342898  1
  O  O24  1  0.24387246  0.20776244  0.49270191  1
  O  O25  1  0.24387246  0.53610902  0.49270191  1
  O  O26  1  0.29741341  0.39870670  0.72686671  1
  O  O27  1  0.32443993  0.09046694  0.65952824  1
  O  O28  1  0.32443993  0.73397299  0.65952824  1
  O  O29  1  0.32453492  0.09021800  0.01573838  1
  O  O30  1  0.32453492  0.73431692  0.01573838  1
  O  O31  1  0.35814367  0.67252848  0.82091097  1
  O  O32  1  0.35814367  0.18561619  0.82091097  1
  O  O33  1  0.64237403  0.32773106  0.17882398  1
  O  O34  1  0.64237403  0.81464297  0.17882398  1
  O  O35  1  0.67594060  0.26588701  0.34005904  1
  O  O36  1  0.67594060  0.91005259  0.34005904  1
  O  O37  1  0.67615555  0.90979086  0.98367643  1
  O  O38  1  0.67615555  0.26636469  0.98367643  1
  O  O39  1  0.70309316  0.60154608  0.02397365  1
  O  O40  1  0.75672250  0.46420575  0.73620350  1
  O  O41  1  0.75672250  0.79251675  0.73620350  1
  O  O42  1  0.75629210  0.46402904  0.50729535  1
  O  O43  1  0.75629210  0.79226306  0.50729535  1
  O  O44  1  0.70248404  0.60124152  0.27324462  1
  O  O45  1  0.83149111  0.16574605  0.76574694  1
  O  O46  1  0.83166855  0.16583477  0.40242024  1
  O  O47  1  0.91468655  0.20734327  0.54253026  1
