# generated using pymatgen
data_NaNiBO3
_symmetry_space_group_name_H-M   'P 1'
_cell_length_a   5.05293239
_cell_length_b   8.77593111
_cell_length_c   5.59756352
_cell_angle_alpha   90.01773340
_cell_angle_beta   95.49120921
_cell_angle_gamma   29.67852016
_symmetry_Int_Tables_number   1
_chemical_formula_structural   NaNiBO3
_chemical_formula_sum   'Na2 Ni2 B2 O6'
_cell_volume   120.59756641
_cell_formula_units_Z   2
loop_
 _symmetry_equiv_pos_site_id
 _symmetry_equiv_pos_as_xyz
  1  'x, y, z'
loop_
 _atom_site_type_symbol
 _atom_site_label
 _atom_site_symmetry_multiplicity
 _atom_site_fract_x
 _atom_site_fract_y
 _atom_site_fract_z
 _atom_site_occupancy
  Na  Na0  1  0.99974337  0.66471780  0.74988632  1
  Na  Na1  1  0.99703310  0.33605629  0.24723130  1
  Ni  Ni2  1  0.00129007  0.99812672  0.49843640  1
  Ni  Ni3  1  0.99876515  0.99880137  0.99836599  1
  B  B4  1  0.00051327  0.32975470  0.74779680  1
  B  B5  1  0.99952004  0.66689130  0.24868156  1
  O  O6  1  0.99542814  0.17483053  0.74842788  1
  O  O7  1  0.00920084  0.81985115  0.25013791  1
  O  O8  1  0.44970530  0.18177905  0.69963005  1
  O  O9  1  0.55684216  0.63117749  0.79622287  1
  O  O10  1  0.44040492  0.36648318  0.19993834  1
  O  O11  1  0.54694363  0.81753643  0.29548159  1
