# generated using pymatgen
data_Li3Ti(FeO3)2
_symmetry_space_group_name_H-M   'P 1'
_cell_length_a   15.61632276
_cell_length_b   9.98088729
_cell_length_c   9.98088719
_cell_angle_alpha   17.20693537
_cell_angle_beta   16.70987907
_cell_angle_gamma   16.70988080
_symmetry_Int_Tables_number   1
_chemical_formula_structural   Li3Ti(FeO3)2
_chemical_formula_sum   'Li3 Ti1 Fe2 O6'
_cell_volume   114.28667602
_cell_formula_units_Z   1
loop_
 _symmetry_equiv_pos_site_id
 _symmetry_equiv_pos_as_xyz
  1  'x, y, z'
loop_
 _atom_site_type_symbol
 _atom_site_label
 _atom_site_symmetry_multiplicity
 _atom_site_fract_x
 _atom_site_fract_y
 _atom_site_fract_z
 _atom_site_occupancy
  Li  Li0  1  0.16666700  0.50000000  0.50000000  1
  Li  Li1  1  0.49968797  0.49906194  0.49906194  1
  Li  Li2  1  0.83364503  0.50093806  0.50093806  1
  Ti  Ti3  1  0.66666700  0.00000000  0.00000000  1
  Fe  Fe4  1  0.98104803  0.01429918  0.01429918  1
  Fe  Fe5  1  0.35228597  0.98570082  0.98570082  1
  O  O6  1  0.27029553  0.24134491  0.24134491  1
  O  O7  1  0.57356969  0.25950772  0.25950772  1
  O  O8  1  0.06303747  0.75865509  0.75865509  1
  O  O9  1  0.88952701  0.27717944  0.27717944  1
  O  O10  1  0.44380599  0.72282056  0.72282056  1
  O  O11  1  0.75976331  0.74049228  0.74049228  1
