# generated using pymatgen
data_Ti3CoCu2(PO4)6
_symmetry_space_group_name_H-M   'P 1'
_cell_length_a   8.53979040
_cell_length_b   8.53978957
_cell_length_c   8.53979045
_cell_angle_alpha   60.24929214
_cell_angle_beta   60.24929381
_cell_angle_gamma   60.24929205
_symmetry_Int_Tables_number   1
_chemical_formula_structural   Ti3CoCu2(PO4)6
_chemical_formula_sum   'Ti3 Co1 Cu2 P6 O24'
_cell_volume   442.86411506
_cell_formula_units_Z   1
loop_
 _symmetry_equiv_pos_site_id
 _symmetry_equiv_pos_as_xyz
  1  'x, y, z'
loop_
 _atom_site_type_symbol
 _atom_site_label
 _atom_site_symmetry_multiplicity
 _atom_site_fract_x
 _atom_site_fract_y
 _atom_site_fract_z
 _atom_site_occupancy
  Ti  Ti0  1  0.14110040  0.14110040  0.14110040  1
  Ti  Ti1  1  0.35736320  0.35736320  0.35736320  1
  Ti  Ti2  1  0.64311074  0.64311074  0.64311074  1
  Co  Co3  1  0.85912168  0.85912168  0.85912168  1
  Cu  Cu4  1  0.99792044  0.99792044  0.99792044  1
  Cu  Cu5  1  0.49954165  0.49954165  0.49954165  1
  P  P6  1  0.24564190  0.54415152  0.95618439  1
  P  P7  1  0.54415152  0.95618439  0.24564190  1
  P  P8  1  0.95618439  0.24564190  0.54415152  1
  P  P9  1  0.03946607  0.75227305  0.46513665  1
  P  P10  1  0.46513665  0.03946607  0.75227305  1
  P  P11  1  0.75227305  0.46513665  0.03946607  1
  O  O12  1  0.11853676  0.31004207  0.49892390  1
  O  O13  1  0.31004207  0.49892390  0.11853676  1
  O  O14  1  0.05506510  0.91423974  0.26643094  1
  O  O15  1  0.49892390  0.11853676  0.31004207  1
  O  O16  1  0.00744560  0.80984099  0.62257073  1
  O  O17  1  0.23461787  0.58653661  0.43903388  1
  O  O18  1  0.26643094  0.05506510  0.91423974  1
  O  O19  1  0.43903388  0.23461787  0.58653661  1
  O  O20  1  0.18804788  0.37825769  0.00079991  1
  O  O21  1  0.58653661  0.43903388  0.23461787  1
  O  O22  1  0.08006344  0.73786243  0.94426067  1
  O  O23  1  0.37825769  0.00079991  0.18804788  1
  O  O24  1  0.62257073  0.00744560  0.80984099  1
  O  O25  1  0.91423974  0.26643094  0.05506510  1
  O  O26  1  0.41339962  0.55688656  0.76418010  1
  O  O27  1  0.80984099  0.62257073  0.00744560  1
  O  O28  1  0.55688656  0.76418010  0.41339962  1
  O  O29  1  0.73786243  0.94426067  0.08006344  1
  O  O30  1  0.76418010  0.41339962  0.55688656  1
  O  O31  1  0.00079991  0.18804788  0.37825769  1
  O  O32  1  0.50442479  0.87777277  0.68975124  1
  O  O33  1  0.94426067  0.08006344  0.73786243  1
  O  O34  1  0.68975124  0.50442479  0.87777277  1
  O  O35  1  0.87777277  0.68975124  0.50442479  1
