# generated using pymatgen
data_Ti2N2O
_symmetry_space_group_name_H-M   'P 1'
_cell_length_a   8.23455956
_cell_length_b   8.20589277
_cell_length_c   8.23157654
_cell_angle_alpha   109.45229175
_cell_angle_beta   109.49974279
_cell_angle_gamma   109.42160828
_symmetry_Int_Tables_number   1
_chemical_formula_structural   Ti2N2O
_chemical_formula_sum   'Ti16 N16 O8'
_cell_volume   428.39214318
_cell_formula_units_Z   8
loop_
 _symmetry_equiv_pos_site_id
 _symmetry_equiv_pos_as_xyz
  1  'x, y, z'
loop_
 _atom_site_type_symbol
 _atom_site_label
 _atom_site_symmetry_multiplicity
 _atom_site_fract_x
 _atom_site_fract_y
 _atom_site_fract_z
 _atom_site_occupancy
  Ti  Ti0  1  0.94352605  0.24576768  0.21187619  1
  Ti  Ti1  1  0.49714815  0.99437647  0.99774594  1
  Ti  Ti2  1  0.78819866  0.04182632  0.75570155  1
  Ti  Ti3  1  0.70052781  0.46460524  0.25328173  1
  Ti  Ti4  1  0.76007846  0.29541963  0.54756149  1
  Ti  Ti5  1  0.75068521  0.78689351  0.04075831  1
  Ti  Ti6  1  0.99790863  0.50593082  0.98663482  1
  Ti  Ti7  1  0.01498864  0.00073538  0.51295440  1
  Ti  Ti8  1  0.48824291  0.50561582  0.50258637  1
  Ti  Ti9  1  0.45951562  0.24975005  0.70449494  1
  Ti  Ti10  1  0.53815089  0.74159760  0.29391992  1
  Ti  Ti11  1  0.25352105  0.71025462  0.45725771  1
  Ti  Ti12  1  0.24587876  0.20884848  0.95617030  1
  Ti  Ti13  1  0.28916429  0.53698315  0.73961335  1
  Ti  Ti14  1  0.20802561  0.94596460  0.24121472  1
  Ti  Ti15  1  0.05447643  0.76421382  0.79840157  1
  N  N16  1  0.73645495  0.22674946  0.27639263  1
  N  N17  1  0.27911467  0.01191092  0.05304513  1
  N  N18  1  0.77342590  0.72251855  0.26359668  1
  N  N19  1  0.45065162  0.45913694  0.22527900  1
  N  N20  1  0.72469197  0.26441606  0.77502049  1
  N  N21  1  0.22352298  0.44660067  0.45651564  1
  N  N22  1  0.27546821  0.73382308  0.22215489  1
  N  N23  1  0.98841471  0.94801327  0.72305248  1
  N  N24  1  0.95191212  0.72655378  0.99446081  1
  N  N25  1  0.54950810  0.54290244  0.77461324  1
  N  N26  1  0.22626761  0.27446087  0.73782934  1
  N  N27  1  0.54034272  0.77480554  0.54875735  1
  N  N28  1  0.03669652  0.48721228  0.76080571  1
  N  N29  1  0.72690752  0.99178202  0.95194585  1
  N  N30  1  0.26976485  0.77794809  0.72734137  1
  N  N31  1  0.23556683  0.96216869  0.50818825  1
  O  O32  1  0.76575934  0.04222150  0.49077379  1
  O  O33  1  0.95963684  0.50403269  0.23152644  1
  O  O34  1  0.46302251  0.22760009  0.45342837  1
  O  O35  1  0.05120584  0.27491905  0.00887306  1
  O  O36  1  0.00697959  0.05126706  0.27584713  1
  O  O37  1  0.77297145  0.54561021  0.53680366  1
  O  O38  1  0.49229865  0.76929256  0.04338878  1
  O  O39  1  0.50937633  0.23527096  0.96018958  1
