# generated using pymatgen
data_Ti3V2Sb(PO4)6
_symmetry_space_group_name_H-M   'P 1'
_cell_length_a   8.68819765
_cell_length_b   8.79342089
_cell_length_c   8.79342019
_cell_angle_alpha   60.00000411
_cell_angle_beta   59.59855935
_cell_angle_gamma   59.59855430
_symmetry_Int_Tables_number   1
_chemical_formula_structural   Ti3V2Sb(PO4)6
_chemical_formula_sum   'Ti3 V2 Sb1 P6 O24'
_cell_volume   472.13734469
_cell_formula_units_Z   1
loop_
 _symmetry_equiv_pos_site_id
 _symmetry_equiv_pos_as_xyz
  1  'x, y, z'
loop_
 _atom_site_type_symbol
 _atom_site_label
 _atom_site_symmetry_multiplicity
 _atom_site_fract_x
 _atom_site_fract_y
 _atom_site_fract_z
 _atom_site_occupancy
  Ti  Ti0  1  0.06024779  0.64658374  0.64658374  1
  Ti  Ti1  1  0.43412655  0.85529115  0.85529115  1
  Ti  Ti2  1  0.93542349  0.35485850  0.35485850  1
  V  V3  1  0.00536238  0.99821221  0.99821221  1
  V  V4  1  0.49515762  0.50161446  0.50161446  1
  Sb  Sb5  1  0.55807485  0.14730872  0.14730872  1
  P  P6  1  0.24355025  0.25175581  0.55680986  1
  P  P7  1  0.24355025  0.94788407  0.25175581  1
  P  P8  1  0.24355025  0.55680986  0.94788407  1
  P  P9  1  0.75350714  0.46268986  0.04399140  1
  P  P10  1  0.75350714  0.04399140  0.73981160  1
  P  P11  1  0.75350714  0.73981160  0.46268986  1
  O  O12  1  0.07442830  0.11593265  0.30933226  1
  O  O13  1  0.07442830  0.50030679  0.11593265  1
  O  O14  1  0.07442830  0.30933226  0.50030679  1
  O  O15  1  0.22387649  0.09134206  0.74811884  1
  O  O16  1  0.43389915  0.18886626  0.41129799  1
  O  O17  1  0.25339531  0.41340540  0.57688364  1
  O  O18  1  0.22387649  0.93666361  0.09134206  1
  O  O19  1  0.25339531  0.75631565  0.41340540  1
  O  O20  1  0.57128214  0.61497310  0.00119444  1
  O  O21  1  0.25339531  0.57688364  0.75631565  1
  O  O22  1  0.79337938  0.26831066  0.04775793  1
  O  O23  1  0.57128214  0.00119444  0.81255032  1
  O  O24  1  0.43389915  0.96593660  0.18886626  1
  O  O25  1  0.22387649  0.74811884  0.93666361  1
  O  O26  1  0.73070274  0.44876707  0.23843048  1
  O  O27  1  0.43389915  0.41129799  0.96593660  1
  O  O28  1  0.73070274  0.23843048  0.58209971  1
  O  O29  1  0.79337938  0.04775793  0.89055203  1
  O  O30  1  0.73070274  0.58209971  0.44876707  1
  O  O31  1  0.57128214  0.81255032  0.61497310  1
  O  O32  1  0.79337938  0.89055203  0.26831066  1
  O  O33  1  0.92584887  0.66330354  0.52116412  1
  O  O34  1  0.92584887  0.52116412  0.88968347  1
  O  O35  1  0.92584887  0.88968347  0.66330354  1
