# generated using pymatgen
data_La2Nb2N2O5
_symmetry_space_group_name_H-M   'P 1'
_cell_length_a   8.05266305
_cell_length_b   13.74421779
_cell_length_c   5.71461481
_cell_angle_alpha   91.17967935
_cell_angle_beta   89.98901213
_cell_angle_gamma   98.38065761
_symmetry_Int_Tables_number   1
_chemical_formula_structural   La2Nb2N2O5
_chemical_formula_sum   'La8 Nb8 N8 O20'
_cell_volume   625.59057195
_cell_formula_units_Z   4
loop_
 _symmetry_equiv_pos_site_id
 _symmetry_equiv_pos_as_xyz
  1  'x, y, z'
loop_
 _atom_site_type_symbol
 _atom_site_label
 _atom_site_symmetry_multiplicity
 _atom_site_fract_x
 _atom_site_fract_y
 _atom_site_fract_z
 _atom_site_occupancy
  La  La0  1  0.13363954  0.56763103  0.33923950  1
  La  La1  1  0.21459392  0.90964807  0.76522609  1
  La  La2  1  0.27530008  0.12226860  0.25304584  1
  La  La3  1  0.33856417  0.38143696  0.77284433  1
  La  La4  1  0.67386155  0.61628395  0.28686227  1
  La  La5  1  0.72941296  0.88055458  0.75180946  1
  La  La6  1  0.77962590  0.09309642  0.26502864  1
  La  La7  1  0.86234048  0.43233436  0.82986926  1
  Nb  Nb8  1  0.05835366  0.31210446  0.26319006  1
  Nb  Nb9  1  0.01736420  0.10907063  0.73957595  1
  Nb  Nb10  1  0.41487550  0.67345891  0.79385199  1
  Nb  Nb11  1  0.47072142  0.88244213  0.26467314  1
  Nb  Nb12  1  0.53516586  0.11828940  0.76630317  1
  Nb  Nb13  1  0.58755172  0.32645312  0.28423824  1
  Nb  Nb14  1  0.96340117  0.87523236  0.26431016  1
  Nb  Nb15  1  0.92801539  0.67635380  0.78640092  1
  N  N16  1  0.02992975  0.19011751  0.45645659  1
  N  N17  1  0.87269324  0.77269508  0.45506987  1
  N  N18  1  0.96110945  0.98634292  0.53948859  1
  N  N19  1  0.87328115  0.56923678  0.55754911  1
  N  N20  1  0.77127030  0.10875883  0.82088005  1
  N  N21  1  0.82293451  0.30378700  0.19278063  1
  N  N22  1  0.97456579  0.82178783  0.94091083  1
  N  N23  1  0.91624208  0.59006100  0.04592213  1
  O  O24  1  0.09187393  0.40933746  0.54058690  1
  O  O25  1  0.18250732  0.69609173  0.68802495  1
  O  O26  1  0.22923522  0.88974240  0.32131437  1
  O  O27  1  0.13613648  0.42999524  0.05315822  1
  O  O28  1  0.05111002  0.02570293  0.03950800  1
  O  O29  1  0.12600626  0.23037854  0.97277213  1
  O  O30  1  0.37457586  0.61419358  0.07869867  1
  O  O31  1  0.43121466  0.82076793  0.94357772  1
  O  O32  1  0.27761819  0.08639196  0.67365691  1
  O  O33  1  0.33716936  0.30448600  0.35249697  1
  O  O34  1  0.40918011  0.56080290  0.58685108  1
  O  O35  1  0.53580791  0.98072187  0.52385825  1
  O  O36  1  0.49915899  0.77461274  0.45393290  1
  O  O37  1  0.49731359  0.22805376  0.96298733  1
  O  O38  1  0.46137964  0.01941925  0.02967981  1
  O  O39  1  0.58700167  0.43663181  0.08056932  1
  O  O40  1  0.66327785  0.69505306  0.84700436  1
  O  O41  1  0.72156164  0.91237102  0.17413496  1
  O  O42  1  0.56501735  0.17843790  0.44498389  1
  O  O43  1  0.61803919  0.38736019  0.58165846  1
