# generated using pymatgen
data_Li9Sb3P8O29
_symmetry_space_group_name_H-M   'P 1'
_cell_length_a   10.20403019
_cell_length_b   10.20414985
_cell_length_c   14.14358892
_cell_angle_alpha   89.99940851
_cell_angle_beta   89.99969800
_cell_angle_gamma   60.00042363
_symmetry_Int_Tables_number   1
_chemical_formula_structural   Li9Sb3P8O29
_chemical_formula_sum   'Li18 Sb6 P16 O58'
_cell_volume   1275.38314574
_cell_formula_units_Z   2
loop_
 _symmetry_equiv_pos_site_id
 _symmetry_equiv_pos_as_xyz
  1  'x, y, z'
loop_
 _atom_site_type_symbol
 _atom_site_label
 _atom_site_symmetry_multiplicity
 _atom_site_fract_x
 _atom_site_fract_y
 _atom_site_fract_z
 _atom_site_occupancy
  Li  Li0  1  0.99999511  0.00000066  0.50000000  1
  Li  Li1  1  0.00000004  0.99999957  0.00000121  1
  Li  Li2  1  0.10264609  0.22653531  0.56192782  1
  Li  Li3  1  0.22654411  0.10264607  0.06192830  1
  Li  Li4  1  0.10264475  0.67080956  0.06192499  1
  Li  Li5  1  0.33332810  0.33331934  0.37988182  1
  Li  Li6  1  0.33335378  0.33332364  0.87988126  1
  Li  Li7  1  0.22654866  0.67080844  0.56192450  1
  Li  Li8  1  0.67081083  0.10264625  0.56192380  1
  Li  Li9  1  0.32918891  0.77345775  0.93807539  1
  Li  Li10  1  0.67081183  0.22654408  0.06192644  1
  Li  Li11  1  0.32918633  0.89735540  0.43807534  1
  Li  Li12  1  0.77345304  0.32918795  0.43807337  1
  Li  Li13  1  0.66668096  0.66667718  0.62011689  1
  Li  Li14  1  0.66668061  0.66667591  0.12011860  1
  Li  Li15  1  0.89735911  0.32919078  0.93807466  1
  Li  Li16  1  0.77345832  0.89735529  0.93807149  1
  Li  Li17  1  0.89735039  0.77345992  0.43807261  1
  Sb  Sb18  1  0.00000268  0.43127839  0.74999898  1
  Sb  Sb19  1  0.00000078  0.56872390  0.25000220  1
  Sb  Sb20  1  0.43127844  0.00000271  0.24999929  1
  Sb  Sb21  1  0.56871957  0.00000290  0.74999915  1
  Sb  Sb22  1  0.43128476  0.56871580  0.75000187  1
  Sb  Sb23  1  0.56871956  0.43127834  0.24999815  1
  P  P24  1  0.08724288  0.22037325  0.34684230  1
  P  P25  1  0.22038158  0.08723749  0.84684274  1
  P  P26  1  0.08724355  0.69238433  0.84684560  1
  P  P27  1  0.33332822  0.33333027  0.11293301  1
  P  P28  1  0.33334132  0.33334465  0.61293047  1
  P  P29  1  0.22037688  0.69238293  0.34684128  1
  P  P30  1  0.30761514  0.77962552  0.15315811  1
  P  P31  1  0.69238887  0.08724069  0.34683629  1
  P  P32  1  0.30762674  0.91274963  0.65316168  1
  P  P33  1  0.69238861  0.22037187  0.84684066  1
  P  P34  1  0.77962176  0.30761921  0.65315816  1
  P  P35  1  0.66668037  0.66666147  0.88706940  1
  P  P36  1  0.66666366  0.66667364  0.38706532  1
  P  P37  1  0.91275728  0.30762278  0.15316001  1
  P  P38  1  0.77963361  0.91275830  0.15315690  1
  P  P39  1  0.91276351  0.77962482  0.65315958  1
  O  O40  1  0.99999727  0.22269964  0.25000205  1
  O  O41  1  0.00769091  0.21757813  0.06849663  1
  O  O42  1  0.06562392  0.23600080  0.84677686  1
  O  O43  1  0.22270313  0.99998959  0.75000386  1
  O  O44  1  0.21758112  0.00768255  0.56849773  1
  O  O45  1  0.23600103  0.06561892  0.34677992  1
  O  O46  1  0.12483212  0.34835808  0.34400754  1
  O  O47  1  0.20373978  0.30599063  0.65079091  1
  O  O48  1  0.12482451  0.52681059  0.84401178  1
  O  O49  1  0.00769932  0.77473230  0.56849745  1
  O  O50  1  0.00000097  0.77730893  0.75000249  1
  O  O51  1  0.06561926  0.69837977  0.34678025  1
  O  O52  1  0.30597802  0.20373438  0.15080586  1
  O  O53  1  0.34837049  0.12482258  0.84400356  1
  O  O54  1  0.20372842  0.49028031  0.15079151  1
  O  O55  1  0.33333424  0.33330598  0.00638039  1
  O  O56  1  0.33335308  0.33335672  0.50638032  1
  O  O57  1  0.30598532  0.49029310  0.65080469  1
  O  O58  1  0.52681571  0.12481981  0.34400417  1
  O  O59  1  0.49028769  0.20374453  0.65079728  1
  O  O60  1  0.23600606  0.69837622  0.84677939  1
  O  O61  1  0.22268726  0.77731181  0.25000045  1
  O  O62  1  0.21756761  0.77473952  0.06849535  1
  O  O63  1  0.22526908  0.78242471  0.43150639  1
  O  O64  1  0.34836767  0.52681514  0.34400702  1
  O  O65  1  0.49027661  0.30598776  0.15080091  1
  O  O66  1  0.30162894  0.76399192  0.65322452  1
  O  O67  1  0.52681410  0.34836123  0.84400489  1
  O  O68  1  0.69838155  0.06562130  0.84677955  1
  O  O69  1  0.22527118  0.99231162  0.93150748  1
  O  O70  1  0.77474608  0.00768403  0.06849049  1
  O  O71  1  0.77732041  0.00000414  0.24999533  1
  O  O72  1  0.30162745  0.93437605  0.15321969  1
  O  O73  1  0.47318561  0.65163077  0.15598979  1
  O  O74  1  0.69837742  0.23600290  0.34677437  1
  O  O75  1  0.50972715  0.69400882  0.84921097  1
  O  O76  1  0.65163208  0.47319025  0.65599350  1
  O  O77  1  0.77473486  0.21757586  0.56849651  1
  O  O78  1  0.78243060  0.22526763  0.93150445  1
  O  O79  1  0.77730896  0.22269473  0.74999960  1
  O  O80  1  0.76399753  0.30162564  0.15322108  1
  O  O81  1  0.50971134  0.79626943  0.34919965  1
  O  O82  1  0.47319756  0.87517397  0.65599509  1
  O  O83  1  0.69401201  0.50972307  0.34920624  1
  O  O84  1  0.66669942  0.66665796  0.99361991  1
  O  O85  1  0.66667821  0.66668420  0.49361678  1
  O  O86  1  0.79627528  0.50970999  0.84919807  1
  O  O87  1  0.65163591  0.87518444  0.15599877  1
  O  O88  1  0.69402602  0.79626036  0.84919722  1
  O  O89  1  0.93437932  0.30162524  0.65322181  1
  O  O90  1  0.99230892  0.22526053  0.43150711  1
  O  O91  1  0.87517842  0.47319210  0.15599405  1
  O  O92  1  0.79625779  0.69402834  0.34918951  1
  O  O93  1  0.87518256  0.65163050  0.65599175  1
  O  O94  1  0.76400137  0.93437403  0.65321944  1
  O  O95  1  0.78243521  0.99230630  0.43149921  1
  O  O96  1  0.93438305  0.76399201  0.15321984  1
  O  O97  1  0.99231240  0.78242412  0.93150693  1
