# generated using pymatgen
data_Li5SbS4
_symmetry_space_group_name_H-M   'P 1'
_cell_length_a   11.29122201
_cell_length_b   11.78558761
_cell_length_c   11.92077397
_cell_angle_alpha   90.00000000
_cell_angle_beta   90.00000000
_cell_angle_gamma   90.00000000
_symmetry_Int_Tables_number   1
_chemical_formula_structural   Li5SbS4
_chemical_formula_sum   'Li40 Sb8 S32'
_cell_volume   1586.34133482
_cell_formula_units_Z   8
loop_
 _symmetry_equiv_pos_site_id
 _symmetry_equiv_pos_as_xyz
  1  'x, y, z'
loop_
 _atom_site_type_symbol
 _atom_site_label
 _atom_site_symmetry_multiplicity
 _atom_site_fract_x
 _atom_site_fract_y
 _atom_site_fract_z
 _atom_site_occupancy
  Li  Li0  1  0.12179578  0.59663078  0.14693371  1
  Li  Li1  1  0.12179578  0.90336922  0.64693371  1
  Li  Li2  1  0.11213946  0.13262288  0.85120002  1
  Li  Li3  1  0.11213946  0.36737712  0.35120002  1
  Li  Li4  1  0.13354678  0.84575728  0.40689062  1
  Li  Li5  1  0.13354678  0.65424272  0.90689062  1
  Li  Li6  1  0.14235487  0.86137950  0.13276728  1
  Li  Li7  1  0.14235487  0.63862050  0.63276728  1
  Li  Li8  1  0.14907176  0.10374538  0.40040898  1
  Li  Li9  1  0.14907176  0.39625462  0.90040898  1
  Li  Li10  1  0.35092824  0.89625462  0.90040898  1
  Li  Li11  1  0.35092824  0.60374538  0.40040898  1
  Li  Li12  1  0.35764513  0.13862050  0.63276728  1
  Li  Li13  1  0.35764513  0.36137950  0.13276728  1
  Li  Li14  1  0.36645322  0.34575728  0.40689062  1
  Li  Li15  1  0.36645322  0.15424272  0.90689062  1
  Li  Li16  1  0.38786054  0.63262288  0.85120002  1
  Li  Li17  1  0.38786054  0.86737712  0.35120002  1
  Li  Li18  1  0.37820422  0.40336922  0.64693371  1
  Li  Li19  1  0.37820422  0.09663078  0.14693371  1
  Li  Li20  1  0.62179578  0.59663078  0.35306629  1
  Li  Li21  1  0.62179578  0.90336922  0.85306629  1
  Li  Li22  1  0.61213946  0.13262288  0.64879998  1
  Li  Li23  1  0.61213946  0.36737712  0.14879998  1
  Li  Li24  1  0.63354678  0.65424272  0.59310938  1
  Li  Li25  1  0.63354678  0.84575728  0.09310938  1
  Li  Li26  1  0.64235487  0.63862050  0.86723272  1
  Li  Li27  1  0.64235487  0.86137950  0.36723272  1
  Li  Li28  1  0.64907176  0.10374538  0.09959102  1
  Li  Li29  1  0.64907176  0.39625462  0.59959102  1
  Li  Li30  1  0.85092824  0.60374538  0.09959102  1
  Li  Li31  1  0.85092824  0.89625462  0.59959102  1
  Li  Li32  1  0.85764513  0.36137950  0.36723272  1
  Li  Li33  1  0.85764513  0.13862050  0.86723272  1
  Li  Li34  1  0.86645322  0.15424272  0.59310938  1
  Li  Li35  1  0.86645322  0.34575728  0.09310938  1
  Li  Li36  1  0.88786054  0.63262288  0.64879998  1
  Li  Li37  1  0.88786054  0.86737712  0.14879998  1
  Li  Li38  1  0.87820422  0.09663078  0.35306629  1
  Li  Li39  1  0.87820422  0.40336922  0.85306629  1
  Sb  Sb40  1  0.08298892  0.14540089  0.14506630  1
  Sb  Sb41  1  0.08298892  0.35459911  0.64506630  1
  Sb  Sb42  1  0.41701108  0.64540089  0.14506630  1
  Sb  Sb43  1  0.41701108  0.85459911  0.64506630  1
  Sb  Sb44  1  0.58298892  0.14540089  0.35493370  1
  Sb  Sb45  1  0.58298892  0.35459911  0.85493370  1
  Sb  Sb46  1  0.91701108  0.64540089  0.35493370  1
  Sb  Sb47  1  0.91701108  0.85459911  0.85493370  1
  S  S48  1  0.99686479  0.23280029  0.45730213  1
  S  S49  1  0.99686479  0.26719971  0.95730213  1
  S  S50  1  0.02946393  0.97018199  0.27401592  1
  S  S51  1  0.02946393  0.52981801  0.77401592  1
  S  S52  1  0.21496978  0.03198027  0.01525011  1
  S  S53  1  0.21496978  0.46801973  0.51525011  1
  S  S54  1  0.25414714  0.22668590  0.26092389  1
  S  S55  1  0.25414714  0.27331410  0.76092389  1
  S  S56  1  0.24585286  0.72668590  0.26092389  1
  S  S57  1  0.24585286  0.77331410  0.76092389  1
  S  S58  1  0.28503022  0.53198027  0.01525011  1
  S  S59  1  0.28503022  0.96801973  0.51525011  1
  S  S60  1  0.47053607  0.47018199  0.27401592  1
  S  S61  1  0.47053607  0.02981801  0.77401592  1
  S  S62  1  0.50313521  0.73280029  0.45730213  1
  S  S63  1  0.50313521  0.76719971  0.95730213  1
  S  S64  1  0.49686479  0.23280029  0.04269787  1
  S  S65  1  0.49686479  0.26719971  0.54269787  1
  S  S66  1  0.52946393  0.97018199  0.22598408  1
  S  S67  1  0.52946393  0.52981801  0.72598408  1
  S  S68  1  0.71496978  0.46801973  0.98474989  1
  S  S69  1  0.71496978  0.03198027  0.48474989  1
  S  S70  1  0.75414714  0.22668590  0.23907611  1
  S  S71  1  0.75414714  0.27331410  0.73907611  1
  S  S72  1  0.74585286  0.72668590  0.23907611  1
  S  S73  1  0.74585286  0.77331410  0.73907611  1
  S  S74  1  0.78503022  0.96801973  0.98474989  1
  S  S75  1  0.78503022  0.53198027  0.48474989  1
  S  S76  1  0.97053607  0.02981801  0.72598408  1
  S  S77  1  0.97053607  0.47018199  0.22598408  1
  S  S78  1  0.00313521  0.73280029  0.04269787  1
  S  S79  1  0.00313521  0.76719971  0.54269787  1
