# generated using pymatgen
data_HgPO4
_symmetry_space_group_name_H-M   'P 1'
_cell_length_a   6.44550032
_cell_length_b   7.28638413
_cell_length_c   7.38362345
_cell_angle_alpha   80.79344152
_cell_angle_beta   81.79898727
_cell_angle_gamma   84.34177149
_symmetry_Int_Tables_number   1
_chemical_formula_structural   HgPO4
_chemical_formula_sum   'Hg4 P4 O16'
_cell_volume   337.77944324
_cell_formula_units_Z   4
loop_
 _symmetry_equiv_pos_site_id
 _symmetry_equiv_pos_as_xyz
  1  'x, y, z'
loop_
 _atom_site_type_symbol
 _atom_site_label
 _atom_site_symmetry_multiplicity
 _atom_site_fract_x
 _atom_site_fract_y
 _atom_site_fract_z
 _atom_site_occupancy
  Hg  Hg0  1  0.12234713  0.28546273  0.19197312  1
  Hg  Hg1  1  0.87765287  0.71453727  0.80802688  1
  Hg  Hg2  1  0.44891252  0.82568202  0.23642097  1
  Hg  Hg3  1  0.55108748  0.17431798  0.76357903  1
  P  P4  1  0.61053046  0.30866550  0.25621388  1
  P  P5  1  0.38946954  0.69133450  0.74378612  1
  P  P6  1  0.94534466  0.78442817  0.29611065  1
  P  P7  1  0.05465534  0.21557183  0.70388935  1
  O  O8  1  0.46207145  0.21650606  0.14928581  1
  O  O9  1  0.53792855  0.78349394  0.85071419  1
  O  O10  1  0.81143231  0.34408001  0.11451131  1
  O  O11  1  0.18856769  0.65591999  0.88548869  1
  O  O12  1  0.49727077  0.48970466  0.31647755  1
  O  O13  1  0.50272923  0.51029534  0.68352245  1
  O  O14  1  0.66403925  0.18245710  0.43370728  1
  O  O15  1  0.33596075  0.81754290  0.56629272  1
  O  O16  1  0.12510086  0.91459242  0.20787358  1
  O  O17  1  0.87489914  0.08540758  0.79212642  1
  O  O18  1  0.78218641  0.81937987  0.15296205  1
  O  O19  1  0.21781359  0.18062013  0.84703795  1
  O  O20  1  0.03621448  0.57989636  0.32731384  1
  O  O21  1  0.96378552  0.42010364  0.67268616  1
  O  O22  1  0.83824576  0.83101110  0.48394686  1
  O  O23  1  0.16175424  0.16898890  0.51605314  1
