# generated using pymatgen
data_AgRuO3
_symmetry_space_group_name_H-M   'P 1'
_cell_length_a   7.21461646
_cell_length_b   7.21461646
_cell_length_c   7.21461646
_cell_angle_alpha   60.00000000
_cell_angle_beta   90.00000000
_cell_angle_gamma   120.00000000
_symmetry_Int_Tables_number   1
_chemical_formula_structural   AgRuO3
_chemical_formula_sum   'Ag4 Ru4 O12'
_cell_volume   265.53681782
_cell_formula_units_Z   4
loop_
 _symmetry_equiv_pos_site_id
 _symmetry_equiv_pos_as_xyz
  1  'x, y, z'
loop_
 _atom_site_type_symbol
 _atom_site_label
 _atom_site_symmetry_multiplicity
 _atom_site_fract_x
 _atom_site_fract_y
 _atom_site_fract_z
 _atom_site_occupancy
  Ag  Ag0  1  0.50000000  0.50000000  0.00000000  1
  Ag  Ag1  1  0.00000000  0.00000000  0.00000000  1
  Ag  Ag2  1  0.00000000  0.50000000  0.00000000  1
  Ag  Ag3  1  0.00000000  0.00000000  0.50000000  1
  Ru  Ru4  1  0.50000000  0.00000000  0.00000000  1
  Ru  Ru5  1  0.50000000  0.00000000  0.50000000  1
  Ru  Ru6  1  0.50000000  0.50000000  0.50000000  1
  Ru  Ru7  1  0.00000000  0.50000000  0.50000000  1
  O  O8  1  0.82169977  0.25000000  0.42830023  1
  O  O9  1  0.57169977  0.14339954  0.17830023  1
  O  O10  1  0.57169977  0.75000000  0.17830023  1
  O  O11  1  0.82169977  0.25000000  0.82169977  1
  O  O12  1  0.82169977  0.64339954  0.42830023  1
  O  O13  1  0.42830023  0.25000000  0.42830023  1
  O  O14  1  0.57169977  0.75000000  0.57169977  1
  O  O15  1  0.17830023  0.75000000  0.17830023  1
  O  O16  1  0.17830023  0.35660046  0.57169977  1
  O  O17  1  0.42830023  0.25000000  0.82169977  1
  O  O18  1  0.42830023  0.85660046  0.82169977  1
  O  O19  1  0.17830023  0.75000000  0.57169977  1
