# generated using pymatgen
data_LiVCrO4
_symmetry_space_group_name_H-M   'P 1'
_cell_length_a   5.26708844
_cell_length_b   5.91647612
_cell_length_c   7.87671565
_cell_angle_alpha   80.04629399
_cell_angle_beta   69.47785196
_cell_angle_gamma   88.22225083
_symmetry_Int_Tables_number   1
_chemical_formula_structural   LiVCrO4
_chemical_formula_sum   'Li3 V3 Cr3 O12'
_cell_volume   226.30470462
_cell_formula_units_Z   3
loop_
 _symmetry_equiv_pos_site_id
 _symmetry_equiv_pos_as_xyz
  1  'x, y, z'
loop_
 _atom_site_type_symbol
 _atom_site_label
 _atom_site_symmetry_multiplicity
 _atom_site_fract_x
 _atom_site_fract_y
 _atom_site_fract_z
 _atom_site_occupancy
  Li  Li0  1  0.00089249  0.99704004  0.99833280  1
  Li  Li1  1  0.99701896  0.66286188  0.33242969  1
  Li  Li2  1  0.99827312  0.33995213  0.67083219  1
  V  V3  1  0.47373300  0.25793566  0.00893541  1
  V  V4  1  0.46957490  0.91957466  0.33874271  1
  V  V5  1  0.53158206  0.07655173  0.65974948  1
  Cr  Cr6  1  0.52066326  0.75286327  0.99409034  1
  Cr  Cr7  1  0.52325033  0.41676845  0.32800522  1
  Cr  Cr8  1  0.48142027  0.58150877  0.67242297  1
  O  O9  1  0.27700596  0.95896249  0.16178334  1
  O  O10  1  0.30023510  0.46721608  0.15710391  1
  O  O11  1  0.28203457  0.62750061  0.48735488  1
  O  O12  1  0.30588496  0.13376561  0.49233070  1
  O  O13  1  0.30480629  0.81422819  0.83087247  1
  O  O14  1  0.28584537  0.27845238  0.82074979  1
  O  O15  1  0.71591728  0.71915667  0.18366408  1
  O  O16  1  0.69776761  0.18424584  0.16594627  1
  O  O17  1  0.69974439  0.86728464  0.50771235  1
  O  O18  1  0.71974047  0.37300733  0.50857095  1
  O  O19  1  0.69792031  0.51885263  0.83783308  1
  O  O20  1  0.71668828  0.05227093  0.84253537  1
