# generated using pymatgen
data_Li2Ti3NbO8
_symmetry_space_group_name_H-M   'P 1'
_cell_length_a   8.55784020
_cell_length_b   8.55851404
_cell_length_c   8.55919795
_cell_angle_alpha   90.05361016
_cell_angle_beta   89.94272399
_cell_angle_gamma   90.00199565
_symmetry_Int_Tables_number   1
_chemical_formula_structural   Li2Ti3NbO8
_chemical_formula_sum   'Li8 Ti12 Nb4 O32'
_cell_volume   626.89557299
_cell_formula_units_Z   4
loop_
 _symmetry_equiv_pos_site_id
 _symmetry_equiv_pos_as_xyz
  1  'x, y, z'
loop_
 _atom_site_type_symbol
 _atom_site_label
 _atom_site_symmetry_multiplicity
 _atom_site_fract_x
 _atom_site_fract_y
 _atom_site_fract_z
 _atom_site_occupancy
  Li  Li0  1  0.99679561  0.99703643  0.99680536  1
  Li  Li1  1  0.25320949  0.25300096  0.25312258  1
  Li  Li2  1  0.24687492  0.74664288  0.75321139  1
  Li  Li3  1  0.50281501  0.00333404  0.49680440  1
  Li  Li4  1  0.49666875  0.50306415  0.00278267  1
  Li  Li5  1  0.75338930  0.24708817  0.74705520  1
  Li  Li6  1  0.74709552  0.75320835  0.24678238  1
  Li  Li7  1  0.00319538  0.49676037  0.50345600  1
  Ti  Ti8  1  0.12322259  0.12648733  0.62494113  1
  Ti  Ti9  1  0.12498608  0.37669700  0.87339710  1
  Ti  Ti10  1  0.12682622  0.62492808  0.12349047  1
  Ti  Ti11  1  0.37340196  0.37496409  0.62310755  1
  Ti  Ti12  1  0.37518016  0.62326326  0.37322456  1
  Ti  Ti13  1  0.37660373  0.87326338  0.12491748  1
  Ti  Ti14  1  0.62343658  0.37342586  0.37492926  1
  Ti  Ti15  1  0.62479775  0.12338167  0.12683967  1
  Ti  Ti16  1  0.62670694  0.87514955  0.87675697  1
  Ti  Ti17  1  0.87319237  0.12505764  0.37681951  1
  Ti  Ti18  1  0.87495003  0.87664573  0.62661176  1
  Ti  Ti19  1  0.87675356  0.62686098  0.87512939  1
  Nb  Nb20  1  0.12501837  0.87481570  0.37492648  1
  Nb  Nb21  1  0.37487559  0.12490624  0.87486596  1
  Nb  Nb22  1  0.62519080  0.62507449  0.62470228  1
  Nb  Nb23  1  0.87487870  0.37521721  0.12533157  1
  O  O24  1  0.10907892  0.11933369  0.38775560  1
  O  O25  1  0.11222386  0.89074893  0.61947680  1
  O  O26  1  0.11199093  0.61197010  0.88818704  1
  O  O27  1  0.13042044  0.14075784  0.86214592  1
  O  O28  1  0.11935854  0.38764784  0.10925413  1
  O  O29  1  0.13810705  0.36180456  0.63817794  1
  O  O30  1  0.13787025  0.63032065  0.35930013  1
  O  O31  1  0.14084928  0.86211448  0.13038622  1
  O  O32  1  0.35920818  0.13765672  0.63044406  1
  O  O33  1  0.36222389  0.36944193  0.85902330  1
  O  O34  1  0.36213499  0.63790518  0.13798018  1
  O  O35  1  0.38060592  0.61226913  0.60905949  1
  O  O36  1  0.36951964  0.85914966  0.36218128  1
  O  O37  1  0.38805856  0.38797137  0.38789212  1
  O  O38  1  0.38755177  0.10913951  0.11941960  1
  O  O39  1  0.39077518  0.88040738  0.88766999  1
  O  O40  1  0.60924072  0.38063875  0.61222360  1
  O  O41  1  0.61246673  0.60928945  0.38029961  1
  O  O42  1  0.61199596  0.88804104  0.11187038  1
  O  O43  1  0.63040707  0.35920710  0.13767168  1
  O  O44  1  0.61940320  0.11234270  0.89096704  1
  O  O45  1  0.63790031  0.13805159  0.36201921  1
  O  O46  1  0.63769866  0.86951408  0.64086867  1
  O  O47  1  0.64083192  0.63792470  0.86913179  1
  O  O48  1  0.85926462  0.36233773  0.36986283  1
  O  O49  1  0.86213596  0.13069543  0.14091478  1
  O  O50  1  0.86195430  0.86212289  0.86196060  1
  O  O51  1  0.88050326  0.88773951  0.39079429  1
  O  O52  1  0.86969014  0.64077007  0.63782863  1
  O  O53  1  0.88789943  0.11198019  0.61206888  1
  O  O54  1  0.88773192  0.39094994  0.88083264  1
  O  O55  1  0.89082898  0.61962131  0.11246148  1
