# generated using pymatgen
data_Ti2N2O
_symmetry_space_group_name_H-M   'P 1'
_cell_length_a   8.22031146
_cell_length_b   8.21931590
_cell_length_c   8.23365750
_cell_angle_alpha   109.58688616
_cell_angle_beta   109.45160443
_cell_angle_gamma   109.41727311
_symmetry_Int_Tables_number   1
_chemical_formula_structural   Ti2N2O
_chemical_formula_sum   'Ti16 N16 O8'
_cell_volume   428.02407015
_cell_formula_units_Z   8
loop_
 _symmetry_equiv_pos_site_id
 _symmetry_equiv_pos_as_xyz
  1  'x, y, z'
loop_
 _atom_site_type_symbol
 _atom_site_label
 _atom_site_symmetry_multiplicity
 _atom_site_fract_x
 _atom_site_fract_y
 _atom_site_fract_z
 _atom_site_occupancy
  Ti  Ti0  1  0.95901899  0.25083542  0.20655596  1
  Ti  Ti1  1  0.51004641  0.00805783  0.99796165  1
  Ti  Ti2  1  0.79725821  0.04417787  0.76205277  1
  Ti  Ti3  1  0.70198273  0.45478098  0.23743786  1
  Ti  Ti4  1  0.74570619  0.29245736  0.53063671  1
  Ti  Ti5  1  0.75208501  0.78624061  0.04296443  1
  Ti  Ti6  1  0.00851433  0.51117839  0.99387270  1
  Ti  Ti7  1  0.49019557  0.49594874  0.51118578  1
  Ti  Ti8  1  0.45226256  0.25003265  0.70936053  1
  Ti  Ti9  1  0.00896423  0.99699577  0.50730168  1
  Ti  Ti10  1  0.54419666  0.75086369  0.30189609  1
  Ti  Ti11  1  0.26042487  0.71052467  0.46488369  1
  Ti  Ti12  1  0.23705759  0.20513641  0.94674531  1
  Ti  Ti13  1  0.28675029  0.54350536  0.74525256  1
  Ti  Ti14  1  0.21674871  0.95455018  0.25892266  1
  Ti  Ti15  1  0.04547156  0.75192193  0.79237638  1
  N  N16  1  0.73452882  0.22608263  0.27585344  1
  N  N17  1  0.46151342  0.22394725  0.44839753  1
  N  N18  1  0.77187476  0.72423724  0.26277244  1
  N  N19  1  0.05156265  0.27555189  0.01240059  1
  N  N20  1  0.27715294  0.73361381  0.22279536  1
  N  N21  1  0.22341266  0.44758695  0.45861673  1
  N  N22  1  0.98823846  0.94782397  0.72211327  1
  N  N23  1  0.51313013  0.23777571  0.96204428  1
  N  N24  1  0.54879893  0.54222887  0.77548969  1
  N  N25  1  0.95281845  0.72719793  0.99437774  1
  N  N26  1  0.53858452  0.77274641  0.54697339  1
  N  N27  1  0.22232293  0.27318394  0.73458163  1
  N  N28  1  0.03531639  0.48789449  0.76198416  1
  N  N29  1  0.72357468  0.98913082  0.94930886  1
  N  N30  1  0.23068949  0.95863889  0.50695586  1
  N  N31  1  0.26580380  0.77638016  0.72741646  1
  O  O32  1  0.76131177  0.04011288  0.49088563  1
  O  O33  1  0.27204484  0.00868865  0.04682183  1
  O  O34  1  0.95724662  0.50659778  0.23288596  1
  O  O35  1  0.45472986  0.46179571  0.22692997  1
  O  O36  1  0.72502134  0.26165925  0.77304067  1
  O  O37  1  0.00786617  0.05173776  0.27559793  1
  O  O38  1  0.77464297  0.55006813  0.53906362  1
  O  O39  1  0.49112947  0.76811401  0.04328717  1
