# generated using pymatgen
data_Li2Fe3F8
_symmetry_space_group_name_H-M   'P 1'
_cell_length_a   6.79365626
_cell_length_b   9.40465196
_cell_length_c   11.29224249
_cell_angle_alpha   90.00000000
_cell_angle_beta   91.52931664
_cell_angle_gamma   90.00000000
_symmetry_Int_Tables_number   1
_chemical_formula_structural   Li2Fe3F8
_chemical_formula_sum   'Li8 Fe12 F32'
_cell_volume   721.22665580
_cell_formula_units_Z   4
loop_
 _symmetry_equiv_pos_site_id
 _symmetry_equiv_pos_as_xyz
  1  'x, y, z'
loop_
 _atom_site_type_symbol
 _atom_site_label
 _atom_site_symmetry_multiplicity
 _atom_site_fract_x
 _atom_site_fract_y
 _atom_site_fract_z
 _atom_site_occupancy
  Li  Li0  1  0.09656693  0.94747213  0.85428216  1
  Li  Li1  1  0.09656693  0.55252787  0.35428216  1
  Li  Li2  1  0.40739685  0.39419713  0.86272919  1
  Li  Li3  1  0.40739685  0.10580287  0.36272919  1
  Li  Li4  1  0.59260315  0.89419713  0.63727081  1
  Li  Li5  1  0.59260315  0.60580287  0.13727081  1
  Li  Li6  1  0.90343307  0.44747213  0.64571784  1
  Li  Li7  1  0.90343307  0.05252787  0.14571784  1
  Fe  Fe8  1  0.09745863  0.80902200  0.56132042  1
  Fe  Fe9  1  0.09745863  0.69097800  0.06132042  1
  Fe  Fe10  1  0.24831957  0.15869774  0.64275913  1
  Fe  Fe11  1  0.24831957  0.34130226  0.14275913  1
  Fe  Fe12  1  0.39046223  0.54788042  0.62316371  1
  Fe  Fe13  1  0.39046223  0.95211958  0.12316371  1
  Fe  Fe14  1  0.60953777  0.04788042  0.87683629  1
  Fe  Fe15  1  0.60953777  0.45211958  0.37683629  1
  Fe  Fe16  1  0.75168043  0.65869774  0.85724087  1
  Fe  Fe17  1  0.75168043  0.84130226  0.35724087  1
  Fe  Fe18  1  0.90254137  0.30902200  0.93867958  1
  Fe  Fe19  1  0.90254137  0.19097800  0.43867958  1
  F  F20  1  0.03269798  0.75537146  0.89425451  1
  F  F21  1  0.03269798  0.74462854  0.39425451  1
  F  F22  1  0.09352307  0.59772449  0.62285074  1
  F  F23  1  0.09352307  0.90227551  0.12285074  1
  F  F24  1  0.13572555  0.96072226  0.68616206  1
  F  F25  1  0.13572555  0.53927774  0.18616206  1
  F  F26  1  0.19184588  0.39443291  0.96668296  1
  F  F27  1  0.19184588  0.10556709  0.46668296  1
  F  F28  1  0.33589921  0.00501503  0.93223821  1
  F  F29  1  0.31989508  0.34947663  0.70471213  1
  F  F30  1  0.33589921  0.49498497  0.43223821  1
  F  F31  1  0.31989508  0.15052337  0.20471213  1
  F  F32  1  0.39836673  0.76748456  0.57899940  1
  F  F33  1  0.39836673  0.73251544  0.07899940  1
  F  F34  1  0.48598580  0.57816403  0.80528274  1
  F  F35  1  0.48598580  0.92183597  0.30528274  1
  F  F36  1  0.51401420  0.07816403  0.69471726  1
  F  F37  1  0.51401420  0.42183597  0.19471726  1
  F  F38  1  0.60163327  0.26748456  0.92100060  1
  F  F39  1  0.60163327  0.23251544  0.42100060  1
  F  F40  1  0.68010492  0.84947663  0.79528787  1
  F  F41  1  0.66410079  0.50501503  0.56776179  1
  F  F42  1  0.68010492  0.65052337  0.29528787  1
  F  F43  1  0.66410079  0.99498497  0.06776179  1
  F  F44  1  0.80815412  0.89443291  0.53331704  1
  F  F45  1  0.80815412  0.60556709  0.03331704  1
  F  F46  1  0.86427445  0.46072226  0.81383794  1
  F  F47  1  0.86427445  0.03927774  0.31383794  1
  F  F48  1  0.90647693  0.09772449  0.87714926  1
  F  F49  1  0.90647693  0.40227551  0.37714926  1
  F  F50  1  0.96730202  0.25537146  0.60574549  1
  F  F51  1  0.96730202  0.24462854  0.10574549  1
