# generated using pymatgen
data_LaCO4
_symmetry_space_group_name_H-M   'P 1'
_cell_length_a   5.08179111
_cell_length_b   7.49028902
_cell_length_c   8.35707633
_cell_angle_alpha   90.00000000
_cell_angle_beta   90.00000000
_cell_angle_gamma   90.00000000
_symmetry_Int_Tables_number   1
_chemical_formula_structural   LaCO4
_chemical_formula_sum   'La4 C4 O16'
_cell_volume   318.10445670
_cell_formula_units_Z   4
loop_
 _symmetry_equiv_pos_site_id
 _symmetry_equiv_pos_as_xyz
  1  'x, y, z'
loop_
 _atom_site_type_symbol
 _atom_site_label
 _atom_site_symmetry_multiplicity
 _atom_site_fract_x
 _atom_site_fract_y
 _atom_site_fract_z
 _atom_site_occupancy
  La  La0  1  0.75000000  0.84640074  0.83141794  1
  La  La1  1  0.75000000  0.34640074  0.66858206  1
  La  La2  1  0.25000000  0.15359926  0.16858206  1
  La  La3  1  0.25000000  0.65359926  0.33141794  1
  C  C4  1  0.25000000  0.68915392  0.69125486  1
  C  C5  1  0.25000000  0.18915392  0.80874514  1
  C  C6  1  0.75000000  0.31084608  0.30874514  1
  C  C7  1  0.75000000  0.81084608  0.19125486  1
  O  O8  1  0.25000000  0.78425576  0.81892305  1
  O  O9  1  0.25000000  0.28425576  0.68107695  1
  O  O10  1  0.75000000  0.21574424  0.18107695  1
  O  O11  1  0.75000000  0.71574424  0.31892305  1
  O  O12  1  0.47127557  0.64531819  0.62344671  1
  O  O13  1  0.02872443  0.14531819  0.87655329  1
  O  O14  1  0.97127557  0.35468181  0.37655329  1
  O  O15  1  0.52872443  0.85468181  0.12344671  1
  O  O16  1  0.52872443  0.35468181  0.37655329  1
  O  O17  1  0.97127557  0.85468181  0.12344671  1
  O  O18  1  0.02872443  0.64531819  0.62344671  1
  O  O19  1  0.47127557  0.14531819  0.87655329  1
  O  O20  1  0.75000000  0.52973851  0.90815120  1
  O  O21  1  0.75000000  0.02973851  0.59184880  1
  O  O22  1  0.25000000  0.47026149  0.09184880  1
  O  O23  1  0.25000000  0.97026149  0.40815120  1
