# generated using pymatgen
data_LiFe2(BO3)2
_symmetry_space_group_name_H-M   'P 1'
_cell_length_a   5.28834040
_cell_length_b   9.05949857
_cell_length_c   10.22247597
_cell_angle_alpha   90.92094287
_cell_angle_beta   91.29015908
_cell_angle_gamma   89.58674239
_symmetry_Int_Tables_number   1
_chemical_formula_structural   LiFe2(BO3)2
_chemical_formula_sum   'Li4 Fe8 B8 O24'
_cell_volume   489.55697894
_cell_formula_units_Z   4
loop_
 _symmetry_equiv_pos_site_id
 _symmetry_equiv_pos_as_xyz
  1  'x, y, z'
loop_
 _atom_site_type_symbol
 _atom_site_label
 _atom_site_symmetry_multiplicity
 _atom_site_fract_x
 _atom_site_fract_y
 _atom_site_fract_z
 _atom_site_occupancy
  Li  Li0  1  0.34604629  0.01463620  0.83757377  1
  Li  Li1  1  0.65864100  0.00594521  0.09729041  1
  Li  Li2  1  0.14889063  0.49843610  0.60509094  1
  Li  Li3  1  0.34800201  0.98770738  0.33583988  1
  Fe  Fe4  1  0.15324328  0.16818779  0.11202999  1
  Fe  Fe5  1  0.84119292  0.17797153  0.36652627  1
  Fe  Fe6  1  0.33313018  0.34776982  0.87162950  1
  Fe  Fe7  1  0.65754754  0.32590810  0.62732723  1
  Fe  Fe8  1  0.33564832  0.64746212  0.36589618  1
  Fe  Fe9  1  0.15591860  0.83453785  0.61836157  1
  Fe  Fe10  1  0.66315832  0.66474026  0.12559250  1
  Fe  Fe11  1  0.84999995  0.83040985  0.87144361  1
  B  B12  1  0.16035025  0.17116619  0.62131303  1
  B  B13  1  0.32093610  0.32218309  0.38519152  1
  B  B14  1  0.83141123  0.15745539  0.87028197  1
  B  B15  1  0.65083692  0.33491905  0.12490479  1
  B  B16  1  0.34460124  0.67810228  0.86370020  1
  B  B17  1  0.66374783  0.66182519  0.61807830  1
  B  B18  1  0.17348439  0.82869157  0.12883428  1
  B  B19  1  0.83877213  0.84258546  0.36772113  1
  O  O20  1  0.26370752  0.03536144  0.64281009  1
  O  O21  1  0.08825882  0.16421961  0.90170052  1
  O  O22  1  0.69426441  0.03271664  0.89916005  1
  O  O23  1  0.20506740  0.19270977  0.33566325  1
  O  O24  1  0.29147822  0.30005679  0.65311517  1
  O  O25  1  0.77960057  0.20595750  0.17223012  1
  O  O26  1  0.91857846  0.18703968  0.56636470  1
  O  O27  1  0.41649684  0.31587137  0.06860396  1
  O  O28  1  0.19554473  0.45108643  0.40004733  1
  O  O29  1  0.57402582  0.30709056  0.42650566  1
  O  O30  1  0.70617848  0.27680151  0.81275653  1
  O  O31  1  0.23307534  0.54933431  0.83297761  1
  O  O32  1  0.76658629  0.46774929  0.13723554  1
  O  O33  1  0.30117734  0.70019430  0.16325812  1
  O  O34  1  0.40806429  0.67941316  0.58077921  1
  O  O35  1  0.77343102  0.52451671  0.61961382  1
  O  O36  1  0.57244322  0.69387878  0.93367773  1
  O  O37  1  0.09187631  0.83585692  0.41624983  1
  O  O38  1  0.22698876  0.81150352  0.81845972  1
  O  O39  1  0.70909855  0.71772939  0.32743357  1
  O  O40  1  0.80646370  0.78523153  0.65453891  1
  O  O41  1  0.29692215  0.96261446  0.13656485  1
  O  O42  1  0.91792199  0.82355218  0.09012845  1
  O  O43  1  0.72004366  0.97887271  0.35701218  1
