# generated using pymatgen
data_LiFeF4
_symmetry_space_group_name_H-M   'P 1'
_cell_length_a   6.30283202
_cell_length_b   9.66833185
_cell_length_c   5.10937776
_cell_angle_alpha   90.00000000
_cell_angle_beta   91.24836543
_cell_angle_gamma   90.00000000
_symmetry_Int_Tables_number   1
_chemical_formula_structural   LiFeF4
_chemical_formula_sum   'Li4 Fe4 F16'
_cell_volume   311.28070527
_cell_formula_units_Z   4
loop_
 _symmetry_equiv_pos_site_id
 _symmetry_equiv_pos_as_xyz
  1  'x, y, z'
loop_
 _atom_site_type_symbol
 _atom_site_label
 _atom_site_symmetry_multiplicity
 _atom_site_fract_x
 _atom_site_fract_y
 _atom_site_fract_z
 _atom_site_occupancy
  Li  Li0  1  0.23884148  0.68574708  0.01655637  1
  Li  Li1  1  0.26115852  0.18574708  0.48344363  1
  Li  Li2  1  0.73884148  0.81425292  0.51655637  1
  Li  Li3  1  0.76115852  0.31425292  0.98344363  1
  Fe  Fe4  1  0.00000000  0.50000000  0.50000000  1
  Fe  Fe5  1  0.00000000  0.00000000  0.00000000  1
  Fe  Fe6  1  0.50000000  0.50000000  0.50000000  1
  Fe  Fe7  1  0.50000000  0.00000000  0.00000000  1
  F  F8  1  0.01123373  0.61667138  0.20807759  1
  F  F9  1  0.02643148  0.11806585  0.28876774  1
  F  F10  1  0.25166637  0.60233686  0.66859667  1
  F  F11  1  0.25153338  0.88384627  0.12456610  1
  F  F12  1  0.24833363  0.10233686  0.83140333  1
  F  F13  1  0.24846662  0.38384627  0.37543390  1
  F  F14  1  0.47356852  0.61806585  0.21123226  1
  F  F15  1  0.48876627  0.11667138  0.29192241  1
  F  F16  1  0.51123373  0.88332862  0.70807759  1
  F  F17  1  0.52643148  0.38193415  0.78876774  1
  F  F18  1  0.75153338  0.61615373  0.62456610  1
  F  F19  1  0.75166637  0.89766314  0.16859667  1
  F  F20  1  0.74846662  0.11615373  0.87543390  1
  F  F21  1  0.74833363  0.39766314  0.33140333  1
  F  F22  1  0.97356852  0.88193415  0.71123226  1
  F  F23  1  0.98876627  0.38332862  0.79192241  1
