# generated using pymatgen
data_Mn2P2H7NO10
_symmetry_space_group_name_H-M   'P 1'
_cell_length_a   6.95910061
_cell_length_b   7.93384204
_cell_length_c   16.12613443
_cell_angle_alpha   90.00000000
_cell_angle_beta   90.00000000
_cell_angle_gamma   90.00000000
_symmetry_Int_Tables_number   1
_chemical_formula_structural   Mn2P2H7NO10
_chemical_formula_sum   'Mn8 P8 H28 N4 O40'
_cell_volume   890.36266491
_cell_formula_units_Z   4
loop_
 _symmetry_equiv_pos_site_id
 _symmetry_equiv_pos_as_xyz
  1  'x, y, z'
loop_
 _atom_site_type_symbol
 _atom_site_label
 _atom_site_symmetry_multiplicity
 _atom_site_fract_x
 _atom_site_fract_y
 _atom_site_fract_z
 _atom_site_occupancy
  Mn  Mn0  1  0.11795568  0.24632467  0.50105553  1
  Mn  Mn1  1  0.13828422  0.42775784  0.04359059  1
  Mn  Mn2  1  0.36171578  0.57224216  0.54359059  1
  Mn  Mn3  1  0.38204432  0.75367533  0.00105553  1
  Mn  Mn4  1  0.61795568  0.25367533  0.49894447  1
  Mn  Mn5  1  0.63828422  0.07224216  0.95640941  1
  Mn  Mn6  1  0.86171578  0.92775784  0.45640941  1
  Mn  Mn7  1  0.88204432  0.74632467  0.99894447  1
  P  P8  1  0.12999801  0.10148066  0.92728990  1
  P  P9  1  0.13016629  0.73543159  0.15881928  1
  P  P10  1  0.36983371  0.26456841  0.65881928  1
  P  P11  1  0.37000199  0.89851934  0.42728990  1
  P  P12  1  0.62999801  0.39851934  0.07271010  1
  P  P13  1  0.63016629  0.76456841  0.84118072  1
  P  P14  1  0.86983371  0.23543159  0.34118072  1
  P  P15  1  0.87000199  0.60148066  0.57271010  1
  H  H16  1  0.02618857  0.60834709  0.83057952  1
  H  H17  1  0.06318490  0.22008990  0.16984715  1
  H  H18  1  0.13068611  0.52549768  0.74469401  1
  H  H19  1  0.16017004  0.43503133  0.84017009  1
  H  H20  1  0.23300285  0.12922927  0.79708974  1
  H  H21  1  0.20177067  0.10791959  0.10777366  1
  H  H22  1  0.26905685  0.61671427  0.82122723  1
  H  H23  1  0.23094315  0.38328573  0.32122723  1
  H  H24  1  0.29822933  0.89208041  0.60777366  1
  H  H25  1  0.26699715  0.87077073  0.29708974  1
  H  H26  1  0.33982996  0.56496867  0.34017009  1
  H  H27  1  0.36931389  0.47450232  0.24469401  1
  H  H28  1  0.43681510  0.77991010  0.66984715  1
  H  H29  1  0.47381143  0.39165291  0.33057952  1
  H  H30  1  0.52618857  0.89165291  0.16942048  1
  H  H31  1  0.56318490  0.27991010  0.83015285  1
  H  H32  1  0.63068611  0.97450232  0.25530599  1
  H  H33  1  0.66017004  0.06496867  0.15982991  1
  H  H34  1  0.73300285  0.37077073  0.20291026  1
  H  H35  1  0.70177067  0.39208041  0.89222634  1
  H  H36  1  0.76905685  0.88328573  0.17877277  1
  H  H37  1  0.73094315  0.11671427  0.67877277  1
  H  H38  1  0.79822933  0.60791959  0.39222634  1
  H  H39  1  0.76699715  0.62922927  0.70291026  1
  H  H40  1  0.83982996  0.93503133  0.65982991  1
  H  H41  1  0.86931389  0.02549768  0.75530599  1
  H  H42  1  0.93681510  0.72008990  0.33015285  1
  H  H43  1  0.97381143  0.10834709  0.66942048  1
  N  N44  1  0.14642822  0.54621310  0.80737617  1
  N  N45  1  0.35357178  0.45378690  0.30737617  1
  N  N46  1  0.64642822  0.95378690  0.19262383  1
  N  N47  1  0.85357178  0.04621310  0.69262383  1
  O  O48  1  0.04954464  0.51670073  0.53680018  1
  O  O49  1  0.05433640  0.30168359  0.38504232  1
  O  O50  1  0.13480349  0.21535407  0.11654952  1
  O  O51  1  0.12009166  0.07518823  0.82999120  1
  O  O52  1  0.11715571  0.77574040  0.25135976  1
  O  O53  1  0.12844477  0.29656260  0.94090572  1
  O  O54  1  0.13338942  0.64630785  0.98530680  1
  O  O55  1  0.14510319  0.54046740  0.14870470  1
  O  O56  1  0.18948277  0.17931679  0.61793252  1
  O  O57  1  0.18514853  0.97596081  0.46334234  1
  O  O58  1  0.31485147  0.02403919  0.96334234  1
  O  O59  1  0.31051723  0.82068321  0.11793252  1
  O  O60  1  0.35489681  0.45953260  0.64870470  1
  O  O61  1  0.36661058  0.35369215  0.48530680  1
  O  O62  1  0.37155523  0.70343740  0.44090572  1
  O  O63  1  0.38284429  0.22425960  0.75135976  1
  O  O64  1  0.37990834  0.92481177  0.32999120  1
  O  O65  1  0.36519651  0.78464593  0.61654952  1
  O  O66  1  0.44566360  0.69831641  0.88504232  1
  O  O67  1  0.45045536  0.48329927  0.03680018  1
  O  O68  1  0.54954464  0.98329927  0.46319982  1
  O  O69  1  0.55433640  0.19831641  0.61495768  1
  O  O70  1  0.63480349  0.28464593  0.88345048  1
  O  O71  1  0.62009166  0.42481177  0.17000880  1
  O  O72  1  0.61715571  0.72425960  0.74864024  1
  O  O73  1  0.62844477  0.20343740  0.05909428  1
  O  O74  1  0.63338942  0.85369215  0.01469320  1
  O  O75  1  0.64510319  0.95953260  0.85129530  1
  O  O76  1  0.68948277  0.32068321  0.38206748  1
  O  O77  1  0.68514853  0.52403919  0.53665766  1
  O  O78  1  0.81485147  0.47596081  0.03665766  1
  O  O79  1  0.81051723  0.67931679  0.88206748  1
  O  O80  1  0.85489681  0.04046740  0.35129530  1
  O  O81  1  0.86661058  0.14630785  0.51469320  1
  O  O82  1  0.87155523  0.79656260  0.55909428  1
  O  O83  1  0.88284429  0.27574040  0.24864024  1
  O  O84  1  0.87990834  0.57518823  0.67000880  1
  O  O85  1  0.86519651  0.71535407  0.38345048  1
  O  O86  1  0.94566360  0.80168359  0.11495768  1
  O  O87  1  0.95045536  0.01670073  0.96319982  1
