# generated using pymatgen
data_LiCrP2O7
_symmetry_space_group_name_H-M   'P 1'
_cell_length_a   5.26077170
_cell_length_b   5.26077170
_cell_length_c   9.01092087
_cell_angle_alpha   82.47466701
_cell_angle_beta   97.52533299
_cell_angle_gamma   75.94236285
_symmetry_Int_Tables_number   1
_chemical_formula_structural   LiCrP2O7
_chemical_formula_sum   'Li2 Cr2 P4 O14'
_cell_volume   236.37116401
_cell_formula_units_Z   2
loop_
 _symmetry_equiv_pos_site_id
 _symmetry_equiv_pos_as_xyz
  1  'x, y, z'
loop_
 _atom_site_type_symbol
 _atom_site_label
 _atom_site_symmetry_multiplicity
 _atom_site_fract_x
 _atom_site_fract_y
 _atom_site_fract_z
 _atom_site_occupancy
  Li  Li0  1  0.69381530  0.69770394  0.00088543  1
  Li  Li1  1  0.30229606  0.30618470  0.50088543  1
  Cr  Cr2  1  0.67909365  0.67663109  0.50002853  1
  Cr  Cr3  1  0.32336891  0.32090635  0.00002853  1
  P  P4  1  0.21149499  0.76982021  0.70316533  1
  P  P5  1  0.23017979  0.78850501  0.20316533  1
  P  P6  1  0.78116487  0.22237460  0.79633295  1
  P  P7  1  0.77762540  0.21883513  0.29633295  1
  O  O8  1  0.38145697  0.90629401  0.61048697  1
  O  O9  1  0.05906294  0.61100086  0.61200139  1
  O  O10  1  0.37415479  0.62001317  0.85774402  1
  O  O11  1  0.09370599  0.61854303  0.11048697  1
  O  O12  1  0.38899914  0.94093706  0.11200139  1
  O  O13  1  0.37998683  0.62584521  0.35774402  1
  O  O14  1  0.98008167  0.98263244  0.74936232  1
  O  O15  1  0.01736756  0.01991833  0.24936232  1
  O  O16  1  0.62561542  0.38300061  0.64267726  1
  O  O17  1  0.59750525  0.10144683  0.88660708  1
  O  O18  1  0.94978502  0.36231313  0.89070870  1
  O  O19  1  0.61699939  0.37438458  0.14267726  1
  O  O20  1  0.89855317  0.40249475  0.38660708  1
  O  O21  1  0.63768787  0.05021498  0.39070870  1
