# generated using pymatgen
data_Na5Co2As(CO4)4
_symmetry_space_group_name_H-M   'P 1'
_cell_length_a   10.00958685
_cell_length_b   9.90830780
_cell_length_c   10.01613924
_cell_angle_alpha   119.68809698
_cell_angle_beta   59.85388186
_cell_angle_gamma   119.62224294
_symmetry_Int_Tables_number   1
_chemical_formula_structural   Na5Co2As(CO4)4
_chemical_formula_sum   'Na10 Co4 As2 C8 O32'
_cell_volume   705.27411339
_cell_formula_units_Z   2
loop_
 _symmetry_equiv_pos_site_id
 _symmetry_equiv_pos_as_xyz
  1  'x, y, z'
loop_
 _atom_site_type_symbol
 _atom_site_label
 _atom_site_symmetry_multiplicity
 _atom_site_fract_x
 _atom_site_fract_y
 _atom_site_fract_z
 _atom_site_occupancy
  Na  Na0  1  0.91274249  0.16274249  0.91274249  1
  Na  Na1  1  0.90534802  0.16866085  0.34807965  1
  Na  Na2  1  0.90551777  0.58556387  0.34790800  1
  Na  Na3  1  0.65192035  0.41523319  0.09465198  1
  Na  Na4  1  0.34790800  0.16786290  0.90551777  1
  Na  Na5  1  0.65209200  0.83213710  0.09448223  1
  Na  Na6  1  0.34807965  0.58476681  0.90534802  1
  Na  Na7  1  0.09448223  0.41443613  0.65209200  1
  Na  Na8  1  0.09465198  0.83133915  0.65192035  1
  Na  Na9  1  0.08725751  0.83725751  0.08725751  1
  Co  Co10  1  0.50000000  0.00000000  0.00000000  1
  Co  Co11  1  0.50000000  0.00000000  0.50000000  1
  Co  Co12  1  0.50000000  0.50000000  0.50000000  1
  Co  Co13  1  0.00000000  0.00000000  0.50000000  1
  As  As14  1  0.87212276  0.62212276  0.87212276  1
  As  As15  1  0.12787724  0.37787724  0.12787724  1
  C  C16  1  0.71327277  0.13975061  0.71367743  1
  C  C17  1  0.64218240  0.21379561  0.28298300  1
  C  C18  1  0.28298300  0.21136978  0.64218240  1
  C  C19  1  0.28632257  0.21280041  0.28672723  1
  C  C20  1  0.71367743  0.78719959  0.71327277  1
  C  C21  1  0.71701700  0.78863022  0.35781760  1
  C  C22  1  0.35781760  0.78620439  0.71701700  1
  C  C23  1  0.28672723  0.86024939  0.28632257  1
  O  O24  1  0.85861595  0.14836286  0.68695294  1
  O  O25  1  0.64631289  0.10268093  0.31250407  1
  O  O26  1  0.68331038  0.13234702  0.59868715  1
  O  O27  1  0.64741382  0.18406104  0.13849078  1
  O  O28  1  0.60281817  0.14655155  0.85821222  1
  O  O29  1  0.94246209  0.55162327  0.94413315  1
  O  O30  1  0.95432734  0.55725145  0.66247829  1
  O  O31  1  0.64354798  0.35759622  0.39150968  1
  O  O32  1  0.31304706  0.10279498  0.14138505  1
  O  O33  1  0.39150968  0.17746244  0.64354798  1
  O  O34  1  0.94413315  0.83497198  0.94246209  1
  O  O35  1  0.66247829  0.55955318  0.95432734  1
  O  O36  1  0.85821222  0.81447884  0.60281817  1
  O  O37  1  0.68749593  0.64386397  0.35368711  1
  O  O38  1  0.13849078  0.10184255  0.64741382  1
  O  O39  1  0.40131285  0.35034949  0.31668962  1
  O  O40  1  0.86150922  0.89815745  0.35258618  1
  O  O41  1  0.59868715  0.64965051  0.68331038  1
  O  O42  1  0.31250407  0.35613603  0.64631289  1
  O  O43  1  0.14178778  0.18552116  0.39718183  1
  O  O44  1  0.33752171  0.44044682  0.04567266  1
  O  O45  1  0.05586685  0.16502802  0.05753791  1
  O  O46  1  0.68695294  0.89720502  0.85861595  1
  O  O47  1  0.60849032  0.82253756  0.35645202  1
  O  O48  1  0.35645202  0.64240378  0.60849032  1
  O  O49  1  0.05753791  0.44837673  0.05586685  1
  O  O50  1  0.04567266  0.44274855  0.33752171  1
  O  O51  1  0.39718183  0.85344845  0.14178778  1
  O  O52  1  0.35258618  0.81593896  0.86150922  1
  O  O53  1  0.31668962  0.86765298  0.40131285  1
  O  O54  1  0.35368711  0.89731907  0.68749593  1
  O  O55  1  0.14138505  0.85163714  0.31304706  1
