# generated using pymatgen
data_Li5Mn8(BO3)8
_symmetry_space_group_name_H-M   'P 1'
_cell_length_a   5.27627916
_cell_length_b   9.12995077
_cell_length_c   11.43078082
_cell_angle_alpha   67.31406754
_cell_angle_beta   77.44613054
_cell_angle_gamma   88.71000006
_symmetry_Int_Tables_number   1
_chemical_formula_structural   Li5Mn8(BO3)8
_chemical_formula_sum   'Li5 Mn8 B8 O24'
_cell_volume   494.74655693
_cell_formula_units_Z   1
loop_
 _symmetry_equiv_pos_site_id
 _symmetry_equiv_pos_as_xyz
  1  'x, y, z'
loop_
 _atom_site_type_symbol
 _atom_site_label
 _atom_site_symmetry_multiplicity
 _atom_site_fract_x
 _atom_site_fract_y
 _atom_site_fract_z
 _atom_site_occupancy
  Li  Li0  1  0.28844862  0.25237720  0.32681798  1
  Li  Li1  1  0.53876205  0.54523934  0.07034074  1
  Li  Li2  1  0.75965472  0.73869195  0.34920239  1
  Li  Li3  1  0.77419507  0.76826328  0.61121084  1
  Li  Li4  1  0.97687501  0.00829775  0.84252014  1
  Mn  Mn5  1  0.02933380  0.33691168  0.11526196  1
  Mn  Mn6  1  0.02314198  0.65265151  0.86921849  1
  Mn  Mn7  1  0.25575168  0.56215891  0.37226958  1
  Mn  Mn8  1  0.25463287  0.96261874  0.61434894  1
  Mn  Mn9  1  0.52084786  0.86305804  0.12145804  1
  Mn  Mn10  1  0.46854947  0.16734450  0.86651064  1
  Mn  Mn11  1  0.74017339  0.06177102  0.37202588  1
  Mn  Mn12  1  0.77789073  0.42300691  0.61916061  1
  B  B13  1  0.03068243  0.67417119  0.12617132  1
  B  B14  1  0.22448396  0.89239760  0.38055464  1
  B  B15  1  0.26444007  0.61165967  0.62586442  1
  B  B16  1  0.54514078  0.19678397  0.11487403  1
  B  B17  1  0.48629501  0.82118398  0.87478577  1
  B  B18  1  0.75098009  0.38493942  0.37300544  1
  B  B19  1  0.73858663  0.10437881  0.63707609  1
  B  B20  1  0.96824221  0.31622364  0.86283517  1
  O  O21  1  0.98225820  0.10454769  0.65564813  1
  O  O22  1  0.27602131  0.65486098  0.15462409  1
  O  O23  1  0.13238625  0.52442542  0.57852476  1
  O  O24  1  0.11029853  0.71313906  0.67880889  1
  O  O25  1  0.41191119  0.32209651  0.12829893  1
  O  O26  1  0.46074910  0.10820039  0.05189398  1
  O  O27  1  0.04386045  0.42209252  0.91049520  1
  O  O28  1  0.09169051  0.18141902  0.87459020  1
  O  O29  1  0.32684779  0.01317309  0.40837233  1
  O  O30  1  0.39485917  0.80086263  0.33075132  1
  O  O31  1  0.23795354  0.84446638  0.84341824  1
  O  O32  1  0.49811812  0.38546510  0.36658430  1
  O  O33  1  0.52461297  0.61020061  0.61473052  1
  O  O34  1  0.76012915  0.14900124  0.16666664  1
  O  O35  1  0.56508877  0.21327824  0.67106991  1
  O  O36  1  0.65035514  0.00547665  0.58550920  1
  O  O37  1  0.85786477  0.76515405  0.16646469  1
  O  O38  1  0.95375431  0.58369985  0.05934471  1
  O  O39  1  0.58762643  0.93759252  0.90724371  1
  O  O40  1  0.62082186  0.69227993  0.87619067  1
  O  O41  1  0.84972088  0.48121903  0.42799067  1
  O  O42  1  0.92490910  0.29230987  0.32615750  1
  O  O43  1  0.74743839  0.34811564  0.80850938  1
  O  O44  1  0.95906562  0.86362647  0.40631592  1
