# generated using pymatgen
data_Li11V12(OF)24
_symmetry_space_group_name_H-M   'P 1'
_cell_length_a   4.89196335
_cell_length_b   7.84465422
_cell_length_c   22.23519382
_cell_angle_alpha   84.44737387
_cell_angle_beta   90.67584725
_cell_angle_gamma   90.93619089
_symmetry_Int_Tables_number   1
_chemical_formula_structural   Li11V12(OF)24
_chemical_formula_sum   'Li11 V12 O24 F24'
_cell_volume   849.13051412
_cell_formula_units_Z   1
loop_
 _symmetry_equiv_pos_site_id
 _symmetry_equiv_pos_as_xyz
  1  'x, y, z'
loop_
 _atom_site_type_symbol
 _atom_site_label
 _atom_site_symmetry_multiplicity
 _atom_site_fract_x
 _atom_site_fract_y
 _atom_site_fract_z
 _atom_site_occupancy
  Li  Li0  1  0.75994986  0.02526039  0.12409617  1
  Li  Li1  1  0.24989850  0.63742723  0.20931661  1
  Li  Li2  1  0.24714433  0.13208941  0.19865704  1
  Li  Li3  1  0.22218493  0.22850369  0.30588875  1
  Li  Li4  1  0.75432140  0.69207709  0.45691942  1
  Li  Li5  1  0.25240724  0.79853127  0.53171357  1
  Li  Li6  1  0.25115001  0.30474241  0.54295694  1
  Li  Li7  1  0.22126152  0.89094444  0.63978639  1
  Li  Li8  1  0.75827254  0.36410972  0.79222107  1
  Li  Li9  1  0.24534729  0.97118997  0.87506746  1
  Li  Li10  1  0.21487446  0.53974150  0.95612645  1
  V  V11  1  0.22753906  0.78863780  0.05940712  1
  V  V12  1  0.27373074  0.28197496  0.05514648  1
  V  V13  1  0.76987176  0.87817208  0.28020144  1
  V  V14  1  0.71666586  0.39090615  0.28058372  1
  V  V15  1  0.27097345  0.94738519  0.38719805  1
  V  V16  1  0.22059862  0.45772649  0.39244701  1
  V  V17  1  0.77457348  0.54642553  0.61276790  1
  V  V18  1  0.71707959  0.05744749  0.61388510  1
  V  V19  1  0.27535635  0.61229265  0.72464113  1
  V  V20  1  0.22018449  0.12579744  0.72606180  1
  V  V21  1  0.72314831  0.72619289  0.94468334  1
  V  V22  1  0.76847406  0.20929173  0.94382766  1
  O  O23  1  0.96216923  0.69784686  0.01104013  1
  O  O24  1  0.10632307  0.98151759  0.06114380  1
  O  O25  1  0.55400494  0.19584822  0.01113092  1
  O  O26  1  0.37186096  0.48096483  0.05808859  1
  O  O27  1  0.89259446  0.68591988  0.27368799  1
  O  O28  1  0.06371149  0.98466686  0.31913242  1
  O  O29  1  0.59633718  0.19306710  0.27282621  1
  O  O30  1  0.44754277  0.46860212  0.32323525  1
  O  O31  1  0.56199351  0.85450501  0.34484033  1
  O  O32  1  0.95475775  0.36210537  0.34620277  1
  O  O33  1  0.10212748  0.65131204  0.39320437  1
  O  O34  1  0.37613717  0.14466657  0.39181924  1
  O  O35  1  0.59557306  0.85974433  0.60594726  1
  O  O36  1  0.89258336  0.35214609  0.60695807  1
  O  O37  1  0.06065659  0.64640637  0.65296790  1
  O  O38  1  0.44777735  0.13505729  0.65666762  1
  O  O39  1  0.55531929  0.52655410  0.67656476  1
  O  O40  1  0.37578582  0.81163958  0.72630591  1
  O  O41  1  0.95541147  0.02859487  0.67919300  1
  O  O42  1  0.09923458  0.31832932  0.72688661  1
  O  O43  1  0.61650378  0.52674931  0.94009754  1
  O  O44  1  0.45214176  0.80024887  0.99110855  1
  O  O45  1  0.89434031  0.01717741  0.94121707  1
  O  O46  1  0.05338294  0.31104062  0.98750712  1
  F  F47  1  0.55423483  0.81860335  0.10191328  1
  F  F48  1  0.97405378  0.26331482  0.10564930  1
  F  F49  1  0.09273103  0.68144127  0.13070144  1
  F  F50  1  0.44688420  0.16879798  0.12701134  1
  F  F51  1  0.58355011  0.50188005  0.20880365  1
  F  F52  1  0.45426048  0.87648107  0.22949653  1
  F  F53  1  0.92238069  0.99557408  0.20547739  1
  F  F54  1  0.06099851  0.35415737  0.23541008  1
  F  F55  1  0.97154045  0.93211692  0.43725141  1
  F  F56  1  0.54930259  0.48492588  0.43448359  1
  F  F57  1  0.44277445  0.83354493  0.45947923  1
  F  F58  1  0.09189142  0.35038355  0.46430359  1
  F  F59  1  0.92554765  0.66310234  0.53799563  1
  F  F60  1  0.58406749  0.16874550  0.54224048  1
  F  F61  1  0.45726341  0.54463865  0.56160245  1
  F  F62  1  0.06076214  0.01995287  0.56871477  1
  F  F63  1  0.96181479  0.60533959  0.76852539  1
  F  F64  1  0.08737039  0.01705989  0.79684257  1
  F  F65  1  0.54726148  0.15289050  0.76789191  1
  F  F66  1  0.44255752  0.50277548  0.79187916  1
  F  F67  1  0.57184649  0.83461743  0.87535821  1
  F  F68  1  0.90674719  0.32215682  0.87302888  1
  F  F69  1  0.05414258  0.71663532  0.90048314  1
  F  F70  1  0.44731915  0.18444118  0.89923554  1
