# generated using pymatgen
data_Li4Ti3V3(CoO8)2
_symmetry_space_group_name_H-M   'P 1'
_cell_length_a   5.94945968
_cell_length_b   5.92403464
_cell_length_c   9.78220538
_cell_angle_alpha   90.05924280
_cell_angle_beta   89.87663797
_cell_angle_gamma   120.45410538
_symmetry_Int_Tables_number   1
_chemical_formula_structural   Li4Ti3V3(CoO8)2
_chemical_formula_sum   'Li4 Ti3 V3 Co2 O16'
_cell_volume   297.20492293
_cell_formula_units_Z   1
loop_
 _symmetry_equiv_pos_site_id
 _symmetry_equiv_pos_as_xyz
  1  'x, y, z'
loop_
 _atom_site_type_symbol
 _atom_site_label
 _atom_site_symmetry_multiplicity
 _atom_site_fract_x
 _atom_site_fract_y
 _atom_site_fract_z
 _atom_site_occupancy
  Li  Li0  1  0.33415142  0.66712507  0.89252288  1
  Li  Li1  1  0.99912925  0.99394786  0.99694851  1
  Li  Li2  1  0.99681234  0.00333059  0.49856062  1
  Li  Li3  1  0.66781201  0.33358432  0.39363011  1
  Ti  Ti4  1  0.18150463  0.84115902  0.21379560  1
  Ti  Ti5  1  0.17192897  0.34253467  0.22148497  1
  Ti  Ti6  1  0.34142064  0.16206074  0.71788309  1
  V  V7  1  0.66774598  0.83313871  0.20998727  1
  V  V8  1  0.84156691  0.18085147  0.71358264  1
  V  V9  1  0.82649341  0.66557845  0.71258969  1
  Co  Co10  1  0.33085269  0.66241243  0.49080420  1
  Co  Co11  1  0.66595636  0.33294511  0.99536273  1
  O  O12  1  0.14365822  0.83135353  0.60790497  1
  O  O13  1  0.03388267  0.51087577  0.32837216  1
  O  O14  1  0.32934468  0.66014266  0.10390648  1
  O  O15  1  0.00162878  -0.00061120  0.31427908  1
  O  O16  1  0.00083834  0.00345777  0.81370557  1
  O  O17  1  0.16442487  0.32198330  0.60558386  1
  O  O18  1  0.47628086  0.96393519  0.33211940  1
  O  O19  1  0.49055907  0.52556373  0.32623044  1
  O  O20  1  0.31693463  0.15712233  0.10519181  1
  O  O21  1  0.68245638  0.85464607  0.60989230  1
  O  O22  1  0.52977234  0.49496843  0.82573195  1
  O  O23  1  0.50588659  0.03409813  0.83205528  1
  O  O24  1  0.66229086  0.33156783  0.60304662  1
  O  O25  1  0.84304788  0.67867878  0.10603407  1
  O  O26  1  0.96347547  0.47060154  0.82876396  1
  O  O27  1  0.83014575  0.14324172  0.10786774  1
