# generated using pymatgen
data_Li5Mn8(BO3)8
_symmetry_space_group_name_H-M   'P 1'
_cell_length_a   5.33506817
_cell_length_b   9.02482197
_cell_length_c   11.51976581
_cell_angle_alpha   67.55612179
_cell_angle_beta   78.67381323
_cell_angle_gamma   90.50815643
_symmetry_Int_Tables_number   1
_chemical_formula_structural   Li5Mn8(BO3)8
_chemical_formula_sum   'Li5 Mn8 B8 O24'
_cell_volume   500.50153461
_cell_formula_units_Z   1
loop_
 _symmetry_equiv_pos_site_id
 _symmetry_equiv_pos_as_xyz
  1  'x, y, z'
loop_
 _atom_site_type_symbol
 _atom_site_label
 _atom_site_symmetry_multiplicity
 _atom_site_fract_x
 _atom_site_fract_y
 _atom_site_fract_z
 _atom_site_occupancy
  Li  Li0  1  0.06779003  0.93656522  0.16518425  1
  Li  Li1  1  0.12760074  0.29199744  0.42217627  1
  Li  Li2  1  0.30279771  0.15098522  0.66290953  1
  Li  Li3  1  0.40739871  0.54433754  0.92252592  1
  Li  Li4  1  0.64659516  0.78033661  0.40650972  1
  Mn  Mn5  1  0.08528004  0.28871220  0.12841244  1
  Mn  Mn6  1  0.15242369  0.64697286  0.37798430  1
  Mn  Mn7  1  0.34579635  0.82389631  0.62544954  1
  Mn  Mn8  1  0.59432229  0.76671043  0.12696605  1
  Mn  Mn9  1  0.39595470  0.20633449  0.89007758  1
  Mn  Mn10  1  0.64689467  0.13548513  0.38311707  1
  Mn  Mn11  1  0.82538943  0.37539050  0.63271911  1
  Mn  Mn12  1  0.91513985  0.75347735  0.86870658  1
  B  B13  1  0.12157489  0.63274698  0.11252459  1
  B  B14  1  0.13413470  0.98597600  0.37763076  1
  B  B15  1  0.36885427  0.50336338  0.61720406  1
  B  B16  1  0.58723275  0.09749362  0.14653997  1
  B  B17  1  0.39616992  0.87931896  0.86334669  1
  B  B18  1  0.63426835  0.46964951  0.38656854  1
  B  B19  1  0.85334695  0.02587191  0.62302168  1
  B  B20  1  0.90155940  0.40713962  0.87071878  1
  O  O21  1  0.00361399  0.86550011  0.36330783  1
  O  O22  1  0.03927282  0.13708774  0.35153680  1
  O  O23  1  0.19022831  0.72877426  0.17442131  1
  O  O24  1  0.24692140  0.50442835  0.10918856  1
  O  O25  1  0.13235474  0.52120341  0.58305041  1
  O  O26  1  0.36055677  0.12581967  0.09999364  1
  O  O27  1  0.12467084  0.36634330  0.91859292  1
  O  O28  1  0.36725324  0.95818516  0.41857700  1
  O  O29  1  0.29845459  0.75960049  0.82711210  1
  O  O30  1  0.28834671  0.01906217  0.84283852  1
  O  O31  1  0.49650281  0.33785195  0.39347061  1
  O  O32  1  0.55591707  0.62404270  0.33557448  1
  O  O33  1  0.44928841  0.34840182  0.66507644  1
  O  O34  1  0.68147925  0.20386822  0.19694932  1
  O  O35  1  0.52347439  0.63639810  0.59466550  1
  O  O36  1  0.72417410  0.97308429  0.14251790  1
  O  O37  1  0.62697505  0.02806068  0.57382249  1
  O  O38  1  0.91772768  0.68244738  0.05139252  1
  O  O39  1  0.60148142  0.84194302  0.92241958  1
  O  O40  1  0.86215137  0.45465683  0.43491941  1
  O  O41  1  0.77434583  0.53376369  0.87695607  1
  O  O42  1  0.79853921  0.30562243  0.81814733  1
  O  O43  1  0.94653983  0.87664946  0.68008441  1
  O  O44  1  0.97867260  0.16488049  0.61037540  1
