# generated using pymatgen
data_LiV2OF5
_symmetry_space_group_name_H-M   'P 1'
_cell_length_a   5.16717275
_cell_length_b   5.49264128
_cell_length_c   11.90728429
_cell_angle_alpha   98.54545776
_cell_angle_beta   102.47850580
_cell_angle_gamma   90.56895287
_symmetry_Int_Tables_number   1
_chemical_formula_structural   LiV2OF5
_chemical_formula_sum   'Li3 V6 O3 F15'
_cell_volume   325.98991592
_cell_formula_units_Z   3
loop_
 _symmetry_equiv_pos_site_id
 _symmetry_equiv_pos_as_xyz
  1  'x, y, z'
loop_
 _atom_site_type_symbol
 _atom_site_label
 _atom_site_symmetry_multiplicity
 _atom_site_fract_x
 _atom_site_fract_y
 _atom_site_fract_z
 _atom_site_occupancy
  Li  Li0  1  0.40914182  0.98849075  0.84844249  1
  Li  Li1  1  0.73454729  0.19595179  0.48344584  1
  Li  Li2  1  0.60567917  0.15980810  0.18319337  1
  V  V3  1  0.32121638  0.32256140  0.66871800  1
  V  V4  1  0.18368398  0.17772709  0.33473344  1
  V  V5  1  0.65492703  0.65206359  0.33606267  1
  V  V6  1  0.84981425  0.84041836  0.66931456  1
  V  V7  1  0.51545632  0.49043773  0.00122253  1
  V  V8  1  0.98279512  0.01278599  0.00247776  1
  O  O9  1  0.15658256  0.04814459  0.70434001  1
  O  O10  1  0.49881924  0.37007395  0.36905809  1
  O  O11  1  0.70731443  0.21092759  0.03704952  1
  F  F12  1  0.18069019  0.26918616  0.95205739  1
  F  F13  1  0.05073963  0.55333610  0.71143865  1
  F  F14  1  0.29341521  0.79427326  0.95867588  1
  F  F15  1  0.10673431  0.26126117  0.49829899  1
  F  F16  1  0.22841118  0.08155979  0.16698853  1
  F  F17  1  0.53572695  0.40845281  0.83414000  1
  F  F18  1  0.52082809  0.61089586  0.63096621  1
  F  F19  1  0.38193559  0.88996917  0.38021942  1
  F  F20  1  0.62023558  0.11892905  0.61802937  1
  F  F21  1  0.47029089  0.58092354  0.16702106  1
  F  F22  1  0.77004885  0.91531914  0.83367902  1
  F  F23  1  0.86613003  0.76316048  0.49568392  1
  F  F24  1  0.82749254  0.96514966  0.29535745  1
  F  F25  1  0.83543508  0.72123117  0.04623846  1
  F  F26  1  0.93694628  0.43192571  0.28375736  1
