# generated using pymatgen
data_CoPO4
_symmetry_space_group_name_H-M   'P 1'
_cell_length_a   5.80682869
_cell_length_b   11.10025671
_cell_length_c   9.86963017
_cell_angle_alpha   90.00000000
_cell_angle_beta   94.40768334
_cell_angle_gamma   90.00000000
_symmetry_Int_Tables_number   1
_chemical_formula_structural   CoPO4
_chemical_formula_sum   'Co8 P8 O32'
_cell_volume   634.28810520
_cell_formula_units_Z   8
loop_
 _symmetry_equiv_pos_site_id
 _symmetry_equiv_pos_as_xyz
  1  'x, y, z'
loop_
 _atom_site_type_symbol
 _atom_site_label
 _atom_site_symmetry_multiplicity
 _atom_site_fract_x
 _atom_site_fract_y
 _atom_site_fract_z
 _atom_site_occupancy
  Co  Co0  1  0.13076021  0.90591499  0.75095702  1
  Co  Co1  1  0.13076021  0.59408501  0.25095702  1
  Co  Co2  1  0.34715205  0.37720923  0.00205264  1
  Co  Co3  1  0.34715205  0.12279077  0.50205264  1
  Co  Co4  1  0.65284795  0.87720923  0.49794736  1
  Co  Co5  1  0.65284795  0.62279077  0.99794736  1
  Co  Co6  1  0.86923979  0.40591499  0.74904298  1
  Co  Co7  1  0.86923979  0.09408501  0.24904298  1
  P  P8  1  0.11334292  0.64253994  0.92859455  1
  P  P9  1  0.11334292  0.85746006  0.42859455  1
  P  P10  1  0.37012638  0.37903271  0.68582162  1
  P  P11  1  0.37012638  0.12096729  0.18582162  1
  P  P12  1  0.62987362  0.87903271  0.81417838  1
  P  P13  1  0.62987362  0.62096729  0.31417838  1
  P  P14  1  0.88665708  0.14253994  0.57140545  1
  P  P15  1  0.88665708  0.35746006  0.07140545  1
  O  O16  1  0.05477823  0.82479937  0.57568824  1
  O  O17  1  0.10515488  0.06858007  0.62753050  1
  O  O18  1  0.05477823  0.67520063  0.07568824  1
  O  O19  1  0.10515488  0.43141993  0.12753050  1
  O  O20  1  0.15187587  0.74934355  0.83950761  1
  O  O21  1  0.14928589  0.45709898  0.67984664  1
  O  O22  1  0.15187587  0.75065645  0.33950761  1
  O  O23  1  0.14928589  0.04290102  0.17984664  1
  O  O24  1  0.33619917  0.56088694  0.93732674  1
  O  O25  1  0.41098998  0.32351438  0.83198924  1
  O  O26  1  0.33619917  0.93911306  0.43732674  1
  O  O27  1  0.41379084  0.96030886  0.83093771  1
  O  O28  1  0.35267635  0.28066282  0.57954890  1
  O  O29  1  0.41098998  0.17648562  0.33198924  1
  O  O30  1  0.41379084  0.53969114  0.33093771  1
  O  O31  1  0.35267635  0.21933718  0.07954890  1
  O  O32  1  0.64732365  0.78066282  0.92045110  1
  O  O33  1  0.58620916  0.46030886  0.66906229  1
  O  O34  1  0.58901002  0.82351438  0.66801076  1
  O  O35  1  0.64732365  0.71933718  0.42045110  1
  O  O36  1  0.58620916  0.03969114  0.16906229  1
  O  O37  1  0.66380083  0.06088694  0.56267326  1
  O  O38  1  0.58901002  0.67648562  0.16801076  1
  O  O39  1  0.66380083  0.43911306  0.06267326  1
  O  O40  1  0.85071411  0.95709898  0.82015336  1
  O  O41  1  0.84812413  0.24934355  0.66049239  1
  O  O42  1  0.85071411  0.54290102  0.32015336  1
  O  O43  1  0.84812413  0.25065645  0.16049239  1
  O  O44  1  0.89484512  0.56858007  0.87246950  1
  O  O45  1  0.94522177  0.32479937  0.92431176  1
  O  O46  1  0.89484512  0.93141993  0.37246950  1
  O  O47  1  0.94522177  0.17520063  0.42431176  1
