# generated using pymatgen
data_Li5Mn8(BO3)8
_symmetry_space_group_name_H-M   'P 1'
_cell_length_a   5.31981081
_cell_length_b   9.10206439
_cell_length_c   11.49039327
_cell_angle_alpha   112.74287506
_cell_angle_beta   78.35256415
_cell_angle_gamma   90.39761315
_symmetry_Int_Tables_number   1
_chemical_formula_structural   Li5Mn8(BO3)8
_chemical_formula_sum   'Li5 Mn8 B8 O24'
_cell_volume   500.99457991
_cell_formula_units_Z   1
loop_
 _symmetry_equiv_pos_site_id
 _symmetry_equiv_pos_as_xyz
  1  'x, y, z'
loop_
 _atom_site_type_symbol
 _atom_site_label
 _atom_site_symmetry_multiplicity
 _atom_site_fract_x
 _atom_site_fract_y
 _atom_site_fract_z
 _atom_site_occupancy
  Li  Li0  1  0.07439937  0.08442665  0.16347056  1
  Li  Li1  1  0.30431882  0.82388193  0.67325717  1
  Li  Li2  1  0.56054497  0.59434003  0.15970172  1
  Li  Li3  1  0.64811269  0.20385123  0.40330895  1
  Li  Li4  1  0.81794258  0.33235868  0.67334883  1
  Mn  Mn5  1  0.08208204  0.38959082  0.12956917  1
  Mn  Mn6  1  0.16163521  0.01296055  0.37846277  1
  Mn  Mn7  1  0.33940060  0.46936097  0.62639307  1
  Mn  Mn8  1  0.59663844  0.90534815  0.12382461  1
  Mn  Mn9  1  0.40097174  0.09686999  0.88782071  1
  Mn  Mn10  1  0.65120914  0.53976180  0.38473241  1
  Mn  Mn11  1  0.83353198  0.99454797  0.63493652  1
  Mn  Mn12  1  0.91169902  0.62168273  0.87728317  1
  B  B13  1  0.10272758  0.72482205  0.12173548  1
  B  B14  1  0.15368691  0.34826972  0.36403905  1
  B  B15  1  0.36231782  0.14112207  0.62536798  1
  B  B16  1  0.60203280  0.24127840  0.13325337  1
  B  B17  1  0.39095145  0.74907340  0.87149488  1
  B  B18  1  0.65410706  0.87073304  0.37619804  1
  B  B19  1  0.83407897  0.66062747  0.63734370  1
  B  B20  1  0.90681941  0.26589050  0.87355973  1
  O  O21  1  0.02470437  0.21521482  0.35890272  1
  O  O22  1  0.05560784  0.45422783  0.31761233  1
  O  O23  1  0.18865136  0.87903595  0.16940029  1
  O  O24  1  0.22040313  0.59787146  0.12791964  1
  O  O25  1  0.11951095  0.13162795  0.59457609  1
  O  O26  1  0.36090707  0.21375410  0.09794600  1
  O  O27  1  0.09225151  0.27076784  0.94609782  1
  O  O28  1  0.37291091  0.38027546  0.41587509  1
  O  O29  1  0.28897785  0.59943234  0.83374864  1
  O  O30  1  0.28208113  0.87416746  0.85814569  1
  O  O31  1  0.56576823  0.98360631  0.33522517  1
  O  O32  1  0.56667169  0.72446703  0.33989801  1
  O  O33  1  0.44108165  0.03135388  0.67172679  1
  O  O34  1  0.69047368  0.39362857  0.16265451  1
  O  O35  1  0.52012015  0.25296609  0.60507173  1
  O  O36  1  0.74219086  0.11939870  0.13629073  1
  O  O37  1  0.60542895  0.63212049  0.59275002  1
  O  O38  1  0.87905869  0.70900185  0.06898184  1
  O  O39  1  0.60750535  0.76615168  0.92430325  1
  O  O40  1  0.84450694  0.91592608  0.45018256  1
  O  O41  1  0.80434744  0.11480816  0.82129749  1
  O  O42  1  0.83012948  0.39029447  0.85075828  1
  O  O43  1  0.92627296  0.54941928  0.68265225  1
  O  O44  1  0.97009617  0.78640503  0.63616216  1
