# generated using pymatgen
data_Mn6O5F7
_symmetry_space_group_name_H-M   'P 1'
_cell_length_a   4.78559892
_cell_length_b   7.87064678
_cell_length_c   5.71061246
_cell_angle_alpha   93.88911825
_cell_angle_beta   93.91882036
_cell_angle_gamma   87.51372851
_symmetry_Int_Tables_number   1
_chemical_formula_structural   Mn6O5F7
_chemical_formula_sum   'Mn6 O5 F7'
_cell_volume   213.93521139
_cell_formula_units_Z   1
loop_
 _symmetry_equiv_pos_site_id
 _symmetry_equiv_pos_as_xyz
  1  'x, y, z'
loop_
 _atom_site_type_symbol
 _atom_site_label
 _atom_site_symmetry_multiplicity
 _atom_site_fract_x
 _atom_site_fract_y
 _atom_site_fract_z
 _atom_site_occupancy
  Mn  Mn0  1  0.51057706  0.99866577  0.51506621  1
  Mn  Mn1  1  0.52292653  0.67665527  0.14924430  1
  Mn  Mn2  1  0.48888620  0.33118713  0.82497157  1
  Mn  Mn3  1  0.99464751  0.67040523  0.67342165  1
  Mn  Mn4  1  0.02492560  0.32750196  0.34403871  1
  Mn  Mn5  1  0.96281650  0.99589184  0.99412579  1
  O  O6  1  0.80789177  0.77366039  0.95689799  1
  O  O7  1  0.69104962  0.10534322  0.80009919  1
  O  O8  1  0.69765632  0.77122911  0.45749986  1
  O  O9  1  0.30491193  0.56391025  0.87253644  1
  O  O10  1  0.31713691  0.22557463  0.53978024  1
  F  F11  1  0.81164890  0.43412693  0.62738075  1
  F  F12  1  0.79879716  0.10314863  0.30232391  1
  F  F13  1  0.70059595  0.42019153  0.12775102  1
  F  F14  1  0.28672756  0.91291351  0.20573027  1
  F  F15  1  0.20032646  0.57333485  0.37133455  1
  F  F16  1  0.17904563  0.21627399  0.03392778  1
  F  F17  1  0.19943240  0.89998677  0.70386878  1
