# generated using pymatgen
data_Li2VF5
_symmetry_space_group_name_H-M   'P 1'
_cell_length_a   7.49037184
_cell_length_b   5.51411043
_cell_length_c   9.65349672
_cell_angle_alpha   90.00000000
_cell_angle_beta   90.00000000
_cell_angle_gamma   90.00000000
_symmetry_Int_Tables_number   1
_chemical_formula_structural   Li2VF5
_chemical_formula_sum   'Li8 V4 F20'
_cell_volume   398.71584086
_cell_formula_units_Z   4
loop_
 _symmetry_equiv_pos_site_id
 _symmetry_equiv_pos_as_xyz
  1  'x, y, z'
loop_
 _atom_site_type_symbol
 _atom_site_label
 _atom_site_symmetry_multiplicity
 _atom_site_fract_x
 _atom_site_fract_y
 _atom_site_fract_z
 _atom_site_occupancy
  Li  Li0  1  0.93112893  0.75000000  0.28326350  1
  Li  Li1  1  0.08373388  0.25000000  0.42954429  1
  Li  Li2  1  0.41626612  0.75000000  0.92954429  1
  Li  Li3  1  0.56887107  0.25000000  0.78326350  1
  Li  Li4  1  0.43112893  0.75000000  0.21673650  1
  Li  Li5  1  0.58373388  0.25000000  0.07045571  1
  Li  Li6  1  0.91626612  0.75000000  0.57045571  1
  Li  Li7  1  0.06887107  0.25000000  0.71673650  1
  V  V8  1  0.18263839  0.25000000  0.04746761  1
  V  V9  1  0.31736161  0.75000000  0.54746761  1
  V  V10  1  0.68263839  0.25000000  0.45253239  1
  V  V11  1  0.81736161  0.75000000  0.95253239  1
  F  F12  1  0.00000000  0.00000000  0.00000000  1
  F  F13  1  0.00000000  0.50000000  0.00000000  1
  F  F14  1  0.11292319  0.25000000  0.23826655  1
  F  F15  1  0.13479761  0.49565642  0.58271987  1
  F  F16  1  0.13479761  0.00434358  0.58271987  1
  F  F17  1  0.23927022  0.75000000  0.35236835  1
  F  F18  1  0.26072978  0.25000000  0.85236835  1
  F  F19  1  0.36520239  0.99565642  0.08271987  1
  F  F20  1  0.36520239  0.50434358  0.08271987  1
  F  F21  1  0.38707681  0.75000000  0.73826655  1
  F  F22  1  0.50000000  0.00000000  0.50000000  1
  F  F23  1  0.50000000  0.50000000  0.50000000  1
  F  F24  1  0.61292319  0.25000000  0.26173345  1
  F  F25  1  0.63479761  0.49565642  0.91728013  1
  F  F26  1  0.63479761  0.00434358  0.91728013  1
  F  F27  1  0.73927022  0.75000000  0.14763165  1
  F  F28  1  0.76072978  0.25000000  0.64763165  1
  F  F29  1  0.86520239  0.99565642  0.41728013  1
  F  F30  1  0.86520239  0.50434358  0.41728013  1
  F  F31  1  0.88707681  0.75000000  0.76173345  1
