# generated using pymatgen
data_Li4Mn3V3(SnO8)2
_symmetry_space_group_name_H-M   'P 1'
_cell_length_a   6.08718840
_cell_length_b   5.91320112
_cell_length_c   9.84968453
_cell_angle_alpha   89.40281238
_cell_angle_beta   91.77643135
_cell_angle_gamma   119.90223804
_symmetry_Int_Tables_number   1
_chemical_formula_structural   Li4Mn3V3(SnO8)2
_chemical_formula_sum   'Li4 Mn3 V3 Sn2 O16'
_cell_volume   307.18728718
_cell_formula_units_Z   1
loop_
 _symmetry_equiv_pos_site_id
 _symmetry_equiv_pos_as_xyz
  1  'x, y, z'
loop_
 _atom_site_type_symbol
 _atom_site_label
 _atom_site_symmetry_multiplicity
 _atom_site_fract_x
 _atom_site_fract_y
 _atom_site_fract_z
 _atom_site_occupancy
  Li  Li0  1  0.31492743  0.65833074  0.89697110  1
  Li  Li1  1  0.99956782  0.99085871  0.99150389  1
  Li  Li2  1  0.01525416  0.01223253  0.49172307  1
  Li  Li3  1  0.66597776  0.33754381  0.39894194  1
  Mn  Mn4  1  0.66469613  0.83468844  0.21325966  1
  Mn  Mn5  1  0.83149949  0.66424245  0.71305562  1
  Mn  Mn6  1  0.82500792  0.16658767  0.71441357  1
  V  V7  1  0.16522475  0.82032180  0.21377952  1
  V  V8  1  0.17306507  0.33984328  0.21460605  1
  V  V9  1  0.33746688  0.17523679  0.71564103  1
  Sn  Sn10  1  0.35013204  0.68120186  0.48883067  1
  Sn  Sn11  1  0.65466660  0.31534201  0.99086266  1
  O  O12  1  0.19872997  0.86933046  0.60213659  1
  O  O13  1  0.03545393  0.52844180  0.33741686  1
  O  O14  1  0.33884106  0.67946079  0.10976500  1
  O  O15  1  0.99862608  0.99052804  0.30486402  1
  O  O16  1  0.99770820  0.00016836  0.80408751  1
  O  O17  1  0.18652710  0.33959964  0.59743759  1
  O  O18  1  0.46434426  0.97454538  0.34320175  1
  O  O19  1  0.48443958  0.52320717  0.33600166  1
  O  O20  1  0.31944082  0.14628205  0.10420775  1
  O  O21  1  0.69874663  0.85078546  0.59456495  1
  O  O22  1  0.48113388  0.45382781  0.84137651  1
  O  O23  1  0.49074561  0.02073929  0.84468075  1
  O  O24  1  0.66561758  0.33568635  0.61314827  1
  O  O25  1  0.85176933  0.66358627  0.09546434  1
  O  O26  1  0.94864724  0.47535610  0.83859483  1
  O  O27  1  0.84174368  0.15232791  0.09730083  1
