# generated using pymatgen
data_BaYBr5
_symmetry_space_group_name_H-M   'P 1'
_cell_length_a   12.91324324
_cell_length_b   10.79210873
_cell_length_c   14.77730970
_cell_angle_alpha   90.00000000
_cell_angle_beta   93.80827474
_cell_angle_gamma   90.00000000
_symmetry_Int_Tables_number   1
_chemical_formula_structural   BaYBr5
_chemical_formula_sum   'Ba8 Y8 Br40'
_cell_volume   2054.83515554
_cell_formula_units_Z   8
loop_
 _symmetry_equiv_pos_site_id
 _symmetry_equiv_pos_as_xyz
  1  'x, y, z'
loop_
 _atom_site_type_symbol
 _atom_site_label
 _atom_site_symmetry_multiplicity
 _atom_site_fract_x
 _atom_site_fract_y
 _atom_site_fract_z
 _atom_site_occupancy
  Ba  Ba0  1  0.18975180  0.71733858  0.85750775  1
  Ba  Ba1  1  0.24806663  0.72988598  0.45648771  1
  Ba  Ba2  1  0.31024820  0.21733858  0.64249225  1
  Ba  Ba3  1  0.25193337  0.22988598  0.04351229  1
  Ba  Ba4  1  0.74806663  0.77011402  0.95648771  1
  Ba  Ba5  1  0.68975180  0.78266142  0.35750775  1
  Ba  Ba6  1  0.75193337  0.27011402  0.54351229  1
  Ba  Ba7  1  0.81024820  0.28266142  0.14249225  1
  Y  Y8  1  0.01729115  0.19508478  0.80996627  1
  Y  Y9  1  0.12549651  0.22038050  0.34014245  1
  Y  Y10  1  0.37450349  0.72038050  0.15985755  1
  Y  Y11  1  0.48270885  0.69508478  0.69003373  1
  Y  Y12  1  0.51729115  0.30491522  0.30996627  1
  Y  Y13  1  0.62549651  0.27961950  0.84014245  1
  Y  Y14  1  0.87450349  0.77961950  0.65985755  1
  Y  Y15  1  0.98270885  0.80491522  0.19003373  1
  Br  Br16  1  0.04120892  0.23021759  0.62866685  1
  Br  Br17  1  0.01350417  0.81512999  0.00514740  1
  Br  Br18  1  0.08456051  0.77957500  0.63770354  1
  Br  Br19  1  0.14169468  0.39917385  0.85479075  1
  Br  Br20  1  0.08654973  0.36337823  0.18609091  1
  Br  Br21  1  0.09836830  0.02358832  0.20914487  1
  Br  Br22  1  0.19823766  0.05192475  0.83057254  1
  Br  Br23  1  0.18726151  0.40970225  0.45636313  1
  Br  Br24  1  0.19331255  0.04194467  0.46818959  1
  Br  Br25  1  0.17266874  0.68194237  0.23216887  1
  Br  Br26  1  0.30176234  0.55192475  0.66942746  1
  Br  Br27  1  0.32733126  0.18194237  0.26783113  1
  Br  Br28  1  0.30668745  0.54194467  0.03181041  1
  Br  Br29  1  0.31273849  0.90970225  0.04363687  1
  Br  Br30  1  0.35830532  0.89917385  0.64520925  1
  Br  Br31  1  0.41543949  0.27957500  0.86229646  1
  Br  Br32  1  0.40163170  0.52358832  0.29085513  1
  Br  Br33  1  0.41345027  0.86337823  0.31390909  1
  Br  Br34  1  0.45879108  0.73021759  0.87133315  1
  Br  Br35  1  0.48649583  0.31512999  0.49485260  1
  Br  Br36  1  0.51350417  0.68487001  0.50514740  1
  Br  Br37  1  0.54120892  0.26978241  0.12866685  1
  Br  Br38  1  0.58654973  0.13662177  0.68609091  1
  Br  Br39  1  0.59836830  0.47641168  0.70914487  1
  Br  Br40  1  0.58456051  0.72042500  0.13770354  1
  Br  Br41  1  0.64169468  0.10082615  0.35479075  1
  Br  Br42  1  0.68726151  0.09029775  0.95636313  1
  Br  Br43  1  0.69331255  0.45805533  0.96818959  1
  Br  Br44  1  0.67266874  0.81805763  0.73216887  1
  Br  Br45  1  0.69823766  0.44807525  0.33057254  1
  Br  Br46  1  0.82733126  0.31805763  0.76783113  1
  Br  Br47  1  0.80668745  0.95805533  0.53181041  1
  Br  Br48  1  0.81273849  0.59029775  0.54363687  1
  Br  Br49  1  0.80176234  0.94807525  0.16942746  1
  Br  Br50  1  0.90163170  0.97641168  0.79085513  1
  Br  Br51  1  0.91345027  0.63662177  0.81390909  1
  Br  Br52  1  0.85830532  0.60082615  0.14520925  1
  Br  Br53  1  0.91543949  0.22042500  0.36229646  1
  Br  Br54  1  0.98649583  0.18487001  0.99485260  1
  Br  Br55  1  0.95879108  0.76978241  0.37133315  1
