# generated using pymatgen
data_Na2Cu3Bi2As2O13
_symmetry_space_group_name_H-M   'P 1'
_cell_length_a   5.22728658
_cell_length_b   5.62521464
_cell_length_c   12.67582291
_cell_angle_alpha   80.84270641
_cell_angle_beta   78.10075964
_cell_angle_gamma   62.31372323
_symmetry_Int_Tables_number   1
_chemical_formula_structural   Na2Cu3Bi2As2O13
_chemical_formula_sum   'Na2 Cu3 Bi2 As2 O13'
_cell_volume   322.09575976
_cell_formula_units_Z   1
loop_
 _symmetry_equiv_pos_site_id
 _symmetry_equiv_pos_as_xyz
  1  'x, y, z'
loop_
 _atom_site_type_symbol
 _atom_site_label
 _atom_site_symmetry_multiplicity
 _atom_site_fract_x
 _atom_site_fract_y
 _atom_site_fract_z
 _atom_site_occupancy
  Na  Na0  1  0.93142912  0.75166588  0.57585256  1
  Na  Na1  1  0.25894755  0.24833412  0.42414744  1
  Cu  Cu2  1  0.99545583  0.00000000  0.00000000  1
  Cu  Cu3  1  0.69915488  0.80941530  0.83176898  1
  Cu  Cu4  1  0.34033915  0.19058470  0.16823102  1
  Bi  Bi5  1  0.34218349  0.41619620  0.89775110  1
  Bi  Bi6  1  0.65613080  0.58380380  0.10224890  1
  As  As7  1  0.11552056  0.08691234  0.71614598  1
  As  As8  1  0.91857889  0.91308766  0.28385402  1
  O  O9  1  0.92098345  0.29306281  0.82350083  1
  O  O10  1  0.03754710  0.70693719  0.17649917  1
  O  O11  1  0.06590588  0.79016986  0.74347011  1
  O  O12  1  0.59954584  0.20983014  0.25652989  1
  O  O13  1  0.01389959  0.24517752  0.59600521  1
  O  O14  1  0.85508232  0.75482248  0.40399479  1
  O  O15  1  0.49089242  0.97273687  0.71101248  1
  O  O16  1  0.17464177  0.02726313  0.28898752  1
  O  O17  1  0.09847266  0.23714417  0.06094555  1
  O  O18  1  0.39656238  0.76285583  0.93905445  1
  O  O19  1  0.58837696  0.26112674  0.04345057  1
  O  O20  1  0.89295427  0.73887326  0.95654943  1
  O  O21  1  0.46729509  0.50000000  0.50000000  1
