# generated using pymatgen
data_Mn3O5F
_symmetry_space_group_name_H-M   'P 1'
_cell_length_a   4.55038584
_cell_length_b   7.52234051
_cell_length_c   5.45888659
_cell_angle_alpha   93.61009578
_cell_angle_beta   90.00000000
_cell_angle_gamma   90.00000000
_symmetry_Int_Tables_number   1
_chemical_formula_structural   Mn3O5F
_chemical_formula_sum   'Mn6 O10 F2'
_cell_volume   186.48445441
_cell_formula_units_Z   2
loop_
 _symmetry_equiv_pos_site_id
 _symmetry_equiv_pos_as_xyz
  1  'x, y, z'
loop_
 _atom_site_type_symbol
 _atom_site_label
 _atom_site_symmetry_multiplicity
 _atom_site_fract_x
 _atom_site_fract_y
 _atom_site_fract_z
 _atom_site_occupancy
  Mn  Mn0  1  0.52101575  0.66918135  0.15762260  1
  Mn  Mn1  1  0.48776370  0.99703406  0.49337243  1
  Mn  Mn2  1  0.48743757  0.34386353  0.83332465  1
  Mn  Mn3  1  0.98776370  0.66963294  0.67329457  1
  Mn  Mn4  1  0.98743757  0.32280247  0.33334135  1
  Mn  Mn5  1  0.02101575  0.99748465  0.00904440  1
  O  O6  1  0.80518940  0.43394506  0.62970121  1
  O  O7  1  0.80710181  0.77427611  0.96398349  1
  O  O8  1  0.80618983  0.09808028  0.29600981  1
  O  O9  1  0.69233964  0.76849822  0.45992354  1
  O  O10  1  0.69599541  0.43527212  0.12792710  1
  O  O11  1  0.30618983  0.56858672  0.87065619  1
  O  O12  1  0.30518940  0.23272194  0.53696579  1
  O  O13  1  0.30710181  0.89239089  0.20268351  1
  O  O14  1  0.19599541  0.23139388  0.03873890  1
  O  O15  1  0.19233964  0.89816878  0.70674346  1
  F  F16  1  0.69696591  0.10331427  0.80239210  1
  F  F17  1  0.19696591  0.56335273  0.36427490  1
