# generated using pymatgen
data_Li6MnV3(PO4)6
_symmetry_space_group_name_H-M   'P 1'
_cell_length_a   8.80396365
_cell_length_b   8.80396397
_cell_length_c   14.51863948
_cell_angle_alpha   106.37066893
_cell_angle_beta   73.62933198
_cell_angle_gamma   119.46402245
_symmetry_Int_Tables_number   1
_chemical_formula_structural   Li6MnV3(PO4)6
_chemical_formula_sum   'Li12 Mn2 V6 P12 O48'
_cell_volume   926.15052188
_cell_formula_units_Z   2
loop_
 _symmetry_equiv_pos_site_id
 _symmetry_equiv_pos_as_xyz
  1  'x, y, z'
loop_
 _atom_site_type_symbol
 _atom_site_label
 _atom_site_symmetry_multiplicity
 _atom_site_fract_x
 _atom_site_fract_y
 _atom_site_fract_z
 _atom_site_occupancy
  Li  Li0  1  0.01371187  0.85458046  0.11215944  1
  Li  Li1  1  0.00022219  0.50029384  0.99976660  1
  Li  Li2  1  0.10489957  0.76457942  0.63806179  1
  Li  Li3  1  0.25029384  0.25022219  0.25023340  1
  Li  Li4  1  0.48647311  0.64501576  0.38811870  1
  Li  Li5  1  0.39501576  0.73647311  0.86188130  1
  Li  Li6  1  0.60458046  0.26371187  0.13784056  1
  Li  Li7  1  0.51457942  0.35489957  0.61193821  1
  Li  Li8  1  0.75125438  0.75033131  0.74850992  1
  Li  Li9  1  0.50033131  0.00125438  0.50149008  1
  Li  Li10  1  0.89549378  0.23681296  0.36274321  1
  Li  Li11  1  0.98681296  0.14549378  0.88725679  1
  Mn  Mn12  1  0.43037196  0.07730701  0.71495819  1
  Mn  Mn13  1  0.82730701  0.68037196  0.53504181  1
  V  V14  1  0.06736395  0.42355456  0.78673205  1
  V  V15  1  0.17355456  0.31736395  0.46326795  1
  V  V16  1  0.56734982  0.92300206  0.28704590  1
  V  V17  1  0.32695416  0.18222731  0.03674918  1
  V  V18  1  0.67300206  0.81734982  0.96295410  1
  V  V19  1  0.93222731  0.57695416  0.21325082  1
  P  P20  1  0.33237891  0.86966304  0.11862694  1
  P  P21  1  0.16784431  0.63050268  0.38139802  1
  P  P22  1  0.07437676  0.82441419  0.87537871  1
  P  P23  1  0.12006429  0.08345097  0.63272063  1
  P  P24  1  0.42378178  0.67378178  0.62500000  1
  P  P25  1  0.61966304  0.58237891  0.13137306  1
  P  P26  1  0.38050268  0.41784431  0.86860198  1
  P  P27  1  0.57441419  0.32437676  0.37462129  1
  P  P28  1  0.88032060  0.91710466  0.36893928  1
  P  P29  1  0.92337201  0.17337201  0.12500000  1
  P  P30  1  0.83345097  0.37006429  0.61727937  1
  P  P31  1  0.66710466  0.13032060  0.88106072  1
  O  O32  1  0.14153396  0.71923739  0.11382217  1
  O  O33  1  0.08924814  0.61388806  0.29613142  1
  O  O34  1  0.05747396  0.66800449  0.48038290  1
  O  O35  1  0.44489210  0.83406043  0.02034671  1
  O  O36  1  0.41049757  0.88612101  0.20406833  1
  O  O37  1  0.10690774  0.19003918  0.12824247  1
  O  O38  1  0.19225775  0.89211472  0.78124260  1
  O  O39  1  0.17778915  0.45106997  0.36528650  1
  O  O40  1  0.14718063  0.94681484  0.96872611  1
  O  O41  1  0.03087141  0.10845421  0.36422455  1
  O  O42  1  0.35917084  0.78053860  0.38568057  1
  O  O43  1  0.05842381  0.64142173  0.87951693  1
  O  O44  1  0.43782280  0.85573807  0.62059668  1
  O  O45  1  0.13669197  0.16000156  0.54648424  1
  O  O46  1  0.63612101  0.66049757  0.04593167  1
  O  O47  1  0.35232053  0.55174867  0.53131725  1
  O  O48  1  0.08635610  0.19934027  0.73012333  1
  O  O49  1  0.46923739  0.39153396  0.13617783  1
  O  O50  1  0.30174867  0.60232053  0.71868275  1
  O  O51  1  0.58406043  0.69489210  0.22965329  1
  O  O52  1  0.32207338  0.04890722  0.13460734  1
  O  O53  1  0.20106997  0.42778915  0.88471350  1
  O  O54  1  0.39142173  0.30842381  0.37048307  1
  O  O55  1  0.70132942  0.92785086  0.38419723  1
  O  O56  1  0.30227075  0.07522991  0.61573297  1
  O  O57  1  0.60573807  0.68782280  0.62940332  1
  O  O58  1  0.79890722  0.57207338  0.11539266  1
  O  O59  1  0.67785086  0.95132942  0.86580277  1
  O  O60  1  0.41800449  0.30747396  0.76961710  1
  O  O61  1  0.69681484  0.39718063  0.28127389  1
  O  O62  1  0.53053860  0.60917084  0.86431943  1
  O  O63  1  0.91621931  0.80532226  0.27019653  1
  O  O64  1  0.64211472  0.44225775  0.46875740  1
  O  O65  1  0.36388806  0.33924814  0.95386858  1
  O  O66  1  0.86426075  0.83952303  0.45451038  1
  O  O67  1  0.55876258  0.14060989  0.37690689  1
  O  O68  1  0.94003918  0.35690774  0.12175753  1
  O  O69  1  0.64494197  0.22148147  0.60964406  1
  O  O70  1  0.97148147  0.89494197  0.64035594  1
  O  O71  1  0.85181752  0.05229635  0.03138455  1
  O  O72  1  0.82522991  0.55227075  0.63426703  1
  O  O73  1  0.80229635  0.10181752  0.21861545  1
  O  O74  1  0.89060989  0.80876258  0.87309311  1
  O  O75  1  0.58952303  0.11426075  0.79548962  1
  O  O76  1  0.55532226  0.16621931  0.97980347  1
  O  O77  1  0.94934027  0.33635610  0.51987667  1
  O  O78  1  0.91000156  0.38669197  0.70351576  1
  O  O79  1  0.85845421  0.28087141  0.88577545  1
