# generated using pymatgen
data_LiLa3Ti3CrO12
_symmetry_space_group_name_H-M   'P 1'
_cell_length_a   5.52255341
_cell_length_b   5.54122927
_cell_length_c   7.83695758
_cell_angle_alpha   90.09188229
_cell_angle_beta   90.05340740
_cell_angle_gamma   90.33767476
_symmetry_Int_Tables_number   1
_chemical_formula_structural   LiLa3Ti3CrO12
_chemical_formula_sum   'Li1 La3 Ti3 Cr1 O12'
_cell_volume   239.81991629
_cell_formula_units_Z   1
loop_
 _symmetry_equiv_pos_site_id
 _symmetry_equiv_pos_as_xyz
  1  'x, y, z'
loop_
 _atom_site_type_symbol
 _atom_site_label
 _atom_site_symmetry_multiplicity
 _atom_site_fract_x
 _atom_site_fract_y
 _atom_site_fract_z
 _atom_site_occupancy
  Li  Li0  1  0.02878477  0.97060774  0.25887153  1
  La  La1  1  0.49308133  0.53255958  0.25370925  1
  La  La2  1  0.50233718  0.47145522  0.74836699  1
  La  La3  1  0.99136750  0.97309603  0.74644947  1
  Ti  Ti4  1  0.99960084  0.49878378  0.00677045  1
  Ti  Ti5  1  0.99938440  0.49707609  0.49040532  1
  Ti  Ti6  1  0.50097410  0.00414826  0.01315492  1
  Cr  Cr7  1  0.49809354  0.00308847  0.49517682  1
  O  O8  1  0.93104392  0.47497913  0.24899597  1
  O  O9  1  0.21817193  0.78382602  0.04642958  1
  O  O10  1  0.20935633  0.78475174  0.45084554  1
  O  O11  1  0.28797461  0.28993434  0.02683312  1
  O  O12  1  0.28705959  0.29540672  0.47283672  1
  O  O13  1  0.58495738  0.99781196  0.24704716  1
  O  O14  1  0.42257275  0.00166926  0.74969457  1
  O  O15  1  0.71372752  0.71596536  0.53309022  1
  O  O16  1  0.71661267  0.72071441  0.96463210  1
  O  O17  1  0.77553385  0.23034940  0.54899912  1
  O  O18  1  0.77259733  0.22943225  0.94845202  1
  O  O19  1  0.06676644  0.52434422  0.74924013  1
