# generated using pymatgen
data_Sm2Mn3Cu9P7
_symmetry_space_group_name_H-M   'P 1'
_cell_length_a   3.75209158
_cell_length_b   9.46802139
_cell_length_c   9.31446959
_cell_angle_alpha   120.10937957
_cell_angle_beta   90.00000000
_cell_angle_gamma   90.00000000
_symmetry_Int_Tables_number   1
_chemical_formula_structural   Sm2Mn3Cu9P7
_chemical_formula_sum   'Sm2 Mn3 Cu9 P7'
_cell_volume   286.24749462
_cell_formula_units_Z   1
loop_
 _symmetry_equiv_pos_site_id
 _symmetry_equiv_pos_as_xyz
  1  'x, y, z'
loop_
 _atom_site_type_symbol
 _atom_site_label
 _atom_site_symmetry_multiplicity
 _atom_site_fract_x
 _atom_site_fract_y
 _atom_site_fract_z
 _atom_site_occupancy
  Sm  Sm0  1  -0.00000000  0.66648657  0.33129622  1
  Sm  Sm1  1  0.50000000  0.32898102  0.66486534  1
  Mn  Mn2  1  0.50000000  0.12930486  0.91551792  1
  Mn  Mn3  1  0.50000000  0.08645623  0.20798588  1
  Mn  Mn4  1  0.50000000  0.79182932  0.87837631  1
  Cu  Cu5  1  -0.00000000  0.37994942  0.95048352  1
  Cu  Cu6  1  -0.00000000  0.04796475  0.42988961  1
  Cu  Cu7  1  -0.00000000  0.56827621  0.61723059  1
  Cu  Cu8  1  0.00000000  0.88270580  0.72346883  1
  Cu  Cu9  1  -0.00000000  0.28192918  0.16117863  1
  Cu  Cu10  1  -0.00000000  0.84154314  0.11641104  1
  Cu  Cu11  1  0.50000000  0.95840564  0.57325587  1
  Cu  Cu12  1  0.50000000  0.42637078  0.38585271  1
  Cu  Cu13  1  0.50000000  0.61348662  0.04287589  1
  P  P14  1  -0.00000000  0.12396812  0.72408343  1
  P  P15  1  -0.00000000  0.27431291  0.40151539  1
  P  P16  1  -0.00000000  0.58848887  0.87561004  1
  P  P17  1  0.50000000  0.70833526  0.58932652  1
  P  P18  1  0.50000000  0.40401950  0.11465521  1
  P  P19  1  0.50000000  0.88692268  0.28888115  1
  P  P20  1  -0.00000000  0.01026311  0.00723991  1
