# generated using pymatgen
data_Na4Sn5O12
_symmetry_space_group_name_H-M   'P 1'
_cell_length_a   5.87903900
_cell_length_b   10.24904419
_cell_length_c   10.84257180
_cell_angle_alpha   72.83433160
_cell_angle_beta   77.60215481
_cell_angle_gamma   78.62055139
_symmetry_Int_Tables_number   1
_chemical_formula_structural   Na4Sn5O12
_chemical_formula_sum   'Na8 Sn10 O24'
_cell_volume   603.34344481
_cell_formula_units_Z   2
loop_
 _symmetry_equiv_pos_site_id
 _symmetry_equiv_pos_as_xyz
  1  'x, y, z'
loop_
 _atom_site_type_symbol
 _atom_site_label
 _atom_site_symmetry_multiplicity
 _atom_site_fract_x
 _atom_site_fract_y
 _atom_site_fract_z
 _atom_site_occupancy
  Na  Na0  1  0.13751594  0.41313714  0.40041995  1
  Na  Na1  1  0.34889185  0.57544499  0.11003899  1
  Na  Na2  1  0.27433587  0.90389426  0.02434936  1
  Na  Na3  1  0.30719323  0.78033851  0.55258720  1
  Na  Na4  1  0.69280677  0.21966149  0.44741280  1
  Na  Na5  1  0.72566413  0.09610574  0.97565064  1
  Na  Na6  1  0.65110815  0.42455501  0.88996101  1
  Na  Na7  1  0.86248406  0.58686286  0.59958005  1
  Sn  Sn8  1  0.26588330  0.09820479  0.26759363  1
  Sn  Sn9  1  0.18624109  0.10069642  0.68237815  1
  Sn  Sn10  1  0.18851976  0.25456123  0.93475264  1
  Sn  Sn11  1  0.11555051  0.59376187  0.85163528  1
  Sn  Sn12  1  0.40742642  0.41946543  0.64517770  1
  Sn  Sn13  1  0.59257358  0.58053457  0.35482230  1
  Sn  Sn14  1  0.88444949  0.40623813  0.14836472  1
  Sn  Sn15  1  0.81148024  0.74543877  0.06524736  1
  Sn  Sn16  1  0.81375891  0.89930358  0.31762185  1
  Sn  Sn17  1  0.73411670  0.90179521  0.73240637  1
  O  O18  1  0.05030214  0.26276446  0.29844489  1
  O  O19  1  0.22187906  0.42211966  0.01242721  1
  O  O20  1  0.34127383  0.10107344  0.08140470  1
  O  O21  1  0.10661796  0.10115646  0.86776009  1
  O  O22  1  0.06282980  0.42935259  0.77849772  1
  O  O23  1  0.09207978  0.93829586  0.37262422  1
  O  O24  1  0.31669115  0.26612165  0.57103773  1
  O  O25  1  0.27624125  0.56714606  0.48528481  1
  O  O26  1  0.56259898  0.06061773  0.34178568  1
  O  O27  1  0.13922400  0.73332823  0.94926471  1
  O  O28  1  0.56472568  0.42302523  0.26919395  1
  O  O29  1  0.49590670  0.73116100  0.18997753  1
  O  O30  1  0.50409330  0.26883900  0.81002247  1
  O  O31  1  0.43527432  0.57697477  0.73080605  1
  O  O32  1  0.86077600  0.26667177  0.05073529  1
  O  O33  1  0.43740102  0.93938227  0.65821432  1
  O  O34  1  0.72375875  0.43285394  0.51471519  1
  O  O35  1  0.68330885  0.73387835  0.42896227  1
  O  O36  1  0.90792022  0.06170414  0.62737578  1
  O  O37  1  0.93717020  0.57064741  0.22150228  1
  O  O38  1  0.89338204  0.89884354  0.13223991  1
  O  O39  1  0.65872617  0.89892656  0.91859530  1
  O  O40  1  0.77812094  0.57788034  0.98757279  1
  O  O41  1  0.94969786  0.73723554  0.70155511  1
