# generated using pymatgen
data_Li6MnV3(PO4)6
_symmetry_space_group_name_H-M   'P 1'
_cell_length_a   8.62615528
_cell_length_b   8.62615456
_cell_length_c   12.74538887
_cell_angle_alpha   74.02353623
_cell_angle_beta   105.97646253
_cell_angle_gamma   85.68425450
_symmetry_Int_Tables_number   1
_chemical_formula_structural   Li6MnV3(PO4)6
_chemical_formula_sum   'Li12 Mn2 V6 P12 O48'
_cell_volume   864.76349484
_cell_formula_units_Z   2
loop_
 _symmetry_equiv_pos_site_id
 _symmetry_equiv_pos_as_xyz
  1  'x, y, z'
loop_
 _atom_site_type_symbol
 _atom_site_label
 _atom_site_symmetry_multiplicity
 _atom_site_fract_x
 _atom_site_fract_y
 _atom_site_fract_z
 _atom_site_occupancy
  Li  Li0  1  0.00566697  0.00635847  0.87314290  1
  Li  Li1  1  0.00635847  0.00566697  0.37685710  1
  Li  Li2  1  0.28621669  0.28621669  0.62500000  1
  Li  Li3  1  0.49976531  0.50175858  0.74858326  1
  Li  Li4  1  0.28799924  0.28799924  0.12500000  1
  Li  Li5  1  0.50175858  0.49976531  0.50141674  1
  Li  Li6  1  0.71110916  0.71389205  0.87341766  1
  Li  Li7  1  0.50026392  0.49991450  0.25015383  1
  Li  Li8  1  0.49991450  0.50026392  0.99984617  1
  Li  Li9  1  0.71389205  0.71110916  0.37658234  1
  Li  Li10  1  0.99389722  0.99389722  0.62500000  1
  Li  Li11  1  0.99317511  0.99317511  0.12500000  1
  Mn  Mn12  1  0.37547130  0.94224665  0.56681036  1
  Mn  Mn13  1  0.94224665  0.37547130  0.68318964  1
  V  V14  1  0.05739976  0.62170566  0.81974906  1
  V  V15  1  0.05735786  0.62008316  0.32145297  1
  V  V16  1  0.62008316  0.05735786  0.92854703  1
  V  V17  1  0.38043103  0.94275986  0.07015628  1
  V  V18  1  0.62170566  0.05739976  0.43025094  1
  V  V19  1  0.94275986  0.38043103  0.17984372  1
  P  P20  1  0.28456803  0.28712925  0.87487464  1
  P  P21  1  0.13509326  0.66329868  0.56785353  1
  P  P22  1  0.33921574  0.86254610  0.81757243  1
  P  P23  1  0.28712925  0.28456803  0.37512536  1
  P  P24  1  0.13755731  0.66133727  0.06819346  1
  P  P25  1  0.33934808  0.86176333  0.31844731  1
  P  P26  1  0.66329868  0.13509326  0.68214647  1
  P  P27  1  0.86176333  0.33934808  0.93155269  1
  P  P28  1  0.71465343  0.71465343  0.62500000  1
  P  P29  1  0.66133727  0.13755731  0.18180654  1
  P  P30  1  0.86254610  0.33921574  0.43242757  1
  P  P31  1  0.71454263  0.71454263  0.12500000  1
  O  O32  1  0.01221481  0.65970156  0.95472609  1
  O  O33  1  0.05267715  0.60708538  0.66446852  1
  O  O34  1  0.25667805  0.17105724  0.98279216  1
  O  O35  1  0.01024009  0.65547762  0.45488740  1
  O  O36  1  0.17035683  0.26168736  0.76399771  1
  O  O37  1  0.15659298  0.84197225  0.80537621  1
  O  O38  1  0.26339559  0.46212406  0.88499818  1
  O  O39  1  0.14746390  0.84872707  0.54839280  1
  O  O40  1  0.05024504  0.60166881  0.16312542  1
  O  O41  1  0.26168736  0.17035683  0.48600229  1
  O  O42  1  0.17105724  0.25667805  0.26720784  1
  O  O43  1  0.15603229  0.84197366  0.30454363  1
  O  O44  1  0.29447727  0.54771608  0.60088239  1
  O  O45  1  0.39971488  0.95009218  0.91265300  1
  O  O46  1  0.33674760  0.98797437  0.70226242  1
  O  O47  1  0.46026389  0.26260898  0.86605282  1
  O  O48  1  0.26260898  0.46026389  0.38394718  1
  O  O49  1  0.45676005  0.70409299  0.85203594  1
  O  O50  1  0.15797926  0.84477058  0.05380560  1
  O  O51  1  0.29616376  0.54392748  0.10224870  1
  O  O52  1  0.40102216  0.95027383  0.41320129  1
  O  O53  1  0.54771608  0.29447727  0.64911761  1
  O  O54  1  0.33957463  0.98771938  0.20445377  1
  O  O55  1  0.46212406  0.26339559  0.36500182  1
  O  O56  1  0.53789328  0.73803066  0.63426461  1
  O  O57  1  0.65547762  0.01024009  0.79511260  1
  O  O58  1  0.45566664  0.70342236  0.35150667  1
  O  O59  1  0.60708538  0.05267715  0.58553148  1
  O  O60  1  0.70342236  0.45566664  0.89849333  1
  O  O61  1  0.84197366  0.15603229  0.94545637  1
  O  O62  1  0.54392748  0.29616376  0.14775130  1
  O  O63  1  0.73803066  0.53789328  0.61573539  1
  O  O64  1  0.53833910  0.73713089  0.13400254  1
  O  O65  1  0.65970156  0.01221481  0.29527391  1
  O  O66  1  0.60166881  0.05024504  0.08687458  1
  O  O67  1  0.70409299  0.45676005  0.39796406  1
  O  O68  1  0.84872707  0.14746390  0.70160720  1
  O  O69  1  0.82827393  0.74289412  0.73362848  1
  O  O70  1  0.74289412  0.82827393  0.51637152  1
  O  O71  1  0.95027383  0.40102216  0.83679871  1
  O  O72  1  0.84197225  0.15659298  0.44462379  1
  O  O73  1  0.73713089  0.53833910  0.11599746  1
  O  O74  1  0.84477058  0.15797926  0.19619440  1
  O  O75  1  0.82904896  0.74152136  0.23351984  1
  O  O76  1  0.98797437  0.33674760  0.54773758  1
  O  O77  1  0.74152136  0.82904896  0.01648016  1
  O  O78  1  0.95009218  0.39971488  0.33734700  1
  O  O79  1  0.98771938  0.33957463  0.04554623  1
