# generated using pymatgen
data_Li2FeH8(SO6)2
_symmetry_space_group_name_H-M   'P 1'
_cell_length_a   12.12942430
_cell_length_b   9.34096723
_cell_length_c   9.46600447
_cell_angle_alpha   90.00000000
_cell_angle_beta   94.79262651
_cell_angle_gamma   90.00000000
_symmetry_Int_Tables_number   1
_chemical_formula_structural   Li2FeH8(SO6)2
_chemical_formula_sum   'Li8 Fe4 H32 S8 O48'
_cell_volume   1068.75367905
_cell_formula_units_Z   4
loop_
 _symmetry_equiv_pos_site_id
 _symmetry_equiv_pos_as_xyz
  1  'x, y, z'
loop_
 _atom_site_type_symbol
 _atom_site_label
 _atom_site_symmetry_multiplicity
 _atom_site_fract_x
 _atom_site_fract_y
 _atom_site_fract_z
 _atom_site_occupancy
  Li  Li0  1  0.15992145  0.64350115  0.24726338  1
  Li  Li1  1  0.21049319  0.24868738  0.29092630  1
  Li  Li2  1  0.28950681  0.74868738  0.70907370  1
  Li  Li3  1  0.34007855  0.14350115  0.75273662  1
  Li  Li4  1  0.65992145  0.85649885  0.24726338  1
  Li  Li5  1  0.71049319  0.25131262  0.29092630  1
  Li  Li6  1  0.78950681  0.75131262  0.70907370  1
  Li  Li7  1  0.84007855  0.35649885  0.75273662  1
  Fe  Fe8  1  0.00000000  0.50000000  0.50000000  1
  Fe  Fe9  1  0.00000000  0.00000000  0.00000000  1
  Fe  Fe10  1  0.50000000  0.00000000  0.50000000  1
  Fe  Fe11  1  0.50000000  0.50000000  0.00000000  1
  H  H12  1  0.05243381  0.27958387  0.94704169  1
  H  H13  1  0.06520970  0.71389873  0.98355359  1
  H  H14  1  0.07125133  0.01827610  0.72944072  1
  H  H15  1  0.05860549  0.01949914  0.28102851  1
  H  H16  1  0.06464098  0.64468511  0.74390516  1
  H  H17  1  0.06171256  0.75325810  0.61760318  1
  H  H18  1  0.07140683  0.24959513  0.62240224  1
  H  H19  1  0.08787192  0.36231624  0.74339954  1
  H  H20  1  0.41212808  0.86231624  0.25660046  1
  H  H21  1  0.42859317  0.74959513  0.37759776  1
  H  H22  1  0.43828744  0.25325810  0.38239682  1
  H  H23  1  0.43535902  0.14468511  0.25609484  1
  H  H24  1  0.44139451  0.51949914  0.71897149  1
  H  H25  1  0.42874867  0.51827610  0.27055928  1
  H  H26  1  0.43479030  0.21389873  0.01644641  1
  H  H27  1  0.44756619  0.77958387  0.05295831  1
  H  H28  1  0.55243381  0.22041613  0.94704169  1
  H  H29  1  0.56520970  0.78610127  0.98355359  1
  H  H30  1  0.57125133  0.48172390  0.72944072  1
  H  H31  1  0.55860549  0.48050086  0.28102851  1
  H  H32  1  0.56464098  0.85531489  0.74390516  1
  H  H33  1  0.56171256  0.74674190  0.61760318  1
  H  H34  1  0.57140683  0.25040487  0.62240224  1
  H  H35  1  0.58787192  0.13768376  0.74339954  1
  H  H36  1  0.91212808  0.63768376  0.25660046  1
  H  H37  1  0.92859317  0.75040487  0.37759776  1
  H  H38  1  0.93828744  0.24674190  0.38239682  1
  H  H39  1  0.93535902  0.35531489  0.25609484  1
  H  H40  1  0.94139451  0.98050086  0.71897149  1
  H  H41  1  0.92874867  0.98172390  0.27055928  1
  H  H42  1  0.93479030  0.28610127  0.01644641  1
  H  H43  1  0.94756619  0.72041613  0.05295831  1
  S  S44  1  0.21091205  0.50203570  0.96275943  1
  S  S45  1  0.22115565  0.00924469  0.53057766  1
  S  S46  1  0.27884435  0.50924469  0.46942234  1
  S  S47  1  0.28908795  0.00203570  0.03724057  1
  S  S48  1  0.71091205  0.99796430  0.96275943  1
  S  S49  1  0.72115565  0.49075531  0.53057766  1
  S  S50  1  0.77884435  0.99075531  0.46942234  1
  S  S51  1  0.78908795  0.49796430  0.03724057  1
  O  O52  1  0.01181507  0.97080702  0.77822123  1
  O  O53  1  0.02160043  0.67097956  0.65261394  1
  O  O54  1  0.03775862  0.33833291  0.65696842  1
  O  O55  1  0.01904394  0.77096085  0.04647415  1
  O  O56  1  0.15248797  0.62804426  0.88916942  1
  O  O57  1  0.17408826  0.36665222  0.89090691  1
  O  O58  1  0.16297824  0.10296614  0.62794118  1
  O  O59  1  0.15770157  0.53718499  0.43225743  1
  O  O60  1  0.19880749  0.85614834  0.56013833  1
  O  O61  1  0.19095152  0.04729956  0.38059914  1
  O  O62  1  0.16995562  0.02442576  0.04655362  1
  O  O63  1  0.18380383  0.49589693  0.11301247  1
  O  O64  1  0.31619617  0.99589693  0.88698753  1
  O  O65  1  0.33004438  0.52442576  0.95344638  1
  O  O66  1  0.30904848  0.54729956  0.61940086  1
  O  O67  1  0.30119251  0.35614834  0.43986167  1
  O  O68  1  0.34229843  0.03718499  0.56774257  1
  O  O69  1  0.33702176  0.60296614  0.37205882  1
  O  O70  1  0.32591174  0.86665222  0.10909309  1
  O  O71  1  0.34751203  0.12804426  0.11083058  1
  O  O72  1  0.48095606  0.27096085  0.95352585  1
  O  O73  1  0.46224138  0.83833291  0.34303158  1
  O  O74  1  0.47839957  0.17097956  0.34738606  1
  O  O75  1  0.51181507  0.52919298  0.77822123  1
  O  O76  1  0.48818493  0.47080702  0.22177877  1
  O  O77  1  0.52160043  0.82902044  0.65261394  1
  O  O78  1  0.53775862  0.16166709  0.65696842  1
  O  O79  1  0.51904394  0.72903915  0.04647415  1
  O  O80  1  0.65248797  0.87195574  0.88916942  1
  O  O81  1  0.67408826  0.13334778  0.89090691  1
  O  O82  1  0.66297824  0.39703386  0.62794118  1
  O  O83  1  0.65770157  0.96281501  0.43225743  1
  O  O84  1  0.69880749  0.64385166  0.56013833  1
  O  O85  1  0.69095152  0.45270044  0.38059914  1
  O  O86  1  0.66995562  0.47557424  0.04655362  1
  O  O87  1  0.68380383  0.00410307  0.11301247  1
  O  O88  1  0.81619617  0.50410307  0.88698753  1
  O  O89  1  0.83004438  0.97557424  0.95344638  1
  O  O90  1  0.80904848  0.95270044  0.61940086  1
  O  O91  1  0.80119251  0.14385166  0.43986167  1
  O  O92  1  0.84229843  0.46281501  0.56774257  1
  O  O93  1  0.83702176  0.89703386  0.37205882  1
  O  O94  1  0.82591174  0.63334778  0.10909309  1
  O  O95  1  0.84751203  0.37195574  0.11083058  1
  O  O96  1  0.98095606  0.22903915  0.95352585  1
  O  O97  1  0.96224138  0.66166709  0.34303158  1
  O  O98  1  0.97839957  0.32902044  0.34738606  1
  O  O99  1  0.98818493  0.02919298  0.22177877  1
