# generated using pymatgen
data_Mn4O7F
_symmetry_space_group_name_H-M   'P 1'
_cell_length_a   8.92401265
_cell_length_b   5.47665716
_cell_length_c   4.96193351
_cell_angle_alpha   89.92327620
_cell_angle_beta   90.00000000
_cell_angle_gamma   90.00000000
_symmetry_Int_Tables_number   1
_chemical_formula_structural   Mn4O7F
_chemical_formula_sum   'Mn8 O14 F2'
_cell_volume   242.50811886
_cell_formula_units_Z   2
loop_
 _symmetry_equiv_pos_site_id
 _symmetry_equiv_pos_as_xyz
  1  'x, y, z'
loop_
 _atom_site_type_symbol
 _atom_site_label
 _atom_site_symmetry_multiplicity
 _atom_site_fract_x
 _atom_site_fract_y
 _atom_site_fract_z
 _atom_site_occupancy
  Mn  Mn0  1  0.00193328  0.16861481  0.25340157  1
  Mn  Mn1  1  0.00219988  0.85620581  0.73997945  1
  Mn  Mn2  1  0.24780012  0.35620581  0.73997945  1
  Mn  Mn3  1  0.24806672  0.66861481  0.25340157  1
  Mn  Mn4  1  0.49935670  0.85323628  0.75238970  1
  Mn  Mn5  1  0.50979487  0.12882803  0.25456199  1
  Mn  Mn6  1  0.75064330  0.35323628  0.75238970  1
  Mn  Mn7  1  0.74020513  0.62882803  0.25456199  1
  O  O8  1  0.11358168  0.11635191  0.91872516  1
  O  O9  1  0.11142941  0.89811000  0.41509093  1
  O  O10  1  0.13857059  0.39811000  0.41509093  1
  O  O11  1  0.13641832  0.61635291  0.91872516  1
  O  O12  1  0.36775758  0.61515291  0.57809583  1
  O  O13  1  0.38683528  0.10927448  0.57516452  1
  O  O14  1  0.38773676  0.89097233  0.07844818  1
  O  O15  1  0.62064747  0.10521792  0.92402171  1
  O  O16  1  0.61956327  0.88138017  0.42790522  1
  O  O17  1  0.63043673  0.38138017  0.42790522  1
  O  O18  1  0.62935253  0.60521792  0.92402171  1
  O  O19  1  0.86226324  0.39097233  0.07844818  1
  O  O20  1  0.86316472  0.60927448  0.57516452  1
  O  O21  1  0.88224242  0.11515291  0.57809583  1
  F  F22  1  0.37541057  0.37665336  0.08221673  1
  F  F23  1  0.87458943  0.87665336  0.08221673  1
