# generated using pymatgen
data_LiV2OF5
_symmetry_space_group_name_H-M   'P 1'
_cell_length_a   5.22439871
_cell_length_b   5.54916397
_cell_length_c   17.32514180
_cell_angle_alpha   91.40083590
_cell_angle_beta   97.23530420
_cell_angle_gamma   61.60897551
_symmetry_Int_Tables_number   1
_chemical_formula_structural   LiV2OF5
_chemical_formula_sum   'Li4 V8 O4 F20'
_cell_volume   437.98203473
_cell_formula_units_Z   4
loop_
 _symmetry_equiv_pos_site_id
 _symmetry_equiv_pos_as_xyz
  1  'x, y, z'
loop_
 _atom_site_type_symbol
 _atom_site_label
 _atom_site_symmetry_multiplicity
 _atom_site_fract_x
 _atom_site_fract_y
 _atom_site_fract_z
 _atom_site_occupancy
  Li  Li0  1  0.17016205  0.33352981  0.68716949  1
  Li  Li1  1  0.41698827  0.20591828  0.08040229  1
  Li  Li2  1  0.66883331  0.07725598  0.43796324  1
  Li  Li3  1  0.68403615  0.59077779  0.94318956  1
  V  V4  1  0.25878613  0.39692604  0.87178936  1
  V  V5  1  0.50025861  0.23063822  0.25655588  1
  V  V6  1  0.25789728  0.87832007  0.37061513  1
  V  V7  1  0.49612449  0.74433909  0.75599569  1
  V  V8  1  0.75876025  0.13813293  0.62229563  1
  V  V9  1  0.99717749  0.02151461  0.00226975  1
  V  V10  1  0.77135356  0.59541266  0.12546789  1
  V  V11  1  0.99169505  0.48835079  0.50395493  1
  O  O12  1  0.42683511  0.08180108  0.34005582  1
  O  O13  1  0.44064850  0.59256858  0.84391433  1
  O  O14  1  0.92863046  0.33867941  0.59056660  1
  O  O15  1  0.98762099  0.31488826  0.05882426  1
  F  F16  1  0.03654708  0.20076225  0.90857353  1
  F  F17  1  0.97661147  0.18593047  0.43474570  1
  F  F18  1  0.98579191  0.70294012  0.93561248  1
  F  F19  1  0.49167960  0.06227216  0.81894974  1
  F  F20  1  0.06490230  0.46021871  0.21534160  1
  F  F21  1  0.05992928  0.68111200  0.41645664  1
  F  F22  1  0.07927237  -0.00020176  0.71847656  1
  F  F23  1  0.54612544  0.24178361  0.97499785  1
  F  F24  1  0.43820690  0.26880489  0.52491975  1
  F  F25  1  0.47890990  0.44361684  0.68597492  1
  F  F26  1  0.49328397  0.54686488  0.31635682  1
  F  F27  1  0.55082778  0.39989376  0.15549354  1
  F  F28  1  0.57659427  0.74054466  0.46621883  1
  F  F29  1  0.55547704  0.94250222  0.66714052  1
  F  F30  1  0.45015552  0.79294236  0.02717772  1
  F  F31  1  0.92471479  0.01902658  0.27974223  1
  F  F32  1  0.94338430  0.53192576  0.77348848  1
  F  F33  1  0.50741478  0.94574448  0.17346741  1
  F  F34  1  0.98595266  0.80459984  0.56796215  1
  F  F35  1  0.93594393  0.83730855  0.08689569  1
