# generated using pymatgen
data_Mn12O7F17
_symmetry_space_group_name_H-M   'P 1'
_cell_length_a   4.82324325
_cell_length_b   5.81488961
_cell_length_c   15.79341641
_cell_angle_alpha   90.46570978
_cell_angle_beta   90.39614783
_cell_angle_gamma   85.14741894
_symmetry_Int_Tables_number   1
_chemical_formula_structural   Mn12O7F17
_chemical_formula_sum   'Mn12 O7 F17'
_cell_volume   441.34116597
_cell_formula_units_Z   1
loop_
 _symmetry_equiv_pos_site_id
 _symmetry_equiv_pos_as_xyz
  1  'x, y, z'
loop_
 _atom_site_type_symbol
 _atom_site_label
 _atom_site_symmetry_multiplicity
 _atom_site_fract_x
 _atom_site_fract_y
 _atom_site_fract_z
 _atom_site_occupancy
  Mn  Mn0  1  0.99498191  0.15047143  0.41610869  1
  Mn  Mn1  1  0.01090854  0.82866954  0.23688988  1
  Mn  Mn2  1  0.00510685  0.15564107  0.07982014  1
  Mn  Mn3  1  0.01672955  0.15012083  0.75570903  1
  Mn  Mn4  1  0.03190221  0.83605422  0.57885365  1
  Mn  Mn5  1  0.02447605  0.82346007  0.91324314  1
  Mn  Mn6  1  0.48582143  0.35038154  0.58633085  1
  Mn  Mn7  1  0.51331521  0.35664960  0.92742289  1
  Mn  Mn8  1  0.50859782  0.33193902  0.25994342  1
  Mn  Mn9  1  0.48334160  0.65396386  0.07980091  1
  Mn  Mn10  1  0.50758253  0.65921881  0.41819298  1
  Mn  Mn11  1  0.48091298  0.67057626  0.74704078  1
  O  O12  1  0.22364651  0.88821165  0.12895073  1
  O  O13  1  0.22660074  0.88491268  0.47039038  1
  O  O14  1  0.21672568  0.87263289  0.80779435  1
  O  O15  1  0.28363357  0.62345605  0.64302495  1
  O  O16  1  0.28661017  0.61268743  0.97393214  1
  O  O17  1  0.72301140  0.38724030  0.03117724  1
  O  O18  1  0.72248884  0.38539942  0.36711909  1
  F  F19  1  0.21810030  0.11019590  0.30515901  1
  F  F20  1  0.23428752  0.12310175  0.64273069  1
  F  F21  1  0.22599580  0.11915784  0.97199956  1
  F  F22  1  0.25141028  0.38533932  0.15120309  1
  F  F23  1  0.26671475  0.61834386  0.31234777  1
  F  F24  1  0.25286138  0.38580574  0.47414426  1
  F  F25  1  0.28628202  0.37237766  0.81787130  1
  F  F26  1  0.69963966  0.62227866  0.18932158  1
  F  F27  1  0.73087722  0.61095174  0.52720076  1
  F  F28  1  0.72788360  0.62391766  0.85025391  1
  F  F29  1  0.73722276  0.39102662  0.70015683  1
  F  F30  1  0.76872036  0.12091078  0.18612407  1
  F  F31  1  0.76791188  0.11121579  0.52941496  1
  F  F32  1  0.76164610  0.88954074  0.35236257  1
  F  F33  1  0.77814457  0.88182992  0.01596763  1
  F  F34  1  0.76628518  0.11895408  0.86680256  1
  F  F35  1  0.77962304  0.89336527  0.68519522  1
