# generated using pymatgen
data_Li3MnV(PO4)3
_symmetry_space_group_name_H-M   'P 1'
_cell_length_a   8.68524911
_cell_length_b   8.79068950
_cell_length_c   8.63229417
_cell_angle_alpha   90.00000186
_cell_angle_beta   60.20148336
_cell_angle_gamma   61.14780855
_symmetry_Int_Tables_number   1
_chemical_formula_structural   Li3MnV(PO4)3
_chemical_formula_sum   'Li6 Mn2 V2 P6 O24'
_cell_volume   475.34567407
_cell_formula_units_Z   2
loop_
 _symmetry_equiv_pos_site_id
 _symmetry_equiv_pos_as_xyz
  1  'x, y, z'
loop_
 _atom_site_type_symbol
 _atom_site_label
 _atom_site_symmetry_multiplicity
 _atom_site_fract_x
 _atom_site_fract_y
 _atom_site_fract_z
 _atom_site_occupancy
  Li  Li0  1  0.62959331  0.70668602  0.10951294  1
  Li  Li1  1  0.38436439  0.67693465  0.65185490  1
  Li  Li2  1  0.62959331  0.20668602  0.26089375  1
  Li  Li3  1  0.98671690  0.74552925  0.63752995  1
  Li  Li4  1  0.98671690  0.24552925  0.37575316  1
  Li  Li5  1  0.38436439  0.17693465  0.96378070  1
  Mn  Mn6  1  0.21090719  0.85589368  0.14799028  1
  Mn  Mn7  1  0.21090719  0.35589368  0.64110153  1
  V  V8  1  0.79504243  0.64059531  0.35740997  1
  V  V9  1  0.79504243  0.14059531  0.84754660  1
  P  P10  1  0.27923898  0.95429052  0.46926662  1
  P  P11  1  0.27923898  0.45429052  0.25149440  1
  P  P12  1  0.99763245  0.25807692  0.04559503  1
  P  P13  1  0.72367483  0.53887109  0.75049997  1
  P  P14  1  0.99763245  0.75807692  0.95677252  1
  P  P15  1  0.72367483  0.03887109  0.52582520  1
  O  O16  1  0.32305333  0.91291659  0.26906923  1
  O  O17  1  0.09197940  0.94297960  0.62084644  1
  O  O18  1  0.23710076  0.64225656  0.25243327  1
  O  O19  1  0.09197940  0.44297960  0.28717316  1
  O  O20  1  0.48050988  0.79377086  0.45024805  1
  O  O21  1  0.16691254  0.10994030  0.07325634  1
  O  O22  1  0.48050988  0.29377086  0.06924207  1
  O  O23  1  0.12667229  0.80927336  0.99417864  1
  O  O24  1  0.87392671  0.69496194  0.11102837  1
  O  O25  1  0.32305333  0.41291659  0.40787644  1
  O  O26  1  0.16691254  0.60994030  0.75983012  1
  O  O27  1  0.78266441  0.84170588  0.47922684  1
  O  O28  1  0.23710076  0.14225656  0.51046497  1
  O  O29  1  0.82269000  0.42328081  0.23015048  1
  O  O30  1  0.66982388  0.58474206  0.60235020  1
  O  O31  1  0.12667229  0.30927336  0.87914908  1
  O  O32  1  0.87392671  0.19496194  0.01504492  1
  O  O33  1  0.53480697  0.68026731  0.94572841  1
  O  O34  1  0.82269000  0.92328081  0.94715952  1
  O  O35  1  0.53480697  0.18026731  0.51946462  1
  O  O36  1  0.91368735  0.55148429  0.70548766  1
  O  O37  1  0.78266441  0.34170588  0.73810875  1
  O  O38  1  0.91368735  0.05148429  0.38082599  1
  O  O39  1  0.66982388  0.08474206  0.72782592  1
