# generated using pymatgen
data_Li4Mn2Co3O10
_symmetry_space_group_name_H-M   'P 1'
_cell_length_a   7.70257494
_cell_length_b   6.49895861
_cell_length_c   7.65777051
_cell_angle_alpha   115.66413734
_cell_angle_beta   84.43308536
_cell_angle_gamma   91.16608035
_symmetry_Int_Tables_number   1
_chemical_formula_structural   Li4Mn2Co3O10
_chemical_formula_sum   'Li8 Mn4 Co6 O20'
_cell_volume   343.79128490
_cell_formula_units_Z   2
loop_
 _symmetry_equiv_pos_site_id
 _symmetry_equiv_pos_as_xyz
  1  'x, y, z'
loop_
 _atom_site_type_symbol
 _atom_site_label
 _atom_site_symmetry_multiplicity
 _atom_site_fract_x
 _atom_site_fract_y
 _atom_site_fract_z
 _atom_site_occupancy
  Li  Li0  1  0.05091347  0.35400345  0.79428897  1
  Li  Li1  1  0.14828993  0.05786574  0.40650105  1
  Li  Li2  1  0.99834205  0.50074419  0.49159972  1
  Li  Li3  1  0.50165795  0.99925581  0.50840028  1
  Li  Li4  1  0.35171007  0.44213426  0.59349895  1
  Li  Li5  1  0.44908653  0.14599655  0.20571103  1
  Li  Li6  1  0.66234822  0.57216680  0.41183168  1
  Li  Li7  1  0.83765178  0.92783320  0.58816832  1
  Mn  Mn8  1  0.29527817  0.59838245  0.30144029  1
  Mn  Mn9  1  0.20472183  0.90161755  0.69855971  1
  Mn  Mn10  1  0.80012240  0.09190684  0.30317294  1
  Mn  Mn11  1  0.69987760  0.40809316  0.69682706  1
  Co  Co12  1  0.09735265  0.20488932  0.10113527  1
  Co  Co13  1  0.40264735  0.29511068  0.89886473  1
  Co  Co14  1  0.25000000  0.75000000  0.00000000  1
  Co  Co15  1  0.75000000  0.25000000  0.00000000  1
  Co  Co16  1  0.59891366  0.70239110  0.10074429  1
  Co  Co17  1  0.90108634  0.79760890  0.89925571  1
  O  O18  1  0.30741726  0.04100421  0.94913849  1
  O  O19  1  0.27794642  0.16728524  0.66835274  1
  O  O20  1  0.22205358  0.33271476  0.33164726  1
  O  O21  1  0.12179967  0.65046947  0.76256041  1
  O  O22  1  0.19258274  0.45899579  0.05086151  1
  O  O23  1  0.09810093  0.78124649  0.46309574  1
  O  O24  1  0.62469445  0.16096051  0.76353399  1
  O  O25  1  0.01856863  0.94606183  0.14138947  1
  O  O26  1  0.48143137  0.55393817  0.85861053  1
  O  O27  1  0.59490659  0.27855821  0.45479897  1
  O  O28  1  0.40189907  0.71875351  0.53690426  1
  O  O29  1  0.51475483  0.44032223  0.14153382  1
  O  O30  1  0.98524517  0.05967777  0.85846618  1
  O  O31  1  0.37820033  0.84953053  0.23743959  1
  O  O32  1  0.90509341  0.22144179  0.54520103  1
  O  O33  1  0.80896680  0.53796488  0.93904403  1
  O  O34  1  0.87530555  0.33903949  0.23646601  1
  O  O35  1  0.78571182  0.66607019  0.66572358  1
  O  O36  1  0.71428818  0.83392981  0.33427642  1
  O  O37  1  0.69103320  0.96203512  0.06095597  1
