# generated using pymatgen
data_Li2CoP2O7
_symmetry_space_group_name_H-M   'P 1'
_cell_length_a   7.57393544
_cell_length_b   9.75476177
_cell_length_c   15.10952930
_cell_angle_alpha   90.00000000
_cell_angle_beta   90.00000000
_cell_angle_gamma   90.00000000
_symmetry_Int_Tables_number   1
_chemical_formula_structural   Li2CoP2O7
_chemical_formula_sum   'Li16 Co8 P16 O56'
_cell_volume   1116.32127490
_cell_formula_units_Z   8
loop_
 _symmetry_equiv_pos_site_id
 _symmetry_equiv_pos_as_xyz
  1  'x, y, z'
loop_
 _atom_site_type_symbol
 _atom_site_label
 _atom_site_symmetry_multiplicity
 _atom_site_fract_x
 _atom_site_fract_y
 _atom_site_fract_z
 _atom_site_occupancy
  Li  Li0  1  0.16388733  0.77531434  0.19083632  1
  Li  Li1  1  0.16388733  0.72468566  0.69083632  1
  Li  Li2  1  0.24167586  0.28237918  0.23878434  1
  Li  Li3  1  0.24167586  0.21762082  0.73878434  1
  Li  Li4  1  0.30003089  0.72881391  0.48961667  1
  Li  Li5  1  0.30003089  0.77118609  0.98961667  1
  Li  Li6  1  0.40168060  0.24660097  0.44881356  1
  Li  Li7  1  0.40168060  0.25339903  0.94881356  1
  Li  Li8  1  0.66388733  0.27531434  0.30916368  1
  Li  Li9  1  0.66388733  0.22468566  0.80916368  1
  Li  Li10  1  0.74167586  0.78237918  0.26121566  1
  Li  Li11  1  0.74167586  0.71762082  0.76121566  1
  Li  Li12  1  0.80003089  0.22881391  0.01038333  1
  Li  Li13  1  0.80003089  0.27118609  0.51038333  1
  Li  Li14  1  0.90168060  0.74660097  0.05118644  1
  Li  Li15  1  0.90168060  0.75339903  0.55118644  1
  Co  Co16  1  0.00831997  0.00756252  0.36263834  1
  Co  Co17  1  0.00831997  0.49243748  0.86263834  1
  Co  Co18  1  0.04008671  0.50241029  0.38209997  1
  Co  Co19  1  0.04008671  0.99758971  0.88209997  1
  Co  Co20  1  0.50831997  0.50756252  0.13736166  1
  Co  Co21  1  0.50831997  0.99243748  0.63736166  1
  Co  Co22  1  0.54008671  0.00241029  0.11790003  1
  Co  Co23  1  0.54008671  0.49758971  0.61790003  1
  P  P24  1  0.14333903  0.46834350  0.04964607  1
  P  P25  1  0.14333903  0.03165650  0.54964607  1
  P  P26  1  0.17484914  0.05497177  0.06569806  1
  P  P27  1  0.17484914  0.44502823  0.56569806  1
  P  P28  1  0.38468218  0.56463058  0.31262171  1
  P  P29  1  0.38468218  0.93536942  0.81262171  1
  P  P30  1  0.38924112  0.97562431  0.30382211  1
  P  P31  1  0.38924112  0.52437569  0.80382211  1
  P  P32  1  0.64333903  0.53165650  0.95035393  1
  P  P33  1  0.64333903  0.96834350  0.45035393  1
  P  P34  1  0.67484914  0.55497177  0.43430194  1
  P  P35  1  0.67484914  0.94502823  0.93430194  1
  P  P36  1  0.88468218  0.06463058  0.18737829  1
  P  P37  1  0.88468218  0.43536942  0.68737829  1
  P  P38  1  0.88924112  0.47562431  0.19617789  1
  P  P39  1  0.88924112  0.02437569  0.69617789  1
  O  O40  1  0.08127578  0.11561104  0.15532186  1
  O  O41  1  0.08127578  0.38438896  0.65532186  1
  O  O42  1  0.05931293  0.39049806  0.48998546  1
  O  O43  1  0.05931293  0.10950194  0.98998546  1
  O  O44  1  0.13206740  0.10397636  0.45931229  1
  O  O45  1  0.13206740  0.39602364  0.95931229  1
  O  O46  1  0.14071443  0.62450476  0.04270871  1
  O  O47  1  0.14071443  0.87549524  0.54270871  1
  O  O48  1  0.18482389  0.89956940  0.07570084  1
  O  O49  1  0.18482389  0.60043060  0.57570084  1
  O  O50  1  0.20324908  0.91166505  0.29804090  1
  O  O51  1  0.20324908  0.58833495  0.79804090  1
  O  O52  1  0.24980857  0.62819406  0.37722285  1
  O  O53  1  0.24980857  0.87180594  0.87722285  1
  O  O54  1  0.29405786  0.09475355  0.60427622  1
  O  O55  1  0.29405786  0.40524645  0.10427622  1
  O  O56  1  0.35743008  0.12381692  0.06388589  1
  O  O57  1  0.35743008  0.37618308  0.56388589  1
  O  O58  1  0.37965619  0.09094134  0.81467737  1
  O  O59  1  0.37965619  0.40905866  0.31467737  1
  O  O60  1  0.39202334  0.13144636  0.30193693  1
  O  O61  1  0.39202334  0.36855364  0.80193693  1
  O  O62  1  0.37006621  0.62916728  0.21999383  1
  O  O63  1  0.37006621  0.87083272  0.71999383  1
  O  O64  1  0.51283436  0.91007897  0.23419674  1
  O  O65  1  0.51283436  0.58992103  0.73419674  1
  O  O66  1  0.46153604  0.92124535  0.39987846  1
  O  O67  1  0.46153604  0.57875465  0.89987846  1
  O  O68  1  0.58127578  0.61561104  0.34467814  1
  O  O69  1  0.58127578  0.88438896  0.84467814  1
  O  O70  1  0.55931293  0.60950194  0.51001454  1
  O  O71  1  0.55931293  0.89049806  0.01001454  1
  O  O72  1  0.63206740  0.60397636  0.04068771  1
  O  O73  1  0.63206740  0.89602364  0.54068771  1
  O  O74  1  0.64071443  0.12450476  0.45729129  1
  O  O75  1  0.64071443  0.37549524  0.95729129  1
  O  O76  1  0.68482389  0.39956940  0.42429916  1
  O  O77  1  0.68482389  0.10043060  0.92429916  1
  O  O78  1  0.70324908  0.41166505  0.20195910  1
  O  O79  1  0.70324908  0.08833495  0.70195910  1
  O  O80  1  0.74980857  0.12819406  0.12277715  1
  O  O81  1  0.74980857  0.37180594  0.62277715  1
  O  O82  1  0.79405786  0.59475355  0.89572378  1
  O  O83  1  0.79405786  0.90524645  0.39572378  1
  O  O84  1  0.85743008  0.62381692  0.43611411  1
  O  O85  1  0.85743008  0.87618308  0.93611411  1
  O  O86  1  0.87965619  0.59094134  0.68532263  1
  O  O87  1  0.87965619  0.90905866  0.18532263  1
  O  O88  1  0.89202334  0.63144636  0.19806307  1
  O  O89  1  0.89202334  0.86855364  0.69806307  1
  O  O90  1  0.87006621  0.12916728  0.28000617  1
  O  O91  1  0.87006621  0.37083272  0.78000617  1
  O  O92  1  0.01283436  0.41007897  0.26580326  1
  O  O93  1  0.01283436  0.08992103  0.76580326  1
  O  O94  1  0.96153604  0.42124535  0.10012154  1
  O  O95  1  0.96153604  0.07875465  0.60012154  1
