# generated using pymatgen
data_Fe2OF3
_symmetry_space_group_name_H-M   'P 1'
_cell_length_a   4.84070265
_cell_length_b   4.84070265
_cell_length_c   15.61306534
_cell_angle_alpha   90.00000000
_cell_angle_beta   90.00000000
_cell_angle_gamma   91.85638366
_symmetry_Int_Tables_number   1
_chemical_formula_structural   Fe2OF3
_chemical_formula_sum   'Fe10 O5 F15'
_cell_volume   365.65961480
_cell_formula_units_Z   5
loop_
 _symmetry_equiv_pos_site_id
 _symmetry_equiv_pos_as_xyz
  1  'x, y, z'
loop_
 _atom_site_type_symbol
 _atom_site_label
 _atom_site_symmetry_multiplicity
 _atom_site_fract_x
 _atom_site_fract_y
 _atom_site_fract_z
 _atom_site_occupancy
  Fe  Fe0  1  0.97828049  0.97828049  0.99991180  1
  Fe  Fe1  1  0.97828049  0.97828049  0.20008820  1
  Fe  Fe2  1  0.02246111  0.02246111  0.39981032  1
  Fe  Fe3  1  0.01162537  0.01162537  0.60000000  1
  Fe  Fe4  1  0.02246111  0.02246111  0.80018968  1
  Fe  Fe5  1  0.52474871  0.52474871  0.10000000  1
  Fe  Fe6  1  0.47529430  0.47529430  0.49967879  1
  Fe  Fe7  1  0.50021344  0.50021344  0.29965904  1
  Fe  Fe8  1  0.47529430  0.47529430  0.70032121  1
  Fe  Fe9  1  0.50021344  0.50021344  0.90034096  1
  O  O10  1  0.32018828  0.32018828  0.39693135  1
  O  O11  1  0.31080525  0.31080525  0.60000000  1
  O  O12  1  0.32018828  0.32018828  0.80306865  1
  O  O13  1  0.68023783  0.68023783  0.99751823  1
  O  O14  1  0.68023783  0.68023783  0.20248177  1
  F  F15  1  0.20465807  0.78538631  0.10000000  1
  F  F16  1  0.20824168  0.79242970  0.29987432  1
  F  F17  1  0.21215337  0.79301909  0.49974906  1
  F  F18  1  0.21215337  0.79301909  0.70025094  1
  F  F19  1  0.20824168  0.79242970  0.90012568  1
  F  F20  1  0.29595908  0.29595908  0.00219048  1
  F  F21  1  0.29595908  0.29595908  0.19780952  1
  F  F22  1  0.70422616  0.70422616  0.40215476  1
  F  F23  1  0.69736621  0.69736621  0.60000000  1
  F  F24  1  0.70422616  0.70422616  0.79784524  1
  F  F25  1  0.78538631  0.20465807  0.10000000  1
  F  F26  1  0.79301909  0.21215337  0.49974906  1
  F  F27  1  0.79242970  0.20824168  0.29987432  1
  F  F28  1  0.79242970  0.20824168  0.90012568  1
  F  F29  1  0.79301909  0.21215337  0.70025094  1
