# generated using pymatgen
data_Li4MnP6(H4O11)2
_symmetry_space_group_name_H-M   'P 1'
_cell_length_a   7.49344335
_cell_length_b   8.57368707
_cell_length_c   7.01120743
_cell_angle_alpha   103.67622452
_cell_angle_beta   93.99995174
_cell_angle_gamma   84.98040119
_symmetry_Int_Tables_number   1
_chemical_formula_structural   Li4MnP6(H4O11)2
_chemical_formula_sum   'Li4 Mn1 P6 H8 O22'
_cell_volume   435.43462001
_cell_formula_units_Z   1
loop_
 _symmetry_equiv_pos_site_id
 _symmetry_equiv_pos_as_xyz
  1  'x, y, z'
loop_
 _atom_site_type_symbol
 _atom_site_label
 _atom_site_symmetry_multiplicity
 _atom_site_fract_x
 _atom_site_fract_y
 _atom_site_fract_z
 _atom_site_occupancy
  Li  Li0  1  0.35137870  0.58457410  0.93497650  1
  Li  Li1  1  0.44134467  0.23779906  0.67899616  1
  Li  Li2  1  0.55865502  0.76220184  0.32100480  1
  Li  Li3  1  0.64862100  0.41542665  0.06502485  1
  Mn  Mn4  1  0.00000163  0.99998113  -0.00001335  1
  P  P5  1  0.01827230  0.30901528  0.77798780  1
  P  P6  1  0.21411281  0.83332557  0.55667869  1
  P  P7  1  0.29303453  0.50623618  0.34533897  1
  P  P8  1  0.70696420  0.49376518  0.65466194  1
  P  P9  1  0.78589027  0.16667623  0.44331954  1
  P  P10  1  0.98172858  0.69098552  0.22201188  1
  H  H11  1  0.25053473  0.18992627  0.26723167  1
  H  H12  1  0.27840608  0.00775790  0.27744360  1
  H  H13  1  0.39041603  0.88433954  0.98312737  1
  H  H14  1  0.41217752  0.18638454  0.03625801  1
  H  H15  1  0.58782151  0.81361633  0.96374323  1
  H  H16  1  0.60958351  0.11566202  0.01687426  1
  H  H17  1  0.72159249  0.99224363  0.72255642  1
  H  H18  1  0.74946406  0.81007288  0.73276809  1
  O  O19  1  0.02077033  0.81222322  0.43671502  1
  O  O20  1  0.08979322  0.52458056  0.25313551  1
  O  O21  1  0.21336042  0.33896908  0.80164347  1
  O  O22  1  0.06869135  0.75130255  0.06859232  1
  O  O23  1  0.18092900  0.91332803  0.76642347  1
  O  O24  1  0.23556262  0.07765876  0.18540443  1
  O  O25  1  0.28249449  0.64584634  0.54796581  1
  O  O26  1  0.32260878  0.34925245  0.40253242  1
  O  O27  1  0.34446848  0.90281333  0.45199064  1
  O  O28  1  0.52498393  0.19924851  0.98096024  1
  O  O29  1  0.42116374  0.54698799  0.20888960  1
  O  O30  1  0.57883540  0.45301134  0.79111074  1
  O  O31  1  0.47501693  0.80075224  0.01904005  1
  O  O32  1  0.65553214  0.09718974  0.54801140  1
  O  O33  1  0.67739017  0.65075034  0.59747004  1
  O  O34  1  0.71750500  0.35415565  0.45203518  1
  O  O35  1  0.76443638  0.92234038  0.81459576  1
  O  O36  1  0.81907087  0.08667431  0.23357622  1
  O  O37  1  0.93130975  0.24869740  0.93140895  1
  O  O38  1  0.78664010  0.66103276  0.19835681  1
  O  O39  1  0.91020718  0.47541957  0.74686523  1
  O  O40  1  0.97923005  0.18777659  0.56328624  1
