# generated using pymatgen
data_La3Co2S7
_symmetry_space_group_name_H-M   'P 1'
_cell_length_a   5.94505734
_cell_length_b   10.11860126
_cell_length_c   10.11872506
_cell_angle_alpha   120.01147545
_cell_angle_beta   90.00000000
_cell_angle_gamma   90.00000000
_symmetry_Int_Tables_number   1
_chemical_formula_structural   La3Co2S7
_chemical_formula_sum   'La6 Co4 S14'
_cell_volume   527.08751108
_cell_formula_units_Z   2
loop_
 _symmetry_equiv_pos_site_id
 _symmetry_equiv_pos_as_xyz
  1  'x, y, z'
loop_
 _atom_site_type_symbol
 _atom_site_label
 _atom_site_symmetry_multiplicity
 _atom_site_fract_x
 _atom_site_fract_y
 _atom_site_fract_z
 _atom_site_occupancy
  La  La0  1  0.24800734  0.24013268  0.38299428  1
  La  La1  1  0.24788133  0.61700769  0.85705329  1
  La  La2  1  0.24794267  0.14298055  0.75993936  1
  La  La3  1  0.74800734  0.75986732  0.61700572  1
  La  La4  1  0.74788133  0.38299231  0.14294671  1
  La  La5  1  0.74794267  0.85701945  0.24006064  1
  Co  Co6  1  0.48571527  0.00000401  0.00000006  1
  Co  Co7  1  0.98571527  0.99999599  0.99999994  1
  Co  Co8  1  0.84268932  0.33337761  0.66670544  1
  Co  Co9  1  0.34268932  0.66662239  0.33329456  1
  S  S10  1  0.73251436  0.12874332  0.20509848  1
  S  S11  1  0.73251223  0.79488551  0.92364420  1
  S  S12  1  0.73252636  0.07633389  0.87124218  1
  S  S13  1  0.23251436  0.87125668  0.79490152  1
  S  S14  1  0.23251223  0.20511449  0.07635580  1
  S  S15  1  0.23252636  0.92366611  0.12875782  1
  S  S16  1  0.97297165  0.09768509  0.51329153  1
  S  S17  1  0.97290464  0.48669992  0.58431927  1
  S  S18  1  0.97290409  0.41572747  0.90240873  1
  S  S19  1  0.47297165  0.90231491  0.48670847  1
  S  S20  1  0.47290464  0.51330008  0.41568073  1
  S  S21  1  0.47290409  0.58427253  0.09759127  1
  S  S22  1  0.47143074  0.33338919  0.66666799  1
  S  S23  1  0.97143074  0.66661081  0.33333201  1
