# generated using pymatgen
data_Li2Mn3(BO3)3
_symmetry_space_group_name_H-M   'P 1'
_cell_length_a   7.86957475
_cell_length_b   5.29382169
_cell_length_c   9.59069128
_cell_angle_alpha   75.78504982
_cell_angle_beta   74.97210709
_cell_angle_gamma   87.38293633
_symmetry_Int_Tables_number   1
_chemical_formula_structural   Li2Mn3(BO3)3
_chemical_formula_sum   'Li4 Mn6 B6 O18'
_cell_volume   374.00018935
_cell_formula_units_Z   2
loop_
 _symmetry_equiv_pos_site_id
 _symmetry_equiv_pos_as_xyz
  1  'x, y, z'
loop_
 _atom_site_type_symbol
 _atom_site_label
 _atom_site_symmetry_multiplicity
 _atom_site_fract_x
 _atom_site_fract_y
 _atom_site_fract_z
 _atom_site_occupancy
  Li  Li0  1  0.41464880  0.21420582  0.75855070  1
  Li  Li1  1  0.55974146  0.80349762  0.24975598  1
  Li  Li2  1  0.91868420  0.11912718  0.57478330  1
  Li  Li3  1  0.77359254  0.52983638  0.08357702  1
  Mn  Mn4  1  0.36685799  0.77201370  0.61932020  1
  Mn  Mn5  1  0.04430833  0.44192866  0.28845985  1
  Mn  Mn6  1  0.28902467  0.89140534  0.04487315  1
  Mn  Mn7  1  0.69547416  0.10966465  0.94509663  1
  Mn  Mn8  1  0.96647501  0.56131930  0.71401280  1
  Mn  Mn9  1  0.63785884  0.22366935  0.38823637  1
  B  B10  1  0.08223218  0.01882135  0.81786865  1
  B  B11  1  0.58459243  0.65372249  0.83875260  1
  B  B12  1  0.25110082  0.31451265  0.51546535  1
  B  B13  1  0.74874157  0.67961051  0.49458040  1
  B  B14  1  0.41892873  0.34418651  0.16388494  1
  B  B15  1  0.91440427  0.98914649  0.16944806  1
  O  O16  1  0.12722719  0.79013516  0.77366316  1
  O  O17  1  0.17833134  0.12186894  0.89122120  1
  O  O18  1  0.05727293  0.84353519  0.20384723  1
  O  O19  1  0.52679112  0.89100644  0.87672809  1
  O  O20  1  0.20610581  0.54319784  0.55967084  1
  O  O21  1  0.50019379  0.53930226  0.76306251  1
  O  O22  1  0.15500166  0.21146406  0.44211180  1
  O  O23  1  0.72941624  0.53190962  0.88797112  1
  O  O24  1  0.39489210  0.17966328  0.55934372  1
  O  O25  1  0.60391676  0.80142438  0.44536188  1
  O  O26  1  0.27606007  0.48979881  0.12948577  1
  O  O27  1  0.83313921  0.79403074  0.57027049  1
  O  O28  1  0.53031848  0.45380360  0.22364463  1
  O  O29  1  0.80654288  0.44232656  0.45660491  1
  O  O30  1  0.45255763  0.10398004  0.12826016  1
  O  O31  1  0.93844090  0.15367072  0.77398928  1
  O  O32  1  0.80301552  0.87953040  0.10968837  1
  O  O33  1  0.88077537  0.22935396  0.20507384  1
