# generated using pymatgen
data_Li2Cr(PO4)2
_symmetry_space_group_name_H-M   'P 1'
_cell_length_a   4.91109750
_cell_length_b   8.24105925
_cell_length_c   8.67842339
_cell_angle_alpha   114.77973131
_cell_angle_beta   103.73459355
_cell_angle_gamma   90.43148874
_symmetry_Int_Tables_number   1
_chemical_formula_structural   Li2Cr(PO4)2
_chemical_formula_sum   'Li4 Cr2 P4 O16'
_cell_volume   307.49007057
_cell_formula_units_Z   2
loop_
 _symmetry_equiv_pos_site_id
 _symmetry_equiv_pos_as_xyz
  1  'x, y, z'
loop_
 _atom_site_type_symbol
 _atom_site_label
 _atom_site_symmetry_multiplicity
 _atom_site_fract_x
 _atom_site_fract_y
 _atom_site_fract_z
 _atom_site_occupancy
  Li  Li0  1  0.13675892  0.91131357  0.69436512  1
  Li  Li1  1  0.38257489  0.61070701  0.40969335  1
  Li  Li2  1  0.61742511  0.38929299  0.59030665  1
  Li  Li3  1  0.86324108  0.08868643  0.30563488  1
  Cr  Cr4  1  0.27614625  0.76809729  0.05210525  1
  Cr  Cr5  1  0.72385375  0.23190271  0.94789475  1
  P  P6  1  0.14802575  0.32343943  0.75513732  1
  P  P7  1  0.30841035  0.19966213  0.18393141  1
  P  P8  1  0.69158965  0.80033787  0.81606859  1
  P  P9  1  0.85197425  0.67656057  0.24486268  1
  O  O10  1  0.01969198  0.83602419  0.87609069  1
  O  O11  1  0.11863860  0.51507048  0.88295338  1
  O  O12  1  0.02114401  0.72299714  0.43402136  1
  O  O13  1  0.99691134  0.81520770  0.19513258  1
  O  O14  1  0.46022413  0.28723873  0.76223457  1
  O  O15  1  0.56874205  0.96993822  0.80430813  1
  O  O16  1  0.57986938  0.74562801  0.94256603  1
  O  O17  1  0.59236862  0.64245743  0.63674493  1
  O  O18  1  0.40763138  0.35754257  0.36325507  1
  O  O19  1  0.42013062  0.25437199  0.05743397  1
  O  O20  1  0.43125795  0.03006178  0.19569187  1
  O  O21  1  0.53977587  0.71276127  0.23776543  1
  O  O22  1  0.00308866  0.18479230  0.80486742  1
  O  O23  1  0.97885599  0.27700286  0.56597864  1
  O  O24  1  0.88136140  0.48492952  0.11704662  1
  O  O25  1  0.98030802  0.16397581  0.12390931  1
