# generated using pymatgen
data_Li5Mn8(BO3)8
_symmetry_space_group_name_H-M   'P 1'
_cell_length_a   5.25554894
_cell_length_b   9.17346963
_cell_length_c   10.48408878
_cell_angle_alpha   90.36065156
_cell_angle_beta   91.40198191
_cell_angle_gamma   88.88647241
_symmetry_Int_Tables_number   1
_chemical_formula_structural   Li5Mn8(BO3)8
_chemical_formula_sum   'Li5 Mn8 B8 O24'
_cell_volume   505.19959120
_cell_formula_units_Z   1
loop_
 _symmetry_equiv_pos_site_id
 _symmetry_equiv_pos_as_xyz
  1  'x, y, z'
loop_
 _atom_site_type_symbol
 _atom_site_label
 _atom_site_symmetry_multiplicity
 _atom_site_fract_x
 _atom_site_fract_y
 _atom_site_fract_z
 _atom_site_occupancy
  Li  Li0  1  0.92862883  0.92906453  0.34537832  1
  Li  Li1  1  0.07277214  0.98865332  0.73033003  1
  Li  Li2  1  0.57538149  0.58337477  0.09732337  1
  Li  Li3  1  0.44374650  0.41536720  0.33233409  1
  Li  Li4  1  0.38931180  0.42824704  0.83444811  1
  Mn  Mn5  1  0.91187321  0.26097117  0.37558769  1
  Mn  Mn6  1  0.89220079  0.59859664  0.87005796  1
  Mn  Mn7  1  0.56685064  0.91108677  0.12917443  1
  Mn  Mn8  1  0.55394060  0.24671591  0.61631997  1
  Mn  Mn9  1  0.43788932  0.74849340  0.37627528  1
  Mn  Mn10  1  0.47301067  0.08808698  0.87681221  1
  Mn  Mn11  1  0.08776996  0.40396997  0.11406265  1
  Mn  Mn12  1  0.09118173  0.72102304  0.61743718  1
  B  B13  1  0.93147888  0.57038585  0.37767675  1
  B  B14  1  0.93212175  0.25635507  0.86642805  1
  B  B15  1  0.61489661  0.24952290  0.12776748  1
  B  B16  1  0.57236002  0.91245988  0.63149567  1
  B  B17  1  0.40975284  0.08680645  0.37283427  1
  B  B18  1  0.38346721  0.75228984  0.87433706  1
  B  B19  1  0.07511803  0.73460088  0.14062954  1
  B  B20  1  0.04794140  0.42038236  0.62305499  1
  O  O21  1  0.93492203  0.85280903  0.17501822  1
  O  O22  1  0.91608207  0.30904994  0.55833826  1
  O  O23  1  0.95888507  0.61736715  0.07637101  1
  O  O24  1  0.90722876  0.54524465  0.66097907  1
  O  O25  1  0.85506252  0.23819673  0.19000012  1
  O  O26  1  0.82689750  0.89986673  0.62444302  1
  O  O27  1  0.67545782  0.56832993  0.36429777  1
  O  O28  1  0.66683403  0.26388443  0.83057530  1
  O  O29  1  0.55063216  0.96607738  0.33305218  1
  O  O30  1  0.48186302  0.87934271  0.92719238  1
  O  O31  1  0.54052428  0.21592807  0.40711555  1
  O  O32  1  0.50049337  0.61975517  0.89733155  1
  O  O33  1  0.47684219  0.37703216  0.13678984  1
  O  O34  1  0.41099792  0.81190684  0.57360098  1
  O  O35  1  0.53348377  0.12784351  0.05950490  1
  O  O36  1  0.45047328  0.03409602  0.69199190  1
  O  O37  1  0.33692668  0.72467664  0.17217520  1
  O  O38  1  0.29889333  0.40931681  0.65282420  1
  O  O39  1  0.15311517  0.08612054  0.38322575  1
  O  O40  1  0.15351713  0.76308814  0.80249741  1
  O  O41  1  0.08296941  0.45166794  0.33678647  1
  O  O42  1  0.03831188  0.38531970  0.91179602  1
  O  O43  1  0.05887238  0.69140259  0.43082928  1
  O  O44  1  0.07237982  0.13242822  0.85621652  1
