# generated using pymatgen
data_Ta2Zn4O9
_symmetry_space_group_name_H-M   'P 1'
_cell_length_a   5.22271129
_cell_length_b   9.07437842
_cell_length_c   14.51210747
_cell_angle_alpha   90.00000000
_cell_angle_beta   90.00000000
_cell_angle_gamma   90.00000000
_symmetry_Int_Tables_number   1
_chemical_formula_structural   Ta2Zn4O9
_chemical_formula_sum   'Ta8 Zn16 O36'
_cell_volume   687.77025766
_cell_formula_units_Z   4
loop_
 _symmetry_equiv_pos_site_id
 _symmetry_equiv_pos_as_xyz
  1  'x, y, z'
loop_
 _atom_site_type_symbol
 _atom_site_label
 _atom_site_symmetry_multiplicity
 _atom_site_fract_x
 _atom_site_fract_y
 _atom_site_fract_z
 _atom_site_occupancy
  Ta  Ta0  1  0.00375627  0.01803067  0.14302133  1
  Ta  Ta1  1  0.00375627  0.98196933  0.35697867  1
  Ta  Ta2  1  0.49624373  0.48196933  0.64302133  1
  Ta  Ta3  1  0.49624373  0.51803067  0.85697867  1
  Ta  Ta4  1  0.50375627  0.51803067  0.35697867  1
  Ta  Ta5  1  0.50375627  0.48196933  0.14302133  1
  Ta  Ta6  1  0.99624373  0.01803067  0.64302133  1
  Ta  Ta7  1  0.99624373  0.98196933  0.85697867  1
  Zn  Zn8  1  0.00296155  0.33592612  0.30172216  1
  Zn  Zn9  1  0.00296155  0.66407388  0.19827784  1
  Zn  Zn10  1  0.00810270  0.66174473  0.49611817  1
  Zn  Zn11  1  0.00810270  0.33825527  0.00388183  1
  Zn  Zn12  1  0.49189730  0.16174473  0.50388183  1
  Zn  Zn13  1  0.49189730  0.83825527  0.99611817  1
  Zn  Zn14  1  0.49703845  0.83592612  0.69827784  1
  Zn  Zn15  1  0.49703845  0.16407388  0.80172216  1
  Zn  Zn16  1  0.50296155  0.83592612  0.19827784  1
  Zn  Zn17  1  0.50296155  0.16407388  0.30172216  1
  Zn  Zn18  1  0.50810270  0.16174473  0.00388183  1
  Zn  Zn19  1  0.50810270  0.83825527  0.49611817  1
  Zn  Zn20  1  0.99189730  0.33825527  0.50388183  1
  Zn  Zn21  1  0.99189730  0.66174473  0.99611817  1
  Zn  Zn22  1  0.99703845  0.66407388  0.69827784  1
  Zn  Zn23  1  0.99703845  0.33592612  0.80172216  1
  O  O24  1  0.13737147  0.14289037  0.75069253  1
  O  O25  1  0.13737147  0.85710963  0.74930747  1
  O  O26  1  0.16275631  0.16649237  0.07413978  1
  O  O27  1  0.16275631  0.83350763  0.42586022  1
  O  O28  1  0.17665709  0.50635288  0.08580704  1
  O  O29  1  0.17665709  0.49364712  0.41419296  1
  O  O30  1  0.18037841  0.15871674  0.40475187  1
  O  O31  1  0.18037841  0.84128326  0.09524813  1
  O  O32  1  0.21279364  0.50000000  0.75000000  1
  O  O33  1  0.28720636  0.00000000  0.25000000  1
  O  O34  1  0.31962159  0.65871674  0.59524813  1
  O  O35  1  0.31962159  0.34128326  0.90475187  1
  O  O36  1  0.32334291  0.99364712  0.58580704  1
  O  O37  1  0.32334291  0.00635288  0.91419296  1
  O  O38  1  0.33724369  0.33350763  0.57413978  1
  O  O39  1  0.33724369  0.66649237  0.92586022  1
  O  O40  1  0.36262853  0.35710963  0.25069253  1
  O  O41  1  0.36262853  0.64289037  0.24930747  1
  O  O42  1  0.63737147  0.35710963  0.75069253  1
  O  O43  1  0.63737147  0.64289037  0.74930747  1
  O  O44  1  0.66275631  0.33350763  0.07413978  1
  O  O45  1  0.66275631  0.66649237  0.42586022  1
  O  O46  1  0.67665709  0.00635288  0.41419296  1
  O  O47  1  0.67665709  0.99364712  0.08580704  1
  O  O48  1  0.68037841  0.34128326  0.40475187  1
  O  O49  1  0.68037841  0.65871674  0.09524813  1
  O  O50  1  0.71279364  0.00000000  0.75000000  1
  O  O51  1  0.78720636  0.50000000  0.25000000  1
  O  O52  1  0.81962159  0.15871674  0.90475187  1
  O  O53  1  0.81962159  0.84128326  0.59524813  1
  O  O54  1  0.82334291  0.49364712  0.91419296  1
  O  O55  1  0.82334291  0.50635288  0.58580704  1
  O  O56  1  0.83724369  0.16649237  0.57413978  1
  O  O57  1  0.83724369  0.83350763  0.92586022  1
  O  O58  1  0.86262853  0.14289037  0.25069253  1
  O  O59  1  0.86262853  0.85710963  0.24930747  1
