# generated using pymatgen
data_Sc2Ti2O7
_symmetry_space_group_name_H-M   'P 1'
_cell_length_a   7.36407918
_cell_length_b   5.09827230
_cell_length_c   25.93184663
_cell_angle_alpha   90.00000000
_cell_angle_beta   98.05344759
_cell_angle_gamma   90.00000000
_symmetry_Int_Tables_number   1
_chemical_formula_structural   Sc2Ti2O7
_chemical_formula_sum   'Sc16 Ti16 O56'
_cell_volume   963.98564638
_cell_formula_units_Z   8
loop_
 _symmetry_equiv_pos_site_id
 _symmetry_equiv_pos_as_xyz
  1  'x, y, z'
loop_
 _atom_site_type_symbol
 _atom_site_label
 _atom_site_symmetry_multiplicity
 _atom_site_fract_x
 _atom_site_fract_y
 _atom_site_fract_z
 _atom_site_occupancy
  Sc  Sc0  1  0.16846445  0.24831225  0.80304194  1
  Sc  Sc1  1  0.21769419  0.76507645  0.93136771  1
  Sc  Sc2  1  0.14349285  0.16767469  0.27778428  1
  Sc  Sc3  1  0.32241626  0.74359548  0.70134732  1
  Sc  Sc4  1  0.22827299  0.71738178  0.46658695  1
  Sc  Sc5  1  0.28346633  0.26435899  0.56915296  1
  Sc  Sc6  1  0.27014601  0.22080626  0.03385748  1
  Sc  Sc7  1  0.36158322  0.67896343  0.22102812  1
  Sc  Sc8  1  0.63841678  0.17896343  0.77897188  1
  Sc  Sc9  1  0.72985399  0.72080626  0.96614252  1
  Sc  Sc10  1  0.71653367  0.76435899  0.43084704  1
  Sc  Sc11  1  0.77172701  0.21738178  0.53341305  1
  Sc  Sc12  1  0.67758374  0.24359548  0.29865268  1
  Sc  Sc13  1  0.85650715  0.66767469  0.72221572  1
  Sc  Sc14  1  0.78230581  0.26507645  0.06863229  1
  Sc  Sc15  1  0.83153555  0.74831225  0.19695806  1
  Ti  Ti16  1  0.06974657  0.22188816  0.66390143  1
  Ti  Ti17  1  0.03013203  0.73311661  0.56346977  1
  Ti  Ti18  1  0.03486887  0.74079867  0.05960261  1
  Ti  Ti19  1  0.47099025  0.23826098  0.93796655  1
  Ti  Ti20  1  0.43042996  0.72953565  0.83723913  1
  Ti  Ti21  1  0.08422801  0.24041401  0.16054287  1
  Ti  Ti22  1  0.46479373  0.23852108  0.44005268  1
  Ti  Ti23  1  0.58579145  0.23531161  0.66152433  1
  Ti  Ti24  1  0.41420855  0.73531161  0.33847567  1
  Ti  Ti25  1  0.53520627  0.73852108  0.55994732  1
  Ti  Ti26  1  0.91577199  0.74041401  0.83945713  1
  Ti  Ti27  1  0.56957004  0.22953565  0.16276087  1
  Ti  Ti28  1  0.52900975  0.73826098  0.06203345  1
  Ti  Ti29  1  0.96513113  0.24079867  0.94039739  1
  Ti  Ti30  1  0.96986797  0.23311661  0.43653023  1
  Ti  Ti31  1  0.93025343  0.72188816  0.33609857  1
  O  O32  1  0.06514830  0.94962072  0.98794239  1
  O  O33  1  0.01943252  0.04956695  0.88494162  1
  O  O34  1  0.14184338  0.54052201  0.61893113  1
  O  O35  1  0.99470334  0.08302125  0.58750017  1
  O  O36  1  0.14914968  0.42199554  0.72736456  1
  O  O37  1  0.17565896  0.60079712  0.85081412  1
  O  O38  1  0.04449670  0.89582252  0.68973222  1
  O  O39  1  0.22871919  0.37973945  0.95742962  1
  O  O40  1  0.07644647  0.45326608  0.51397073  1
  O  O41  1  0.35911444  0.04776660  0.88210073  1
  O  O42  1  0.42410134  0.95387695  0.98681675  1
  O  O43  1  0.34614234  0.92666107  0.77463872  1
  O  O44  1  0.04280104  0.45059433  0.21555918  1
  O  O45  1  0.32608209  0.09629264  0.65270605  1
  O  O46  1  0.27172305  0.87863541  0.54331857  1
  O  O47  1  0.16723618  0.86938942  0.33472213  1
  O  O48  1  0.21774631  0.11323189  0.44027701  1
  O  O49  1  0.13919500  0.94901072  0.20732547  1
  O  O50  1  0.45015460  0.40398897  0.81074736  1
  O  O51  1  0.09723598  0.08250307  0.08800136  1
  O  O52  1  0.50577059  0.58734180  0.91321658  1
  O  O53  1  0.43372362  0.44852073  0.51169766  1
  O  O54  1  0.59985935  0.07761733  0.58925766  1
  O  O55  1  0.48191675  0.53961612  0.61432659  1
  O  O56  1  0.28179511  0.61522117  0.06007771  1
  O  O57  1  0.44626077  0.96223219  0.28358767  1
  O  O58  1  0.64512152  0.95840524  0.71053620  1
  O  O59  1  0.33178627  0.37342760  0.16529672  1
  O  O60  1  0.66821373  0.87342760  0.83470328  1
  O  O61  1  0.35487848  0.45840524  0.28946380  1
  O  O62  1  0.55373923  0.46223219  0.71641233  1
  O  O63  1  0.71820489  0.11522117  0.93992229  1
  O  O64  1  0.51808325  0.03961612  0.38567341  1
  O  O65  1  0.40014065  0.57761733  0.41074234  1
  O  O66  1  0.56627638  0.94852073  0.48830234  1
  O  O67  1  0.49422941  0.08734180  0.08678342  1
  O  O68  1  0.90276402  0.58250307  0.91199864  1
  O  O69  1  0.54984540  0.90398897  0.18925264  1
  O  O70  1  0.86080500  0.44901072  0.79267453  1
  O  O71  1  0.78225369  0.61323189  0.55972299  1
  O  O72  1  0.83276382  0.36938942  0.66527787  1
  O  O73  1  0.72827695  0.37863541  0.45668143  1
  O  O74  1  0.67391791  0.59629264  0.34729395  1
  O  O75  1  0.95719896  0.95059433  0.78444082  1
  O  O76  1  0.65385766  0.42666107  0.22536128  1
  O  O77  1  0.57589866  0.45387695  0.01318325  1
  O  O78  1  0.64088556  0.54776660  0.11789927  1
  O  O79  1  0.92355353  0.95326608  0.48602927  1
  O  O80  1  0.77128081  0.87973945  0.04257038  1
  O  O81  1  0.95550330  0.39582252  0.31026778  1
  O  O82  1  0.82434104  0.10079712  0.14918588  1
  O  O83  1  0.85085032  0.92199554  0.27263544  1
  O  O84  1  0.00529666  0.58302125  0.41249983  1
  O  O85  1  0.85815662  0.04052201  0.38106887  1
  O  O86  1  0.98056748  0.54956695  0.11505838  1
  O  O87  1  0.93485170  0.44962072  0.01205761  1
