# generated using pymatgen
data_Li5Ti2Cu3O10
_symmetry_space_group_name_H-M   'P 1'
_cell_length_a   5.09967420
_cell_length_b   5.55360859
_cell_length_c   7.64847573
_cell_angle_alpha   103.22959821
_cell_angle_beta   103.31965059
_cell_angle_gamma   105.81998234
_symmetry_Int_Tables_number   1
_chemical_formula_structural   Li5Ti2Cu3O10
_chemical_formula_sum   'Li5 Ti2 Cu3 O10'
_cell_volume   192.71407252
_cell_formula_units_Z   1
loop_
 _symmetry_equiv_pos_site_id
 _symmetry_equiv_pos_as_xyz
  1  'x, y, z'
loop_
 _atom_site_type_symbol
 _atom_site_label
 _atom_site_symmetry_multiplicity
 _atom_site_fract_x
 _atom_site_fract_y
 _atom_site_fract_z
 _atom_site_occupancy
  Li  Li0  1  0.20896914  0.88724870  0.38427973  1
  Li  Li1  1  0.40654342  0.30647483  0.79838358  1
  Li  Li2  1  0.50000000  0.50000000  0.50000000  1
  Li  Li3  1  0.59345658  0.69352517  0.20161642  1
  Li  Li4  1  0.79103086  0.11275230  0.61572027  1
  Ti  Ti5  1  0.09564665  0.69548660  0.69403909  1
  Ti  Ti6  1  0.90435335  0.30451340  0.30596091  1
  Cu  Cu7  1  0.00000000  0.50000000  0.00000000  1
  Cu  Cu8  1  0.69775967  0.88830553  0.90022293  1
  Cu  Cu9  1  0.30224033  0.11169447  0.09977707  1
  O  O10  1  0.05836789  0.03223331  0.84085941  1
  O  O11  1  0.35296802  0.67452933  0.93265656  1
  O  O12  1  0.12861269  0.32888938  0.54513032  1
  O  O13  1  0.21639803  0.52631227  0.24523872  1
  O  O14  1  0.45748196  0.87851022  0.66560694  1
  O  O15  1  0.54251804  0.12148978  0.33439306  1
  O  O16  1  0.78360197  0.47368773  0.75476128  1
  O  O17  1  0.87138731  0.67111062  0.45486968  1
  O  O18  1  0.64703198  0.32547067  0.06734344  1
  O  O19  1  0.94163211  0.96776769  0.15914059  1
