# generated using pymatgen
data_Li4Cr5(P3O11)2
_symmetry_space_group_name_H-M   'P 1'
_cell_length_a   12.63548660
_cell_length_b   6.91336193
_cell_length_c   10.91090086
_cell_angle_alpha   90.00000000
_cell_angle_beta   105.06308681
_cell_angle_gamma   90.00000000
_symmetry_Int_Tables_number   1
_chemical_formula_structural   Li4Cr5(P3O11)2
_chemical_formula_sum   'Li8 Cr10 P12 O44'
_cell_volume   920.35895021
_cell_formula_units_Z   2
loop_
 _symmetry_equiv_pos_site_id
 _symmetry_equiv_pos_as_xyz
  1  'x, y, z'
loop_
 _atom_site_type_symbol
 _atom_site_label
 _atom_site_symmetry_multiplicity
 _atom_site_fract_x
 _atom_site_fract_y
 _atom_site_fract_z
 _atom_site_occupancy
  Li  Li0  1  0.18513516  0.16846473  0.55211913  1
  Li  Li1  1  0.18513516  0.33153527  0.05211913  1
  Li  Li2  1  0.32878502  0.51309770  0.89664070  1
  Li  Li3  1  0.32878502  0.98690230  0.39664070  1
  Li  Li4  1  0.67121498  0.01309770  0.60335930  1
  Li  Li5  1  0.67121498  0.48690230  0.10335930  1
  Li  Li6  1  0.81486484  0.66846473  0.94788087  1
  Li  Li7  1  0.81486484  0.83153527  0.44788087  1
  Cr  Cr8  1  0.00000000  0.50000000  0.50000000  1
  Cr  Cr9  1  0.12673459  0.75316338  0.78696063  1
  Cr  Cr10  1  0.00000000  0.00000000  0.00000000  1
  Cr  Cr11  1  0.12673459  0.74683662  0.28696063  1
  Cr  Cr12  1  0.33861467  0.98268735  0.79346596  1
  Cr  Cr13  1  0.33861467  0.51731265  0.29346596  1
  Cr  Cr14  1  0.66138533  0.48268735  0.70653404  1
  Cr  Cr15  1  0.66138533  0.01731265  0.20653404  1
  Cr  Cr16  1  0.87326541  0.25316338  0.71303937  1
  Cr  Cr17  1  0.87326541  0.24683662  0.21303937  1
  P  P18  1  0.09870352  0.26226195  0.77001056  1
  P  P19  1  0.09870352  0.23773805  0.27001056  1
  P  P20  1  0.26249131  0.61444383  0.57192184  1
  P  P21  1  0.26249131  0.88555617  0.07192184  1
  P  P22  1  0.41716314  0.29562448  0.56914727  1
  P  P23  1  0.41716314  0.20437552  0.06914727  1
  P  P24  1  0.58283686  0.79562448  0.93085273  1
  P  P25  1  0.58283686  0.70437552  0.43085273  1
  P  P26  1  0.73750869  0.11444383  0.92807816  1
  P  P27  1  0.73750869  0.38555617  0.42807816  1
  P  P28  1  0.90129648  0.76226195  0.72998944  1
  P  P29  1  0.90129648  0.73773805  0.22998844  1
  O  O30  1  0.01870828  0.21873820  0.85487311  1
  O  O31  1  0.00964588  0.30286470  0.64047244  1
  O  O32  1  0.01870828  0.28126180  0.35487311  1
  O  O33  1  0.00964588  0.19713530  0.14047244  1
  O  O34  1  0.17246088  0.43114182  0.83014111  1
  O  O35  1  0.16895011  0.09158089  0.74213480  1
  O  O36  1  0.17480620  0.45765456  0.54588040  1
  O  O37  1  0.26018665  0.76691877  0.95202556  1
  O  O38  1  0.17246088  0.06885818  0.33014111  1
  O  O39  1  0.16895011  0.40841911  0.24213480  1
  O  O40  1  0.25474046  0.74483422  0.68412524  1
  O  O41  1  0.17480620  0.04234544  0.04588040  1
  O  O42  1  0.26018665  0.73308123  0.45202556  1
  O  O43  1  0.39308121  0.20216974  0.92329965  1
  O  O44  1  0.25474046  0.75516578  0.18412524  1
  O  O45  1  0.34728054  0.13504267  0.60582027  1
  O  O46  1  0.37952377  0.50620015  0.61660196  1
  O  O47  1  0.46189963  0.78153388  0.86241320  1
  O  O48  1  0.39308121  0.29783026  0.42329965  1
  O  O49  1  0.34728054  0.36495733  0.10582027  1
  O  O50  1  0.37952377  0.99379985  0.11660196  1
  O  O51  1  0.46189963  0.71846612  0.36241320  1
  O  O52  1  0.53810037  0.28153388  0.63758680  1
  O  O53  1  0.62047623  0.00620015  0.88339804  1
  O  O54  1  0.65271946  0.63504267  0.89417973  1
  O  O55  1  0.60691879  0.70216974  0.57670035  1
  O  O56  1  0.53810037  0.21846612  0.13758680  1
  O  O57  1  0.62047623  0.49379985  0.38339804  1
  O  O58  1  0.65271946  0.86495733  0.39417973  1
  O  O59  1  0.74525954  0.24483422  0.81587476  1
  O  O60  1  0.60691879  0.79783026  0.07670035  1
  O  O61  1  0.73981335  0.26691877  0.54797444  1
  O  O62  1  0.82519380  0.95765456  0.95411960  1
  O  O63  1  0.74525954  0.25516578  0.31587476  1
  O  O64  1  0.83104989  0.59158089  0.75786520  1
  O  O65  1  0.82753912  0.93114182  0.66985889  1
  O  O66  1  0.73981335  0.23308123  0.04797444  1
  O  O67  1  0.82519380  0.54234544  0.45411960  1
  O  O68  1  0.83104989  0.90841911  0.25786520  1
  O  O69  1  0.82753912  0.56885818  0.16985889  1
  O  O70  1  0.99035412  0.80286470  0.85952756  1
  O  O71  1  0.98129172  0.71873820  0.64512689  1
  O  O72  1  0.99035412  0.69713530  0.35952756  1
  O  O73  1  0.98129172  0.78126180  0.14512689  1
