# generated using pymatgen
data_Na4Fe2P(CO4)4
_symmetry_space_group_name_H-M   'P 1'
_cell_length_a   9.96750327
_cell_length_b   9.77142876
_cell_length_c   9.96750298
_cell_angle_alpha   60.86347470
_cell_angle_beta   92.60045984
_cell_angle_gamma   60.86347185
_symmetry_Int_Tables_number   1
_chemical_formula_structural   Na4Fe2P(CO4)4
_chemical_formula_sum   'Na8 Fe4 P2 C8 O32'
_cell_volume   688.03904064
_cell_formula_units_Z   2
loop_
 _symmetry_equiv_pos_site_id
 _symmetry_equiv_pos_as_xyz
  1  'x, y, z'
loop_
 _atom_site_type_symbol
 _atom_site_label
 _atom_site_symmetry_multiplicity
 _atom_site_fract_x
 _atom_site_fract_y
 _atom_site_fract_z
 _atom_site_occupancy
  Na  Na0  1  0.08519978  0.82959945  0.83519978  1
  Na  Na1  1  0.08498570  0.25000000  0.83498570  1
  Na  Na2  1  0.33498570  0.75000000  0.58498570  1
  Na  Na3  1  0.33519978  0.32959945  0.58519978  1
  Na  Na4  1  0.66480022  0.67040055  0.41480022  1
  Na  Na5  1  0.66501430  0.25000000  0.41501430  1
  Na  Na6  1  0.91501430  0.75000000  0.16501430  1
  Na  Na7  1  0.91480022  0.17040055  0.16480022  1
  Fe  Fe8  1  0.00000000  0.50000000  0.00000000  1
  Fe  Fe9  1  0.50000000  0.00000000  0.50000000  1
  Fe  Fe10  1  0.50000000  0.50000000  0.00000000  1
  Fe  Fe11  1  0.50000000  0.00000000  0.00000000  1
  P  P12  1  0.12500000  0.75000000  0.37500000  1
  P  P13  1  0.87500000  0.25000000  0.62500000  1
  C  C14  1  0.35823381  0.93008709  0.77827119  1
  C  C15  1  0.27827119  0.43008709  0.85823381  1
  C  C16  1  0.71167811  0.93008709  0.79164172  1
  C  C17  1  0.70835828  0.56991291  0.78832189  1
  C  C18  1  0.29164172  0.43008709  0.21167811  1
  C  C19  1  0.28832189  0.06991291  0.20835828  1
  C  C20  1  0.72172881  0.56991291  0.14176619  1
  C  C21  1  0.64176619  0.06991291  0.22172881  1
  O  O22  1  0.35349697  0.79017445  0.88969339  1
  O  O23  1  0.06306330  0.88206924  0.43477440  1
  O  O24  1  0.36382809  0.95288822  0.64015831  1
  O  O25  1  0.14015831  0.45288822  0.86382809  1
  O  O26  1  0.68328369  0.95288822  0.90695347  1
  O  O27  1  0.30522932  0.55033461  0.85297933  1
  O  O28  1  0.05486745  0.88206924  0.18315636  1
  O  O29  1  0.06522560  0.61793076  0.43693670  1
  O  O30  1  0.40331494  0.94966539  0.35556392  1
  O  O31  1  0.59304653  0.54711178  0.81671631  1
  O  O32  1  0.38969339  0.29017445  0.85349697  1
  O  O33  1  0.31684364  0.61793076  0.44513255  1
  O  O34  1  0.85632857  0.79017445  0.82013216  1
  O  O35  1  0.67986784  0.70982555  0.64367143  1
  O  O36  1  0.35297933  0.05033461  0.80522932  1
  O  O37  1  0.14443608  0.55033461  0.09668506  1
  O  O38  1  0.85556392  0.44966539  0.90331494  1
  O  O39  1  0.64702067  0.94966539  0.19477068  1
  O  O40  1  0.32013216  0.29017445  0.35632857  1
  O  O41  1  0.14367143  0.20982555  0.17986784  1
  O  O42  1  0.68315636  0.38206924  0.55486745  1
  O  O43  1  0.61030661  0.70982555  0.14650303  1
  O  O44  1  0.40695347  0.45288822  0.18328369  1
  O  O45  1  0.59668506  0.05033461  0.64443608  1
  O  O46  1  0.93477440  0.38206924  0.56306330  1
  O  O47  1  0.94513255  0.11793076  0.81684364  1
  O  O48  1  0.69477068  0.44966539  0.14702067  1
  O  O49  1  0.31671631  0.04711178  0.09304653  1
  O  O50  1  0.85984169  0.54711178  0.13617191  1
  O  O51  1  0.63617191  0.04711178  0.35984169  1
  O  O52  1  0.93693670  0.11793076  0.56522560  1
  O  O53  1  0.64650303  0.20982555  0.11030661  1
