# generated using pymatgen
data_DyCO4
_symmetry_space_group_name_H-M   'P 1'
_cell_length_a   4.88037233
_cell_length_b   7.13525062
_cell_length_c   8.74183742
_cell_angle_alpha   90.00000000
_cell_angle_beta   90.00000000
_cell_angle_gamma   90.00000000
_symmetry_Int_Tables_number   1
_chemical_formula_structural   DyCO4
_chemical_formula_sum   'Dy4 C4 O16'
_cell_volume   304.41420441
_cell_formula_units_Z   4
loop_
 _symmetry_equiv_pos_site_id
 _symmetry_equiv_pos_as_xyz
  1  'x, y, z'
loop_
 _atom_site_type_symbol
 _atom_site_label
 _atom_site_symmetry_multiplicity
 _atom_site_fract_x
 _atom_site_fract_y
 _atom_site_fract_z
 _atom_site_occupancy
  Dy  Dy0  1  0.27601929  0.12853855  0.59027436  1
  Dy  Dy1  1  0.72398071  0.37146145  0.09027436  1
  Dy  Dy2  1  0.22398071  0.62853855  0.40972564  1
  Dy  Dy3  1  0.77601929  0.87146145  0.90972564  1
  C  C4  1  0.25723231  0.20214228  0.92353714  1
  C  C5  1  0.74276769  0.29785772  0.42353714  1
  C  C6  1  0.24276769  0.70214228  0.07646286  1
  C  C7  1  0.75723231  0.79785772  0.57646286  1
  O  O8  1  0.21786747  0.94223126  0.39093963  1
  O  O9  1  0.78213253  0.55776874  0.89093963  1
  O  O10  1  0.28213253  0.44223126  0.60906037  1
  O  O11  1  0.71786747  0.05776874  0.10906037  1
  O  O12  1  0.79004661  0.19959850  0.54236116  1
  O  O13  1  0.20995339  0.30040150  0.04236116  1
  O  O14  1  0.70995339  0.69959850  0.45763884  1
  O  O15  1  0.29004661  0.80040150  0.95763884  1
  O  O16  1  0.01235260  0.82616336  0.61844930  1
  O  O17  1  0.98764740  0.67383664  0.11844930  1
  O  O18  1  0.48764740  0.32616336  0.38155070  1
  O  O19  1  0.51235260  0.17383664  0.88155070  1
  O  O20  1  0.56664764  0.86662065  0.66337587  1
  O  O21  1  0.43335236  0.63337935  0.16337587  1
  O  O22  1  0.93335236  0.36662065  0.33662413  1
  O  O23  1  0.06664764  0.13337935  0.83662413  1
