# generated using pymatgen
data_Ta2O5
_symmetry_space_group_name_H-M   'P 1'
_cell_length_a   7.07392245
_cell_length_b   7.54345077
_cell_length_c   7.29847363
_cell_angle_alpha   85.92537849
_cell_angle_beta   118.99084861
_cell_angle_gamma   62.03792670
_symmetry_Int_Tables_number   1
_chemical_formula_structural   Ta2O5
_chemical_formula_sum   'Ta6 O15'
_cell_volume   277.55536234
_cell_formula_units_Z   3
loop_
 _symmetry_equiv_pos_site_id
 _symmetry_equiv_pos_as_xyz
  1  'x, y, z'
loop_
 _atom_site_type_symbol
 _atom_site_label
 _atom_site_symmetry_multiplicity
 _atom_site_fract_x
 _atom_site_fract_y
 _atom_site_fract_z
 _atom_site_occupancy
  Ta  Ta0  1  0.22827415  0.00477960  0.98938019  1
  Ta  Ta1  1  0.28031917  0.41787891  0.97853079  1
  Ta  Ta2  1  0.75633759  0.00470037  0.98935663  1
  Ta  Ta3  1  0.75344889  0.01206948  0.51894061  1
  Ta  Ta4  1  0.25144874  0.97621247  0.47915197  1
  Ta  Ta5  1  0.74520765  0.52125720  0.01177860  1
  O  O6  1  0.03349671  0.34268664  0.94846303  1
  O  O7  1  0.10486701  0.03257766  0.66297047  1
  O  O8  1  0.40867465  0.12747480  0.94481390  1
  O  O9  1  0.00518078  0.29133199  0.30165068  1
  O  O10  1  0.02253313  0.70375590  0.74866175  1
  O  O11  1  0.52553596  0.03255474  0.66297128  1
  O  O12  1  0.57232457  0.34265294  0.94850134  1
  O  O13  1  0.48187606  0.33181281  0.29560284  1
  O  O14  1  0.84684328  0.10185985  0.79553871  1
  O  O15  1  0.50188118  0.67706312  0.68094060  1
  O  O16  1  0.13642699  0.91591654  0.18876821  1
  O  O17  1  0.48409705  0.96205519  0.32843841  1
  O  O18  1  0.48524608  0.70529507  0.06377431  1
  O  O19  1  0.87331055  0.70522625  0.06374948  1
  O  O20  1  0.88224882  0.96207847  0.32841123  1
