# generated using pymatgen
data_CeCrO3
_symmetry_space_group_name_H-M   'P 1'
_cell_length_a   5.71975709
_cell_length_b   7.80831484
_cell_length_c   5.48624633
_cell_angle_alpha   90.00032451
_cell_angle_beta   89.91016459
_cell_angle_gamma   90.00054938
_symmetry_Int_Tables_number   1
_chemical_formula_structural   CeCrO3
_chemical_formula_sum   'Ce4 Cr4 O12'
_cell_volume   245.02458962
_cell_formula_units_Z   4
loop_
 _symmetry_equiv_pos_site_id
 _symmetry_equiv_pos_as_xyz
  1  'x, y, z'
loop_
 _atom_site_type_symbol
 _atom_site_label
 _atom_site_symmetry_multiplicity
 _atom_site_fract_x
 _atom_site_fract_y
 _atom_site_fract_z
 _atom_site_occupancy
  Ce  Ce0  1  0.05927770  0.25000300  0.98518295  1
  Ce  Ce1  1  0.44073007  0.75000636  0.48536442  1
  Ce  Ce2  1  0.55929628  0.24999496  0.51463983  1
  Ce  Ce3  1  0.94068454  0.74997774  0.01466315  1
  Cr  Cr4  1  -0.00005173  0.00001581  0.49998484  1
  Cr  Cr5  1  -0.00005643  0.50001024  0.49996622  1
  Cr  Cr6  1  0.50000143  0.99991921  0.00002418  1
  Cr  Cr7  1  0.49999064  0.50006675  0.00005179  1
  O  O8  1  0.02907357  0.74995079  0.59779938  1
  O  O9  1  0.20088332  0.55078138  0.19878256  1
  O  O10  1  0.20090358  0.94924123  0.19873172  1
  O  O11  1  0.29917745  0.44939396  0.69871680  1
  O  O12  1  0.29922935  0.05064505  0.69869708  1
  O  O13  1  0.47103122  0.25000917  0.09773965  1
  O  O14  1  0.52884157  0.75000095  0.90196914  1
  O  O15  1  0.70067631  0.94927507  0.30126223  1
  O  O16  1  0.70073541  0.55070034  0.30132673  1
  O  O17  1  0.79926888  0.05055056  0.80151196  1
  O  O18  1  0.79926367  0.44941012  0.80150249  1
  O  O19  1  0.97104318  0.25004731  0.40208288  1
