# generated using pymatgen
data_Li6TeO6
_symmetry_space_group_name_H-M   'P 1'
_cell_length_a   5.82490717
_cell_length_b   5.67189426
_cell_length_c   5.81781008
_cell_angle_alpha   120.83544723
_cell_angle_beta   120.08336487
_cell_angle_gamma   59.12476476
_symmetry_Int_Tables_number   1
_chemical_formula_structural   Li6TeO6
_chemical_formula_sum   'Li6 Te1 O6'
_cell_volume   134.04698866
_cell_formula_units_Z   1
loop_
 _symmetry_equiv_pos_site_id
 _symmetry_equiv_pos_as_xyz
  1  'x, y, z'
loop_
 _atom_site_type_symbol
 _atom_site_label
 _atom_site_symmetry_multiplicity
 _atom_site_fract_x
 _atom_site_fract_y
 _atom_site_fract_z
 _atom_site_occupancy
  Li  Li0  1  0.28300596  0.31060896  0.51481157  1
  Li  Li1  1  0.08022954  0.68864348  0.28282001  1
  Li  Li2  1  0.51269521  0.69067937  0.91897821  1
  Li  Li3  1  0.48730479  0.30932063  0.08102179  1
  Li  Li4  1  0.91977046  0.31135652  0.71717999  1
  Li  Li5  1  0.71699404  0.68939104  0.48518843  1
  Te  Te6  1  0.00000000  0.00000000  0.00000000  1
  O  O7  1  0.10312511  0.75227978  0.65302304  1
  O  O8  1  0.20330084  0.24672746  0.10448419  1
  O  O9  1  0.65386600  0.24916212  0.79785615  1
  O  O10  1  0.34613400  0.75083788  0.20214385  1
  O  O11  1  0.79669916  0.75327254  0.89551581  1
  O  O12  1  0.89687489  0.24772022  0.34697696  1
