# generated using pymatgen
data_Co3OF5
_symmetry_space_group_name_H-M   'P 1'
_cell_length_a   10.54006986
_cell_length_b   6.67698177
_cell_length_c   3.12716304
_cell_angle_alpha   90.00000000
_cell_angle_beta   90.00000000
_cell_angle_gamma   71.58686717
_symmetry_Int_Tables_number   1
_chemical_formula_structural   Co3OF5
_chemical_formula_sum   'Co6 O2 F10'
_cell_volume   208.80964022
_cell_formula_units_Z   2
loop_
 _symmetry_equiv_pos_site_id
 _symmetry_equiv_pos_as_xyz
  1  'x, y, z'
loop_
 _atom_site_type_symbol
 _atom_site_label
 _atom_site_symmetry_multiplicity
 _atom_site_fract_x
 _atom_site_fract_y
 _atom_site_fract_z
 _atom_site_occupancy
  Co  Co0  1  0.99298554  0.02366974  0.00000000  1
  Co  Co1  1  0.00609466  0.47754296  0.50000000  1
  Co  Co2  1  0.34959546  0.32600468  0.00000000  1
  Co  Co3  1  0.65313936  0.17277091  0.50000000  1
  Co  Co4  1  0.33166787  0.83407320  0.50000000  1
  Co  Co5  1  0.66862468  0.66603472  0.00000000  1
  O  O6  1  0.00309235  0.29519690  0.00000000  1
  O  O7  1  0.46674395  0.26680956  0.50000000  1
  F  F8  1  0.00069150  0.70444009  0.00000000  1
  F  F9  1  0.32741753  0.03193460  0.00000000  1
  F  F10  1  0.21617899  0.39490907  0.50000000  1
  F  F11  1  0.12414333  0.93307881  0.50000000  1
  F  F12  1  0.33054836  0.64019662  0.00000000  1
  F  F13  1  0.66765527  0.36219451  0.00000000  1
  F  F14  1  0.85963149  0.06595297  0.50000000  1
  F  F15  1  0.53608462  0.73188990  0.50000000  1
  F  F16  1  0.80093704  0.60175083  0.50000000  1
  F  F17  1  0.66476802  0.97154992  0.00000000  1
