# generated using pymatgen
data_LiFeP2HO7
_symmetry_space_group_name_H-M   'P 1'
_cell_length_a   6.72923873
_cell_length_b   6.07056500
_cell_length_c   7.50339550
_cell_angle_alpha   97.98465667
_cell_angle_beta   86.67728716
_cell_angle_gamma   69.45817459
_symmetry_Int_Tables_number   1
_chemical_formula_structural   LiFeP2HO7
_chemical_formula_sum   'Li2 Fe2 P4 H2 O14'
_cell_volume   282.35591238
_cell_formula_units_Z   2
loop_
 _symmetry_equiv_pos_site_id
 _symmetry_equiv_pos_as_xyz
  1  'x, y, z'
loop_
 _atom_site_type_symbol
 _atom_site_label
 _atom_site_symmetry_multiplicity
 _atom_site_fract_x
 _atom_site_fract_y
 _atom_site_fract_z
 _atom_site_occupancy
  Li  Li0  1  0.14961922  0.41624157  0.11677717  1
  Li  Li1  1  0.85038078  0.58375843  0.88322283  1
  Fe  Fe2  1  0.23604556  0.73250532  0.72265730  1
  Fe  Fe3  1  0.76395444  0.26749468  0.27734270  1
  P  P4  1  0.30197217  0.24741882  0.69089958  1
  P  P5  1  0.27862811  0.89188699  0.15127908  1
  P  P6  1  0.72137189  0.10811301  0.84872092  1
  P  P7  1  0.69802783  0.75258118  0.30910042  1
  H  H8  1  0.95867712  0.19457996  0.69436742  1
  H  H9  1  0.04132288  0.80542004  0.30563258  1
  O  O10  1  0.20200545  0.05917433  0.63023873  1
  O  O11  1  0.10270140  0.13768282  0.18824067  1
  O  O12  1  0.17982358  0.41731378  0.86391956  1
  O  O13  1  0.32413131  0.40220708  0.55126857  1
  O  O14  1  0.19187771  0.71238945  0.23680098  1
  O  O15  1  0.53740132  0.08426170  0.73156799  1
  O  O16  1  0.62692394  0.20740296  0.04400002  1
  O  O17  1  0.37307606  0.79259704  0.95599998  1
  O  O18  1  0.46259868  0.91573830  0.26843201  1
  O  O19  1  0.80812229  0.28761055  0.76319902  1
  O  O20  1  0.67586869  0.59779292  0.44873143  1
  O  O21  1  0.82017642  0.58268622  0.13608044  1
  O  O22  1  0.89729860  0.86231718  0.81175933  1
  O  O23  1  0.79799455  0.94082567  0.36976127  1
