# generated using pymatgen
data_Li2MnPHO5
_symmetry_space_group_name_H-M   'P 1'
_cell_length_a   8.48066452
_cell_length_b   9.61201881
_cell_length_c   5.55731942
_cell_angle_alpha   90.00000000
_cell_angle_beta   104.79108396
_cell_angle_gamma   90.00000000
_symmetry_Int_Tables_number   1
_chemical_formula_structural   Li2MnPHO5
_chemical_formula_sum   'Li8 Mn4 P4 H4 O20'
_cell_volume   438.00074934
_cell_formula_units_Z   4
loop_
 _symmetry_equiv_pos_site_id
 _symmetry_equiv_pos_as_xyz
  1  'x, y, z'
loop_
 _atom_site_type_symbol
 _atom_site_label
 _atom_site_symmetry_multiplicity
 _atom_site_fract_x
 _atom_site_fract_y
 _atom_site_fract_z
 _atom_site_occupancy
  Li  Li0  1  0.31423939  0.15740539  0.72961958  1
  Li  Li1  1  0.41371453  0.82996547  0.66389753  1
  Li  Li2  1  0.31423939  0.34259461  0.22961958  1
  Li  Li3  1  0.41371453  0.67003453  0.16389753  1
  Li  Li4  1  0.58628547  0.32996547  0.83610247  1
  Li  Li5  1  0.68576061  0.65740539  0.77038042  1
  Li  Li6  1  0.58628547  0.17003453  0.33610247  1
  Li  Li7  1  0.68576061  0.84259461  0.27038042  1
  Mn  Mn8  1  0.01730690  0.86885125  0.79712135  1
  Mn  Mn9  1  0.01730690  0.63114875  0.29712135  1
  Mn  Mn10  1  0.98269310  0.36885125  0.70287865  1
  Mn  Mn11  1  0.98269310  0.13114875  0.20287865  1
  P  P12  1  0.31433182  0.52173125  0.62732571  1
  P  P13  1  0.31433182  0.97826875  0.12732571  1
  P  P14  1  0.68566818  0.02173125  0.87267429  1
  P  P15  1  0.68566818  0.47826875  0.37267429  1
  H  H16  1  0.02722355  0.62173020  0.84899949  1
  H  H17  1  0.02722355  0.87826980  0.34899949  1
  H  H18  1  0.97277645  0.12173020  0.65100051  1
  H  H19  1  0.97277645  0.37826980  0.15100051  1
  O  O20  1  0.04923097  0.17830569  0.58312714  1
  O  O21  1  0.04923097  0.32169431  0.08312714  1
  O  O22  1  0.14890178  0.53070307  0.70630953  1
  O  O23  1  0.26987063  0.92642130  0.84855974  1
  O  O24  1  0.14890178  0.96929693  0.20630953  1
  O  O25  1  0.26987063  0.57357870  0.34855974  1
  O  O26  1  0.36691288  0.36716362  0.63017487  1
  O  O27  1  0.43932182  0.61996712  0.79441535  1
  O  O28  1  0.36691288  0.13283638  0.13017487  1
  O  O29  1  0.43932182  0.88003288  0.29441535  1
  O  O30  1  0.56067818  0.11996712  0.70558465  1
  O  O31  1  0.63308712  0.86716362  0.86982513  1
  O  O32  1  0.56067818  0.38003288  0.20558465  1
  O  O33  1  0.63308712  0.63283638  0.36982513  1
  O  O34  1  0.73012937  0.42642130  0.65144026  1
  O  O35  1  0.85109822  0.03070307  0.79369047  1
  O  O36  1  0.73012937  0.07357870  0.15144026  1
  O  O37  1  0.85109822  0.46929693  0.29369047  1
  O  O38  1  0.95076903  0.67830569  0.91687286  1
  O  O39  1  0.95076903  0.82169431  0.41687286  1
