# generated using pymatgen
data_LiMnP3H8O13
_symmetry_space_group_name_H-M   'P 1'
_cell_length_a   7.82771577
_cell_length_b   10.13977367
_cell_length_c   7.36166159
_cell_angle_alpha   105.53125966
_cell_angle_beta   103.35567904
_cell_angle_gamma   84.04535417
_symmetry_Int_Tables_number   1
_chemical_formula_structural   LiMnP3H8O13
_chemical_formula_sum   'Li2 Mn2 P6 H16 O26'
_cell_volume   547.19555685
_cell_formula_units_Z   2
loop_
 _symmetry_equiv_pos_site_id
 _symmetry_equiv_pos_as_xyz
  1  'x, y, z'
loop_
 _atom_site_type_symbol
 _atom_site_label
 _atom_site_symmetry_multiplicity
 _atom_site_fract_x
 _atom_site_fract_y
 _atom_site_fract_z
 _atom_site_occupancy
  Li  Li0  1  0.18326990  0.23602811  0.80420728  1
  Li  Li1  1  0.81673010  0.76397189  0.19579272  1
  Mn  Mn2  1  0.00000000  0.00000000  0.00000000  1
  Mn  Mn3  1  0.50000000  0.50000000  0.00000000  1
  P  P4  1  0.19412095  0.25696971  0.33156998  1
  P  P5  1  0.19403275  0.52346734  0.24521510  1
  P  P6  1  0.54312828  0.27116198  0.59123943  1
  P  P7  1  0.45687172  0.72883802  0.40876057  1
  P  P8  1  0.80596725  0.47653266  0.75478490  1
  P  P9  1  0.80587905  0.74303029  0.66843002  1
  H  H10  1  0.03348740  0.03856329  0.37214569  1
  H  H11  1  0.17595689  0.56966230  0.81017151  1
  H  H12  1  0.13474156  0.89811865  0.31651809  1
  H  H13  1  0.26401787  0.79309272  0.92547438  1
  H  H14  1  0.29871426  0.60285898  0.68832107  1
  H  H15  1  0.34785631  0.99184178  0.85243073  1
  H  H16  1  0.37850879  0.99546749  0.65316867  1
  H  H17  1  0.35809654  0.91199499  0.09704928  1
  H  H18  1  0.64190346  0.08800501  0.90295072  1
  H  H19  1  0.62149121  0.00453251  0.34683133  1
  H  H20  1  0.65214369  0.00815822  0.14756927  1
  H  H21  1  0.70128574  0.39714102  0.31167893  1
  H  H22  1  0.73598213  0.20690728  0.07452562  1
  H  H23  1  0.86525844  0.10188135  0.68348191  1
  H  H24  1  0.82404311  0.43033770  0.18982849  1
  H  H25  1  0.96651260  0.96143671  0.62785431  1
  O  O26  1  0.12152615  0.21093961  0.47462378  1
  O  O27  1  0.01991838  0.94732401  0.27853821  1
  O  O28  1  0.03993574  0.61492422  0.19499234  1
  O  O29  1  0.14244975  0.42042230  0.35783348  1
  O  O30  1  0.14451888  0.18514995  0.12081634  1
  O  O31  1  0.26008573  0.89370765  0.98238160  1
  O  O32  1  0.28214184  0.61717776  0.82085353  1
  O  O33  1  0.38760722  0.05241538  0.78652567  1
  O  O34  1  0.44975537  0.32897476  0.75488363  1
  O  O35  1  0.29227794  0.44138516  0.09387388  1
  O  O36  1  0.34112640  0.60889741  0.42686477  1
  O  O37  1  0.40775260  0.25412827  0.38589133  1
  O  O38  1  0.34669003  0.85956116  0.41375675  1
  O  O39  1  0.65330997  0.14043884  0.58624325  1
  O  O40  1  0.59224740  0.74587173  0.61410867  1
  O  O41  1  0.65887360  0.39110259  0.57313523  1
  O  O42  1  0.70772206  0.55861484  0.90612612  1
  O  O43  1  0.55024463  0.67102524  0.24511637  1
  O  O44  1  0.61239278  0.94758462  0.21347433  1
  O  O45  1  0.71785816  0.38282224  0.17914647  1
  O  O46  1  0.73991427  0.10629235  0.01761840  1
  O  O47  1  0.85548112  0.81485005  0.87918366  1
  O  O48  1  0.85755025  0.57957770  0.64216652  1
  O  O49  1  0.96006426  0.38507578  0.80500766  1
  O  O50  1  0.98008162  0.05267599  0.72146179  1
  O  O51  1  0.87847385  0.78906039  0.52537622  1
