# generated using pymatgen
data_LiFeF3
_symmetry_space_group_name_H-M   'P 1'
_cell_length_a   7.09373223
_cell_length_b   7.09373223
_cell_length_c   5.71572526
_cell_angle_alpha   73.83624739
_cell_angle_beta   106.16375261
_cell_angle_gamma   100.57829941
_symmetry_Int_Tables_number   1
_chemical_formula_structural   LiFeF3
_chemical_formula_sum   'Li4 Fe4 F12'
_cell_volume   263.57118943
_cell_formula_units_Z   4
loop_
 _symmetry_equiv_pos_site_id
 _symmetry_equiv_pos_as_xyz
  1  'x, y, z'
loop_
 _atom_site_type_symbol
 _atom_site_label
 _atom_site_symmetry_multiplicity
 _atom_site_fract_x
 _atom_site_fract_y
 _atom_site_fract_z
 _atom_site_occupancy
  Li  Li0  1  0.20587168  0.61964814  0.79409047  1
  Li  Li1  1  0.38035186  0.79412832  0.29409047  1
  Li  Li2  1  0.61964814  0.20587168  0.70590953  1
  Li  Li3  1  0.79412832  0.38035186  0.20590953  1
  Fe  Fe4  1  0.08624005  0.08624005  0.75000000  1
  Fe  Fe5  1  0.70593847  0.70593847  0.75000000  1
  Fe  Fe6  1  0.29406153  0.29406153  0.25000000  1
  Fe  Fe7  1  0.91375995  0.91375995  0.25000000  1
  F  F8  1  0.00835328  0.80504507  0.66511055  1
  F  F9  1  0.19495493  0.99164672  0.16511055  1
  F  F10  1  0.13376785  0.33921120  0.86210805  1
  F  F11  1  0.41104601  0.69383926  0.63874551  1
  F  F12  1  0.66078880  0.86623215  0.36210805  1
  F  F13  1  0.30616074  0.58895399  0.13874551  1
  F  F14  1  0.69383926  0.41104601  0.86125449  1
  F  F15  1  0.33921120  0.13376785  0.63789195  1
  F  F16  1  0.58895399  0.30616074  0.36125449  1
  F  F17  1  0.86623215  0.66078880  0.13789195  1
  F  F18  1  0.80504507  0.00835328  0.83488945  1
  F  F19  1  0.99164672  0.19495493  0.33488945  1
