# generated using pymatgen
data_Li2Mn3(BO3)3
_symmetry_space_group_name_H-M   'P 1'
_cell_length_a   16.02358927
_cell_length_b   5.26681930
_cell_length_c   5.30666996
_cell_angle_alpha   60.58632367
_cell_angle_beta   96.63629565
_cell_angle_gamma   81.04877616
_symmetry_Int_Tables_number   1
_chemical_formula_structural   Li2Mn3(BO3)3
_chemical_formula_sum   'Li4 Mn6 B6 O18'
_cell_volume   375.65385227
_cell_formula_units_Z   2
loop_
 _symmetry_equiv_pos_site_id
 _symmetry_equiv_pos_as_xyz
  1  'x, y, z'
loop_
 _atom_site_type_symbol
 _atom_site_label
 _atom_site_symmetry_multiplicity
 _atom_site_fract_x
 _atom_site_fract_y
 _atom_site_fract_z
 _atom_site_occupancy
  Li  Li0  1  0.11127631  0.39543574  0.43292955  1
  Li  Li1  1  0.43528225  0.37768071  0.11604214  1
  Li  Li2  1  0.56471775  0.62231929  0.88395786  1
  Li  Li3  1  0.88872369  0.60456426  0.56707045  1
  Mn  Mn4  1  0.08484508  0.75895392  0.76738998  1
  Mn  Mn5  1  0.24878300  0.21844319  0.91566062  1
  Mn  Mn6  1  0.41336916  0.74708138  0.43406171  1
  Mn  Mn7  1  0.58663084  0.25291862  0.56593829  1
  Mn  Mn8  1  0.75121700  0.78155681  0.08433938  1
  Mn  Mn9  1  0.91515492  0.24104608  0.23261002  1
  B  B10  1  0.08502931  0.07276983  0.10929450  1
  B  B11  1  0.24434554  0.92172034  0.56709821  1
  B  B12  1  0.41756217  0.07477882  0.76699944  1
  B  B13  1  0.58243783  0.92522118  0.23300056  1
  B  B14  1  0.75565446  0.07827966  0.43290179  1
  B  B15  1  0.91497069  0.92723017  0.89070550  1
  O  O16  1  0.11647193  0.29569057  0.88137915  1
  O  O17  1  0.05542175  0.14112750  0.31358731  1
  O  O18  1  0.08731662  0.80431750  0.13375870  1
  O  O19  1  0.21872267  0.68013877  0.77202583  1
  O  O20  1  0.23419866  0.19054368  0.55817363  1
  O  O21  1  0.27948278  0.90369830  0.34633682  1
  O  O22  1  0.38238809  0.13786271  0.96896937  1
  O  O23  1  0.43326900  0.78796229  0.81788935  1
  O  O24  1  0.44305239  0.29996847  0.53273218  1
  O  O25  1  0.55694761  0.70003153  0.46726782  1
  O  O26  1  0.56673100  0.21203771  0.18211065  1
  O  O27  1  0.61761191  0.86213729  0.03103063  1
  O  O28  1  0.72051722  0.09630170  0.65366318  1
  O  O29  1  0.76580134  0.80945632  0.44182637  1
  O  O30  1  0.78127733  0.31986123  0.22797417  1
  O  O31  1  0.91268338  0.19568250  0.86624130  1
  O  O32  1  0.94457825  0.85887250  0.68641269  1
  O  O33  1  0.88352807  0.70430943  0.11862085  1
