# generated using pymatgen
data_LiV2P4(HO8)2
_symmetry_space_group_name_H-M   'P 1'
_cell_length_a   9.74663629
_cell_length_b   7.88881063
_cell_length_c   7.73354713
_cell_angle_alpha   90.06094621
_cell_angle_beta   67.03342675
_cell_angle_gamma   89.95332646
_symmetry_Int_Tables_number   1
_chemical_formula_structural   LiV2P4(HO8)2
_chemical_formula_sum   'Li2 V4 P8 H4 O32'
_cell_volume   547.49220363
_cell_formula_units_Z   2
loop_
 _symmetry_equiv_pos_site_id
 _symmetry_equiv_pos_as_xyz
  1  'x, y, z'
loop_
 _atom_site_type_symbol
 _atom_site_label
 _atom_site_symmetry_multiplicity
 _atom_site_fract_x
 _atom_site_fract_y
 _atom_site_fract_z
 _atom_site_occupancy
  Li  Li0  1  0.27334629  0.86894682  0.84975151  1
  Li  Li1  1  0.77813306  0.63208368  0.35278722  1
  V  V2  1  0.24597334  0.49353109  0.00509959  1
  V  V3  1  0.25403699  0.00399784  0.48543055  1
  V  V4  1  0.75112726  0.49636829  0.99161752  1
  V  V5  1  0.74807560  0.00747432  0.50000778  1
  P  P6  1  0.06878043  0.84585043  0.23214948  1
  P  P7  1  0.07105447  0.64910268  0.73169323  1
  P  P8  1  0.43170115  0.35705163  0.27128907  1
  P  P9  1  0.57333903  0.85484699  0.22548631  1
  P  P10  1  0.43116566  0.15562408  0.76206464  1
  P  P11  1  0.56749399  0.65752472  0.73749136  1
  P  P12  1  0.93032811  0.34811571  0.26727455  1
  P  P13  1  0.93185190  0.14791995  0.76528751  1
  H  H14  1  0.00839470  0.50963177  0.50635677  1
  H  H15  1  0.50536673  0.50097083  0.51020904  1
  H  H16  1  0.48947947  0.00545242  0.98759241  1
  H  H17  1  0.98833240  0.01143655  0.99365442  1
  O  O18  1  0.09582298  0.94424862  0.05413693  1
  O  O19  1  0.09685472  0.32757049  0.13631042  1
  O  O20  1  0.14259171  0.67091099  0.18594145  1
  O  O21  1  0.14277851  0.94436665  0.35354674  1
  O  O22  1  0.09478502  0.55275447  0.55100687  1
  O  O23  1  0.09970916  0.16336103  0.63828552  1
  O  O24  1  0.14600413  0.82658684  0.68387872  1
  O  O25  1  0.14423671  0.55687678  0.85015883  1
  O  O26  1  0.35268700  0.44261445  0.15668370  1
  O  O27  1  0.36058016  0.17347240  0.32443926  1
  O  O28  1  0.40142972  0.84109167  0.35894199  1
  O  O29  1  0.41154630  0.44824326  0.45041981  1
  O  O30  1  0.35212344  0.05164863  0.65372119  1
  O  O31  1  0.36032306  0.33066762  0.81626998  1
  O  O32  1  0.59031236  0.94848483  0.04983894  1
  O  O33  1  0.59946425  0.33748874  0.13686236  1
  O  O34  1  0.39979744  0.67514608  0.86021252  1
  O  O35  1  0.40291587  0.04757471  0.93936278  1
  O  O36  1  0.64612525  0.67409251  0.18423975  1
  O  O37  1  0.64550735  0.94428645  0.34797719  1
  O  O38  1  0.59551393  0.55775502  0.55579060  1
  O  O39  1  0.59749753  0.17440954  0.63591118  1
  O  O40  1  0.64379951  0.82939123  0.68357734  1
  O  O41  1  0.64101607  0.55696207  0.85526084  1
  O  O42  1  0.85218057  0.44832105  0.15144046  1
  O  O43  1  0.86104648  0.17128658  0.31469004  1
  O  O44  1  0.90140309  0.82798359  0.35958581  1
  O  O45  1  0.90421445  0.45630979  0.43919065  1
  O  O46  1  0.85333531  0.05892975  0.65273148  1
  O  O47  1  0.86022319  0.32909599  0.82140484  1
  O  O48  1  0.90028160  0.66247797  0.85843246  1
  O  O49  1  0.90407854  0.05341341  0.94836337  1
