# generated using pymatgen
data_Mn2O3F
_symmetry_space_group_name_H-M   'P 1'
_cell_length_a   4.59729488
_cell_length_b   4.59729488
_cell_length_c   12.11346721
_cell_angle_alpha   90.00000000
_cell_angle_beta   90.00000000
_cell_angle_gamma   92.73809954
_symmetry_Int_Tables_number   1
_chemical_formula_structural   Mn2O3F
_chemical_formula_sum   'Mn8 O12 F4'
_cell_volume   255.72729534
_cell_formula_units_Z   4
loop_
 _symmetry_equiv_pos_site_id
 _symmetry_equiv_pos_as_xyz
  1  'x, y, z'
loop_
 _atom_site_type_symbol
 _atom_site_label
 _atom_site_symmetry_multiplicity
 _atom_site_fract_x
 _atom_site_fract_y
 _atom_site_fract_z
 _atom_site_occupancy
  Mn  Mn0  1  0.99854550  0.00145450  0.00047592  1
  Mn  Mn1  1  0.99854550  0.00145450  0.24952408  1
  Mn  Mn2  1  0.01687380  0.98312620  0.49916686  1
  Mn  Mn3  1  0.01687380  0.98312620  0.75083314  1
  Mn  Mn4  1  0.48597217  0.51402783  0.62500000  1
  Mn  Mn5  1  0.52386943  0.47613057  0.12500000  1
  Mn  Mn6  1  0.48134082  0.51865918  0.37472504  1
  Mn  Mn7  1  0.48134082  0.51865918  0.87527496  1
  O  O8  1  0.19113746  0.80886254  0.37468635  1
  O  O9  1  0.19742903  0.80257097  0.62500000  1
  O  O10  1  0.19113746  0.80886254  0.87531365  1
  O  O11  1  0.31110614  0.30407083  0.99999179  1
  O  O12  1  0.31110614  0.30407083  0.25000821  1
  O  O13  1  0.30095349  0.31021347  0.49979502  1
  O  O14  1  0.30095349  0.31021347  0.75020498  1
  O  O15  1  0.69592917  0.68889386  0.99999179  1
  O  O16  1  0.69592917  0.68889386  0.25000821  1
  O  O17  1  0.68978653  0.69904651  0.49979502  1
  O  O18  1  0.68978653  0.69904651  0.75020498  1
  O  O19  1  0.81162910  0.18837090  0.12500000  1
  F  F20  1  0.22102108  0.77897892  0.12500000  1
  F  F21  1  0.78954029  0.21045971  0.38136748  1
  F  F22  1  0.80964878  0.19035122  0.62500000  1
  F  F23  1  0.78954029  0.21045971  0.86863252  1
