# generated using pymatgen
data_Li5Fe4(P2O7)4
_symmetry_space_group_name_H-M   'P 1'
_cell_length_a   9.75922575
_cell_length_b   9.79642492
_cell_length_c   11.15872722
_cell_angle_alpha   90.21783688
_cell_angle_beta   101.63547776
_cell_angle_gamma   89.46604706
_symmetry_Int_Tables_number   1
_chemical_formula_structural   Li5Fe4(P2O7)4
_chemical_formula_sum   'Li10 Fe8 P16 O56'
_cell_volume   1044.86566904
_cell_formula_units_Z   2
loop_
 _symmetry_equiv_pos_site_id
 _symmetry_equiv_pos_as_xyz
  1  'x, y, z'
loop_
 _atom_site_type_symbol
 _atom_site_label
 _atom_site_symmetry_multiplicity
 _atom_site_fract_x
 _atom_site_fract_y
 _atom_site_fract_z
 _atom_site_occupancy
  Li  Li0  1  0.11581339  0.70484770  0.45473179  1
  Li  Li1  1  0.40881510  0.61190922  0.97518959  1
  Li  Li2  1  0.36304716  0.93333043  0.48448499  1
  Li  Li3  1  0.38473938  0.22266848  0.55189965  1
  Li  Li4  1  0.58991473  0.39434761  0.03426602  1
  Li  Li5  1  0.85510233  0.59044145  0.95286317  1
  Li  Li6  1  0.64738383  0.09491618  0.04592088  1
  Li  Li7  1  0.92253762  0.90236198  0.97605388  1
  Li  Li8  1  0.81810634  0.58660966  0.45056067  1
  Li  Li9  1  0.88708658  0.28475316  0.54489967  1
  Fe  Fe10  1  0.20242425  0.91813193  0.68058568  1
  Fe  Fe11  1  0.24298744  0.20378467  0.82586923  1
  Fe  Fe12  1  0.24303459  0.72274723  0.17447732  1
  Fe  Fe13  1  0.29260528  0.42692786  0.32537536  1
  Fe  Fe14  1  0.70401429  0.57824754  0.67621991  1
  Fe  Fe15  1  0.75574016  0.28246100  0.82945816  1
  Fe  Fe16  1  0.74461537  0.78641254  0.17431307  1
  Fe  Fe17  1  0.79425665  0.07232832  0.32871310  1
  P  P18  1  0.02115157  0.45134469  0.74743713  1
  P  P19  1  0.11675136  0.70790466  0.88490465  1
  P  P20  1  0.06847161  0.91925459  0.24405746  1
  P  P21  1  0.12447670  0.14769941  0.41683795  1
  P  P22  1  0.37793009  0.64228055  0.57765913  1
  P  P23  1  0.43965924  0.42507273  0.76496695  1
  P  P24  1  0.51963828  0.05001378  0.75466091  1
  P  P25  1  0.38019311  0.21170305  0.11572289  1
  P  P26  1  0.61656180  0.79419192  0.88400573  1
  P  P27  1  0.47585988  0.94954144  0.24717720  1
  P  P28  1  0.55866835  0.57715680  0.24079470  1
  P  P29  1  0.62126085  0.35245517  0.42289587  1
  P  P30  1  0.87711998  0.85360988  0.57165434  1
  P  P31  1  0.93159988  0.07578875  0.75788441  1
  P  P32  1  0.88902758  0.28604080  0.11678636  1
  P  P33  1  0.97239355  0.55052730  0.23850301  1
  O  O34  1  0.01023532  0.43086721  0.61305362  1
  O  O35  1  0.03498871  0.83896418  0.56711459  1
  O  O36  1  0.08708124  0.08012956  0.73481096  1
  O  O37  1  0.10999981  0.58836252  0.78515122  1
  O  O38  1  0.10263511  0.34203122  0.83209673  1
  O  O39  1  0.17955565  0.82597806  0.82545320  1
  O  O40  1  0.22034861  0.65950774  0.00283768  1
  O  O41  1  0.02724572  0.25546642  0.08854772  1
  O  O42  1  0.12232695  0.06771988  0.28942785  1
  O  O43  1  0.08757726  0.89160435  0.11407231  1
  O  O44  1  0.13052649  0.54375426  0.22397856  1
  O  O45  1  0.19238852  0.28502069  0.40301120  1
  O  O46  1  0.16993707  0.81404413  0.32082306  1
  O  O47  1  0.21815063  0.06436082  0.51916283  1
  O  O48  1  0.28604678  0.57111440  0.46886852  1
  O  O49  1  0.34593571  0.30377552  0.71093268  1
  O  O50  1  0.31468568  0.78569086  0.59401893  1
  O  O51  1  0.36297303  0.03311484  0.77560523  1
  O  O52  1  0.36629787  0.56020001  0.69914165  1
  O  O53  1  0.43917645  0.43999173  0.89860149  1
  O  O54  1  0.47681891  0.76150001  0.90918457  1
  O  O55  1  0.28240648  0.16844888  0.99503868  1
  O  O56  1  0.32168487  0.32988561  0.18091647  1
  O  O57  1  0.38621543  0.08711667  0.20984236  1
  O  O58  1  0.40652122  0.58995033  0.26645062  1
  O  O59  1  0.39840635  0.83959418  0.15977355  1
  O  O60  1  0.46928016  0.34367159  0.43951282  1
  O  O61  1  0.51812325  0.08803712  0.62455770  1
  O  O62  1  0.47918415  0.92645678  0.37905585  1
  O  O63  1  0.53282610  0.65046683  0.57339300  1
  O  O64  1  0.60023783  0.13977925  0.85772559  1
  O  O65  1  0.58766590  0.41704448  0.73254148  1
  O  O66  1  0.59494427  0.90242706  0.77294141  1
  O  O67  1  0.69171835  0.67311151  0.83116868  1
  O  O68  1  0.72033813  0.85843892  0.99443803  1
  O  O69  1  0.52649156  0.23354231  0.09527713  1
  O  O70  1  0.56112760  0.56891513  0.10646091  1
  O  O71  1  0.61609133  0.43057460  0.29583067  1
  O  O72  1  0.62528927  0.97197337  0.21649440  1
  O  O73  1  0.69160211  0.21563826  0.40713516  1
  O  O74  1  0.66388656  0.68136221  0.30668258  1
  O  O75  1  0.71656305  0.43824416  0.52249240  1
  O  O76  1  0.79663646  0.93382071  0.46366970  1
  O  O77  1  0.84555357  0.19454977  0.69091726  1
  O  O78  1  0.81698935  0.71180877  0.59024852  1
  O  O79  1  0.87372510  0.47545416  0.78368336  1
  O  O80  1  0.91808686  0.06850309  0.88899485  1
  O  O81  1  0.87180003  0.93460874  0.69548342  1
  O  O82  1  0.97252850  0.73354435  0.90772157  1
  O  O83  1  0.77868228  0.35058794  0.00841686  1
  O  O84  1  0.81296481  0.16970938  0.17371668  1
  O  O85  1  0.88836274  0.63584165  0.13338719  1
  O  O86  1  0.90665301  0.40128468  0.22749288  1
  O  O87  1  0.91527638  0.91548792  0.26157751  1
  O  O88  1  0.97159399  0.15970680  0.43127851  1
  O  O89  1  0.96440119  0.59987386  0.36531378  1
