# generated using pymatgen
data_Li4Mn3Cr2Fe3O16
_symmetry_space_group_name_H-M   'P 1'
_cell_length_a   5.87940616
_cell_length_b   5.84590303
_cell_length_c   9.52224271
_cell_angle_alpha   90.02935698
_cell_angle_beta   89.45684760
_cell_angle_gamma   119.80301816
_symmetry_Int_Tables_number   1
_chemical_formula_structural   Li4Mn3Cr2Fe3O16
_chemical_formula_sum   'Li4 Mn3 Cr2 Fe3 O16'
_cell_volume   283.98079469
_cell_formula_units_Z   1
loop_
 _symmetry_equiv_pos_site_id
 _symmetry_equiv_pos_as_xyz
  1  'x, y, z'
loop_
 _atom_site_type_symbol
 _atom_site_label
 _atom_site_symmetry_multiplicity
 _atom_site_fract_x
 _atom_site_fract_y
 _atom_site_fract_z
 _atom_site_occupancy
  Li  Li0  1  0.33799625  0.66947392  0.89528513  1
  Li  Li1  1  0.99762723  0.99888138  0.99702790  1
  Li  Li2  1  -0.00104711  0.99906536  0.49528543  1
  Li  Li3  1  0.67040189  0.33498023  0.39353559  1
  Mn  Mn4  1  0.65925936  0.82966305  0.21424147  1
  Mn  Mn5  1  0.83075443  0.66191002  0.71434298  1
  Mn  Mn6  1  0.83012213  0.16817733  0.71438333  1
  Cr  Cr7  1  0.32987380  0.66435791  0.48601320  1
  Cr  Cr8  1  0.66207674  0.33180454  0.98591661  1
  Fe  Fe9  1  0.16691777  0.82988972  0.21376174  1
  Fe  Fe10  1  0.16683555  0.33708395  0.21364493  1
  Fe  Fe11  1  0.33576463  0.16850140  0.71316874  1
  O  O12  1  0.15456280  0.83013927  0.59975405  1
  O  O13  1  0.04063384  0.51963576  0.34440895  1
  O  O14  1  0.34363343  0.67205503  0.10405246  1
  O  O15  1  0.98710525  0.99357771  0.30923342  1
  O  O16  1  0.98852174  0.99354186  0.81066663  1
  O  O17  1  0.15606209  0.32338341  0.60023969  1
  O  O18  1  0.49002107  0.96316778  0.34064468  1
  O  O19  1  0.49049159  0.52682096  0.34057694  1
  O  O20  1  0.32792719  0.16447334  0.09763211  1
  O  O21  1  0.67845731  0.83981507  0.60505655  1
  O  O22  1  0.52913641  0.49132577  0.83980739  1
  O  O23  1  0.52660923  0.03902655  0.83895729  1
  O  O24  1  0.67866173  0.33996881  0.60735573  1
  O  O25  1  0.82919548  0.67091802  0.09968194  1
  O  O26  1  0.96368026  0.48072929  0.83379981  1
  O  O27  1  0.82871892  0.15793354  0.09936531  1
