# generated using pymatgen
data_Mn12O7F17
_symmetry_space_group_name_H-M   'P 1'
_cell_length_a   4.80947585
_cell_length_b   5.77529636
_cell_length_c   15.96347606
_cell_angle_alpha   90.53938974
_cell_angle_beta   90.58424399
_cell_angle_gamma   84.77169062
_symmetry_Int_Tables_number   1
_chemical_formula_structural   Mn12O7F17
_chemical_formula_sum   'Mn12 O7 F17'
_cell_volume   441.52011115
_cell_formula_units_Z   1
loop_
 _symmetry_equiv_pos_site_id
 _symmetry_equiv_pos_as_xyz
  1  'x, y, z'
loop_
 _atom_site_type_symbol
 _atom_site_label
 _atom_site_symmetry_multiplicity
 _atom_site_fract_x
 _atom_site_fract_y
 _atom_site_fract_z
 _atom_site_occupancy
  Mn  Mn0  1  0.00394000  0.15001204  0.41264035  1
  Mn  Mn1  1  0.03383419  0.82924750  0.24484796  1
  Mn  Mn2  1  0.00027856  0.15398780  0.08579368  1
  Mn  Mn3  1  0.00668590  0.15634055  0.74817994  1
  Mn  Mn4  1  0.00969344  0.82622574  0.57101529  1
  Mn  Mn5  1  0.01845257  0.83199916  0.90669842  1
  Mn  Mn6  1  0.51199767  0.32941088  0.59170291  1
  Mn  Mn7  1  0.51360235  0.32776984  0.92752156  1
  Mn  Mn8  1  0.51250676  0.35397356  0.26114741  1
  Mn  Mn9  1  0.50858892  0.65867739  0.08573021  1
  Mn  Mn10  1  0.48778520  0.65154434  0.41227611  1
  Mn  Mn11  1  0.50779030  0.65764801  0.75098103  1
  O  O12  1  0.22601660  0.88413749  0.13457307  1
  O  O13  1  0.22712315  0.88960394  0.46161067  1
  O  O14  1  0.23389743  0.89130506  0.79697391  1
  O  O15  1  0.29144002  0.60914695  0.30834961  1
  O  O16  1  0.72921225  0.39080084  0.03800429  1
  O  O17  1  0.73051467  0.38697324  0.36387528  1
  O  O18  1  0.73155858  0.38982722  0.70211328  1
  F  F19  1  0.22950842  0.11752029  0.30608492  1
  F  F20  1  0.21100165  0.11514395  0.63850859  1
  F  F21  1  0.21276543  0.11588967  0.97492494  1
  F  F22  1  0.27346621  0.38101367  0.15296720  1
  F  F23  1  0.24591606  0.38452232  0.48178817  1
  F  F24  1  0.26979054  0.61525387  0.64690820  1
  F  F25  1  0.25748567  0.39265670  0.81484964  1
  F  F26  1  0.26935934  0.61579155  0.98316271  1
  F  F27  1  0.73135038  0.62188480  0.19106154  1
  F  F28  1  0.69813289  0.61981805  0.52188934  1
  F  F29  1  0.71072602  0.61751969  0.86225851  1
  F  F30  1  0.76878681  0.12353278  0.19695422  1
  F  F31  1  0.76892904  0.11589278  0.51724989  1
  F  F32  1  0.77948189  0.89151246  0.35026051  1
  F  F33  1  0.75834293  0.89758632  0.02072500  1
  F  F34  1  0.77222380  0.11578523  0.85178751  1
  F  F35  1  0.75781734  0.89004336  0.68458410  1
