# generated using pymatgen
data_Mn12O5F19
_symmetry_space_group_name_H-M   'P 1'
_cell_length_a   4.90827802
_cell_length_b   5.88737714
_cell_length_c   15.82534937
_cell_angle_alpha   88.20971362
_cell_angle_beta   90.21903313
_cell_angle_gamma   87.68960036
_symmetry_Int_Tables_number   1
_chemical_formula_structural   Mn12O5F19
_chemical_formula_sum   'Mn12 O5 F19'
_cell_volume   456.70258296
_cell_formula_units_Z   1
loop_
 _symmetry_equiv_pos_site_id
 _symmetry_equiv_pos_as_xyz
  1  'x, y, z'
loop_
 _atom_site_type_symbol
 _atom_site_label
 _atom_site_symmetry_multiplicity
 _atom_site_fract_x
 _atom_site_fract_y
 _atom_site_fract_z
 _atom_site_occupancy
  Mn  Mn0  1  0.00512440  0.14279667  0.42312285  1
  Mn  Mn1  1  0.99333021  0.85339629  0.24449796  1
  Mn  Mn2  1  0.96904315  0.16915018  0.08155683  1
  Mn  Mn3  1  0.04582353  0.19980726  0.75620527  1
  Mn  Mn4  1  0.01834387  0.82547633  0.58727352  1
  Mn  Mn5  1  0.99173388  0.83607203  0.91410452  1
  Mn  Mn6  1  0.48999267  0.34682146  0.58506244  1
  Mn  Mn7  1  0.50237984  0.34799437  0.91784267  1
  Mn  Mn8  1  0.51814787  0.32051926  0.24966460  1
  Mn  Mn9  1  0.51010801  0.64480561  0.08300763  1
  Mn  Mn10  1  0.47730607  0.68041396  0.41813082  1
  Mn  Mn11  1  0.48548848  0.64608878  0.74599351  1
  O  O12  1  0.20658174  0.88663702  0.47958139  1
  O  O13  1  0.28251080  0.60695924  0.64205786  1
  O  O14  1  0.30261893  0.40818743  0.81170137  1
  O  O15  1  0.70715467  0.37425478  0.02295642  1
  O  O16  1  0.78458815  0.11682677  0.18641529  1
  F  F17  1  0.23614818  0.10259044  0.31048691  1
  F  F18  1  0.23629296  0.10974019  0.64260878  1
  F  F19  1  0.20378438  0.12584644  0.97506078  1
  F  F20  1  0.22985496  0.89624292  0.13013890  1
  F  F21  1  0.23988135  0.90137403  0.80838674  1
  F  F22  1  0.25964926  0.39194130  0.14111729  1
  F  F23  1  0.27046015  0.61322327  0.30122281  1
  F  F24  1  0.26595063  0.38401783  0.47023276  1
  F  F25  1  0.27183090  0.60598426  0.97015832  1
  F  F26  1  0.73242023  0.61136631  0.19770389  1
  F  F27  1  0.73676067  0.38126103  0.36692011  1
  F  F28  1  0.73084272  0.60672984  0.52564927  1
  F  F29  1  0.72533988  0.62561139  0.85126537  1
  F  F30  1  0.74632616  0.37608683  0.69054941  1
  F  F31  1  0.76418757  0.10485587  0.53461988  1
  F  F32  1  0.76289248  0.89798414  0.35842152  1
  F  F33  1  0.76275282  0.87670939  0.02342885  1
  F  F34  1  0.76350716  0.12781192  0.86061491  1
  F  F35  1  0.77084428  0.85441718  0.69224159  1
