# generated using pymatgen
data_Li2Fe4OF8
_symmetry_space_group_name_H-M   'P 1'
_cell_length_a   5.38069289
_cell_length_b   5.27260086
_cell_length_c   14.35168101
_cell_angle_alpha   89.99686064
_cell_angle_beta   91.12125800
_cell_angle_gamma   119.32731237
_symmetry_Int_Tables_number   1
_chemical_formula_structural   Li2Fe4OF8
_chemical_formula_sum   'Li4 Fe8 O2 F16'
_cell_volume   354.88814696
_cell_formula_units_Z   2
loop_
 _symmetry_equiv_pos_site_id
 _symmetry_equiv_pos_as_xyz
  1  'x, y, z'
loop_
 _atom_site_type_symbol
 _atom_site_label
 _atom_site_symmetry_multiplicity
 _atom_site_fract_x
 _atom_site_fract_y
 _atom_site_fract_z
 _atom_site_occupancy
  Li  Li0  1  0.99840369  0.99836867  0.15365297  1
  Li  Li1  1  0.99846256  -0.00004206  0.65374948  1
  Li  Li2  1  0.00978270  0.02113143  0.36031882  1
  Li  Li3  1  0.00910823  0.98860628  0.86027057  1
  Fe  Fe4  1  0.34385792  0.65324719  0.31754475  1
  Fe  Fe5  1  0.32246710  0.67019983  0.01492144  1
  Fe  Fe6  1  0.34337618  0.69036913  0.81765145  1
  Fe  Fe7  1  0.32282954  0.65240721  0.51483979  1
  Fe  Fe8  1  0.66202144  0.32736809  0.18567234  1
  Fe  Fe9  1  0.66189048  0.33460361  0.68574085  1
  Fe  Fe10  1  0.64822289  0.30834195  0.97380242  1
  Fe  Fe11  1  0.64878850  0.34006654  0.47389320  1
  O  O12  1  0.33508716  0.95375415  0.91816851  1
  O  O13  1  0.33591425  0.38174032  0.41809628  1
  F  F14  1  0.00110623  0.70434739  0.74766377  1
  F  F15  1  0.02523846  0.68307630  0.41569131  1
  F  F16  1  0.00139166  0.29697675  0.24762850  1
  F  F17  1  0.02482676  0.34208692  0.91570120  1
  F  F18  1  0.31516060  0.33659747  0.74434214  1
  F  F19  1  0.65727763  0.98657326  0.41462832  1
  F  F20  1  0.35330930  0.34512903  0.08581161  1
  F  F21  1  0.31561469  0.97869123  0.24426691  1
  F  F22  1  0.65688169  0.67048080  0.91460353  1
  F  F23  1  0.35370757  0.00836504  0.58580231  1
  F  F24  1  0.70964930  0.69824126  0.24648453  1
  F  F25  1  0.67171518  0.64709192  0.58879067  1
  F  F26  1  0.94627078  0.62030137  0.08244260  1
  F  F27  1  0.67156698  0.02450579  0.08870685  1
  F  F28  1  0.70919969  0.01124598  0.74660275  1
  F  F29  1  0.94667287  0.32612613  0.58251016  1
