# generated using pymatgen
data_Mn6O7F5
_symmetry_space_group_name_H-M   'P 1'
_cell_length_a   4.68743287
_cell_length_b   4.68743287
_cell_length_c   9.22759957
_cell_angle_alpha   90.31259544
_cell_angle_beta   89.68740456
_cell_angle_gamma   93.81249283
_symmetry_Int_Tables_number   1
_chemical_formula_structural   Mn6O7F5
_chemical_formula_sum   'Mn6 O7 F5'
_cell_volume   202.29473523
_cell_formula_units_Z   1
loop_
 _symmetry_equiv_pos_site_id
 _symmetry_equiv_pos_as_xyz
  1  'x, y, z'
loop_
 _atom_site_type_symbol
 _atom_site_label
 _atom_site_symmetry_multiplicity
 _atom_site_fract_x
 _atom_site_fract_y
 _atom_site_fract_z
 _atom_site_occupancy
  Mn  Mn0  1  0.98721034  0.00327473  0.00839056  1
  Mn  Mn1  1  0.02361089  0.02361089  0.33333300  1
  Mn  Mn2  1  0.00327473  0.98721034  0.65827544  1
  Mn  Mn3  1  0.49401955  0.49401955  0.83333300  1
  Mn  Mn4  1  0.51890792  0.47102267  0.15910425  1
  Mn  Mn5  1  0.47102267  0.51890792  0.50756275  1
  O  O6  1  0.18512624  0.81891375  0.49552130  1
  O  O7  1  0.31221312  0.28645422  0.99943519  1
  O  O8  1  0.32065816  0.32065816  0.33333300  1
  O  O9  1  0.28645422  0.31221312  0.66723081  1
  O  O10  1  0.70242787  0.67479758  0.00054760  1
  O  O11  1  0.67479758  0.70242787  0.66611840  1
  O  O12  1  0.81891375  0.18512624  0.17114570  1
  F  F13  1  0.22188248  0.78289471  0.16968775  1
  F  F14  1  0.18166184  0.80821816  0.84497215  1
  F  F15  1  0.70670676  0.70670676  0.33333300  1
  F  F16  1  0.78289471  0.22188248  0.49697925  1
  F  F17  1  0.80821816  0.18166184  0.82169485  1
