# generated using pymatgen
data_Sr3NbGa3(SiO7)2
_symmetry_space_group_name_H-M   'P 1'
_cell_length_a   5.18578711
_cell_length_b   8.65925357
_cell_length_c   8.67489593
_cell_angle_alpha   120.05977302
_cell_angle_beta   90.00000001
_cell_angle_gamma   90.02073504
_symmetry_Int_Tables_number   1
_chemical_formula_structural   Sr3NbGa3(SiO7)2
_chemical_formula_sum   'Sr3 Nb1 Ga3 Si2 O14'
_cell_volume   337.15384121
_cell_formula_units_Z   1
loop_
 _symmetry_equiv_pos_site_id
 _symmetry_equiv_pos_as_xyz
  1  'x, y, z'
loop_
 _atom_site_type_symbol
 _atom_site_label
 _atom_site_symmetry_multiplicity
 _atom_site_fract_x
 _atom_site_fract_y
 _atom_site_fract_z
 _atom_site_occupancy
  Sr  Sr0  1  0.00036334  0.58407813  0.58394407  1
  Sr  Sr1  1  0.99963666  0.41592187  -0.00013405  1
  Sr  Sr2  1  0.00000000  1.00000000  0.41227896  1
  Nb  Nb3  1  1.00000000  1.00000000  0.99876993  1
  Ga  Ga4  1  0.50000336  0.25667355  0.25606024  1
  Ga  Ga5  1  0.49999664  0.74332645  0.99938669  1
  Ga  Ga6  1  0.50000000  1.00000000  0.74347690  1
  Si  Si7  1  0.28809519  0.33246591  0.66657395  1
  Si  Si8  1  0.71190481  0.66753409  0.33410803  1
  O  O9  1  0.97166387  0.33781951  0.66734573  1
  O  O10  1  0.02833613  0.66218049  0.32952622  1
  O  O11  1  0.64473185  0.84600268  0.52315326  1
  O  O12  1  0.62816299  0.48352652  0.32828767  1
  O  O13  1  0.63526393  0.68231967  0.16041661  1
  O  O14  1  0.35526815  0.15399732  0.67715058  1
  O  O15  1  0.36473607  0.31768033  0.47809694  1
  O  O16  1  0.37183701  0.51647348  0.84476115  1
  O  O17  1  0.23144221  0.88017980  0.78168758  1
  O  O18  1  0.23098402  0.21782833  0.09854070  1
  O  O19  1  0.22964959  0.89999259  0.11717065  1
  O  O20  1  0.76855779  0.11982020  0.90150779  1
  O  O21  1  0.77035041  0.10000741  0.21717806  1
  O  O22  1  0.76901598  0.78217167  0.88071237  1
