# generated using pymatgen
data_Ti2N2O
_symmetry_space_group_name_H-M   'P 1'
_cell_length_a   8.22797999
_cell_length_b   8.24104491
_cell_length_c   8.22729501
_cell_angle_alpha   109.54865052
_cell_angle_beta   109.51811950
_cell_angle_gamma   109.46810744
_symmetry_Int_Tables_number   1
_chemical_formula_structural   Ti2N2O
_chemical_formula_sum   'Ti16 N16 O8'
_cell_volume   428.80429883
_cell_formula_units_Z   8
loop_
 _symmetry_equiv_pos_site_id
 _symmetry_equiv_pos_as_xyz
  1  'x, y, z'
loop_
 _atom_site_type_symbol
 _atom_site_label
 _atom_site_symmetry_multiplicity
 _atom_site_fract_x
 _atom_site_fract_y
 _atom_site_fract_z
 _atom_site_occupancy
  Ti  Ti0  1  0.49136373  0.01351522  0.00226342  1
  Ti  Ti1  1  0.95163387  0.23649568  0.20660964  1
  Ti  Ti2  1  0.79054501  0.04402977  0.74980649  1
  Ti  Ti3  1  0.70905572  0.45844707  0.25047114  1
  Ti  Ti4  1  0.76230676  0.30530102  0.54702132  1
  Ti  Ti5  1  0.75192404  0.78598185  0.05383110  1
  Ti  Ti6  1  0.99616064  0.48314695  0.98635104  1
  Ti  Ti7  1  0.51426181  0.50959379  0.51550149  1
  Ti  Ti8  1  0.45606017  0.25382434  0.71520026  1
  Ti  Ti9  1  0.01337852  0.00159739  0.50365753  1
  Ti  Ti10  1  0.53831692  0.74842081  0.29929214  1
  Ti  Ti11  1  0.25686407  0.71737168  0.45669787  1
  Ti  Ti12  1  0.23391268  0.19845225  0.94626233  1
  Ti  Ti13  1  0.20731782  0.95298474  0.24683321  1
  Ti  Ti14  1  0.29558906  0.54603529  0.74933257  1
  Ti  Ti15  1  0.05246734  0.75388513  0.78811405  1
  N  N16  1  0.00705235  0.04889180  0.27119755  1
  N  N17  1  0.73861444  0.22490685  0.27645950  1
  N  N18  1  0.76997580  0.72081745  0.25969848  1
  N  N19  1  0.72656577  0.26526403  0.77193881  1
  N  N20  1  0.76961885  0.54707267  0.53856575  1
  N  N21  1  0.27858245  0.73592102  0.22463433  1
  N  N22  1  0.50871612  0.23564494  0.96037599  1
  N  N23  1  0.54009897  0.77230057  0.54923522  1
  N  N24  1  0.27470384  0.00718441  0.05156473  1
  N  N25  1  0.22123304  0.27554812  0.73002025  1
  N  N26  1  0.55063137  0.54341046  0.77397221  1
  N  N27  1  0.05020059  0.27540889  0.01130647  1
  N  N28  1  0.23507504  0.95898810  0.50973037  1
  N  N29  1  0.26557702  0.77464484  0.72573520  1
  N  N30  1  0.04052634  0.49044082  0.76547763  1
  N  N31  1  0.98897462  0.94895425  0.72179129  1
  O  O32  1  0.96130410  0.51025538  0.23732738  1
  O  O33  1  0.94942537  0.72343694  0.99731390  1
  O  O34  1  0.75772668  0.03475397  0.48699486  1
  O  O35  1  0.45135947  0.46117450  0.22643545  1
  O  O36  1  0.72348094  0.99269990  0.94798022  1
  O  O37  1  0.45248444  0.22584807  0.44892851  1
  O  O38  1  0.49366795  0.76598450  0.03824831  1
  O  O39  1  0.22324729  0.45136253  0.45782097  1
