# generated using pymatgen
data_Fe2OF3
_symmetry_space_group_name_H-M   'P 1'
_cell_length_a   4.84261534
_cell_length_b   4.84261534
_cell_length_c   15.64950072
_cell_angle_alpha   90.00000000
_cell_angle_beta   90.00000000
_cell_angle_gamma   91.76751209
_symmetry_Int_Tables_number   1
_chemical_formula_structural   Fe2OF3
_chemical_formula_sum   'Fe10 O5 F15'
_cell_volume   366.82062912
_cell_formula_units_Z   5
loop_
 _symmetry_equiv_pos_site_id
 _symmetry_equiv_pos_as_xyz
  1  'x, y, z'
loop_
 _atom_site_type_symbol
 _atom_site_label
 _atom_site_symmetry_multiplicity
 _atom_site_fract_x
 _atom_site_fract_y
 _atom_site_fract_z
 _atom_site_occupancy
  Fe  Fe0  1  0.96914460  0.96914460  0.00000000  1
  Fe  Fe1  1  0.02350284  0.02350284  0.19967745  1
  Fe  Fe2  1  0.01233117  0.01233117  0.39979644  1
  Fe  Fe3  1  0.01233117  0.01233117  0.60020356  1
  Fe  Fe4  1  0.02350284  0.02350284  0.80032255  1
  Fe  Fe5  1  0.50094072  0.50094072  0.09968964  1
  Fe  Fe6  1  0.47511002  0.47511002  0.50000000  1
  Fe  Fe7  1  0.47552274  0.47552274  0.29931397  1
  Fe  Fe8  1  0.47552274  0.47552274  0.70068603  1
  Fe  Fe9  1  0.50094072  0.50094072  0.90031036  1
  O  O10  1  0.32110752  0.32110752  0.19675213  1
  O  O11  1  0.31167220  0.31167220  0.39950245  1
  O  O12  1  0.31167220  0.31167220  0.60049755  1
  O  O13  1  0.32110752  0.32110752  0.80324787  1
  O  O14  1  0.67161938  0.67161938  0.00000000  1
  F  F15  1  0.20591496  0.79021650  0.09979325  1
  F  F16  1  0.21216336  0.79259085  0.29942226  1
  F  F17  1  0.20926191  0.78970418  0.50000000  1
  F  F18  1  0.21216336  0.79259085  0.70057774  1
  F  F19  1  0.20591496  0.79021650  0.90020675  1
  F  F20  1  0.28994229  0.28994229  0.00000000  1
  F  F21  1  0.70451768  0.70451768  0.20152632  1
  F  F22  1  0.69712826  0.69712826  0.39990082  1
  F  F23  1  0.69712826  0.69712826  0.60009918  1
  F  F24  1  0.70451768  0.70451768  0.79847368  1
  F  F25  1  0.79021650  0.20591496  0.09979325  1
  F  F26  1  0.78970418  0.20926191  0.50000000  1
  F  F27  1  0.79259085  0.21216336  0.29942226  1
  F  F28  1  0.79021650  0.20591496  0.90020675  1
  F  F29  1  0.79259085  0.21216336  0.70057774  1
