# generated using pymatgen
data_Li2Mn3(BO3)3
_symmetry_space_group_name_H-M   'P 1'
_cell_length_a   5.84206972
_cell_length_b   5.29948789
_cell_length_c   13.32200709
_cell_angle_alpha   88.96375212
_cell_angle_beta   83.03148831
_cell_angle_gamma   113.55685640
_symmetry_Int_Tables_number   1
_chemical_formula_structural   Li2Mn3(BO3)3
_chemical_formula_sum   'Li4 Mn6 B6 O18'
_cell_volume   374.27845429
_cell_formula_units_Z   2
loop_
 _symmetry_equiv_pos_site_id
 _symmetry_equiv_pos_as_xyz
  1  'x, y, z'
loop_
 _atom_site_type_symbol
 _atom_site_label
 _atom_site_symmetry_multiplicity
 _atom_site_fract_x
 _atom_site_fract_y
 _atom_site_fract_z
 _atom_site_occupancy
  Li  Li0  1  0.97333131  0.08166286  0.68996017  1
  Li  Li1  1  0.36005133  0.58504636  0.97673632  1
  Li  Li2  1  0.33359212  0.73748955  0.35446691  1
  Li  Li3  1  0.99974492  0.92915263  0.31215400  1
  Mn  Mn4  1  0.94713586  0.56154306  0.79963700  1
  Mn  Mn5  1  0.38621329  0.10512749  0.86700593  1
  Mn  Mn6  1  0.70350633  0.76780223  0.54048150  1
  Mn  Mn7  1  0.28342897  0.21848018  0.47074514  1
  Mn  Mn8  1  0.62982044  0.89891085  0.12623190  1
  Mn  Mn9  1  0.04985914  0.44813245  0.19594689  1
  B  B10  1  0.83948604  0.34813078  0.41995908  1
  B  B11  1  0.83497047  0.98960903  0.90624259  1
  B  B12  1  0.49833755  0.67691270  0.76040607  1
  B  B13  1  0.49402651  0.31854164  0.24664891  1
  B  B14  1  0.17007184  0.00826098  0.08545684  1
  B  B15  1  0.16317586  0.65820352  0.58128982  1
  O  O16  1  0.89584548  0.11625342  0.42991345  1
  O  O17  1  0.75409049  0.19698307  0.88775308  1
  O  O18  1  0.02074249  0.97309036  0.83022879  1
  O  O19  1  0.96506506  0.55053571  0.34220591  1
  O  O20  1  0.72391555  0.79566593  0.98452808  1
  O  O21  1  0.66282004  0.38391230  0.49128395  1
  O  O22  1  0.57932529  0.46964657  0.77890500  1
  O  O23  1  0.67026155  0.28290147  0.17548468  1
  O  O24  1  0.60949766  0.87117565  0.68203800  1
  O  O25  1  0.36826597  0.11612301  0.32447374  1
  O  O26  1  0.31248544  0.69351238  0.83642411  1
  O  O27  1  0.43754873  0.55036906  0.23679030  1
  O  O28  1  0.33379994  0.63865797  0.50016729  1
  O  O29  1  0.25565461  0.19938291  0.00537158  1
  O  O30  1  0.07763348  0.46724606  0.66132142  1
  O  O31  1  -0.00001303  0.02807481  0.16646649  1
  O  O32  1  0.25011824  0.79164427  0.09203110  1
  O  O33  1  0.08285802  0.87515073  0.57457695  1
