# generated using pymatgen
data_Cu7Te4
_symmetry_space_group_name_H-M   'P 1'
_cell_length_a   8.13884419
_cell_length_b   7.79930883
_cell_length_c   7.53479472
_cell_angle_alpha   118.88430333
_cell_angle_beta   90.00000001
_cell_angle_gamma   90.01109059
_symmetry_Int_Tables_number   1
_chemical_formula_structural   Cu7Te4
_chemical_formula_sum   'Cu14 Te8'
_cell_volume   418.78824044
_cell_formula_units_Z   2
loop_
 _symmetry_equiv_pos_site_id
 _symmetry_equiv_pos_as_xyz
  1  'x, y, z'
loop_
 _atom_site_type_symbol
 _atom_site_label
 _atom_site_symmetry_multiplicity
 _atom_site_fract_x
 _atom_site_fract_y
 _atom_site_fract_z
 _atom_site_occupancy
  Cu  Cu0  1  0.04899893  0.34072291  0.67036146  1
  Cu  Cu1  1  0.80535330  0.66685385  0.33342693  1
  Cu  Cu2  1  0.50730513  0.61411825  0.80705913  1
  Cu  Cu3  1  0.52613456  0.19222096  0.80714917  1
  Cu  Cu4  1  0.52613456  0.19222096  0.38507180  1
  Cu  Cu5  1  0.53793175  0.41902563  0.20951282  1
  Cu  Cu6  1  0.57044182  0.79792365  0.20217402  1
  Cu  Cu7  1  0.57044182  0.79792365  0.59574963  1
  Cu  Cu8  1  0.14214707  0.72620642  0.86310321  1
  Cu  Cu9  1  0.15147381  0.13759411  0.84412643  1
  Cu  Cu10  1  0.15147381  0.13759411  0.29346768  1
  Cu  Cu11  1  0.01642394  0.39649932  0.19824966  1
  Cu  Cu12  1  0.04355344  0.80309262  0.21913216  1
  Cu  Cu13  1  0.04355344  0.80309262  0.58396046  1
  Te  Te14  1  0.93181862  0.00411764  0.00205882  1
  Te  Te15  1  0.84595058  0.03494400  0.51747200  1
  Te  Te16  1  0.73432976  0.47569635  0.51544663  1
  Te  Te17  1  0.73432976  0.47569635  0.96024972  1
  Te  Te18  1  0.45202788  0.99742599  0.99871300  1
  Te  Te19  1  0.33935578  0.98053879  0.49026940  1
  Te  Te20  1  0.24441011  0.50324590  0.49386495  1
  Te  Te21  1  0.24441011  0.50324590  0.00938096  1
