# generated using pymatgen
data_LiNbVO4
_symmetry_space_group_name_H-M   'P 1'
_cell_length_a   6.11026470
_cell_length_b   6.16180512
_cell_length_c   6.16180523
_cell_angle_alpha   60.14295124
_cell_angle_beta   60.27631241
_cell_angle_gamma   60.27631185
_symmetry_Int_Tables_number   1
_chemical_formula_structural   LiNbVO4
_chemical_formula_sum   'Li2 Nb2 V2 O8'
_cell_volume   164.90471645
_cell_formula_units_Z   2
loop_
 _symmetry_equiv_pos_site_id
 _symmetry_equiv_pos_as_xyz
  1  'x, y, z'
loop_
 _atom_site_type_symbol
 _atom_site_label
 _atom_site_symmetry_multiplicity
 _atom_site_fract_x
 _atom_site_fract_y
 _atom_site_fract_z
 _atom_site_occupancy
  Li  Li0  1  0.12219632  0.12780368  0.12780368  1
  Li  Li1  1  0.87780368  0.87219632  0.87219632  1
  Nb  Nb2  1  0.00000000  0.50000000  0.50000000  1
  Nb  Nb3  1  0.50000000  0.50000000  0.50000000  1
  V  V4  1  0.50000000  0.00000000  0.50000000  1
  V  V5  1  0.50000000  0.50000000  0.00000000  1
  O  O6  1  0.24662543  0.26986191  0.26986191  1
  O  O7  1  0.25817119  0.25933110  0.72432653  1
  O  O8  1  0.25817119  0.72432653  0.25933110  1
  O  O9  1  0.71365175  0.26986191  0.26986191  1
  O  O10  1  0.28634825  0.73013809  0.73013809  1
  O  O11  1  0.74182881  0.74066890  0.27567347  1
  O  O12  1  0.74182881  0.27567347  0.74066890  1
  O  O13  1  0.75337457  0.73013809  0.73013809  1
