# generated using pymatgen
data_LiNi(PO3)3
_symmetry_space_group_name_H-M   'P 1'
_cell_length_a   6.48684839
_cell_length_b   6.48690408
_cell_length_c   9.64046624
_cell_angle_alpha   89.99995601
_cell_angle_beta   90.00019418
_cell_angle_gamma   120.00043337
_symmetry_Int_Tables_number   1
_chemical_formula_structural   LiNi(PO3)3
_chemical_formula_sum   'Li2 Ni2 P6 O18'
_cell_volume   351.31605474
_cell_formula_units_Z   2
loop_
 _symmetry_equiv_pos_site_id
 _symmetry_equiv_pos_as_xyz
  1  'x, y, z'
loop_
 _atom_site_type_symbol
 _atom_site_label
 _atom_site_symmetry_multiplicity
 _atom_site_fract_x
 _atom_site_fract_y
 _atom_site_fract_z
 _atom_site_occupancy
  Li  Li0  1  0.66672894  0.33346705  0.50000089  1
  Li  Li1  1  0.66672917  0.33326335  0.00000092  1
  Ni  Ni2  1  0.33334425  0.66666110  0.99999601  1
  Ni  Ni3  1  0.33334406  0.66666974  0.50000524  1
  P  P4  1  0.04289020  0.75951766  0.75001156  1
  P  P5  1  0.24048163  0.95710197  0.24999948  1
  P  P6  1  0.04289136  0.28337604  0.25000959  1
  P  P7  1  0.24048080  0.28337869  0.75000055  1
  P  P8  1  0.71661307  0.95710060  0.74998734  1
  P  P9  1  0.71661280  0.75951028  0.24998777  1
  O  O10  1  0.05246073  0.64715380  0.88480421  1
  O  O11  1  0.05245487  0.64715535  0.61519750  1
  O  O12  1  0.35282736  0.94751226  0.38479511  1
  O  O13  1  0.35284812  0.94754469  0.11518989  1
  O  O14  1  0.05245637  0.40530237  0.11519860  1
  O  O15  1  0.05246279  0.40531093  0.38480410  1
  O  O16  1  0.35282862  0.40531803  0.88479481  1
  O  O17  1  0.35284819  0.40530594  0.61518975  1
  O  O18  1  0.59467752  0.94751184  0.61520423  1
  O  O19  1  0.59468824  0.94754404  0.88480956  1
  O  O20  1  0.24022562  0.20395816  0.25000709  1
  O  O21  1  0.24022755  0.03627009  0.75000642  1
  O  O22  1  0.59469031  0.64714328  0.38481008  1
  O  O23  1  0.59467811  0.64716562  0.11520359  1
  O  O24  1  0.79603159  0.75976538  0.75000563  1
  O  O25  1  0.96372302  0.75976563  0.24998601  1
  O  O26  1  0.79603454  0.03626718  0.25000618  1
  O  O27  1  0.96372219  0.20395695  0.74998691  1
