# generated using pymatgen
data_Li2FePHO5
_symmetry_space_group_name_H-M   'P 1'
_cell_length_a   8.32838836
_cell_length_b   9.60963042
_cell_length_c   5.56540417
_cell_angle_alpha   90.00000000
_cell_angle_beta   104.47249393
_cell_angle_gamma   90.00000000
_symmetry_Int_Tables_number   1
_chemical_formula_structural   Li2FePHO5
_chemical_formula_sum   'Li8 Fe4 P4 H4 O20'
_cell_volume   431.28049799
_cell_formula_units_Z   4
loop_
 _symmetry_equiv_pos_site_id
 _symmetry_equiv_pos_as_xyz
  1  'x, y, z'
loop_
 _atom_site_type_symbol
 _atom_site_label
 _atom_site_symmetry_multiplicity
 _atom_site_fract_x
 _atom_site_fract_y
 _atom_site_fract_z
 _atom_site_occupancy
  Li  Li0  1  0.31343736  0.16232018  0.73132767  1
  Li  Li1  1  0.41075664  0.82960070  0.66759758  1
  Li  Li2  1  0.31343736  0.33767982  0.23132767  1
  Li  Li3  1  0.41075664  0.67039930  0.16759758  1
  Li  Li4  1  0.58924336  0.32960070  0.83240242  1
  Li  Li5  1  0.68656264  0.66232018  0.76867233  1
  Li  Li6  1  0.58924336  0.17039930  0.33240242  1
  Li  Li7  1  0.68656264  0.83767982  0.26867233  1
  Fe  Fe8  1  0.01332438  0.86811493  0.78950445  1
  Fe  Fe9  1  0.01332438  0.63188507  0.28950445  1
  Fe  Fe10  1  0.98667562  0.36811493  0.71049555  1
  Fe  Fe11  1  0.98667562  0.13188507  0.21049555  1
  P  P12  1  0.31167308  0.52299037  0.63122102  1
  P  P13  1  0.31167308  0.97700963  0.13122102  1
  P  P14  1  0.68832692  0.02299037  0.86877898  1
  P  P15  1  0.68832692  0.47700963  0.36877898  1
  H  H16  1  0.02247772  0.62408374  0.84871765  1
  H  H17  1  0.02247772  0.87591626  0.34871765  1
  H  H18  1  0.97752228  0.12408374  0.65128235  1
  H  H19  1  0.97752228  0.37591626  0.15128235  1
  O  O20  1  0.04993482  0.18408181  0.57843428  1
  O  O21  1  0.04993482  0.31591819  0.07843428  1
  O  O22  1  0.14725553  0.52690234  0.72088432  1
  O  O23  1  0.26207834  0.91898794  0.85743708  1
  O  O24  1  0.14725553  0.97309766  0.22088432  1
  O  O25  1  0.26207834  0.58101206  0.35743708  1
  O  O26  1  0.36783030  0.36973323  0.62258385  1
  O  O27  1  0.43971020  0.62031971  0.79808603  1
  O  O28  1  0.36783030  0.13026677  0.12258385  1
  O  O29  1  0.43971020  0.87968029  0.29808603  1
  O  O30  1  0.56028980  0.12031971  0.70191397  1
  O  O31  1  0.63216970  0.86973323  0.87741615  1
  O  O32  1  0.56028980  0.37968029  0.20191397  1
  O  O33  1  0.63216970  0.63026677  0.37741615  1
  O  O34  1  0.73792166  0.41898794  0.64256292  1
  O  O35  1  0.85274447  0.02690234  0.77911568  1
  O  O36  1  0.73792166  0.08101206  0.14256292  1
  O  O37  1  0.85274447  0.47309766  0.27911568  1
  O  O38  1  0.95006518  0.68408181  0.92156572  1
  O  O39  1  0.95006518  0.81591819  0.42156572  1
