# generated using pymatgen
data_ScB2C
_symmetry_space_group_name_H-M   'P 1'
_cell_length_a   6.64555454
_cell_length_b   6.64555454
_cell_length_c   6.79219139
_cell_angle_alpha   90.00000000
_cell_angle_beta   90.00000000
_cell_angle_gamma   90.00000000
_symmetry_Int_Tables_number   1
_chemical_formula_structural   ScB2C
_chemical_formula_sum   'Sc8 B16 C8'
_cell_volume   299.96623225
_cell_formula_units_Z   8
loop_
 _symmetry_equiv_pos_site_id
 _symmetry_equiv_pos_as_xyz
  1  'x, y, z'
loop_
 _atom_site_type_symbol
 _atom_site_label
 _atom_site_symmetry_multiplicity
 _atom_site_fract_x
 _atom_site_fract_y
 _atom_site_fract_z
 _atom_site_occupancy
  B  B0  1  0.15321653  0.03355963  0.00000000  1
  B  B1  1  0.53355963  0.65321653  0.50000000  1
  B  B2  1  0.84678347  0.96644037  0.00000000  1
  B  B3  1  0.34678347  0.53355963  0.00000000  1
  B  B4  1  0.65321653  0.46644037  0.00000000  1
  B  B5  1  0.03355963  0.84678347  0.50000000  1
  B  B6  1  0.96644037  0.15321653  0.50000000  1
  B  B7  1  0.46644037  0.34678347  0.50000000  1
  B  B8  1  0.09608520  0.59222064  0.00000000  1
  B  B9  1  0.40777936  0.09608520  0.50000000  1
  B  B10  1  0.59222064  0.90391480  0.50000000  1
  B  B11  1  0.59608520  0.90777936  0.00000000  1
  B  B12  1  0.40391480  0.09222064  0.00000000  1
  B  B13  1  0.90391480  0.40777936  0.00000000  1
  B  B14  1  0.09222064  0.59608520  0.50000000  1
  B  B15  1  0.90777936  0.40391480  0.50000000  1
  C  C16  1  0.17902251  0.04002560  0.50000000  1
  C  C17  1  0.67902251  0.45997440  0.50000000  1
  C  C18  1  0.32097749  0.54002560  0.50000000  1
  C  C19  1  0.95997440  0.17902251  0.00000000  1
  C  C20  1  0.04002560  0.82097749  0.00000000  1
  C  C21  1  0.54002560  0.67902251  0.00000000  1
  C  C22  1  0.82097749  0.95997440  0.50000000  1
  C  C23  1  0.45997440  0.32097749  0.00000000  1
  Sc  Sc24  1  0.30766617  0.80766617  0.75000000  1
  Sc  Sc25  1  0.19233383  0.30766617  0.25000000  1
  Sc  Sc26  1  0.80766617  0.69233383  0.25000000  1
  Sc  Sc27  1  0.69233383  0.19233383  0.75000000  1
  Sc  Sc28  1  0.69233383  0.19233383  0.25000000  1
  Sc  Sc29  1  0.80766617  0.69233383  0.75000000  1
  Sc  Sc30  1  0.19233383  0.30766617  0.75000000  1
  Sc  Sc31  1  0.30766617  0.80766617  0.25000000  1
