# generated using pymatgen
data_Li3Mn2Cr2O8
_symmetry_space_group_name_H-M   'P 1'
_cell_length_a   6.00939009
_cell_length_b   10.26010968
_cell_length_c   10.22519487
_cell_angle_alpha   71.68926832
_cell_angle_beta   89.26164887
_cell_angle_gamma   90.24057263
_symmetry_Int_Tables_number   1
_chemical_formula_structural   Li3Mn2Cr2O8
_chemical_formula_sum   'Li12 Mn8 Cr8 O32'
_cell_volume   598.46052848
_cell_formula_units_Z   4
loop_
 _symmetry_equiv_pos_site_id
 _symmetry_equiv_pos_as_xyz
  1  'x, y, z'
loop_
 _atom_site_type_symbol
 _atom_site_label
 _atom_site_symmetry_multiplicity
 _atom_site_fract_x
 _atom_site_fract_y
 _atom_site_fract_z
 _atom_site_occupancy
  Li  Li0  1  0.00177313  0.75642601  0.74861923  1
  Li  Li1  1  0.00110107  0.24477917  0.25678172  1
  Li  Li2  1  0.26044714  0.25074920  0.49314210  1
  Li  Li3  1  0.23955286  0.74925080  0.00685790  1
  Li  Li4  1  0.50600863  0.00565437  0.99657889  1
  Li  Li5  1  0.49822687  0.24357399  0.75138077  1
  Li  Li6  1  0.50249031  0.49741099  0.49852820  1
  Li  Li7  1  0.49889893  0.75522083  0.24321828  1
  Li  Li8  1  0.74737752  0.75376348  0.50048864  1
  Li  Li9  1  0.75262248  0.24623652  0.99951136  1
  Li  Li10  1  0.99399137  0.99434563  0.50342111  1
  Li  Li11  1  0.99750969  0.50258901  0.00147180  1
  Mn  Mn12  1  -0.00002516  0.49908943  0.49974121  1
  Mn  Mn13  1  0.00422554  0.99802194  0.00038873  1
  Mn  Mn14  1  0.25000000  0.50000000  0.75000000  1
  Mn  Mn15  1  0.25000000  0.00000000  0.25000000  1
  Mn  Mn16  1  0.50002516  0.50091057  0.00025879  1
  Mn  Mn17  1  0.49577446  0.00197806  0.49961127  1
  Mn  Mn18  1  0.75000000  0.00000000  0.75000000  1
  Mn  Mn19  1  0.75000000  0.00000000  0.25000000  1
  Cr  Cr20  1  0.25000000  0.00000000  0.75000000  1
  Cr  Cr21  1  0.25000000  0.50000000  0.25000000  1
  Cr  Cr22  1  0.50048325  0.75128801  0.75180674  1
  Cr  Cr23  1  0.50275537  0.25104677  0.24417590  1
  Cr  Cr24  1  0.75000000  0.50000000  0.75000000  1
  Cr  Cr25  1  0.75000000  0.50000000  0.25000000  1
  Cr  Cr26  1  -0.00048325  0.24871199  0.74819326  1
  Cr  Cr27  1  0.99724463  0.74895323  0.25582410  1
  O  O28  1  0.00301207  0.39286587  0.37162733  1
  O  O29  1  0.02107523  0.88624091  0.88053380  1
  O  O30  1  0.99283802  0.10266042  0.13444464  1
  O  O31  1  0.23026346  0.38389695  0.62527142  1
  O  O32  1  0.22714951  0.12395365  0.86717478  1
  O  O33  1  0.27285049  0.87604635  0.63282522  1
  O  O34  1  0.22218991  0.61470519  0.37616392  1
  O  O35  1  0.26973654  0.61610305  0.87472858  1
  O  O36  1  0.24251875  0.87094673  0.14485678  1
  O  O37  1  0.25748125  0.12905327  0.35514322  1
  O  O38  1  0.27781009  0.38529481  0.12383608  1
  O  O39  1  0.47892477  0.11375909  0.61946620  1
  O  O40  1  0.49773710  0.39492968  0.86782868  1
  O  O41  1  0.50716198  0.89733958  0.36555536  1
  O  O42  1  0.50235946  0.88930047  0.85677289  1
  O  O43  1  0.49698314  0.61172605  0.64551695  1
  O  O44  1  0.49430397  0.38346497  0.35571022  1
  O  O45  1  0.49698793  0.60713413  0.12837267  1
  O  O46  1  0.53416250  0.11854563  0.13420157  1
  O  O47  1  0.74284810  0.87117842  0.63784782  1
  O  O48  1  0.72252803  0.61527024  0.87408489  1
  O  O49  1  0.77747197  0.38472976  0.62591511  1
  O  O50  1  0.75715190  0.12882158  0.86215218  1
  O  O51  1  0.73164820  0.12058381  0.36164074  1
  O  O52  1  0.72957589  0.38503931  0.11989723  1
  O  O53  1  0.77042411  0.61496069  0.38010277  1
  O  O54  1  0.76835180  0.87941619  0.13835926  1
  O  O55  1  0.00301686  0.38827395  0.85448305  1
  O  O56  1  0.99764054  0.11069953  0.64322711  1
  O  O57  1  0.00226290  0.60507032  0.63217132  1
  O  O58  1  0.96583750  0.88145437  0.36579843  1
  O  O59  1  0.00569603  0.61653503  0.14428978  1
