# generated using pymatgen
data_Li3Mn2(PO4)3
_symmetry_space_group_name_H-M   'P 1'
_cell_length_a   8.71180597
_cell_length_b   8.56196798
_cell_length_c   8.56196766
_cell_angle_alpha   61.53145333
_cell_angle_beta   61.79418438
_cell_angle_gamma   61.79418344
_symmetry_Int_Tables_number   1
_chemical_formula_structural   Li3Mn2(PO4)3
_chemical_formula_sum   'Li6 Mn4 P6 O24'
_cell_volume   468.85424350
_cell_formula_units_Z   2
loop_
 _symmetry_equiv_pos_site_id
 _symmetry_equiv_pos_as_xyz
  1  'x, y, z'
loop_
 _atom_site_type_symbol
 _atom_site_label
 _atom_site_symmetry_multiplicity
 _atom_site_fract_x
 _atom_site_fract_y
 _atom_site_fract_z
 _atom_site_occupancy
  Li  Li0  1  0.02680112  0.01160935  0.98593973  1
  Li  Li1  1  0.75000000  0.15464226  0.34535774  1
  Li  Li2  1  0.47319888  0.51406027  0.48839065  1
  Li  Li3  1  0.25000000  0.83274873  0.66725127  1
  Li  Li4  1  0.64691219  0.26074087  0.84279999  1
  Li  Li5  1  0.85308781  0.65720001  0.23925913  1
  Mn  Mn6  1  0.14259307  0.14339691  0.14330502  1
  Mn  Mn7  1  0.35740693  0.35669498  0.35660309  1
  Mn  Mn8  1  0.64825547  0.65046025  0.64295011  1
  Mn  Mn9  1  0.85174453  0.85704989  0.84953975  1
  P  P10  1  0.05466420  0.75380199  0.44890872  1
  P  P11  1  0.44533580  0.05109128  0.74619801  1
  P  P12  1  0.75000000  0.45507751  0.04492249  1
  P  P13  1  0.25000000  0.53367646  0.96632354  1
  P  P14  1  0.54523522  0.95709616  0.24863621  1
  P  P15  1  0.95476478  0.25136379  0.54290384  1
  O  O16  1  0.12680736  0.28571794  0.50496391  1
  O  O17  1  0.30826547  0.49832562  0.12689683  1
  O  O18  1  0.05470517  0.93019724  0.26519556  1
  O  O19  1  0.54091752  0.11312053  0.29199543  1
  O  O20  1  0.24170103  0.60030360  0.43034135  1
  O  O21  1  0.02068908  0.80660204  0.61718629  1
  O  O22  1  0.25829897  0.06965865  0.89969640  1
  O  O23  1  0.44529483  0.23480444  0.56980276  1
  O  O24  1  0.59688754  0.43388242  0.23843540  1
  O  O25  1  0.19173453  0.37310317  0.00167438  1
  O  O26  1  0.09392529  0.72639352  0.94860304  1
  O  O27  1  0.37319264  0.99503609  0.21428206  1
  O  O28  1  0.60326998  0.02818893  0.79710139  1
  O  O29  1  0.90311246  0.26156460  0.06611758  1
  O  O30  1  0.80963161  0.61563724  0.01115818  1
  O  O31  1  0.40607471  0.55139696  0.77360648  1
  O  O32  1  0.57140500  0.76103341  0.41010324  1
  O  O33  1  0.73026721  0.93120492  0.08033950  1
  O  O34  1  0.95908248  0.20800457  0.38687947  1
  O  O35  1  0.76973279  0.41966050  0.56879508  1
  O  O36  1  0.47931092  0.88281371  0.69339796  1
  O  O37  1  0.92859500  0.08989676  0.73896659  1
  O  O38  1  0.69036839  0.48884182  0.88436276  1
  O  O39  1  0.89673002  0.70289861  0.47181107  1
