# generated using pymatgen
data_LiCr(SiO3)2
_symmetry_space_group_name_H-M   'P 1'
_cell_length_a   18.33961305
_cell_length_b   8.79816114
_cell_length_c   5.21322714
_cell_angle_alpha   89.98471265
_cell_angle_beta   90.02742959
_cell_angle_gamma   89.91345368
_symmetry_Int_Tables_number   1
_chemical_formula_structural   LiCr(SiO3)2
_chemical_formula_sum   'Li8 Cr8 Si16 O48'
_cell_volume   841.17850544
_cell_formula_units_Z   8
loop_
 _symmetry_equiv_pos_site_id
 _symmetry_equiv_pos_as_xyz
  1  'x, y, z'
loop_
 _atom_site_type_symbol
 _atom_site_label
 _atom_site_symmetry_multiplicity
 _atom_site_fract_x
 _atom_site_fract_y
 _atom_site_fract_z
 _atom_site_occupancy
  Li  Li0  1  0.12437603  0.98568536  0.37407279  1
  Li  Li1  1  0.12324241  0.51375962  0.87448114  1
  Li  Li2  1  0.37448875  0.66057873  0.86789661  1
  Li  Li3  1  0.37647025  0.99155334  0.87485105  1
  Li  Li4  1  0.62276068  0.49512698  0.62882805  1
  Li  Li5  1  0.62279491  0.15826980  0.63177107  1
  Li  Li6  1  0.87694780  0.65763174  0.63152852  1
  Li  Li7  1  0.87711333  0.84087190  0.12942318  1
  Cr  Cr8  1  0.12533128  0.34624088  0.37842668  1
  Cr  Cr9  1  0.12513527  0.15265028  0.87642430  1
  Cr  Cr10  1  0.37479625  0.84732803  0.37464123  1
  Cr  Cr11  1  0.37612024  0.49079649  0.35643009  1
  Cr  Cr12  1  0.62319051  0.98684646  0.14721314  1
  Cr  Cr13  1  0.62268758  0.34767261  0.12524942  1
  Cr  Cr14  1  0.87653717  0.00453498  0.64285028  1
  Cr  Cr15  1  0.87612340  0.49626125  0.14372401  1
  Si  Si16  1  0.02675417  0.65901969  0.29163578  1
  Si  Si17  1  0.02671653  0.84102749  0.79126983  1
  Si  Si18  1  0.22587633  0.65760286  0.55050359  1
  Si  Si19  1  0.22708862  0.84332281  0.05736429  1
  Si  Si20  1  0.27466384  0.15765429  0.56473598  1
  Si  Si21  1  0.27295448  0.33978444  0.05946183  1
  Si  Si22  1  0.47185349  0.16199307  0.29683780  1
  Si  Si23  1  0.47319025  0.33980088  0.79726044  1
  Si  Si24  1  0.52738902  0.66282705  0.20210839  1
  Si  Si25  1  0.52611830  0.83996217  0.70208968  1
  Si  Si26  1  0.72771790  0.65383195  0.94037250  1
  Si  Si27  1  0.73002452  0.84357437  0.44545157  1
  Si  Si28  1  0.77097905  0.15871791  0.93735814  1
  Si  Si29  1  0.77011685  0.34336241  0.43216904  1
  Si  Si30  1  0.97299982  0.16474206  0.20078679  1
  Si  Si31  1  0.97295873  0.33578734  0.70094321  1
  O  O32  1  0.05170700  0.70562448  0.58738147  1
  O  O33  1  0.05177328  0.79349103  0.08605668  1
  O  O34  1  0.06309611  0.17221402  0.19863250  1
  O  O35  1  0.06315273  0.32847030  0.69944088  1
  O  O36  1  0.06911206  0.50511991  0.20835970  1
  O  O37  1  0.06864959  0.99475259  0.70597762  1
  O  O38  1  0.18457126  0.16866518  0.55119646  1
  O  O39  1  0.18360733  0.33065304  0.05354259  1
  O  O40  1  0.18951952  0.00984254  0.04753265  1
  O  O41  1  0.19099934  0.48933219  0.55020074  1
  O  O42  1  0.19951119  0.72785350  0.82778530  1
  O  O43  1  0.19402655  0.77247230  0.32907380  1
  O  O44  1  0.30467654  0.22667155  0.83862620  1
  O  O45  1  0.30622132  0.28114667  0.34544501  1
  O  O46  1  0.31031014  0.50542729  0.05751495  1
  O  O47  1  0.30826289  0.99079592  0.54608568  1
  O  O48  1  0.31693776  0.65623679  0.52513886  1
  O  O49  1  0.31555724  0.84237800  0.05953319  1
  O  O50  1  0.43312002  0.00882683  0.20260397  1
  O  O51  1  0.43067034  0.48554066  0.68377114  1
  O  O52  1  0.43659807  0.66250108  0.22612225  1
  O  O53  1  0.43804476  0.84437179  0.68628407  1
  O  O54  1  0.45075121  0.19862429  0.59849723  1
  O  O55  1  0.44393660  0.30917155  0.10783847  1
  O  O56  1  0.54896916  0.69831879  0.90050700  1
  O  O57  1  0.55591790  0.80972221  0.39065241  1
  O  O58  1  0.56256333  0.16094930  0.27318899  1
  O  O59  1  0.56126431  0.34453349  0.81239799  1
  O  O60  1  0.56580814  0.50956758  0.29917806  1
  O  O61  1  0.56873979  0.98455274  0.81757358  1
  O  O62  1  0.68185211  0.15759911  0.97459320  1
  O  O63  1  0.68279138  0.33899615  0.44197298  1
  O  O64  1  0.68702963  0.00504459  0.44586027  1
  O  O65  1  0.68860247  0.49045121  0.95510982  1
  O  O66  1  0.69953322  0.72539553  0.66396545  1
  O  O67  1  0.69697067  0.78245172  0.15780373  1
  O  O68  1  0.80137402  0.21979457  0.65128766  1
  O  O69  1  0.80517769  0.28181226  0.14903069  1
  O  O70  1  0.81132073  0.50470563  0.44496871  1
  O  O71  1  0.80984582  0.99505306  0.94150275  1
  O  O72  1  0.81611119  0.64643279  0.96422257  1
  O  O73  1  0.81788324  0.85448656  0.45859859  1
  O  O74  1  0.93533597  0.01833952  0.32231415  1
  O  O75  1  0.93534581  0.48214583  0.82308889  1
  O  O76  1  0.93765953  0.64974355  0.29026642  1
  O  O77  1  0.93750381  0.85104131  0.79089703  1
  O  O78  1  0.94597699  0.18753586  0.88960385  1
  O  O79  1  0.94609550  0.31232388  0.39060936  1
