# generated using pymatgen
data_Li4VF6
_symmetry_space_group_name_H-M   'P 1'
_cell_length_a   5.36689665
_cell_length_b   8.81611497
_cell_length_c   5.16058466
_cell_angle_alpha   90.00000000
_cell_angle_beta   109.74037489
_cell_angle_gamma   90.00000000
_symmetry_Int_Tables_number   1
_chemical_formula_structural   Li4VF6
_chemical_formula_sum   'Li8 V2 F12'
_cell_volume   229.82455275
_cell_formula_units_Z   2
loop_
 _symmetry_equiv_pos_site_id
 _symmetry_equiv_pos_as_xyz
  1  'x, y, z'
loop_
 _atom_site_type_symbol
 _atom_site_label
 _atom_site_symmetry_multiplicity
 _atom_site_fract_x
 _atom_site_fract_y
 _atom_site_fract_z
 _atom_site_occupancy
  Li  Li0  1  0.03947123  0.16702962  0.84888321  1
  Li  Li1  1  0.03947123  0.33297038  0.34888321  1
  Li  Li2  1  0.44900340  0.83713710  0.96107967  1
  Li  Li3  1  0.44900340  0.66286290  0.46107967  1
  Li  Li4  1  0.55099660  0.33713710  0.53892033  1
  Li  Li5  1  0.55099660  0.16286290  0.03892033  1
  Li  Li6  1  0.96052877  0.66702962  0.65111679  1
  Li  Li7  1  0.96052877  0.83297038  0.15111679  1
  V  V8  1  0.50000000  0.00000000  0.50000000  1
  V  V9  1  0.50000000  0.50000000  0.00000000  1
  F  F10  1  0.23523741  0.82550838  0.53488828  1
  F  F11  1  0.27326894  0.49277440  0.57728463  1
  F  F12  1  0.30329268  0.18195033  0.62600017  1
  F  F13  1  0.23523741  0.67449162  0.03488828  1
  F  F14  1  0.27326894  0.00722560  0.07728463  1
  F  F15  1  0.30329268  0.31804967  0.12600017  1
  F  F16  1  0.69670732  0.68195033  0.87399983  1
  F  F17  1  0.72673106  0.99277440  0.92271537  1
  F  F18  1  0.76476259  0.32550838  0.96511172  1
  F  F19  1  0.69670732  0.81804967  0.37399983  1
  F  F20  1  0.72673106  0.50722560  0.42271537  1
  F  F21  1  0.76476259  0.17449162  0.46511172  1
