# generated using pymatgen
data_Tm2CoIr
_symmetry_space_group_name_H-M   'P 1'
_cell_length_a   4.73913537
_cell_length_b   4.73913526
_cell_length_c   4.73913692
_cell_angle_alpha   60.00001046
_cell_angle_beta   59.99996644
_cell_angle_gamma   60.00000138
_symmetry_Int_Tables_number   1
_chemical_formula_structural   Tm2CoIr
_chemical_formula_sum   'Tm2 Co1 Ir1'
_cell_volume   75.26315252
_cell_formula_units_Z   1
loop_
 _symmetry_equiv_pos_site_id
 _symmetry_equiv_pos_as_xyz
  1  'x, y, z'
loop_
 _atom_site_type_symbol
 _atom_site_label
 _atom_site_symmetry_multiplicity
 _atom_site_fract_x
 _atom_site_fract_y
 _atom_site_fract_z
 _atom_site_occupancy
  Tm  Tm0  1  0.00000025  -0.00000002  0.99999968  1
  Tm  Tm1  1  0.49999989  0.49999994  0.50000044  1
  Co  Co2  1  0.24999935  0.24999919  0.24999919  1
  Ir  Ir3  1  0.75000052  0.75000089  0.75000069  1
