# generated using pymatgen
data_Li2Cu3F9
_symmetry_space_group_name_H-M   'P 1'
_cell_length_a   8.08586419
_cell_length_b   7.62189350
_cell_length_c   5.90740881
_cell_angle_alpha   100.94818342
_cell_angle_beta   94.77515986
_cell_angle_gamma   106.37411874
_symmetry_Int_Tables_number   1
_chemical_formula_structural   Li2Cu3F9
_chemical_formula_sum   'Li4 Cu6 F18'
_cell_volume   339.31240132
_cell_formula_units_Z   2
loop_
 _symmetry_equiv_pos_site_id
 _symmetry_equiv_pos_as_xyz
  1  'x, y, z'
loop_
 _atom_site_type_symbol
 _atom_site_label
 _atom_site_symmetry_multiplicity
 _atom_site_fract_x
 _atom_site_fract_y
 _atom_site_fract_z
 _atom_site_occupancy
  Li  Li0  1  0.15672457  0.55311639  0.87333622  1
  Li  Li1  1  0.07712514  0.23779769  0.12609867  1
  Li  Li2  1  0.92287486  0.76220231  0.87390133  1
  Li  Li3  1  0.84327543  0.44688361  0.12666378  1
  Cu  Cu4  1  0.03824689  0.81943088  0.43597520  1
  Cu  Cu5  1  0.49719266  0.98856151  0.74893933  1
  Cu  Cu6  1  0.48833100  0.47617582  0.74246764  1
  Cu  Cu7  1  0.51166900  0.52382418  0.25753236  1
  Cu  Cu8  1  0.50280734  0.01143849  0.25106067  1
  Cu  Cu9  1  0.96175311  0.18056912  0.56402480  1
  F  F10  1  0.06355208  0.67457155  0.64841645  1
  F  F11  1  0.03970287  0.67688770  0.13053865  1
  F  F12  1  0.01001668  0.01762990  0.28077684  1
  F  F13  1  0.33189362  0.94417660  0.97440681  1
  F  F14  1  0.33389381  0.94725167  0.46884587  1
  F  F15  1  0.25293541  0.38692946  0.65416270  1
  F  F16  1  0.27885232  0.43628927  0.14070690  1
  F  F17  1  0.49015275  0.70080665  0.66477850  1
  F  F18  1  0.51054599  0.74164138  0.17411850  1
  F  F19  1  0.48945401  0.25835862  0.82588150  1
  F  F20  1  0.50984725  0.29919335  0.33522150  1
  F  F21  1  0.72114768  0.56371073  0.85929310  1
  F  F22  1  0.74706459  0.61307054  0.34583730  1
  F  F23  1  0.66610619  0.05274833  0.53115413  1
  F  F24  1  0.66810638  0.05582340  0.02559319  1
  F  F25  1  0.98998332  0.98237010  0.71922316  1
  F  F26  1  0.96029713  0.32311230  0.86946135  1
  F  F27  1  0.93644792  0.32542845  0.35158355  1
