# generated using pymatgen
data_CsSn3
_symmetry_space_group_name_H-M   'P 1'
_cell_length_a   8.17535211
_cell_length_b   8.17535107
_cell_length_c   5.49287635
_cell_angle_alpha   90.00000000
_cell_angle_beta   90.00000000
_cell_angle_gamma   120.00000418
_symmetry_Int_Tables_number   1
_chemical_formula_structural   CsSn3
_chemical_formula_sum   'Cs2 Sn6'
_cell_volume   317.93864136
_cell_formula_units_Z   2
loop_
 _symmetry_equiv_pos_site_id
 _symmetry_equiv_pos_as_xyz
  1  'x, y, z'
loop_
 _atom_site_type_symbol
 _atom_site_label
 _atom_site_symmetry_multiplicity
 _atom_site_fract_x
 _atom_site_fract_y
 _atom_site_fract_z
 _atom_site_occupancy
  Cs  Cs0  1  0.33333300  0.66666700  0.75000000  1
  Cs  Cs1  1  0.66666600  0.33333300  0.25000100  1
  Sn  Sn2  1  0.12526366  0.25052833  0.25000100  1
  Sn  Sn3  1  0.74947367  0.87473734  0.25000100  1
  Sn  Sn4  1  0.12526466  0.87473734  0.25000100  1
  Sn  Sn5  1  0.87473534  0.74947167  0.75000000  1
  Sn  Sn6  1  0.25052533  0.12526266  0.75000000  1
  Sn  Sn7  1  0.87473634  0.12526266  0.75000000  1
