# generated using pymatgen
data_BaFeO3
_symmetry_space_group_name_H-M   'P 1'
_cell_length_a   5.72358433
_cell_length_b   5.72358433
_cell_length_c   14.06010813
_cell_angle_alpha   90.00000000
_cell_angle_beta   90.00000000
_cell_angle_gamma   120.17150175
_symmetry_Int_Tables_number   1
_chemical_formula_structural   BaFeO3
_chemical_formula_sum   'Ba6 Fe6 O18'
_cell_volume   398.20098988
_cell_formula_units_Z   6
loop_
 _symmetry_equiv_pos_site_id
 _symmetry_equiv_pos_as_xyz
  1  'x, y, z'
loop_
 _atom_site_type_symbol
 _atom_site_label
 _atom_site_symmetry_multiplicity
 _atom_site_fract_x
 _atom_site_fract_y
 _atom_site_fract_z
 _atom_site_occupancy
  Ba  Ba0  1  0.00016745  0.99983255  0.75000000  1
  Ba  Ba1  1  0.99983255  0.00016745  0.25000000  1
  Ba  Ba2  1  0.66640260  0.33359740  0.58928183  1
  Ba  Ba3  1  0.33359740  0.66640260  0.41071817  1
  Ba  Ba4  1  0.33359740  0.66640260  0.08928183  1
  Ba  Ba5  1  0.66640260  0.33359740  0.91071817  1
  Fe  Fe6  1  -0.00000000  -0.00000000  0.50000000  1
  Fe  Fe7  1  -0.00000000  -0.00000000  0.00000000  1
  Fe  Fe8  1  0.66730837  0.33269163  0.34753130  1
  Fe  Fe9  1  0.33269163  0.66730837  0.65246870  1
  Fe  Fe10  1  0.33269163  0.66730837  0.84753130  1
  Fe  Fe11  1  0.66730837  0.33269163  0.15246870  1
  O  O12  1  0.48461867  0.96787941  0.75000000  1
  O  O13  1  0.48305100  0.51694900  0.75000000  1
  O  O14  1  0.03212059  0.51538133  0.75000000  1
  O  O15  1  0.51538133  0.03212059  0.25000000  1
  O  O16  1  0.51694900  0.48305100  0.25000000  1
  O  O17  1  0.96787941  0.48461867  0.25000000  1
  O  O18  1  0.16206705  0.32433635  0.57974974  1
  O  O19  1  0.16435527  0.83564473  0.58027700  1
  O  O20  1  0.67566365  0.83793295  0.57974974  1
  O  O21  1  0.83793295  0.67566365  0.42025026  1
  O  O22  1  0.83564473  0.16435527  0.41972300  1
  O  O23  1  0.32433635  0.16206705  0.42025026  1
  O  O24  1  0.83793295  0.67566365  0.07974974  1
  O  O25  1  0.83564473  0.16435527  0.08027700  1
  O  O26  1  0.32433635  0.16206705  0.07974974  1
  O  O27  1  0.16206705  0.32433635  0.92025026  1
  O  O28  1  0.16435527  0.83564473  0.91972300  1
  O  O29  1  0.67566365  0.83793295  0.92025026  1
