# generated using pymatgen
data_TlW2(Cl3O)2
_symmetry_space_group_name_H-M   'P 1'
_cell_length_a   3.86862188
_cell_length_b   6.99681307
_cell_length_c   11.48134672
_cell_angle_alpha   108.07638692
_cell_angle_beta   90.00000000
_cell_angle_gamma   106.04880095
_symmetry_Int_Tables_number   1
_chemical_formula_structural   TlW2(Cl3O)2
_chemical_formula_sum   'Tl1 W2 Cl6 O2'
_cell_volume   282.67000003
_cell_formula_units_Z   1
loop_
 _symmetry_equiv_pos_site_id
 _symmetry_equiv_pos_as_xyz
  1  'x, y, z'
loop_
 _atom_site_type_symbol
 _atom_site_label
 _atom_site_symmetry_multiplicity
 _atom_site_fract_x
 _atom_site_fract_y
 _atom_site_fract_z
 _atom_site_occupancy
  Tl  Tl0  1  0.50000000  0.00000100  0.50000000  1
  W  W1  1  0.00507707  0.01015414  0.16499919  1
  W  W2  1  0.99492293  0.98984686  0.83499981  1
  Cl  Cl3  1  0.13230689  0.26461477  0.04272947  1
  Cl  Cl4  1  0.87228752  0.74457704  0.26630047  1
  Cl  Cl5  1  0.14318590  0.28637280  0.35753825  1
  Cl  Cl6  1  0.85681310  0.71362820  0.64246175  1
  Cl  Cl7  1  0.12771048  0.25542196  0.73369953  1
  Cl  Cl8  1  0.86769111  0.73538523  0.95727053  1
  O  O9  1  0.50324852  0.00649804  0.15833618  1
  O  O10  1  0.49675048  0.99350096  0.84166482  1
