# generated using pymatgen
data_Li4Co5O12
_symmetry_space_group_name_H-M   'P 1'
_cell_length_a   4.90013139
_cell_length_b   4.88299951
_cell_length_c   9.91153072
_cell_angle_alpha   85.38394539
_cell_angle_beta   99.55260141
_cell_angle_gamma   119.92608166
_symmetry_Int_Tables_number   1
_chemical_formula_structural   Li4Co5O12
_chemical_formula_sum   'Li4 Co5 O12'
_cell_volume   202.68563268
_cell_formula_units_Z   1
loop_
 _symmetry_equiv_pos_site_id
 _symmetry_equiv_pos_as_xyz
  1  'x, y, z'
loop_
 _atom_site_type_symbol
 _atom_site_label
 _atom_site_symmetry_multiplicity
 _atom_site_fract_x
 _atom_site_fract_y
 _atom_site_fract_z
 _atom_site_occupancy
  Li  Li0  1  0.34689361  0.18339867  0.00963684  1
  Li  Li1  1  0.50578514  0.50502539  0.48999972  1
  Li  Li2  1  0.83699340  0.18380277  0.48902343  1
  Li  Li3  1  0.76195279  0.50609402  0.24901031  1
  Co  Co4  1  0.07321906  0.15180826  0.25137445  1
  Co  Co5  1  0.25353015  0.50845799  0.75076723  1
  Co  Co6  1  0.58649370  0.17209335  0.75015569  1
  Co  Co7  1  0.41446648  0.82525984  0.24911948  1
  Co  Co8  1  0.92024543  0.83804535  0.75115615  1
  O  O9  1  0.21712698  0.17811845  0.64943943  1
  O  O10  1  0.42713073  0.13115338  0.35612738  1
  O  O11  1  0.13668450  0.48412954  0.35921789  1
  O  O12  1  0.69867349  0.11872006  0.14673433  1
  O  O13  1  0.96100291  0.17408517  0.84810254  1
  O  O14  1  0.34488107  0.49042233  0.15106683  1
  O  O15  1  0.61417681  0.50449080  0.84866605  1
  O  O16  1  0.07903764  0.86658652  0.14622131  1
  O  O17  1  0.28271753  0.84145633  0.84831080  1
  O  O18  1  0.88109315  0.50156171  0.64736837  1
  O  O19  1  0.55873204  0.83583966  0.64872440  1
  O  O20  1  0.77756339  0.85625140  0.35977837  1
