# generated using pymatgen
data_Ce4MgRu
_symmetry_space_group_name_H-M   'P 1'
_cell_length_a   9.75521251
_cell_length_b   9.75521251
_cell_length_c   9.75521251
_cell_angle_alpha   120.00000000
_cell_angle_beta   90.00000000
_cell_angle_gamma   120.00000000
_symmetry_Int_Tables_number   1
_chemical_formula_structural   Ce4MgRu
_chemical_formula_sum   'Ce16 Mg4 Ru4'
_cell_volume   656.44025639
_cell_formula_units_Z   4
loop_
 _symmetry_equiv_pos_site_id
 _symmetry_equiv_pos_as_xyz
  1  'x, y, z'
loop_
 _atom_site_type_symbol
 _atom_site_label
 _atom_site_symmetry_multiplicity
 _atom_site_fract_x
 _atom_site_fract_y
 _atom_site_fract_z
 _atom_site_occupancy
  Ce  Ce0  1  0.34522698  0.69045496  0.03568093  1
  Ce  Ce1  1  0.55959266  0.50000000  0.05959266  1
  Ce  Ce2  1  0.94040634  0.50000000  0.05959266  1
  Ce  Ce3  1  0.55959266  0.11918633  0.05959266  1
  Ce  Ce4  1  0.18875251  0.00000000  0.18875251  1
  Ce  Ce5  1  0.81124749  0.00000000  0.18875251  1
  Ce  Ce6  1  0.18875251  0.37750402  0.18875251  1
  Ce  Ce7  1  0.55959266  0.50000000  0.44040634  1
  Ce  Ce8  1  0.94040634  0.50000000  0.44040634  1
  Ce  Ce9  1  0.94040634  0.88081367  0.44040634  1
  Ce  Ce10  1  0.96432007  0.30954704  0.65477302  1
  Ce  Ce11  1  0.34522698  0.30954704  0.65477402  1
  Ce  Ce12  1  0.34522698  0.69045496  0.65477402  1
  Ce  Ce13  1  0.18875251  0.00000000  0.81124749  1
  Ce  Ce14  1  0.81124749  0.00000000  0.81124749  1
  Ce  Ce15  1  0.81124749  0.62249598  0.81124749  1
  Mg  Mg16  1  0.57915063  0.15830127  0.42085037  1
  Mg  Mg17  1  0.26254910  0.84169973  0.42085037  1
  Mg  Mg18  1  0.57915063  0.84169973  0.42085037  1
  Mg  Mg19  1  0.57915063  0.15830127  0.73745090  1
  Ru  Ru20  1  0.13685333  0.27370566  0.41055899  1
  Ru  Ru21  1  0.13685333  0.27370566  0.86314667  1
  Ru  Ru22  1  0.13685333  0.72629434  0.86314667  1
  Ru  Ru23  1  0.58944101  0.72629434  0.86314667  1
