# generated using pymatgen
data_Er2C3
_symmetry_space_group_name_H-M   'P 1'
_cell_length_a   7.05209165
_cell_length_b   7.05209165
_cell_length_c   7.05209165
_cell_angle_alpha   109.47122065
_cell_angle_beta   109.47122066
_cell_angle_gamma   109.47122065
_symmetry_Int_Tables_number   1
_chemical_formula_structural   Er2C3
_chemical_formula_sum   'Er8 C12'
_cell_volume   269.98022359
_cell_formula_units_Z   4
loop_
 _symmetry_equiv_pos_site_id
 _symmetry_equiv_pos_as_xyz
  1  'x, y, z'
loop_
 _atom_site_type_symbol
 _atom_site_label
 _atom_site_symmetry_multiplicity
 _atom_site_fract_x
 _atom_site_fract_y
 _atom_site_fract_z
 _atom_site_occupancy
  C  C0  1  0.75000000  0.79260424  0.04260424  1
  C  C1  1  0.75000000  0.95739576  0.20739576  1
  C  C2  1  0.29260424  0.25000000  0.54260424  1
  C  C3  1  0.54260424  0.29260424  0.25000000  1
  C  C4  1  0.20739576  0.75000000  0.95739576  1
  C  C5  1  0.95739576  0.20739576  0.75000000  1
  C  C6  1  0.25000000  0.70739576  0.45739576  1
  C  C7  1  0.70739576  0.45739576  0.25000000  1
  C  C8  1  0.25000000  0.54260424  0.29260424  1
  C  C9  1  0.45739576  0.25000000  0.70739576  1
  C  C10  1  0.04260424  0.75000000  0.79260424  1
  C  C11  1  0.79260424  0.04260424  0.75000000  1
  Er  Er12  1  0.60078713  0.60078713  0.60078713  1
  Er  Er13  1  0.39921287  0.50000000  0.00000000  1
  Er  Er14  1  0.50000000  0.00000000  0.39921287  1
  Er  Er15  1  0.00000000  0.39921287  0.50000000  1
  Er  Er16  1  0.50000000  0.00000000  0.89921287  1
  Er  Er17  1  0.00000000  0.89921287  0.50000000  1
  Er  Er18  1  0.89921287  0.50000000  0.00000000  1
  Er  Er19  1  0.10078713  0.10078713  0.10078713  1
