# generated using pymatgen
data_Si(H3C)2
_symmetry_space_group_name_H-M   'P 1'
_cell_length_a   9.03357119
_cell_length_b   9.24677099
_cell_length_c   9.71668426
_cell_angle_alpha   76.69316557
_cell_angle_beta   82.15680226
_cell_angle_gamma   65.91625363
_symmetry_Int_Tables_number   1
_chemical_formula_structural   Si(H3C)2
_chemical_formula_sum   'Si8 H48 C16'
_cell_volume   720.27225990
_cell_formula_units_Z   8
loop_
 _symmetry_equiv_pos_site_id
 _symmetry_equiv_pos_as_xyz
  1  'x, y, z'
loop_
 _atom_site_type_symbol
 _atom_site_label
 _atom_site_symmetry_multiplicity
 _atom_site_fract_x
 _atom_site_fract_y
 _atom_site_fract_z
 _atom_site_occupancy
  Si  Si0  1  0.82818589  0.33879133  0.33250467  1
  Si  Si1  1  0.17184433  0.66118035  0.66751200  1
  Si  Si2  1  0.01495126  0.64263215  0.07075831  1
  Si  Si3  1  0.98501684  0.35739117  0.92924305  1
  Si  Si4  1  0.03535188  0.37064463  0.16177936  1
  Si  Si5  1  0.96463334  0.62937445  0.83822310  1
  Si  Si6  1  0.29755776  0.18300241  0.23953134  1
  Si  Si7  1  0.70245399  0.81700269  0.76044365  1
  H  H8  1  0.44304815  0.18765323  0.99743823  1
  H  H9  1  0.55693523  0.81237084  0.00253299  1
  H  H10  1  0.26096301  0.20132276  0.50020045  1
  H  H11  1  0.73903343  0.79869492  0.49977667  1
  H  H12  1  0.42995551  0.87997638  0.30469705  1
  H  H13  1  0.57003683  0.12000548  0.69529389  1
  H  H14  1  0.46810749  0.13445941  0.44266646  1
  H  H15  1  0.53188404  0.86556606  0.55733891  1
  H  H16  1  0.34033982  0.34115251  0.39922864  1
  H  H17  1  0.65964959  0.65884963  0.60074828  1
  H  H18  1  0.21833062  0.94509085  0.34289272  1
  H  H19  1  0.78167841  0.05491009  0.65710052  1
  H  H20  1  0.29618189  0.93895416  0.16642373  1
  H  H21  1  0.70381834  0.06104187  0.83358080  1
  H  H22  1  0.93873440  0.03563313  0.36240553  1
  H  H23  1  0.06126340  0.96430801  0.63759867  1
  H  H24  1  0.79525933  0.12799998  0.22999481  1
  H  H25  1  0.20473811  0.87199742  0.77001971  1
  H  H26  1  0.72844552  0.11209326  0.41049240  1
  H  H27  1  0.27155466  0.88790782  0.58950774  1
  H  H28  1  0.58200154  0.51829262  0.18549894  1
  H  H29  1  0.41806344  0.48167201  0.81450376  1
  H  H30  1  0.61352585  0.62141750  0.30349306  1
  H  H31  1  0.38654749  0.37855397  0.69652227  1
  H  H32  1  0.52637415  0.47700112  0.36749824  1
  H  H33  1  0.47367490  0.52296288  0.63251612  1
  H  H34  1  0.58078534  0.11547032  0.13406249  1
  H  H35  1  0.41923812  0.88455556  0.86589262  1
  H  H36  1  0.46521140  0.32499114  0.08507985  1
  H  H37  1  0.53476024  0.67504516  0.91490819  1
  H  H38  1  0.89283744  0.45171746  0.51966320  1
  H  H39  1  0.10717965  0.54826893  0.48033534  1
  H  H40  1  0.98276480  0.23823581  0.55591038  1
  H  H41  1  0.01725551  0.76176109  0.44413141  1
  H  H42  1  0.72516061  0.80165856  0.15105148  1
  H  H43  1  0.27478964  0.19837381  0.84895763  1
  H  H44  1  0.83726357  0.92571130  0.10015102  1
  H  H45  1  0.16272184  0.07429183  0.89983765  1
  H  H46  1  0.86482633  0.79339360  0.26690866  1
  H  H47  1  0.13514681  0.20662462  0.73309507  1
  H  H48  1  0.24805793  0.64893170  0.18457724  1
  H  H49  1  0.75190959  0.35108630  0.81543369  1
  H  H50  1  0.77277971  0.33887309  0.59288318  1
  H  H51  1  0.22723277  0.66112037  0.40711935  1
  H  H52  1  0.19093427  0.80281906  0.03183873  1
  H  H53  1  0.80901523  0.19719643  0.96816595  1
  H  H54  1  0.30971321  0.60117024  0.01413347  1
  H  H55  1  0.69024878  0.39884176  0.98587097  1
  C  C56  1  0.31117539  0.96779545  0.26587455  1
  C  C57  1  0.68883158  0.03218954  0.73411528  1
  C  C58  1  0.87386564  0.34213824  0.51663856  1
  C  C59  1  0.12616597  0.65784982  0.48338046  1
  C  C60  1  0.20875320  0.67598607  0.07631593  1
  C  C61  1  0.79121724  0.32403192  0.92369157  1
  C  C62  1  0.84428801  0.80496415  0.15543412  1
  C  C63  1  0.15568813  0.19504389  0.84456622  1
  C  C64  1  0.34522065  0.21789550  0.41125468  1
  C  C65  1  0.65479473  0.78212230  0.58873785  1
  C  C66  1  0.46057873  0.20497698  0.10101875  1
  C  C67  1  0.53940017  0.79503705  0.89897595  1
  C  C68  1  0.61918549  0.50335880  0.29217394  1
  C  C69  1  0.38087090  0.49658716  0.70784400  1
  C  C70  1  0.82200741  0.13527462  0.33442998  1
  C  C71  1  0.17798654  0.86470629  0.66556651  1
