# generated using pymatgen
data_Be4Si2O9
_symmetry_space_group_name_H-M   'P 1'
_cell_length_a   4.65480175
_cell_length_b   8.69600916
_cell_length_c   9.07554778
_cell_angle_alpha   118.62598817
_cell_angle_beta   90.00000000
_cell_angle_gamma   90.00000000
_symmetry_Int_Tables_number   1
_chemical_formula_structural   Be4Si2O9
_chemical_formula_sum   'Be8 Si4 O18'
_cell_volume   322.45763257
_cell_formula_units_Z   2
loop_
 _symmetry_equiv_pos_site_id
 _symmetry_equiv_pos_as_xyz
  1  'x, y, z'
loop_
 _atom_site_type_symbol
 _atom_site_label
 _atom_site_symmetry_multiplicity
 _atom_site_fract_x
 _atom_site_fract_y
 _atom_site_fract_z
 _atom_site_occupancy
  Be  Be0  1  0.62348537  0.13036490  0.90505295  1
  Be  Be1  1  0.62348537  0.77468804  0.90505295  1
  Be  Be2  1  0.12348537  0.86963510  0.09494705  1
  Be  Be3  1  0.12348537  0.22531196  0.09494705  1
  Be  Be4  1  0.62227145  0.10200315  0.56771639  1
  Be  Be5  1  0.62227145  0.46571325  0.56771639  1
  Be  Be6  1  0.12227145  0.89799685  0.43228361  1
  Be  Be7  1  0.12227145  0.53428675  0.43228361  1
  Si  Si8  1  0.12456671  0.20140066  0.76462077  1
  Si  Si9  1  0.12456671  0.56322011  0.76462077  1
  Si  Si10  1  0.62456671  0.79859934  0.23537923  1
  Si  Si11  1  0.62456671  0.43677989  0.23537923  1
  O  O12  1  0.46707451  0.14579890  0.74868781  1
  O  O13  1  0.46707451  0.60288891  0.74868781  1
  O  O14  1  0.96707451  0.85420110  0.25131219  1
  O  O15  1  0.96707451  0.39711109  0.25131219  1
  O  O16  1  0.96582843  0.18136386  0.91612449  1
  O  O17  1  0.96582843  0.73476063  0.91612449  1
  O  O18  1  0.46582843  0.81863614  0.08387551  1
  O  O19  1  0.46582843  0.26523937  0.08387551  1
  O  O20  1  0.96738439  0.06917287  0.58550156  1
  O  O21  1  0.96738439  0.51632869  0.58550156  1
  O  O22  1  0.46738439  0.93082713  0.41449844  1
  O  O23  1  0.46738439  0.48367131  0.41449844  1
  O  O24  1  0.08636377  0.40541306  0.81082612  1
  O  O25  1  0.58636377  0.59458694  0.18917388  1
  O  O26  1  0.55200045  0.27545553  0.55091107  1
  O  O27  1  0.05200045  0.72454447  0.44908893  1
  O  O28  1  0.55341407  0.94225243  0.88450486  1
  O  O29  1  0.05341407  0.05774757  0.11549514  1
