# generated using pymatgen
data_Fe3Co2Te(PO4)6
_symmetry_space_group_name_H-M   'P 1'
_cell_length_a   8.59776195
_cell_length_b   8.73260773
_cell_length_c   8.73260816
_cell_angle_alpha   60.00000074
_cell_angle_beta   59.47981126
_cell_angle_gamma   59.47981039
_symmetry_Int_Tables_number   1
_chemical_formula_structural   Fe3Co2Te(PO4)6
_chemical_formula_sum   'Fe3 Co2 Te1 P6 O24'
_cell_volume   459.93717127
_cell_formula_units_Z   1
loop_
 _symmetry_equiv_pos_site_id
 _symmetry_equiv_pos_as_xyz
  1  'x, y, z'
loop_
 _atom_site_type_symbol
 _atom_site_label
 _atom_site_symmetry_multiplicity
 _atom_site_fract_x
 _atom_site_fract_y
 _atom_site_fract_z
 _atom_site_occupancy
  Fe  Fe0  1  0.06206077  0.64597941  0.64597941  1
  Fe  Fe1  1  0.43261807  0.85579331  0.85579331  1
  Fe  Fe2  1  0.93354110  0.35548663  0.35548663  1
  Co  Co3  1  0.00567558  -0.00189153  -0.00189153  1
  Co  Co4  1  0.49579334  0.50140222  0.50140222  1
  Te  Te5  1  0.56164104  0.14611999  0.14611999  1
  P  P6  1  0.24499640  0.25364917  0.55266427  1
  P  P7  1  0.24499640  0.94869016  0.25364917  1
  P  P8  1  0.24499640  0.55266427  0.94869016  1
  P  P9  1  0.74694568  0.46193959  0.04649514  1
  P  P10  1  0.74694568  0.04649514  0.74461959  1
  P  P11  1  0.74694568  0.74461959  0.46193959  1
  O  O12  1  0.07721914  0.11118068  0.31602266  1
  O  O13  1  0.07721914  0.49557752  0.11118068  1
  O  O14  1  0.07721914  0.31602266  0.49557752  1
  O  O15  1  0.22670930  0.09126959  0.74310974  1
  O  O16  1  0.44124067  0.18839728  0.39727821  1
  O  O17  1  0.27033755  0.41136017  0.56502253  1
  O  O18  1  0.22670930  0.93891136  0.09126959  1
  O  O19  1  0.27033755  0.75327975  0.41136017  1
  O  O20  1  0.56518769  0.61012602  0.00506922  1
  O  O21  1  0.27033755  0.56502253  0.75327975  1
  O  O22  1  0.77569084  0.25874199  0.05839717  1
  O  O23  1  0.56518769  0.00506922  0.81961707  1
  O  O24  1  0.44124067  0.97308383  0.18839728  1
  O  O25  1  0.22670930  0.74310974  0.93891136  1
  O  O26  1  0.72466951  0.43934528  0.24502351  1
  O  O27  1  0.44124067  0.39727821  0.97308383  1
  O  O28  1  0.72466951  0.24502351  0.59096270  1
  O  O29  1  0.77569084  0.05839717  0.90717001  1
  O  O30  1  0.72466951  0.59096270  0.43934528  1
  O  O31  1  0.56518769  0.81961707  0.61012602  1
  O  O32  1  0.77569084  0.90717001  0.25874199  1
  O  O33  1  0.92989425  0.68204855  0.49687989  1
  O  O34  1  0.92989425  0.49687989  0.89117731  1
  O  O35  1  0.92989425  0.89117731  0.68204855  1
