# generated using pymatgen
data_MgMn4O8
_symmetry_space_group_name_H-M   'P 1'
_cell_length_a   6.04332726
_cell_length_b   6.04332696
_cell_length_c   6.04332764
_cell_angle_alpha   59.22443425
_cell_angle_beta   59.22443460
_cell_angle_gamma   59.22443814
_symmetry_Int_Tables_number   1
_chemical_formula_structural   MgMn4O8
_chemical_formula_sum   'Mg1 Mn4 O8'
_cell_volume   153.31046713
_cell_formula_units_Z   1
loop_
 _symmetry_equiv_pos_site_id
 _symmetry_equiv_pos_as_xyz
  1  'x, y, z'
loop_
 _atom_site_type_symbol
 _atom_site_label
 _atom_site_symmetry_multiplicity
 _atom_site_fract_x
 _atom_site_fract_y
 _atom_site_fract_z
 _atom_site_occupancy
  Mg  Mg0  1  0.50000000  0.50000100  0.49999900  1
  Mn  Mn1  1  0.50000100  0.99999900  0.50000100  1
  Mn  Mn2  1  0.99999900  0.50000000  0.50000100  1
  Mn  Mn3  1  0.50000000  0.50000000  0.00000000  1
  Mn  Mn4  1  0.00000000  0.00000000  0.00000000  1
  O  O5  1  0.74718324  0.29692282  0.74718324  1
  O  O6  1  0.25281576  0.25281676  0.70307718  1
  O  O7  1  0.25281576  0.70307818  0.25281576  1
  O  O8  1  0.70307618  0.25281676  0.25281676  1
  O  O9  1  0.26812579  0.26812679  0.26812579  1
  O  O10  1  0.73187421  0.73187421  0.73187421  1
  O  O11  1  0.29692382  0.74718424  0.74718324  1
  O  O12  1  0.74718424  0.74718424  0.29692282  1
