# generated using pymatgen
data_Mg3Fe2(GeO4)3
_symmetry_space_group_name_H-M   'P 1'
_cell_length_a   10.48803441
_cell_length_b   10.48803389
_cell_length_c   10.48803402
_cell_angle_alpha   109.47122088
_cell_angle_beta   109.47121987
_cell_angle_gamma   109.47121993
_symmetry_Int_Tables_number   1
_chemical_formula_structural   Mg3Fe2(GeO4)3
_chemical_formula_sum   'Mg12 Fe8 Ge12 O48'
_cell_volume   888.09697111
_cell_formula_units_Z   4
loop_
 _symmetry_equiv_pos_site_id
 _symmetry_equiv_pos_as_xyz
  1  'x, y, z'
loop_
 _atom_site_type_symbol
 _atom_site_label
 _atom_site_symmetry_multiplicity
 _atom_site_fract_x
 _atom_site_fract_y
 _atom_site_fract_z
 _atom_site_occupancy
  Mg  Mg0  1  0.62500000  0.25000000  0.87500000  1
  Mg  Mg1  1  0.87500000  0.75000000  0.62500000  1
  Mg  Mg2  1  0.75000000  0.62500000  0.87500000  1
  Mg  Mg3  1  0.25000000  0.87500000  0.62500000  1
  Mg  Mg4  1  0.87500000  0.62500000  0.25000000  1
  Mg  Mg5  1  0.62500000  0.87500000  0.75000000  1
  Mg  Mg6  1  0.37500000  0.75000000  0.12500000  1
  Mg  Mg7  1  0.12500000  0.25000000  0.37500000  1
  Mg  Mg8  1  0.25000000  0.37500000  0.12500000  1
  Mg  Mg9  1  0.75000000  0.12500000  0.37500000  1
  Mg  Mg10  1  0.12500000  0.37500000  0.75000000  1
  Mg  Mg11  1  0.37500000  0.12500000  0.25000000  1
  Fe  Fe12  1  0.50000000  0.50000000  0.50000000  1
  Fe  Fe13  1  0.50000000  0.50000000  0.00000000  1
  Fe  Fe14  1  0.50000000  0.00000000  0.50000000  1
  Fe  Fe15  1  0.00000000  0.50000000  0.50000000  1
  Fe  Fe16  1  0.50000000  0.00000000  0.00000000  1
  Fe  Fe17  1  0.00000000  0.00000000  0.50000000  1
  Fe  Fe18  1  0.00000000  0.50000000  0.00000000  1
  Fe  Fe19  1  0.00000000  0.00000000  0.00000000  1
  Ge  Ge20  1  0.87500000  0.12500000  0.75000000  1
  Ge  Ge21  1  0.12500000  0.87500000  0.25000000  1
  Ge  Ge22  1  0.25000000  0.62500000  0.37500000  1
  Ge  Ge23  1  0.12500000  0.75000000  0.87500000  1
  Ge  Ge24  1  0.75000000  0.87500000  0.12500000  1
  Ge  Ge25  1  0.37500000  0.25000000  0.62500000  1
  Ge  Ge26  1  0.62500000  0.75000000  0.37500000  1
  Ge  Ge27  1  0.87500000  0.25000000  0.12500000  1
  Ge  Ge28  1  0.25000000  0.12500000  0.87500000  1
  Ge  Ge29  1  0.75000000  0.37500000  0.62500000  1
  Ge  Ge30  1  0.37500000  0.62500000  0.75000000  1
  Ge  Ge31  1  0.62500000  0.37500000  0.25000000  1
  O  O32  1  0.78956427  0.41701035  0.81734065  1
  O  O33  1  0.08298965  0.87255392  0.40033030  1
  O  O34  1  0.68265935  0.09966970  0.97222262  1
  O  O35  1  0.71043573  0.52777738  0.62744608  1
  O  O36  1  0.71043573  0.68265935  0.08298965  1
  O  O37  1  0.52777738  0.62744608  0.71043573  1
  O  O38  1  0.09966970  0.62744608  0.41701035  1
  O  O39  1  0.62744608  0.71043573  0.52777738  1
  O  O40  1  0.40033030  0.81734065  0.52777738  1
  O  O41  1  0.87255392  0.97222262  0.78956427  1
  O  O42  1  0.97222262  0.78956427  0.87255392  1
  O  O43  1  0.08298965  0.71043573  0.68265935  1
  O  O44  1  0.62744608  0.41701035  0.09966970  1
  O  O45  1  0.52777738  0.40033030  0.81734065  1
  O  O46  1  0.68265935  0.08298965  0.71043573  1
  O  O47  1  0.41701035  0.09966970  0.62744608  1
  O  O48  1  0.81734065  0.52777738  0.40033030  1
  O  O49  1  0.40033030  0.08298965  0.87255392  1
  O  O50  1  0.09966970  0.97222262  0.68265935  1
  O  O51  1  0.59966970  0.18265935  0.47222262  1
  O  O52  1  0.97222262  0.68265935  0.09966970  1
  O  O53  1  0.81734065  0.78956427  0.41701035  1
  O  O54  1  0.87255392  0.40033030  0.08298965  1
  O  O55  1  0.78956427  0.87255392  0.97222262  1
  O  O56  1  0.21043573  0.58298965  0.18265935  1
  O  O57  1  0.91701035  0.12744608  0.59966970  1
  O  O58  1  0.31734065  0.90033030  0.02777738  1
  O  O59  1  0.28956427  0.47222262  0.37255392  1
  O  O60  1  0.28956427  0.31734065  0.91701035  1
  O  O61  1  0.47222262  0.37255392  0.28956427  1
  O  O62  1  0.90033030  0.37255392  0.58298965  1
  O  O63  1  0.37255392  0.28956427  0.47222262  1
  O  O64  1  0.21043573  0.12744608  0.02777738  1
  O  O65  1  0.12744608  0.59966970  0.91701035  1
  O  O66  1  0.18265935  0.21043573  0.58298965  1
  O  O67  1  0.58298965  0.18265935  0.21043573  1
  O  O68  1  0.02777738  0.31734065  0.90033030  1
  O  O69  1  0.90033030  0.02777738  0.31734065  1
  O  O70  1  0.59966970  0.91701035  0.12744608  1
  O  O71  1  0.18265935  0.47222262  0.59966970  1
  O  O72  1  0.58298965  0.90033030  0.37255392  1
  O  O73  1  0.31734065  0.91701035  0.28956427  1
  O  O74  1  0.47222262  0.59966970  0.18265935  1
  O  O75  1  0.37255392  0.58298965  0.90033030  1
  O  O76  1  0.91701035  0.28956427  0.31734065  1
  O  O77  1  0.02777738  0.21043573  0.12744608  1
  O  O78  1  0.12744608  0.02777738  0.21043573  1
  O  O79  1  0.41701035  0.81734065  0.78956427  1
