# generated using pymatgen
data_Ca3Co2O7
_symmetry_space_group_name_H-M   'P 1'
_cell_length_a   5.30808539
_cell_length_b   5.25814374
_cell_length_c   10.00815775
_cell_angle_alpha   105.22990351
_cell_angle_beta   90.00000000
_cell_angle_gamma   90.00000000
_symmetry_Int_Tables_number   1
_chemical_formula_structural   Ca3Co2O7
_chemical_formula_sum   'Ca6 Co4 O14'
_cell_volume   269.52408900
_cell_formula_units_Z   2
loop_
 _symmetry_equiv_pos_site_id
 _symmetry_equiv_pos_as_xyz
  1  'x, y, z'
loop_
 _atom_site_type_symbol
 _atom_site_label
 _atom_site_symmetry_multiplicity
 _atom_site_fract_x
 _atom_site_fract_y
 _atom_site_fract_z
 _atom_site_occupancy
  Ca  Ca0  1  0.70539118  0.75743541  1.00000000  1
  Ca  Ca1  1  0.20539118  0.24256459  0.00000000  1
  Ca  Ca2  1  0.78900338  0.56923549  0.62719521  1
  Ca  Ca3  1  0.28900338  0.43076451  0.37280479  1
  Ca  Ca4  1  0.78900338  0.94203928  0.37280479  1
  Ca  Ca5  1  0.28900338  0.05796072  0.62719521  1
  Co  Co6  1  0.74832365  0.34684574  0.19448913  1
  Co  Co7  1  0.24832365  0.65315426  0.80551087  1
  Co  Co8  1  0.24832365  0.84764339  0.19448913  1
  Co  Co9  1  0.74832365  0.15235661  0.80551087  1
  O  O10  1  0.74282874  0.00734052  0.61012345  1
  O  O11  1  0.24282874  0.99265948  0.38987655  1
  O  O12  1  0.24282874  0.60278193  0.61012345  1
  O  O13  1  0.74282874  0.39721807  0.38987655  1
  O  O14  1  0.03879178  0.34780815  0.77683492  1
  O  O15  1  0.53879178  0.65219185  0.22316508  1
  O  O16  1  0.53879178  0.42902677  0.77683492  1
  O  O17  1  0.03879178  0.57097323  0.22316508  1
  O  O18  1  0.95615122  0.87448305  0.83467501  1
  O  O19  1  0.45615122  0.12551695  0.16532499  1
  O  O20  1  0.76441328  0.32536955  1.00000000  1
  O  O21  1  0.26441328  0.67463045  0.00000000  1
  O  O22  1  0.95615122  0.03980804  0.16532499  1
  O  O23  1  0.45615122  0.96019196  0.83467501  1
