# generated using pymatgen
data_Mg2Ti3O8
_symmetry_space_group_name_H-M   'P 1'
_cell_length_a   4.97367134
_cell_length_b   5.98758677
_cell_length_c   6.03937959
_cell_angle_alpha   119.71671775
_cell_angle_beta   108.83886006
_cell_angle_gamma   89.99999690
_symmetry_Int_Tables_number   1
_chemical_formula_structural   Mg2Ti3O8
_chemical_formula_sum   'Mg2 Ti3 O8'
_cell_volume   145.00332670
_cell_formula_units_Z   1
loop_
 _symmetry_equiv_pos_site_id
 _symmetry_equiv_pos_as_xyz
  1  'x, y, z'
loop_
 _atom_site_type_symbol
 _atom_site_label
 _atom_site_symmetry_multiplicity
 _atom_site_fract_x
 _atom_site_fract_y
 _atom_site_fract_z
 _atom_site_occupancy
  Mg  Mg0  1  0.65534790  0.72334930  0.44669760  1
  Mg  Mg1  1  0.34465110  0.27665170  0.55330240  1
  Ti  Ti2  1  0.50000000  0.99999900  0.00000000  1
  Ti  Ti3  1  0.99999900  0.73223468  0.00000000  1
  Ti  Ti4  1  0.99999900  0.26776532  1.00000000  1
  O  O5  1  0.07445053  0.39399054  0.78798208  1
  O  O6  1  0.92554947  0.60600846  0.21201792  1
  O  O7  1  0.07904315  0.89162387  0.78324773  1
  O  O8  1  0.92095685  0.10837513  0.21675127  1
  O  O9  1  0.40816716  0.34050109  0.23007020  1
  O  O10  1  0.40816716  0.88956910  0.23007020  1
  O  O11  1  0.59183384  0.11042990  0.76992980  1
  O  O12  1  0.59183384  0.65949891  0.76992980  1
