# generated using pymatgen
data_Co
_symmetry_space_group_name_H-M   'P 1'
_cell_length_a   4.55547616
_cell_length_b   8.36703492
_cell_length_c   8.36703492
_cell_angle_alpha   90.00000000
_cell_angle_beta   90.00000000
_cell_angle_gamma   90.00000000
_symmetry_Int_Tables_number   1
_chemical_formula_structural   Co
_chemical_formula_sum   Co28
_cell_volume   318.91646478
_cell_formula_units_Z   28
loop_
 _symmetry_equiv_pos_site_id
 _symmetry_equiv_pos_as_xyz
  1  'x, y, z'
loop_
 _atom_site_type_symbol
 _atom_site_label
 _atom_site_symmetry_multiplicity
 _atom_site_fract_x
 _atom_site_fract_y
 _atom_site_fract_z
 _atom_site_occupancy
  Co  Co0  1  0.50000000  0.09403773  0.90596227  1
  Co  Co1  1  0.50000000  0.90596227  0.09403773  1
  Co  Co2  1  -0.00000000  0.40596227  0.40596227  1
  Co  Co3  1  -0.00000000  0.59403773  0.59403773  1
  Co  Co4  1  0.50000000  0.36196574  0.97326988  1
  Co  Co5  1  0.50000000  0.63803426  0.02673012  1
  Co  Co6  1  -0.00000000  0.13803426  0.47326988  1
  Co  Co7  1  -0.00000000  0.86196574  0.52673012  1
  Co  Co8  1  0.50000000  0.97326988  0.36196574  1
  Co  Co9  1  0.50000000  0.02673012  0.63803426  1
  Co  Co10  1  -0.00000000  0.47326988  0.13803426  1
  Co  Co11  1  -0.00000000  0.52673012  0.86196574  1
  Co  Co12  1  0.50000000  0.44440866  0.25173882  1
  Co  Co13  1  0.50000000  0.55559134  0.74826118  1
  Co  Co14  1  -0.00000000  0.05559134  0.75173882  1
  Co  Co15  1  -0.00000000  0.94440866  0.24826118  1
  Co  Co16  1  0.50000000  0.25173882  0.44440866  1
  Co  Co17  1  0.50000000  0.74826118  0.55559134  1
  Co  Co18  1  -0.00000000  0.75173882  0.05559134  1
  Co  Co19  1  -0.00000000  0.24826118  0.94440866  1
  Co  Co20  1  0.24956632  0.31365155  0.68634845  1
  Co  Co21  1  0.24956632  0.68634845  0.31365155  1
  Co  Co22  1  0.74956632  0.18634845  0.18634845  1
  Co  Co23  1  0.74956632  0.81365155  0.81365155  1
  Co  Co24  1  0.75043368  0.68634845  0.31365155  1
  Co  Co25  1  0.75043368  0.31365155  0.68634845  1
  Co  Co26  1  0.25043368  0.81365155  0.81365155  1
  Co  Co27  1  0.25043368  0.18634845  0.18634845  1
