# generated using pymatgen
data_Mg2CoWO6
_symmetry_space_group_name_H-M   'P 1'
_cell_length_a   5.15853656
_cell_length_b   5.35655952
_cell_length_c   7.72745665
_cell_angle_alpha   90.00000000
_cell_angle_beta   90.19480491
_cell_angle_gamma   90.00000000
_symmetry_Int_Tables_number   1
_chemical_formula_structural   Mg2CoWO6
_chemical_formula_sum   'Mg4 Co2 W2 O12'
_cell_volume   213.52391063
_cell_formula_units_Z   2
loop_
 _symmetry_equiv_pos_site_id
 _symmetry_equiv_pos_as_xyz
  1  'x, y, z'
loop_
 _atom_site_type_symbol
 _atom_site_label
 _atom_site_symmetry_multiplicity
 _atom_site_fract_x
 _atom_site_fract_y
 _atom_site_fract_z
 _atom_site_occupancy
  Mg  Mg0  1  0.98657294  0.05717508  0.25899610  1
  Mg  Mg1  1  0.51342706  0.55717608  0.24100390  1
  Mg  Mg2  1  0.01342806  0.94282592  0.74100390  1
  Mg  Mg3  1  0.48657194  0.44282492  0.75899610  1
  Co  Co4  1  0.50000000  0.00000000  0.00000000  1
  Co  Co5  1  0.00000100  0.49999900  0.50000000  1
  W  W6  1  0.50000000  0.00000000  0.49999900  1
  W  W7  1  0.00000000  0.49999900  0.00000000  1
  O  O8  1  0.66918113  0.30197096  0.41655952  1
  O  O9  1  0.83081887  0.80197196  0.08344048  1
  O  O10  1  0.33081787  0.69802904  0.58344048  1
  O  O11  1  0.16918213  0.19802804  0.91655952  1
  O  O12  1  0.18886079  0.18007780  0.56113470  1
  O  O13  1  0.31113921  0.68007680  0.93886530  1
  O  O14  1  0.81114021  0.81992220  0.43886530  1
  O  O15  1  0.68885979  0.31992320  0.06113470  1
  O  O16  1  0.13591598  0.42758538  0.23360560  1
  O  O17  1  0.36408502  0.92758638  0.26639340  1
  O  O18  1  0.63591598  0.07241362  0.73360660  1
  O  O19  1  0.86408502  0.57241462  0.76639440  1
