# generated using pymatgen
data_Ca11(MnN5)2
_symmetry_space_group_name_H-M   'P 1'
_cell_length_a   6.21526957
_cell_length_b   6.21527030
_cell_length_c   12.29481463
_cell_angle_alpha   89.73472748
_cell_angle_beta   89.73472762
_cell_angle_gamma   117.60346196
_symmetry_Int_Tables_number   1
_chemical_formula_structural   Ca11(MnN5)2
_chemical_formula_sum   'Ca11 Mn2 N10'
_cell_volume   420.86654846
_cell_formula_units_Z   1
loop_
 _symmetry_equiv_pos_site_id
 _symmetry_equiv_pos_as_xyz
  1  'x, y, z'
loop_
 _atom_site_type_symbol
 _atom_site_label
 _atom_site_symmetry_multiplicity
 _atom_site_fract_x
 _atom_site_fract_y
 _atom_site_fract_z
 _atom_site_occupancy
  Ca  Ca0  1  0.00275328  0.44416094  0.88327422  1
  Ca  Ca1  1  0.59121123  0.97832448  0.12413159  1
  Ca  Ca2  1  0.38547073  0.99749408  0.61552798  1
  Ca  Ca3  1  0.41520214  0.41520214  0.37740291  1
  Ca  Ca4  1  0.61102137  0.00097485  0.38608067  1
  Ca  Ca5  1  0.39046498  0.39046498  0.08296224  1
  Ca  Ca6  1  0.97832448  0.59121123  0.12413159  1
  Ca  Ca7  1  0.99749408  0.38547073  0.61552798  1
  Ca  Ca8  1  0.58626449  0.58626449  0.63464366  1
  Ca  Ca9  1  0.44416094  0.00275328  0.88327422  1
  Ca  Ca10  1  0.00097485  0.61102137  0.38608067  1
  Mn  Mn11  1  0.98220457  0.98220457  0.75262310  1
  Mn  Mn12  1  0.01924950  0.01924950  0.25542989  1
  N  N13  1  0.72335676  0.00944249  0.73466092  1
  N  N14  1  0.24512544  0.24512544  0.72628158  1
  N  N15  1  0.28793110  0.00157332  0.26269971  1
  N  N16  1  0.66632182  0.33377601  0.50183795  1
  N  N17  1  0.30249784  0.67998250  0.00836118  1
  N  N18  1  0.33377601  0.66632182  0.50183795  1
  N  N19  1  0.67998250  0.30249784  0.00836118  1
  N  N20  1  0.73964509  0.73964509  0.25582117  1
  N  N21  1  0.00157332  0.28793110  0.26269971  1
  N  N22  1  0.00944249  0.72335676  0.73466092  1
