# generated using pymatgen
data_V4ZnO10
_symmetry_space_group_name_H-M   'P 1'
_cell_length_a   3.64744616
_cell_length_b   5.43997785
_cell_length_c   11.48533499
_cell_angle_alpha   90.00000000
_cell_angle_beta   90.00000000
_cell_angle_gamma   109.58740570
_symmetry_Int_Tables_number   1
_chemical_formula_structural   V4ZnO10
_chemical_formula_sum   'V4 Zn1 O10'
_cell_volume   214.70445659
_cell_formula_units_Z   1
loop_
 _symmetry_equiv_pos_site_id
 _symmetry_equiv_pos_as_xyz
  1  'x, y, z'
loop_
 _atom_site_type_symbol
 _atom_site_label
 _atom_site_symmetry_multiplicity
 _atom_site_fract_x
 _atom_site_fract_y
 _atom_site_fract_z
 _atom_site_occupancy
  V  V0  1  0.20140028  0.40279957  0.59888865  1
  V  V1  1  0.79020161  0.58040322  0.39705787  1
  V  V2  1  0.79020161  0.58040322  0.10294213  1
  V  V3  1  0.20140028  0.40279957  0.90111135  1
  Zn  Zn4  1  0.89975908  0.79951616  0.75000000  1
  O  O5  1  0.72549509  0.45099018  0.25000000  1
  O  O6  1  0.30300547  0.60600994  0.75000000  1
  O  O7  1  0.24241171  0.48482142  0.06991831  1
  O  O8  1  0.76295798  0.52591496  0.92710572  1
  O  O9  1  0.76295798  0.52591496  0.57289428  1
  O  O10  1  0.24241171  0.48482142  0.43008069  1
  O  O11  1  0.04175446  0.08350793  0.62936100  1
  O  O12  1  0.94546513  0.89093026  0.37893889  1
  O  O13  1  0.04175446  0.08350793  0.87063900  1
  O  O14  1  0.94546513  0.89093026  0.12106211  1
