# generated using pymatgen
data_Fe(PO3)4
_symmetry_space_group_name_H-M   'P 1'
_cell_length_a   7.53587661
_cell_length_b   7.54228048
_cell_length_c   10.00215070
_cell_angle_alpha   86.00321658
_cell_angle_beta   69.63997199
_cell_angle_gamma   116.44539525
_symmetry_Int_Tables_number   1
_chemical_formula_structural   Fe(PO3)4
_chemical_formula_sum   'Fe2 P8 O24'
_cell_volume   459.80433972
_cell_formula_units_Z   2
loop_
 _symmetry_equiv_pos_site_id
 _symmetry_equiv_pos_as_xyz
  1  'x, y, z'
loop_
 _atom_site_type_symbol
 _atom_site_label
 _atom_site_symmetry_multiplicity
 _atom_site_fract_x
 _atom_site_fract_y
 _atom_site_fract_z
 _atom_site_occupancy
  Fe  Fe0  1  -0.00000139  0.00000559  0.49999195  1
  Fe  Fe1  1  0.00001015  0.50002052  0.00000526  1
  P  P2  1  0.26248902  0.26252496  0.98454153  1
  P  P3  1  0.74729042  0.24718159  0.51489041  1
  P  P4  1  0.99900999  0.66873963  0.31097906  1
  P  P5  1  0.25268893  0.75281897  0.48511752  1
  P  P6  1  0.73751569  0.73747927  0.01545906  1
  P  P7  1  0.47984304  0.30995992  0.18906228  1
  P  P8  1  0.52017243  0.69003360  0.81092975  1
  P  P9  1  0.00097817  0.33125242  0.68903304  1
  O  O10  1  0.47314835  0.45605486  0.84886552  1
  O  O11  1  0.94832210  0.33876390  0.84626597  1
  O  O12  1  0.05167351  0.66121776  0.15374593  1
  O  O13  1  0.11165392  0.33370817  0.07330333  1
  O  O14  1  0.09283651  0.81505183  0.57367248  1
  O  O15  1  0.19460025  0.67733326  0.34955792  1
  O  O16  1  0.04574726  0.16328444  0.64579674  1
  O  O17  1  0.21259568  0.54736308  0.57963482  1
  O  O18  1  0.37400341  0.20864600  0.07896030  1
  O  O19  1  0.49681816  0.90471814  0.41672041  1
  O  O20  1  0.52686436  0.54394046  0.15112939  1
  O  O21  1  0.31492767  0.20467509  0.34602902  1
  O  O22  1  0.30863549  0.69133675  0.85403223  1
  O  O23  1  0.82131377  0.91318287  0.08369632  1
  O  O24  1  0.17867944  0.08681176  0.91631530  1
  O  O25  1  0.90715401  0.18496915  0.42631242  1
  O  O26  1  0.68508923  0.79531510  0.65396330  1
  O  O27  1  0.88836407  0.66631365  0.92669193  1
  O  O28  1  0.50316750  0.09526290  0.58328501  1
  O  O29  1  0.62600703  0.79135305  0.92103502  1
  O  O30  1  0.78737952  0.45264321  0.42037863  1
  O  O31  1  0.95425656  0.83672324  0.35418686  1
  O  O32  1  0.80537854  0.32264782  0.65045215  1
  O  O33  1  0.69138724  0.30866502  0.14595613  1
