# generated using pymatgen
data_Y2Ni2O7
_symmetry_space_group_name_H-M   'P 1'
_cell_length_a   6.98304219
_cell_length_b   6.98304221
_cell_length_c   6.98304157
_cell_angle_alpha   59.99999855
_cell_angle_beta   59.99999842
_cell_angle_gamma   59.99999645
_symmetry_Int_Tables_number   1
_chemical_formula_structural   Y2Ni2O7
_chemical_formula_sum   'Y4 Ni4 O14'
_cell_volume   240.77918556
_cell_formula_units_Z   2
loop_
 _symmetry_equiv_pos_site_id
 _symmetry_equiv_pos_as_xyz
  1  'x, y, z'
loop_
 _atom_site_type_symbol
 _atom_site_label
 _atom_site_symmetry_multiplicity
 _atom_site_fract_x
 _atom_site_fract_y
 _atom_site_fract_z
 _atom_site_occupancy
  Y  Y0  1  0.50000000  0.00000000  0.50000000  1
  Y  Y1  1  0.00000000  0.50000000  0.50000000  1
  Y  Y2  1  0.50000000  0.50000000  0.00000000  1
  Y  Y3  1  0.50000000  0.50000000  0.50000000  1
  Ni  Ni4  1  0.00000000  0.50000000  0.00000000  1
  Ni  Ni5  1  0.50000000  0.00000000  0.00000000  1
  Ni  Ni6  1  0.00000000  0.00000000  0.50000000  1
  Ni  Ni7  1  0.00000000  0.00000000  0.00000000  1
  O  O8  1  0.62500000  0.62500000  0.62500000  1
  O  O9  1  0.37500000  0.37500000  0.37500000  1
  O  O10  1  0.32905846  0.92094154  0.92094154  1
  O  O11  1  0.07905846  0.67094154  0.67094154  1
  O  O12  1  0.92094154  0.32905846  0.92094154  1
  O  O13  1  0.92094154  0.92094154  0.32905846  1
  O  O14  1  0.32905846  0.32905846  0.92094154  1
  O  O15  1  0.32905846  0.92094154  0.32905846  1
  O  O16  1  0.92094154  0.32905846  0.32905846  1
  O  O17  1  0.67094154  0.67094154  0.07905846  1
  O  O18  1  0.07905846  0.07905846  0.67094154  1
  O  O19  1  0.67094154  0.07905846  0.07905846  1
  O  O20  1  0.67094154  0.07905846  0.67094154  1
  O  O21  1  0.07905846  0.67094154  0.07905846  1
