# generated using pymatgen
data_U2Hg5(AsO9)2
_symmetry_space_group_name_H-M   'P 1'
_cell_length_a   7.21414898
_cell_length_b   7.00771654
_cell_length_c   9.71242990
_cell_angle_alpha   109.30045285
_cell_angle_beta   105.57635363
_cell_angle_gamma   95.10954493
_symmetry_Int_Tables_number   1
_chemical_formula_structural   U2Hg5(AsO9)2
_chemical_formula_sum   'U2 Hg5 As2 O18'
_cell_volume   437.77273423
_cell_formula_units_Z   1
loop_
 _symmetry_equiv_pos_site_id
 _symmetry_equiv_pos_as_xyz
  1  'x, y, z'
loop_
 _atom_site_type_symbol
 _atom_site_label
 _atom_site_symmetry_multiplicity
 _atom_site_fract_x
 _atom_site_fract_y
 _atom_site_fract_z
 _atom_site_occupancy
  U  U0  1  0.99658130  0.37101445  0.78933584  1
  U  U1  1  0.00341870  0.62898555  0.21066416  1
  Hg  Hg2  1  0.50000000  0.00000000  0.50000000  1
  Hg  Hg3  1  0.73198554  0.07258886  0.95660465  1
  Hg  Hg4  1  0.26801446  0.92741114  0.04339535  1
  Hg  Hg5  1  0.42908998  0.60770996  0.68850089  1
  Hg  Hg6  1  0.57091002  0.39229004  0.31149911  1
  As  As7  1  0.06344103  0.22700407  0.39573651  1
  As  As8  1  0.93655897  0.77299593  0.60426349  1
  O  O9  1  0.95843652  0.21169010  0.53068403  1
  O  O10  1  0.04156348  0.78830990  0.46931597  1
  O  O11  1  0.06953897  0.99350175  0.26694268  1
  O  O12  1  0.93046103  0.00649825  0.73305732  1
  O  O13  1  0.92850441  0.35717294  0.29475015  1
  O  O14  1  0.07149559  0.64282706  0.70524985  1
  O  O15  1  0.31193171  0.35025161  0.47987474  1
  O  O16  1  0.68806829  0.64974839  0.52012526  1
  O  O17  1  0.44926612  0.95670121  0.68145133  1
  O  O18  1  0.55073388  0.04329879  0.31854867  1
  O  O19  1  0.55266982  0.80579960  0.91918287  1
  O  O20  1  0.44733018  0.19420040  0.08081713  1
  O  O21  1  0.94192384  0.32128430  0.00121359  1
  O  O22  1  0.05807616  0.67871570  0.99878641  1
  O  O23  1  0.26025377  0.37483999  0.83731231  1
  O  O24  1  0.73974623  0.62516001  0.16268769  1
  O  O25  1  0.73329330  0.38184188  0.73053904  1
  O  O26  1  0.26670670  0.61815812  0.26946096  1
