# generated using pymatgen
data_LiMn2O4
_symmetry_space_group_name_H-M   'P 1'
_cell_length_a   5.81240965
_cell_length_b   5.81193432
_cell_length_c   14.24257427
_cell_angle_alpha   87.82165667
_cell_angle_beta   87.82136863
_cell_angle_gamma   60.17342940
_symmetry_Int_Tables_number   1
_chemical_formula_structural   LiMn2O4
_chemical_formula_sum   'Li6 Mn12 O24'
_cell_volume   416.99693184
_cell_formula_units_Z   6
loop_
 _symmetry_equiv_pos_site_id
 _symmetry_equiv_pos_as_xyz
  1  'x, y, z'
loop_
 _atom_site_type_symbol
 _atom_site_label
 _atom_site_symmetry_multiplicity
 _atom_site_fract_x
 _atom_site_fract_y
 _atom_site_fract_z
 _atom_site_occupancy
  Li  Li0  1  0.52177594  0.54614911  0.81846992  1
  Li  Li1  1  0.06004634  0.01693117  0.80908448  1
  Li  Li2  1  0.29609269  0.77151956  0.31847521  1
  Li  Li3  1  0.76689475  0.30971439  0.30913372  1
  Li  Li4  1  0.71329370  0.22408598  0.67780010  1
  Li  Li5  1  0.97406905  0.96331691  0.17780151  1
  Mn  Mn6  1  0.23916395  0.73607446  0.50885792  1
  Mn  Mn7  1  0.75363763  0.24965506  0.49555217  1
  Mn  Mn8  1  0.52941913  0.02652975  0.84192889  1
  Mn  Mn9  1  0.02662280  0.52971372  0.84017537  1
  Mn  Mn10  1  0.47608393  0.97669283  0.15442727  1
  Mn  Mn11  1  0.97632650  0.47699341  0.15511333  1
  Mn  Mn12  1  0.48591800  0.48938068  0.00887852  1
  Mn  Mn13  1  -0.00023840  0.00416430  0.99549933  1
  Mn  Mn14  1  0.27938622  0.27660925  0.34038874  1
  Mn  Mn15  1  0.77620449  0.77923936  0.34200046  1
  Mn  Mn16  1  0.22728144  0.22608958  0.65487015  1
  Mn  Mn17  1  0.72683875  0.72619829  0.65425025  1
  O  O18  1  0.30599637  0.82266146  0.07497768  1
  O  O19  1  0.82330246  0.31053015  0.07933705  1
  O  O20  1  0.67747733  0.19164139  0.91954707  1
  O  O21  1  0.18902590  0.68367237  0.91573553  1
  O  O22  1  0.57247552  0.55600443  0.57493339  1
  O  O23  1  0.06040335  0.07325669  0.57930816  1
  O  O24  1  0.43335999  0.43897070  0.41578317  1
  O  O25  1  0.94130900  0.92742361  0.41958979  1
  O  O26  1  0.82182626  0.81632380  0.09322120  1
  O  O27  1  0.31025362  0.31563361  0.09202748  1
  O  O28  1  0.68919235  0.68510311  0.90224728  1
  O  O29  1  0.18137581  0.18517762  0.90041822  1
  O  O30  1  0.56641403  0.07178599  0.59309355  1
  O  O31  1  0.06576545  0.56007034  0.59188034  1
  O  O32  1  0.43484211  0.93888449  0.40239466  1
  O  O33  1  0.93489257  0.43116516  0.40054676  1
  O  O34  1  0.64524598  0.65042447  0.23915971  1
  O  O35  1  0.14294321  0.14443867  0.23826438  1
  O  O36  1  0.85652645  0.86836729  0.76666261  1
  O  O37  1  0.36511228  0.35363516  0.76284468  1
  O  O38  1  0.40070434  0.89529417  0.73905942  1
  O  O39  1  0.89460885  0.39299988  0.73818307  1
  O  O40  1  0.61809949  0.10639544  0.26682067  1
  O  O41  1  0.10342233  0.61499918  0.26300680  1
