# generated using pymatgen
data_MgV2O4
_symmetry_space_group_name_H-M   'P 1'
_cell_length_a   6.05476215
_cell_length_b   6.04590460
_cell_length_c   18.18921502
_cell_angle_alpha   60.09212500
_cell_angle_beta   59.76246964
_cell_angle_gamma   60.00154719
_symmetry_Int_Tables_number   1
_chemical_formula_structural   MgV2O4
_chemical_formula_sum   'Mg6 V12 O24'
_cell_volume   470.30228980
_cell_formula_units_Z   6
loop_
 _symmetry_equiv_pos_site_id
 _symmetry_equiv_pos_as_xyz
  1  'x, y, z'
loop_
 _atom_site_type_symbol
 _atom_site_label
 _atom_site_symmetry_multiplicity
 _atom_site_fract_x
 _atom_site_fract_y
 _atom_site_fract_z
 _atom_site_occupancy
  Mg  Mg0  1  0.13391833  0.11956888  0.04133084  1
  Mg  Mg1  1  0.50039153  0.49784370  0.33319543  1
  Mg  Mg2  1  0.00099902  0.49773807  0.16748222  1
  Mg  Mg3  1  0.49727148  0.50391921  0.66595224  1
  Mg  Mg4  1  0.99942643  0.50158859  0.49998858  1
  Mg  Mg5  1  0.00347939  0.49820034  0.83270792  1
  V  V6  1  0.50005860  0.00198488  0.16699363  1
  V  V7  1  0.13088556  0.12064048  0.37762513  1
  V  V8  1  0.49696399  0.49731625  0.00310131  1
  V  V9  1  0.49885938  0.49834441  0.16737849  1
  V  V10  1  0.50005246  0.00003970  0.49977486  1
  V  V11  1  0.13109389  0.11953964  0.70906057  1
  V  V12  1  0.49978007  0.50030366  0.49977599  1
  V  V13  1  0.49758910  0.00305052  0.83306094  1
  V  V14  1  0.86787574  0.88125951  0.28974578  1
  V  V15  1  0.49793835  0.49753842  0.83374210  1
  V  V16  1  0.86638142  0.88053343  0.62416681  1
  V  V17  1  0.86768986  0.87521833  0.95989074  1
  O  O18  1  0.27364466  0.25234149  0.08575161  1
  O  O19  1  0.25973756  0.25474415  0.24540293  1
  O  O20  1  0.26881685  0.71666526  0.08510178  1
  O  O21  1  0.72440014  0.25734536  0.08860214  1
  O  O22  1  0.25958184  0.25470780  0.41983604  1
  O  O23  1  0.26914348  0.74663429  0.24482909  1
  O  O24  1  0.26118678  0.25218577  0.57635509  1
  O  O25  1  0.74284307  0.27060650  0.24634700  1
  O  O26  1  0.26616651  0.72480370  0.42133086  1
  O  O27  1  0.73932084  0.74249807  0.09054931  1
  O  O28  1  0.73050999  0.24911757  0.42098251  1
  O  O29  1  0.73570332  0.75230354  0.24543284  1
  O  O30  1  0.26302973  0.24895143  0.75261161  1
  O  O31  1  0.26742082  0.75197172  0.57909303  1
  O  O32  1  0.73349676  0.27624301  0.57866523  1
  O  O33  1  0.26169404  0.72736946  0.75440147  1
  O  O34  1  0.26337719  0.25749630  0.90661697  1
  O  O35  1  0.73809077  0.74692520  0.42336569  1
  O  O36  1  0.73051822  0.25123785  0.75464456  1
  O  O37  1  0.73947082  0.74707117  0.58088151  1
  O  O38  1  0.26961073  0.74479022  0.91355818  1
  O  O39  1  0.73326448  0.27375712  0.91582204  1
  O  O40  1  0.74092644  0.74331350  0.75733666  1
  O  O41  1  0.73137238  0.74554452  0.91603525  1
