# generated using pymatgen
data_NiTeP2O9
_symmetry_space_group_name_H-M   'P 1'
_cell_length_a   6.39109235
_cell_length_b   7.84561637
_cell_length_c   14.04867190
_cell_angle_alpha   89.98517859
_cell_angle_beta   89.99977004
_cell_angle_gamma   90.00176837
_symmetry_Int_Tables_number   1
_chemical_formula_structural   NiTeP2O9
_chemical_formula_sum   'Ni4 Te4 P8 O36'
_cell_volume   704.42930841
_cell_formula_units_Z   4
loop_
 _symmetry_equiv_pos_site_id
 _symmetry_equiv_pos_as_xyz
  1  'x, y, z'
loop_
 _atom_site_type_symbol
 _atom_site_label
 _atom_site_symmetry_multiplicity
 _atom_site_fract_x
 _atom_site_fract_y
 _atom_site_fract_z
 _atom_site_occupancy
  Ni  Ni0  1  0.49964535  0.00031227  0.00004166  1
  Ni  Ni1  1  0.50023211  0.49992455  0.49999680  1
  Ni  Ni2  1  0.00038994  0.50033309  0.50008975  1
  Ni  Ni3  1  0.00041740  0.99987223  0.00016860  1
  Te  Te4  1  0.75002283  0.34791323  0.87421763  1
  Te  Te5  1  0.24996179  0.65204315  0.12576296  1
  Te  Te6  1  0.24998620  0.84807317  0.62588502  1
  Te  Te7  1  0.74998687  0.15193113  0.37412111  1
  P  P8  1  0.25001159  0.34512079  0.94151672  1
  P  P9  1  0.74995857  0.65493997  0.05843057  1
  P  P10  1  0.74998995  0.84500657  0.55851382  1
  P  P11  1  0.24996702  0.15497810  0.44148402  1
  P  P12  1  0.75005334  0.38802804  0.68378560  1
  P  P13  1  0.24995989  0.61194191  0.31619733  1
  P  P14  1  0.25000978  0.88859546  0.81630951  1
  P  P15  1  0.74996704  0.11137655  0.18369853  1
  O  O16  1  0.04789271  0.59740518  0.36970367  1
  O  O17  1  0.54791515  0.40251595  0.63027691  1
  O  O18  1  0.95212714  0.09715329  0.13021854  1
  O  O19  1  0.45224688  0.90284253  0.86978957  1
  O  O20  1  0.95206662  0.40257113  0.63025007  1
  O  O21  1  0.45204469  0.59744723  0.36974187  1
  O  O22  1  0.04785647  0.90287108  0.86980306  1
  O  O23  1  0.54771396  0.09716987  0.13023721  1
  O  O24  1  0.24998553  0.33298467  0.48207893  1
  O  O25  1  0.74999954  0.66700780  0.51789237  1
  O  O26  1  0.74997477  0.83300806  0.01778994  1
  O  O27  1  0.24995711  0.16707791  0.98220986  1
  O  O28  1  0.75000765  0.15863568  0.95123961  1
  O  O29  1  0.24994985  0.84134848  0.04874437  1
  O  O30  1  0.24999074  0.65901340  0.54886428  1
  O  O31  1  0.74998539  0.34097405  0.45112805  1
  O  O32  1  0.75005415  0.22111101  0.75322981  1
  O  O33  1  0.24988261  0.77887465  0.24671818  1
  O  O34  1  0.24996458  0.72151016  0.74694159  1
  O  O35  1  0.75002492  0.27844435  0.25304655  1
  O  O36  1  0.43947751  0.12536947  0.37335054  1
  O  O37  1  0.93948588  0.87456311  0.62667063  1
  O  O38  1  0.56045325  0.62563265  0.12659388  1
  O  O39  1  0.06050825  0.37435840  0.87338790  1
  O  O40  1  0.56048467  0.87456677  0.62665508  1
  O  O41  1  0.06047999  0.12535848  0.37332615  1
  O  O42  1  0.43950873  0.37429014  0.87337860  1
  O  O43  1  0.93947875  0.62556507  0.12658024  1
  O  O44  1  0.74993479  0.97651061  0.27699735  1
  O  O45  1  0.25004974  0.02345427  0.72299104  1
  O  O46  1  0.24995465  0.47698960  0.22295006  1
  O  O47  1  0.74999956  0.52297934  0.77700889  1
  O  O48  1  0.75005264  0.98465429  0.48072900  1
  O  O49  1  0.24994082  0.01534784  0.51929548  1
  O  O50  1  0.25003648  0.48482398  0.01919532  1
  O  O51  1  0.74995318  0.51518127  0.98076277  1
