# generated using pymatgen
data_KMnO2
_symmetry_space_group_name_H-M   'P 1'
_cell_length_a   2.94278119
_cell_length_b   6.36011036
_cell_length_c   13.09746030
_cell_angle_alpha   89.99868303
_cell_angle_beta   89.87182426
_cell_angle_gamma   89.99974525
_symmetry_Int_Tables_number   1
_chemical_formula_structural   KMnO2
_chemical_formula_sum   'K4 Mn4 O8'
_cell_volume   245.13686473
_cell_formula_units_Z   4
loop_
 _symmetry_equiv_pos_site_id
 _symmetry_equiv_pos_as_xyz
  1  'x, y, z'
loop_
 _atom_site_type_symbol
 _atom_site_label
 _atom_site_symmetry_multiplicity
 _atom_site_fract_x
 _atom_site_fract_y
 _atom_site_fract_z
 _atom_site_occupancy
  K  K0  1  0.24782569  0.51642610  0.13753819  1
  K  K1  1  0.24826623  0.98360412  0.63750037  1
  K  K2  1  0.75210956  0.48360812  0.86251928  1
  K  K3  1  0.75194991  0.01632362  0.36244750  1
  Mn  Mn4  1  0.24895138  0.00929266  0.10146691  1
  Mn  Mn5  1  0.75089516  0.99074356  0.89847181  1
  Mn  Mn6  1  0.75099867  0.50915937  0.39840886  1
  Mn  Mn7  1  0.24912163  0.49077868  0.60165809  1
  O  O8  1  0.74818823  0.86855994  0.17144500  1
  O  O9  1  0.25172397  0.13148854  0.82849245  1
  O  O10  1  0.25173209  0.36843541  0.32848851  1
  O  O11  1  0.74840487  0.63152207  0.67156474  1
  O  O12  1  0.74945567  0.18368938  0.04620122  1
  O  O13  1  0.25045885  0.81639479  0.95375179  1
  O  O14  1  0.74964030  0.31643242  0.54626771  1
  O  O15  1  0.25049278  0.68353923  0.45377855  1
