# generated using pymatgen
data_Na2CoP2O7
_symmetry_space_group_name_H-M   'P 1'
_cell_length_a   6.24683552
_cell_length_b   8.13630057
_cell_length_c   8.62880536
_cell_angle_alpha   118.12920932
_cell_angle_beta   111.22157948
_cell_angle_gamma   90.00000000
_symmetry_Int_Tables_number   1
_chemical_formula_structural   Na2CoP2O7
_chemical_formula_sum   'Na4 Co2 P4 O14'
_cell_volume   352.68611483
_cell_formula_units_Z   2
loop_
 _symmetry_equiv_pos_site_id
 _symmetry_equiv_pos_as_xyz
  1  'x, y, z'
loop_
 _atom_site_type_symbol
 _atom_site_label
 _atom_site_symmetry_multiplicity
 _atom_site_fract_x
 _atom_site_fract_y
 _atom_site_fract_z
 _atom_site_occupancy
  Na  Na0  1  0.24061344  0.74061344  0.48122688  1
  Na  Na1  1  0.24061344  0.24061344  0.48122688  1
  Na  Na2  1  0.75938656  0.25938656  0.51877312  1
  Na  Na3  1  0.75938656  0.75938656  0.51877312  1
  Co  Co4  1  0.00000000  0.50000000  -0.00000000  1
  Co  Co5  1  0.00000000  0.00000000  -0.00000000  1
  P  P6  1  0.42899125  0.35298315  0.20596630  1
  P  P7  1  0.77697505  0.85298315  0.20596630  1
  P  P8  1  0.57100875  0.64701685  0.79403370  1
  P  P9  1  0.22302495  0.14701685  0.79403370  1
  O  O10  1  0.45163605  0.25000000  -0.00000000  1
  O  O11  1  0.54836395  0.75000000  -0.00000000  1
  O  O12  1  0.32485776  0.56885766  0.63771532  1
  O  O13  1  0.31285756  0.06885766  0.63771532  1
  O  O14  1  0.67514224  0.43114234  0.36228468  1
  O  O15  1  0.68714244  0.93114234  0.36228468  1
  O  O16  1  0.28996301  0.51183033  0.20930154  1
  O  O17  1  0.91933852  0.69747120  0.20930154  1
  O  O18  1  0.91933852  0.01183033  0.20930154  1
  O  O19  1  0.28996301  0.19747120  0.20930154  1
  O  O20  1  0.71003699  0.48816967  0.79069846  1
  O  O21  1  0.08066148  0.30252880  0.79069846  1
  O  O22  1  0.08066148  0.98816967  0.79069846  1
  O  O23  1  0.71003699  0.80252880  0.79069846  1
