# generated using pymatgen
data_MnHO2
_symmetry_space_group_name_H-M   'P 1'
_cell_length_a   6.07631971
_cell_length_b   6.10186758
_cell_length_c   9.00165177
_cell_angle_alpha   89.97086757
_cell_angle_beta   90.07363695
_cell_angle_gamma   90.05863030
_symmetry_Int_Tables_number   1
_chemical_formula_structural   MnHO2
_chemical_formula_sum   'Mn8 H8 O16'
_cell_volume   333.75283305
_cell_formula_units_Z   8
loop_
 _symmetry_equiv_pos_site_id
 _symmetry_equiv_pos_as_xyz
  1  'x, y, z'
loop_
 _atom_site_type_symbol
 _atom_site_label
 _atom_site_symmetry_multiplicity
 _atom_site_fract_x
 _atom_site_fract_y
 _atom_site_fract_z
 _atom_site_occupancy
  Mn  Mn0  1  0.21846873  0.74988617  0.75065970  1
  Mn  Mn1  1  0.78064731  0.24993297  0.24926349  1
  Mn  Mn2  1  0.71834568  0.74942364  0.74959277  1
  Mn  Mn3  1  0.28065392  0.24837429  0.25070174  1
  Mn  Mn4  1  0.99940875  0.52854261  0.50045328  1
  Mn  Mn5  1  0.49910294  0.97067150  0.99931474  1
  Mn  Mn6  1  0.00054079  0.02855353  0.49976279  1
  Mn  Mn7  1  0.49885727  0.47049488  0.00053467  1
  H  H8  1  0.04406528  0.66976313  0.23918942  1
  H  H9  1  0.45446646  0.33036080  0.73838379  1
  H  H10  1  0.57376281  0.78424684  0.48959093  1
  H  H11  1  0.92391889  0.22726876  0.98755565  1
  H  H12  1  0.97013065  0.16982602  0.76262979  1
  H  H13  1  0.54271010  0.82744077  0.26003138  1
  H  H14  1  0.42790892  0.27591468  0.51036831  1
  H  H15  1  0.07264991  0.72523988  0.01147898  1
  O  O16  1  0.97034077  0.55315559  0.72134928  1
  O  O17  1  0.52851950  0.97636229  0.22046582  1
  O  O18  1  0.97424919  0.02172587  0.72115070  1
  O  O19  1  0.52829665  0.44545796  0.22165986  1
  O  O20  1  0.19547233  0.77626475  0.52869528  1
  O  O21  1  0.77419052  0.22700088  0.02772152  1
  O  O22  1  0.72413637  0.77546261  0.52842297  1
  O  O23  1  0.30314953  0.22229625  0.02894150  1
  O  O24  1  0.02832458  0.05296065  0.27855292  1
  O  O25  1  0.46925389  0.47816433  0.77936206  1
  O  O26  1  0.02870726  0.52155743  0.27958116  1
  O  O27  1  0.47064196  0.94613348  0.77830985  1
  O  O28  1  0.27687117  0.27237107  0.47219945  1
  O  O29  1  0.69478827  0.72265671  0.97095591  1
  O  O30  1  0.80434982  0.27628805  0.47088916  1
  O  O31  1  0.22313778  0.72621062  0.97252913  1
