# generated using pymatgen
data_MgSnP2O7
_symmetry_space_group_name_H-M   'P 1'
_cell_length_a   7.04770697
_cell_length_b   6.72597040
_cell_length_c   7.12831147
_cell_angle_alpha   63.34739402
_cell_angle_beta   75.45767024
_cell_angle_gamma   80.09217031
_symmetry_Int_Tables_number   1
_chemical_formula_structural   MgSnP2O7
_chemical_formula_sum   'Mg2 Sn2 P4 O14'
_cell_volume   291.63079046
_cell_formula_units_Z   2
loop_
 _symmetry_equiv_pos_site_id
 _symmetry_equiv_pos_as_xyz
  1  'x, y, z'
loop_
 _atom_site_type_symbol
 _atom_site_label
 _atom_site_symmetry_multiplicity
 _atom_site_fract_x
 _atom_site_fract_y
 _atom_site_fract_z
 _atom_site_occupancy
  Mg  Mg0  1  0.82862319  0.31561078  0.10129389  1
  Mg  Mg1  1  0.17137681  0.68438922  0.89870611  1
  Sn  Sn2  1  0.69578011  0.12519645  0.72561590  1
  Sn  Sn3  1  0.30421989  0.87480355  0.27438410  1
  P  P4  1  0.18156881  0.21323426  0.77743904  1
  P  P5  1  0.81843119  0.78676574  0.22256096  1
  P  P6  1  0.63642873  0.64892599  0.69769928  1
  P  P7  1  0.36357127  0.35107401  0.30230072  1
  O  O8  1  0.72704324  0.62810062  0.46814297  1
  O  O9  1  0.27295676  0.37189938  0.53185703  1
  O  O10  1  0.05654153  0.04423627  0.77980876  1
  O  O11  1  0.94345847  0.95576373  0.22019124  1
  O  O12  1  0.57732471  0.26646076  0.31549915  1
  O  O13  1  0.42267529  0.73353924  0.68450085  1
  O  O14  1  0.33530388  0.59015966  0.13271114  1
  O  O15  1  0.66469612  0.40984034  0.86728786  1
  O  O16  1  0.92323736  0.61579111  0.13388561  1
  O  O17  1  0.07676264  0.38420889  0.86611439  1
  O  O18  1  0.64576384  0.91887903  0.10797190  1
  O  O19  1  0.35423616  0.08112097  0.89202810  1
  O  O20  1  0.23413722  0.20050702  0.28787479  1
  O  O21  1  0.76586278  0.79949298  0.71212521  1
