# generated using pymatgen
data_Fe(NiSe2)2
_symmetry_space_group_name_H-M   'P 1'
_cell_length_a   3.58237341
_cell_length_b   6.20628450
_cell_length_c   6.31940015
_cell_angle_alpha   118.23908514
_cell_angle_beta   106.46576898
_cell_angle_gamma   90.00000000
_symmetry_Int_Tables_number   1
_chemical_formula_structural   Fe(NiSe2)2
_chemical_formula_sum   'Fe1 Ni2 Se4'
_cell_volume   117.19707253
_cell_formula_units_Z   1
loop_
 _symmetry_equiv_pos_site_id
 _symmetry_equiv_pos_as_xyz
  1  'x, y, z'
loop_
 _atom_site_type_symbol
 _atom_site_label
 _atom_site_symmetry_multiplicity
 _atom_site_fract_x
 _atom_site_fract_y
 _atom_site_fract_z
 _atom_site_occupancy
  Fe  Fe0  1  0.00000000  0.00000000  0.00000000  1
  Ni  Ni1  1  0.73954203  0.71154990  0.47908405  1
  Ni  Ni2  1  0.26045797  0.28845010  0.52091595  1
  Se  Se3  1  0.63548215  0.97648852  0.27096430  1
  Se  Se4  1  0.36451785  0.02351148  0.72903570  1
  Se  Se5  1  0.88515536  0.55006278  0.77031071  1
  Se  Se6  1  0.11484464  0.44993722  0.22968929  1
