# generated using pymatgen
data_Pr3(NiGe)4
_symmetry_space_group_name_H-M   'P 1'
_cell_length_a   4.18792972
_cell_length_b   4.15281621
_cell_length_c   12.43292036
_cell_angle_alpha   99.61227232
_cell_angle_beta   99.69602524
_cell_angle_gamma   89.99999994
_symmetry_Int_Tables_number   1
_chemical_formula_structural   Pr3(NiGe)4
_chemical_formula_sum   'Pr3 Ni4 Ge4'
_cell_volume   210.06040848
_cell_formula_units_Z   1
loop_
 _symmetry_equiv_pos_site_id
 _symmetry_equiv_pos_as_xyz
  1  'x, y, z'
loop_
 _atom_site_type_symbol
 _atom_site_label
 _atom_site_symmetry_multiplicity
 _atom_site_fract_x
 _atom_site_fract_y
 _atom_site_fract_z
 _atom_site_occupancy
  Ni  Ni0  1  0.54973239  0.54974150  0.09946477  1
  Ni  Ni1  1  0.45026761  0.45025850  0.90053523  1
  Ni  Ni2  1  0.69915508  0.19920792  0.39831016  1
  Ni  Ni3  1  0.30084492  0.80079208  0.60168984  1
  Ge  Ge4  1  0.24996536  0.24994764  0.49993073  1
  Ge  Ge5  1  0.59966177  0.09972782  0.19932355  1
  Ge  Ge6  1  0.40033823  0.90027218  0.80067645  1
  Ge  Ge7  1  0.75003464  0.75005236  0.50006927  1
  Pr  Pr8  1  0.00000000  0.00000000  0.00000000  1
  Pr  Pr9  1  0.85148151  0.35128268  0.70296301  1
  Pr  Pr10  1  0.14851849  0.64871732  0.29703699  1
