# generated using pymatgen
data_CaMg15
_symmetry_space_group_name_H-M   'P 1'
_cell_length_a   6.53872731
_cell_length_b   6.53872676
_cell_length_c   10.36562710
_cell_angle_alpha   90.00000000
_cell_angle_beta   90.00000000
_cell_angle_gamma   120.00000284
_symmetry_Int_Tables_number   1
_chemical_formula_structural   CaMg15
_chemical_formula_sum   'Ca1 Mg15'
_cell_volume   383.80675661
_cell_formula_units_Z   1
loop_
 _symmetry_equiv_pos_site_id
 _symmetry_equiv_pos_as_xyz
  1  'x, y, z'
loop_
 _atom_site_type_symbol
 _atom_site_label
 _atom_site_symmetry_multiplicity
 _atom_site_fract_x
 _atom_site_fract_y
 _atom_site_fract_z
 _atom_site_occupancy
  Ca  Ca0  1  0.16666700  0.33333300  0.12500000  1
  Mg  Mg1  1  0.16666700  0.33333300  0.62500000  1
  Mg  Mg2  1  0.17271342  0.83635621  0.12500000  1
  Mg  Mg3  1  0.16612151  0.83306025  0.62500000  1
  Mg  Mg4  1  0.66364379  0.32728658  0.12500000  1
  Mg  Mg5  1  0.66693975  0.33387849  0.62500000  1
  Mg  Mg6  1  0.66364379  0.83635621  0.12500000  1
  Mg  Mg7  1  0.66693975  0.83306025  0.62500000  1
  Mg  Mg8  1  0.33496308  0.16503692  0.38008133  1
  Mg  Mg9  1  0.33496308  0.16503692  0.86991867  1
  Mg  Mg10  1  0.33496308  0.66992715  0.38008133  1
  Mg  Mg11  1  0.33496308  0.66992715  0.86991867  1
  Mg  Mg12  1  0.83007285  0.16503692  0.38008133  1
  Mg  Mg13  1  0.83007285  0.16503692  0.86991867  1
  Mg  Mg14  1  0.83333300  0.66666700  0.37284081  1
  Mg  Mg15  1  0.83333300  0.66666700  0.87715919  1
