# generated using pymatgen
data_LiMg6Sn
_symmetry_space_group_name_H-M   'P 1'
_cell_length_a   6.36205911
_cell_length_b   6.36205859
_cell_length_c   5.11385112
_cell_angle_alpha   90.00000000
_cell_angle_beta   90.00000000
_cell_angle_gamma   119.83762386
_symmetry_Int_Tables_number   1
_chemical_formula_structural   LiMg6Sn
_chemical_formula_sum   'Li1 Mg6 Sn1'
_cell_volume   179.54873518
_cell_formula_units_Z   1
loop_
 _symmetry_equiv_pos_site_id
 _symmetry_equiv_pos_as_xyz
  1  'x, y, z'
loop_
 _atom_site_type_symbol
 _atom_site_label
 _atom_site_symmetry_multiplicity
 _atom_site_fract_x
 _atom_site_fract_y
 _atom_site_fract_z
 _atom_site_occupancy
  Li  Li0  1  0.33333718  0.16666282  0.75000000  1
  Mg  Mg1  1  0.16665686  0.83494288  0.25000000  1
  Mg  Mg2  1  0.66505712  0.33334314  0.25000000  1
  Mg  Mg3  1  0.66722622  0.83277378  0.25000000  1
  Mg  Mg4  1  0.33389692  0.66868171  0.75000000  1
  Mg  Mg5  1  0.83131829  0.16610308  0.75000000  1
  Mg  Mg6  1  0.83396689  0.66603311  0.75000000  1
  Sn  Sn7  1  0.16854051  0.33145949  0.25000000  1
