# generated using pymatgen
data_Fe5HO8
_symmetry_space_group_name_H-M   'P 1'
_cell_length_a   5.96345354
_cell_length_b   5.96345354
_cell_length_c   9.26779662
_cell_angle_alpha   90.00000000
_cell_angle_beta   90.00000000
_cell_angle_gamma   120.00493465
_symmetry_Int_Tables_number   1
_chemical_formula_structural   Fe5HO8
_chemical_formula_sum   'Fe10 H2 O16'
_cell_volume   285.41790216
_cell_formula_units_Z   2
loop_
 _symmetry_equiv_pos_site_id
 _symmetry_equiv_pos_as_xyz
  1  'x, y, z'
loop_
 _atom_site_type_symbol
 _atom_site_label
 _atom_site_symmetry_multiplicity
 _atom_site_fract_x
 _atom_site_fract_y
 _atom_site_fract_z
 _atom_site_occupancy
  Fe  Fe0  1  0.16669043  0.83330957  0.87104028  1
  Fe  Fe1  1  0.66662912  0.83301537  0.86542573  1
  Fe  Fe2  1  0.16698463  0.33337088  0.86542573  1
  Fe  Fe3  1  0.83330957  0.16669043  0.37104028  1
  Fe  Fe4  1  0.33337088  0.16698463  0.36542573  1
  Fe  Fe5  1  0.83301537  0.66662912  0.36542573  1
  Fe  Fe6  1  0.33268953  0.66731047  0.15882683  1
  Fe  Fe7  1  0.66731047  0.33268953  0.65882683  1
  Fe  Fe8  1  0.33322134  0.66677866  0.54395544  1
  Fe  Fe9  1  0.66677866  0.33322134  0.04395544  1
  H  H10  1  0.00255241  0.99744759  0.09336811  1
  H  H11  1  0.99744759  0.00255241  0.59336811  1
  O  O12  1  0.99785918  0.00214082  0.48700364  1
  O  O13  1  0.00214082  0.99785918  0.98700364  1
  O  O14  1  0.33094647  0.66905353  0.75270278  1
  O  O15  1  0.66905353  0.33094647  0.25270278  1
  O  O16  1  0.16568778  0.83431222  0.26230591  1
  O  O17  1  0.67225681  0.84419079  0.26478920  1
  O  O18  1  0.15580921  0.32774319  0.26478920  1
  O  O19  1  0.83431222  0.16568778  0.76230591  1
  O  O20  1  0.32774319  0.15580921  0.76478920  1
  O  O21  1  0.84419079  0.67225681  0.76478920  1
  O  O22  1  0.51468615  0.48531385  0.50362154  1
  O  O23  1  0.96847676  0.47844285  0.49852280  1
  O  O24  1  0.52155715  0.03152324  0.49852280  1
  O  O25  1  0.48531385  0.51468615  0.00362154  1
  O  O26  1  0.03152324  0.52155715  0.99852280  1
  O  O27  1  0.47844285  0.96847676  0.99852280  1
