# generated using pymatgen
data_YMg7
_symmetry_space_group_name_H-M   'P 1'
_cell_length_a   6.61515716
_cell_length_b   6.61515659
_cell_length_c   5.17645086
_cell_angle_alpha   90.00000000
_cell_angle_beta   90.00000000
_cell_angle_gamma   120.00000286
_symmetry_Int_Tables_number   1
_chemical_formula_structural   YMg7
_chemical_formula_sum   'Y1 Mg7'
_cell_volume   196.17470585
_cell_formula_units_Z   1
loop_
 _symmetry_equiv_pos_site_id
 _symmetry_equiv_pos_as_xyz
  1  'x, y, z'
loop_
 _atom_site_type_symbol
 _atom_site_label
 _atom_site_symmetry_multiplicity
 _atom_site_fract_x
 _atom_site_fract_y
 _atom_site_fract_z
 _atom_site_occupancy
  Y  Y0  1  0.16666700  0.33333300  0.25000000  1
  Mg  Mg1  1  0.17146500  0.83573200  0.25000000  1
  Mg  Mg2  1  0.66426800  0.32853500  0.25000000  1
  Mg  Mg3  1  0.66426800  0.83573200  0.25000000  1
  Mg  Mg4  1  0.33534531  0.16465469  0.75000000  1
  Mg  Mg5  1  0.33534531  0.67069161  0.75000000  1
  Mg  Mg6  1  0.82930839  0.16465469  0.75000000  1
  Mg  Mg7  1  0.83333300  0.66666700  0.75000000  1
