# generated using pymatgen
data_Te4Mo2WSe2
_symmetry_space_group_name_H-M   'P 1'
_cell_length_a   3.47864528
_cell_length_b   3.47863839
_cell_length_c   31.99332815
_cell_angle_alpha   90.00016059
_cell_angle_beta   90.00000000
_cell_angle_gamma   120.00006550
_symmetry_Int_Tables_number   1
_chemical_formula_structural   Te4Mo2WSe2
_chemical_formula_sum   'Te4 Mo2 W1 Se2'
_cell_volume   335.28119601
_cell_formula_units_Z   1
loop_
 _symmetry_equiv_pos_site_id
 _symmetry_equiv_pos_as_xyz
  1  'x, y, z'
loop_
 _atom_site_type_symbol
 _atom_site_label
 _atom_site_symmetry_multiplicity
 _atom_site_fract_x
 _atom_site_fract_y
 _atom_site_fract_z
 _atom_site_occupancy
  Te  Te0  1  0.33335207  0.66670514  0.40479657  1
  Te  Te1  1  0.66664804  0.33329507  0.52083575  1
  Te  Te2  1  0.66664816  0.33329533  0.63582297  1
  Te  Te3  1  0.33335023  0.66670146  0.28909002  1
  Mo  Mo4  1  0.33331082  0.66662165  0.11566377  1
  Mo  Mo5  1  0.33331195  0.66662389  0.57836564  1
  W  W6  1  0.66668814  0.33337627  0.34696812  1
  Se  Se7  1  0.66664375  0.33328650  0.06492064  1
  Se  Se8  1  0.66664785  0.33329470  0.16637751  1
