# generated using pymatgen
data_Te4Mo2WSe2
_symmetry_space_group_name_H-M   'P 1'
_cell_length_a   3.47766698
_cell_length_b   3.47766776
_cell_length_c   31.96466956
_cell_angle_alpha   89.99996468
_cell_angle_beta   90.00000000
_cell_angle_gamma   119.99999259
_symmetry_Int_Tables_number   1
_chemical_formula_structural   Te4Mo2WSe2
_chemical_formula_sum   'Te4 Mo2 W1 Se2'
_cell_volume   334.79345882
_cell_formula_units_Z   1
loop_
 _symmetry_equiv_pos_site_id
 _symmetry_equiv_pos_as_xyz
  1  'x, y, z'
loop_
 _atom_site_type_symbol
 _atom_site_label
 _atom_site_symmetry_multiplicity
 _atom_site_fract_x
 _atom_site_fract_y
 _atom_site_fract_z
 _atom_site_occupancy
  Te  Te0  1  0.33335331  0.66670761  0.40446786  1
  Te  Te1  1  0.66664762  0.33329424  0.52052091  1
  Te  Te2  1  0.66664312  0.33328524  0.63615003  1
  Te  Te3  1  0.33334954  0.66670007  0.28944840  1
  Mo  Mo4  1  0.33331292  0.66662584  0.11564162  1
  Mo  Mo5  1  0.66668618  0.33337235  0.34692939  1
  W  W6  1  0.33331222  0.66662443  0.57836612  1
  Se  Se7  1  0.66664643  0.33329186  0.06491864  1
  Se  Se8  1  0.66664967  0.33329835  0.16639802  1
