# generated using pymatgen
data_Te2Mo3(SeS)2
_symmetry_space_group_name_H-M   'P 1'
_cell_length_a   3.34957840
_cell_length_b   3.34974315
_cell_length_c   30.90225347
_cell_angle_alpha   90.00072365
_cell_angle_beta   90.00000000
_cell_angle_gamma   119.99837307
_symmetry_Int_Tables_number   1
_chemical_formula_structural   Te2Mo3(SeS)2
_chemical_formula_sum   'Te2 Mo3 Se2 S2'
_cell_volume   300.28217750
_cell_formula_units_Z   1
loop_
 _symmetry_equiv_pos_site_id
 _symmetry_equiv_pos_as_xyz
  1  'x, y, z'
loop_
 _atom_site_type_symbol
 _atom_site_label
 _atom_site_symmetry_multiplicity
 _atom_site_fract_x
 _atom_site_fract_y
 _atom_site_fract_z
 _atom_site_occupancy
  Te  Te0  1  0.66665853  0.33331606  0.51708974  1
  Te  Te1  1  0.66665286  0.33330472  0.63952057  1
  Mo  Mo2  1  0.33329996  0.66659992  0.11566322  1
  Mo  Mo3  1  0.33331387  0.66662774  0.57833180  1
  Mo  Mo4  1  0.66670783  0.33341565  0.34699323  1
  Se  Se5  1  0.66662999  0.33325898  0.06185086  1
  Se  Se6  1  0.66664080  0.33328061  0.16944911  1
  S  S7  1  0.33334668  0.66669437  0.39603160  1
  S  S8  1  0.33335047  0.66670194  0.29791087  1
