# generated using pymatgen
data_Te2Mo(WSe2)2
_symmetry_space_group_name_H-M   'P 1'
_cell_length_a   3.40162090
_cell_length_b   3.40158990
_cell_length_c   31.44009018
_cell_angle_alpha   90.00007961
_cell_angle_beta   90.00000000
_cell_angle_gamma   120.00030145
_symmetry_Int_Tables_number   1
_chemical_formula_structural   Te2Mo(WSe2)2
_chemical_formula_sum   'Te2 Mo1 W2 Se4'
_cell_volume   315.05107102
_cell_formula_units_Z   1
loop_
 _symmetry_equiv_pos_site_id
 _symmetry_equiv_pos_as_xyz
  1  'x, y, z'
loop_
 _atom_site_type_symbol
 _atom_site_label
 _atom_site_symmetry_multiplicity
 _atom_site_fract_x
 _atom_site_fract_y
 _atom_site_fract_z
 _atom_site_occupancy
  Te  Te0  1  0.66664823  0.33329546  0.51845721  1
  Te  Te1  1  0.66664706  0.33329311  0.63816899  1
  Mo  Mo2  1  0.33330998  0.66661996  0.11565570  1
  W  W3  1  0.33331211  0.66662421  0.57832431  1
  W  W4  1  0.66668864  0.33337727  0.34696649  1
  Se  Se5  1  0.33335449  0.66670999  0.39956742  1
  Se  Se6  1  0.66663569  0.33327038  0.06316580  1
  Se  Se7  1  0.66664881  0.33329661  0.16815822  1
  Se  Se8  1  0.33335600  0.66671301  0.29437687  1
