# generated using pymatgen
data_Te2Mo(WSe2)2
_symmetry_space_group_name_H-M   'P 1'
_cell_length_a   3.40110296
_cell_length_b   3.40107126
_cell_length_c   31.44056871
_cell_angle_alpha   89.99981862
_cell_angle_beta   90.00002260
_cell_angle_gamma   120.00028739
_symmetry_Int_Tables_number   1
_chemical_formula_structural   Te2Mo(WSe2)2
_chemical_formula_sum   'Te2 Mo1 W2 Se4'
_cell_volume   314.95991002
_cell_formula_units_Z   1
loop_
 _symmetry_equiv_pos_site_id
 _symmetry_equiv_pos_as_xyz
  1  'x, y, z'
loop_
 _atom_site_type_symbol
 _atom_site_label
 _atom_site_symmetry_multiplicity
 _atom_site_fract_x
 _atom_site_fract_y
 _atom_site_fract_z
 _atom_site_occupancy
  Te  Te0  1  0.33335461  0.66670959  0.40678937  1
  Te  Te1  1  0.33335710  0.66671467  0.28717104  1
  Mo  Mo2  1  0.33331442  0.66662842  0.11562626  1
  W  W3  1  0.33330702  0.66661328  0.57833416  1
  W  W4  1  0.66669089  0.33338236  0.34696051  1
  Se  Se5  1  0.66664915  0.33329781  0.06324855  1
  Se  Se6  1  0.66664579  0.33329133  0.52574596  1
  Se  Se7  1  0.66665304  0.33330542  0.16805824  1
  Se  Se8  1  0.66662899  0.33325711  0.63090691  1
