# generated using pymatgen
data_Te2Mo3(SeS)2
_symmetry_space_group_name_H-M   'P 1'
_cell_length_a   3.34937521
_cell_length_b   3.34933118
_cell_length_c   30.95988292
_cell_angle_alpha   90.00011495
_cell_angle_beta   90.00000000
_cell_angle_gamma   120.00043477
_symmetry_Int_Tables_number   1
_chemical_formula_structural   Te2Mo3(SeS)2
_chemical_formula_sum   'Te2 Mo3 Se2 S2'
_cell_volume   300.78067718
_cell_formula_units_Z   1
loop_
 _symmetry_equiv_pos_site_id
 _symmetry_equiv_pos_as_xyz
  1  'x, y, z'
loop_
 _atom_site_type_symbol
 _atom_site_label
 _atom_site_symmetry_multiplicity
 _atom_site_fract_x
 _atom_site_fract_y
 _atom_site_fract_z
 _atom_site_occupancy
  Te  Te0  1  0.33335539  0.66671177  0.40810377  1
  Te  Te1  1  0.33334740  0.66669581  0.28573020  1
  Mo  Mo2  1  0.33332731  0.66665463  0.11564860  1
  Mo  Mo3  1  0.33331408  0.66662815  0.57838896  1
  Mo  Mo4  1  0.66668669  0.33337337  0.34697433  1
  Se  Se5  1  0.66664919  0.33329738  0.52452197  1
  Se  Se6  1  0.66665023  0.33329945  0.63219369  1
  S  S7  1  0.66663414  0.33326728  0.06670269  1
  S  S8  1  0.66663658  0.33327215  0.16457679  1
