# generated using pymatgen
data_Te2Mo2WSe4
_symmetry_space_group_name_H-M   'P 1'
_cell_length_a   3.40409170
_cell_length_b   3.40401783
_cell_length_c   31.40123460
_cell_angle_alpha   90.00002797
_cell_angle_beta   90.00000000
_cell_angle_gamma   120.00071787
_symmetry_Int_Tables_number   1
_chemical_formula_structural   Te2Mo2WSe4
_chemical_formula_sum   'Te2 Mo2 W1 Se4'
_cell_volume   315.11370382
_cell_formula_units_Z   1
loop_
 _symmetry_equiv_pos_site_id
 _symmetry_equiv_pos_as_xyz
  1  'x, y, z'
loop_
 _atom_site_type_symbol
 _atom_site_label
 _atom_site_symmetry_multiplicity
 _atom_site_fract_x
 _atom_site_fract_y
 _atom_site_fract_z
 _atom_site_occupancy
  Te  Te0  1  0.66664355  0.33328610  0.51841478  1
  Te  Te1  1  0.66664515  0.33328929  0.63819551  1
  Mo  Mo2  1  0.33330771  0.66661542  0.11565286  1
  Mo  Mo3  1  0.66669013  0.33338026  0.34696720  1
  W  W4  1  0.33330908  0.66661815  0.57832142  1
  Se  Se5  1  0.33335192  0.66670483  0.39946450  1
  Se  Se6  1  0.66664651  0.33329203  0.06317840  1
  Se  Se7  1  0.66663755  0.33327411  0.16814287  1
  Se  Se8  1  0.33336940  0.66673981  0.29450346  1
