# generated using pymatgen
data_NdWO5
_symmetry_space_group_name_H-M   'P 1'
_cell_length_a   5.37582432
_cell_length_b   6.87473066
_cell_length_c   13.19020378
_cell_angle_alpha   90.00000000
_cell_angle_beta   90.00000000
_cell_angle_gamma   108.63646123
_symmetry_Int_Tables_number   1
_chemical_formula_structural   NdWO5
_chemical_formula_sum   'Nd4 W4 O20'
_cell_volume   461.91427378
_cell_formula_units_Z   4
loop_
 _symmetry_equiv_pos_site_id
 _symmetry_equiv_pos_as_xyz
  1  'x, y, z'
loop_
 _atom_site_type_symbol
 _atom_site_label
 _atom_site_symmetry_multiplicity
 _atom_site_fract_x
 _atom_site_fract_y
 _atom_site_fract_z
 _atom_site_occupancy
  Nd  Nd0  1  0.65302600  0.28364434  0.05640581  1
  Nd  Nd1  1  0.84697400  0.21635566  0.55640581  1
  Nd  Nd2  1  0.34697400  0.71635566  0.94359419  1
  Nd  Nd3  1  0.15302600  0.78364434  0.44359419  1
  W  W4  1  0.46926931  0.34580268  0.35919825  1
  W  W5  1  0.03073069  0.15419732  0.85919825  1
  W  W6  1  0.53073069  0.65419732  0.64080175  1
  W  W7  1  0.96926931  0.84580268  0.14080175  1
  O  O8  1  0.51056358  0.30695252  0.22604291  1
  O  O9  1  0.98943642  0.19304748  0.72604291  1
  O  O10  1  0.48943642  0.69304748  0.77395709  1
  O  O11  1  0.01056358  0.80695252  0.27395709  1
  O  O12  1  0.66029121  0.44014116  0.64066003  1
  O  O13  1  0.83970879  0.05985884  0.14066003  1
  O  O14  1  0.33970879  0.55985884  0.35933997  1
  O  O15  1  0.16029121  0.94014116  0.85933997  1
  O  O16  1  0.16919424  0.16401413  0.43255564  1
  O  O17  1  0.33080576  0.33598587  0.93255564  1
  O  O18  1  0.83080576  0.83598587  0.56744436  1
  O  O19  1  0.66919424  0.66401413  0.06744436  1
  O  O20  1  0.78120683  0.46906368  0.42763849  1
  O  O21  1  0.71879317  0.03093632  0.92763849  1
  O  O22  1  0.21879317  0.53093632  0.57236151  1
  O  O23  1  0.28120683  0.96906368  0.07236151  1
  O  O24  1  0.53443581  0.08018739  0.40647487  1
  O  O25  1  0.96556419  0.41981261  0.90647487  1
  O  O26  1  0.46556419  0.91981261  0.59352513  1
  O  O27  1  0.03443581  0.58018739  0.09352513  1
