# generated using pymatgen
data_Te2Mo(WSe2)2
_symmetry_space_group_name_H-M   'P 1'
_cell_length_a   3.40231595
_cell_length_b   3.40229455
_cell_length_c   31.43433040
_cell_angle_alpha   89.99932409
_cell_angle_beta   90.00000000
_cell_angle_gamma   120.00020794
_symmetry_Int_Tables_number   1
_chemical_formula_structural   Te2Mo(WSe2)2
_chemical_formula_sum   'Te2 Mo1 W2 Se4'
_cell_volume   315.12327859
_cell_formula_units_Z   1
loop_
 _symmetry_equiv_pos_site_id
 _symmetry_equiv_pos_as_xyz
  1  'x, y, z'
loop_
 _atom_site_type_symbol
 _atom_site_label
 _atom_site_symmetry_multiplicity
 _atom_site_fract_x
 _atom_site_fract_y
 _atom_site_fract_z
 _atom_site_occupancy
  Te  Te0  1  0.66664910  0.33329720  0.51846477  1
  Te  Te1  1  0.66664921  0.33329742  0.63818019  1
  Mo  Mo2  1  0.66668928  0.33337857  0.34699073  1
  W  W3  1  0.33330890  0.66661779  0.11565867  1
  W  W4  1  0.33331242  0.66662484  0.57833365  1
  Se  Se5  1  0.33335128  0.66670357  0.39940843  1
  Se  Se6  1  0.66664839  0.33329579  0.06303341  1
  Se  Se7  1  0.66663780  0.33327460  0.16825437  1
  Se  Se8  1  0.33335461  0.66671023  0.29451678  1
