# generated using pymatgen
data_Te2Mo3W(SeS2)2
_symmetry_space_group_name_H-M   'P 1'
_cell_length_a   3.30540613
_cell_length_b   3.30553021
_cell_length_c   37.56760261
_cell_angle_alpha   90.00026685
_cell_angle_beta   90.00000000
_cell_angle_gamma   119.99875839
_symmetry_Int_Tables_number   1
_chemical_formula_structural   Te2Mo3W(SeS2)2
_chemical_formula_sum   'Te2 Mo3 W1 Se2 S4'
_cell_volume   355.48027319
_cell_formula_units_Z   1
loop_
 _symmetry_equiv_pos_site_id
 _symmetry_equiv_pos_as_xyz
  1  'x, y, z'
loop_
 _atom_site_type_symbol
 _atom_site_label
 _atom_site_symmetry_multiplicity
 _atom_site_fract_x
 _atom_site_fract_y
 _atom_site_fract_z
 _atom_site_occupancy
  Te  Te0  1  0.33335447  0.66670993  0.70838603  1
  Te  Te1  1  0.33336252  0.66672604  0.60672636  1
  Mo  Mo2  1  0.33331014  0.66662027  0.09390675  1
  Mo  Mo3  1  0.66670456  0.33340913  0.28180090  1
  Mo  Mo4  1  0.66669070  0.33338139  0.65756071  1
  W  W5  1  0.33330785  0.66661570  0.46963746  1
  Se  Se6  1  0.66664067  0.33328035  0.04927244  1
  Se  Se7  1  0.66664780  0.33329460  0.13857060  1
  S  S8  1  0.33334597  0.66669294  0.32248014  1
  S  S9  1  0.66664481  0.33328862  0.42885815  1
  S  S10  1  0.66664572  0.33329045  0.51043701  1
  S  S11  1  0.33334479  0.66669059  0.24111146  1
