# generated using pymatgen
data_Te2Mo3W(SeS2)2
_symmetry_space_group_name_H-M   'P 1'
_cell_length_a   3.30548777
_cell_length_b   3.30541776
_cell_length_c   37.64907196
_cell_angle_alpha   90.00009150
_cell_angle_beta   90.00000000
_cell_angle_gamma   120.00070057
_symmetry_Int_Tables_number   1
_chemical_formula_structural   Te2Mo3W(SeS2)2
_chemical_formula_sum   'Te2 Mo3 W1 Se2 S4'
_cell_volume   356.24087742
_cell_formula_units_Z   1
loop_
 _symmetry_equiv_pos_site_id
 _symmetry_equiv_pos_as_xyz
  1  'x, y, z'
loop_
 _atom_site_type_symbol
 _atom_site_label
 _atom_site_symmetry_multiplicity
 _atom_site_fract_x
 _atom_site_fract_y
 _atom_site_fract_z
 _atom_site_occupancy
  Te  Te0  1  0.66664847  0.33329595  0.41879065  1
  Te  Te1  1  0.66664732  0.33329364  0.52048376  1
  Mo  Mo2  1  0.33330977  0.66661954  0.09392872  1
  Mo  Mo3  1  0.33331019  0.66662037  0.46964093  1
  Mo  Mo4  1  0.66670423  0.33340846  0.28178234  1
  W  W5  1  0.66669157  0.33338314  0.65757893  1
  Se  Se6  1  0.66664273  0.33328445  0.04923412  1
  Se  Se7  1  0.66664697  0.33329295  0.13862769  1
  S  S8  1  0.33334501  0.66669102  0.32232510  1
  S  S9  1  0.33335576  0.66671252  0.69831906  1
  S  S10  1  0.33334535  0.66669171  0.24122728  1
  S  S11  1  0.33335263  0.66670626  0.61680941  1
