# generated using pymatgen
data_TeMo2SeS2
_symmetry_space_group_name_H-M   'P 1'
_cell_length_a   3.30911906
_cell_length_b   3.30911787
_cell_length_c   37.58381030
_cell_angle_alpha   89.99978720
_cell_angle_beta   90.00000000
_cell_angle_gamma   120.00001186
_symmetry_Int_Tables_number   1
_chemical_formula_structural   TeMo2SeS2
_chemical_formula_sum   'Te2 Mo4 Se2 S4'
_cell_volume   356.41503631
_cell_formula_units_Z   2
loop_
 _symmetry_equiv_pos_site_id
 _symmetry_equiv_pos_as_xyz
  1  'x, y, z'
loop_
 _atom_site_type_symbol
 _atom_site_label
 _atom_site_symmetry_multiplicity
 _atom_site_fract_x
 _atom_site_fract_y
 _atom_site_fract_z
 _atom_site_occupancy
  Te  Te0  1  0.33334960  0.66670020  0.70837888  1
  Te  Te1  1  0.33335910  0.66671919  0.60676827  1
  Mo  Mo2  1  0.33331069  0.66662138  0.09391709  1
  Mo  Mo3  1  0.33330946  0.66661891  0.46962210  1
  Mo  Mo4  1  0.66668705  0.33337410  0.28180749  1
  Mo  Mo5  1  0.66668815  0.33337630  0.65759984  1
  Se  Se6  1  0.66664596  0.33329091  0.42498805  1
  Se  Se7  1  0.66664546  0.33328992  0.51423578  1
  S  S8  1  0.33335608  0.66671316  0.32248281  1
  S  S9  1  0.66664650  0.33329200  0.05324351  1
  S  S10  1  0.66664683  0.33329265  0.13460985  1
  S  S11  1  0.33335513  0.66671125  0.24109432  1
