# generated using pymatgen
data_Te2Mo3W(SeS2)2
_symmetry_space_group_name_H-M   'P 1'
_cell_length_a   3.30536013
_cell_length_b   3.30538374
_cell_length_c   39.65062485
_cell_angle_alpha   89.99767304
_cell_angle_beta   90.00000000
_cell_angle_gamma   119.99976366
_symmetry_Int_Tables_number   1
_chemical_formula_structural   Te2Mo3W(SeS2)2
_chemical_formula_sum   'Te2 Mo3 W1 Se2 S4'
_cell_volume   375.16504825
_cell_formula_units_Z   1
loop_
 _symmetry_equiv_pos_site_id
 _symmetry_equiv_pos_as_xyz
  1  'x, y, z'
loop_
 _atom_site_type_symbol
 _atom_site_label
 _atom_site_symmetry_multiplicity
 _atom_site_fract_x
 _atom_site_fract_y
 _atom_site_fract_z
 _atom_site_occupancy
  Te  Te0  1  0.66670922  0.33341743  0.42207377  1
  Te  Te1  1  0.66669517  0.33338934  0.51855845  1
  Mo  Mo2  1  0.33337346  0.66674693  0.09377038  1
  Mo  Mo3  1  0.33336914  0.66673828  0.47031089  1
  Mo  Mo4  1  0.66663599  0.33327199  0.28041261  1
  W  W5  1  0.66666100  0.33332201  0.65841023  1
  Se  Se6  1  0.33327907  0.66655913  0.32274847  1
  Se  Se7  1  0.33330868  0.66661835  0.23811918  1
  S  S8  1  0.33330205  0.66660511  0.69710338  1
  S  S9  1  0.66668089  0.33336078  0.05518696  1
  S  S10  1  0.66665129  0.33330159  0.13236252  1
  S  S11  1  0.33333403  0.66666906  0.61969115  1
