# generated using pymatgen
data_Te2Mo3(SeS)2
_symmetry_space_group_name_H-M   'P 1'
_cell_length_a   3.35037595
_cell_length_b   3.35062118
_cell_length_c   30.94868398
_cell_angle_alpha   89.99990279
_cell_angle_beta   90.00000486
_cell_angle_gamma   119.99769652
_symmetry_Int_Tables_number   1
_chemical_formula_structural   Te2Mo3(SeS)2
_chemical_formula_sum   'Te2 Mo3 Se2 S2'
_cell_volume   300.88585395
_cell_formula_units_Z   1
loop_
 _symmetry_equiv_pos_site_id
 _symmetry_equiv_pos_as_xyz
  1  'x, y, z'
loop_
 _atom_site_type_symbol
 _atom_site_label
 _atom_site_symmetry_multiplicity
 _atom_site_fract_x
 _atom_site_fract_y
 _atom_site_fract_z
 _atom_site_occupancy
  Te  Te0  1  0.66665293  0.33330543  0.51715544  1
  Te  Te1  1  0.66664202  0.33328372  0.63952052  1
  Mo  Mo2  1  0.33329489  0.66659053  0.11565596  1
  Mo  Mo3  1  0.33331419  0.66662762  0.57835851  1
  Mo  Mo4  1  0.66668859  0.33337807  0.34694128  1
  Se  Se5  1  0.33334934  0.66669906  0.40071314  1
  Se  Se6  1  0.33335089  0.66670234  0.29317743  1
  S  S7  1  0.66665354  0.33330566  0.06661689  1
  S  S8  1  0.66665462  0.33330758  0.16470183  1
