# generated using pymatgen
data_Te2Mo3W(SeS2)2
_symmetry_space_group_name_H-M   'P 1'
_cell_length_a   3.30583837
_cell_length_b   3.30589175
_cell_length_c   37.61625739
_cell_angle_alpha   89.99972822
_cell_angle_beta   90.00000000
_cell_angle_gamma   119.99946576
_symmetry_Int_Tables_number   1
_chemical_formula_structural   Te2Mo3W(SeS2)2
_chemical_formula_sum   'Te2 Mo3 W1 Se2 S4'
_cell_volume   356.02360865
_cell_formula_units_Z   1
loop_
 _symmetry_equiv_pos_site_id
 _symmetry_equiv_pos_as_xyz
  1  'x, y, z'
loop_
 _atom_site_type_symbol
 _atom_site_label
 _atom_site_symmetry_multiplicity
 _atom_site_fract_x
 _atom_site_fract_y
 _atom_site_fract_z
 _atom_site_occupancy
  Te  Te0  1  0.33335172  0.66670445  0.70843050  1
  Te  Te1  1  0.33335620  0.66671341  0.60670271  1
  Mo  Mo2  1  0.33330232  0.66660463  0.09390998  1
  Mo  Mo3  1  0.66669469  0.33338938  0.28180979  1
  Mo  Mo4  1  0.66668868  0.33337736  0.65758383  1
  W  W5  1  0.33330808  0.66661615  0.46963571  1
  Se  Se6  1  0.33335987  0.66672073  0.32650913  1
  Se  Se7  1  0.33335611  0.66671321  0.23706465  1
  S  S8  1  0.66665016  0.33329931  0.05330288  1
  S  S9  1  0.66663983  0.33327867  0.42885725  1
  S  S10  1  0.66664521  0.33328941  0.13451897  1
  S  S11  1  0.66664714  0.33329329  0.51042260  1
