# generated using pymatgen
data_Te2MoW3(SeS2)2
_symmetry_space_group_name_H-M   'P 1'
_cell_length_a   3.30728241
_cell_length_b   3.30725780
_cell_length_c   40.95305734
_cell_angle_alpha   89.99481666
_cell_angle_beta   90.00000000
_cell_angle_gamma   120.00024625
_symmetry_Int_Tables_number   1
_chemical_formula_structural   Te2MoW3(SeS2)2
_chemical_formula_sum   'Te2 Mo1 W3 Se2 S4'
_cell_volume   387.93164813
_cell_formula_units_Z   1
loop_
 _symmetry_equiv_pos_site_id
 _symmetry_equiv_pos_as_xyz
  1  'x, y, z'
loop_
 _atom_site_type_symbol
 _atom_site_label
 _atom_site_symmetry_multiplicity
 _atom_site_fract_x
 _atom_site_fract_y
 _atom_site_fract_z
 _atom_site_occupancy
  Te  Te0  1  0.66669211  0.33338322  0.42144202  1
  Te  Te1  1  0.66662158  0.33324217  0.51484821  1
  Mo  Mo2  1  0.33332296  0.66664592  0.46814386  1
  W  W3  1  0.33339086  0.66678172  0.09396833  1
  W  W4  1  0.66667523  0.33335046  0.28054576  1
  W  W5  1  0.66660995  0.33321989  0.66022958  1
  Se  Se6  1  0.33324551  0.66649201  0.70148621  1
  Se  Se7  1  0.33331105  0.66662310  0.61897502  1
  S  S8  1  0.33331394  0.66662888  0.31802899  1
  S  S9  1  0.66675101  0.33350101  0.05652515  1
  S  S10  1  0.66669035  0.33337970  0.13144104  1
  S  S11  1  0.33337546  0.66675192  0.24311383  1
