# generated using pymatgen
data_Te2MoW3(SeS2)2
_symmetry_space_group_name_H-M   'P 1'
_cell_length_a   3.30633306
_cell_length_b   3.30625528
_cell_length_c   42.73530442
_cell_angle_alpha   90.00873374
_cell_angle_beta   90.00000000
_cell_angle_gamma   120.00077819
_symmetry_Int_Tables_number   1
_chemical_formula_structural   Te2MoW3(SeS2)2
_chemical_formula_sum   'Te2 Mo1 W3 Se2 S4'
_cell_volume   404.57310081
_cell_formula_units_Z   1
loop_
 _symmetry_equiv_pos_site_id
 _symmetry_equiv_pos_as_xyz
  1  'x, y, z'
loop_
 _atom_site_type_symbol
 _atom_site_label
 _atom_site_symmetry_multiplicity
 _atom_site_fract_x
 _atom_site_fract_y
 _atom_site_fract_z
 _atom_site_occupancy
  Te  Te0  1  0.33344776  0.66689653  0.32470378  1
  Te  Te1  1  0.33330632  0.66661365  0.23514097  1
  Mo  Mo2  1  0.66671269  0.33342538  0.27992393  1
  W  W3  1  0.33329512  0.66659024  0.09240966  1
  W  W4  1  0.33342126  0.66684252  0.47243701  1
  W  W5  1  0.66657483  0.33314966  0.65814778  1
  Se  Se6  1  0.66671407  0.33342713  0.43289804  1
  Se  Se7  1  0.66679116  0.33358132  0.51196717  1
  S  S8  1  0.33326711  0.66653522  0.69405425  1
  S  S9  1  0.66660419  0.33320738  0.05650251  1
  S  S10  1  0.66665611  0.33331122  0.12831814  1
  S  S11  1  0.33320937  0.66641975  0.62224476  1
