# generated using pymatgen
data_Te2Mo3W(SeS2)2
_symmetry_space_group_name_H-M   'P 1'
_cell_length_a   3.30557310
_cell_length_b   3.30543124
_cell_length_c   38.65057802
_cell_angle_alpha   89.99973698
_cell_angle_beta   90.00000000
_cell_angle_gamma   120.00141971
_symmetry_Int_Tables_number   1
_chemical_formula_structural   Te2Mo3W(SeS2)2
_chemical_formula_sum   'Te2 Mo3 W1 Se2 S4'
_cell_volume   365.72555234
_cell_formula_units_Z   1
loop_
 _symmetry_equiv_pos_site_id
 _symmetry_equiv_pos_as_xyz
  1  'x, y, z'
loop_
 _atom_site_type_symbol
 _atom_site_label
 _atom_site_symmetry_multiplicity
 _atom_site_fract_x
 _atom_site_fract_y
 _atom_site_fract_z
 _atom_site_occupancy
  Te  Te0  1  0.33347057  0.66694213  0.33028109  1
  Te  Te1  1  0.33339995  0.66680091  0.23123723  1
  Mo  Mo2  1  0.33330737  0.66661474  0.09297017  1
  Mo  Mo3  1  0.33319483  0.66638966  0.47129079  1
  Mo  Mo4  1  0.66677875  0.33355750  0.28074954  1
  W  W5  1  0.66670569  0.33341138  0.65790519  1
  Se  Se6  1  0.66652866  0.33305631  0.42784591  1
  Se  Se7  1  0.66651848  0.33303596  0.51469405  1
  S  S8  1  0.33334383  0.66668866  0.69759133  1
  S  S9  1  0.66672292  0.33344484  0.05341417  1
  S  S10  1  0.66665666  0.33331233  0.13256514  1
  S  S11  1  0.33337229  0.66674558  0.61820340  1
