# generated using pymatgen
data_Te2Mo3W(SeS2)2
_symmetry_space_group_name_H-M   'P 1'
_cell_length_a   3.31044102
_cell_length_b   3.31051941
_cell_length_c   37.26839242
_cell_angle_alpha   89.99995098
_cell_angle_beta   90.00000000
_cell_angle_gamma   119.99921669
_symmetry_Int_Tables_number   1
_chemical_formula_structural   Te2Mo3W(SeS2)2
_chemical_formula_sum   'Te2 Mo3 W1 Se2 S4'
_cell_volume   353.71763527
_cell_formula_units_Z   1
loop_
 _symmetry_equiv_pos_site_id
 _symmetry_equiv_pos_as_xyz
  1  'x, y, z'
loop_
 _atom_site_type_symbol
 _atom_site_label
 _atom_site_symmetry_multiplicity
 _atom_site_fract_x
 _atom_site_fract_y
 _atom_site_fract_z
 _atom_site_occupancy
  Te  Te0  1  0.66664828  0.33329556  0.04258956  1
  Te  Te1  1  0.66663711  0.33327322  0.14523861  1
  Mo  Mo2  1  0.33331265  0.66662531  0.09389983  1
  Mo  Mo3  1  0.33331266  0.66662533  0.46965202  1
  Mo  Mo4  1  0.66669830  0.33339661  0.28180920  1
  W  W5  1  0.66668944  0.33337889  0.65754282  1
  Se  Se6  1  0.66664589  0.33329078  0.42465330  1
  Se  Se7  1  0.66664437  0.33328774  0.51467591  1
  S  S8  1  0.33334660  0.66669420  0.32283903  1
  S  S9  1  0.33335572  0.66671243  0.69866137  1
  S  S10  1  0.33335153  0.66670406  0.24077071  1
  S  S11  1  0.33335744  0.66671588  0.61641564  1
