# generated using pymatgen
data_Te2MoW3(SeS2)2
_symmetry_space_group_name_H-M   'P 1'
_cell_length_a   3.30462985
_cell_length_b   3.30463387
_cell_length_c   38.44863108
_cell_angle_alpha   90.00580407
_cell_angle_beta   90.00000000
_cell_angle_gamma   119.99995990
_symmetry_Int_Tables_number   1
_chemical_formula_structural   Te2MoW3(SeS2)2
_chemical_formula_sum   'Te2 Mo1 W3 Se2 S4'
_cell_volume   363.62845174
_cell_formula_units_Z   1
loop_
 _symmetry_equiv_pos_site_id
 _symmetry_equiv_pos_as_xyz
  1  'x, y, z'
loop_
 _atom_site_type_symbol
 _atom_site_label
 _atom_site_symmetry_multiplicity
 _atom_site_fract_x
 _atom_site_fract_y
 _atom_site_fract_z
 _atom_site_occupancy
  Te  Te0  1  0.66660498  0.33320895  0.04299525  1
  Te  Te1  1  0.66667197  0.33334294  0.14246091  1
  Mo  Mo2  1  0.33329955  0.66659909  0.09272044  1
  W  W3  1  0.33328476  0.66656951  0.46980202  1
  W  W4  1  0.66672438  0.33344877  0.28274707  1
  W  W5  1  0.66669145  0.33338289  0.65765538  1
  Se  Se6  1  0.33342615  0.66685330  0.32665232  1
  Se  Se7  1  0.33335231  0.66670561  0.23880913  1
  S  S8  1  0.33337770  0.66675641  0.69754859  1
  S  S9  1  0.66658497  0.33316895  0.42989496  1
  S  S10  1  0.66664183  0.33328266  0.50970338  1
  S  S11  1  0.33333995  0.66668091  0.61775854  1
