# generated using pymatgen
data_PN3OF2
_symmetry_space_group_name_H-M   'P 1'
_cell_length_a   6.04127607
_cell_length_b   6.08855438
_cell_length_c   13.15142515
_cell_angle_alpha   97.12968152
_cell_angle_beta   91.21658155
_cell_angle_gamma   90.10794520
_symmetry_Int_Tables_number   1
_chemical_formula_structural   PN3OF2
_chemical_formula_sum   'P4 N12 O4 F8'
_cell_volume   479.89050927
_cell_formula_units_Z   4
loop_
 _symmetry_equiv_pos_site_id
 _symmetry_equiv_pos_as_xyz
  1  'x, y, z'
loop_
 _atom_site_type_symbol
 _atom_site_label
 _atom_site_symmetry_multiplicity
 _atom_site_fract_x
 _atom_site_fract_y
 _atom_site_fract_z
 _atom_site_occupancy
  P  P0  1  0.74295873  0.88054435  0.90300275  1
  P  P1  1  0.25704127  0.11945565  0.09699725  1
  P  P2  1  0.67501533  0.22741228  0.42368858  1
  P  P3  1  0.32498467  0.77258772  0.57631142  1
  N  N4  1  0.74643528  0.64680442  0.95663476  1
  N  N5  1  0.25356472  0.35319558  0.04336524  1
  N  N6  1  0.75421594  0.65408977  0.05123572  1
  N  N7  1  0.24578406  0.34591023  0.94876428  1
  N  N8  1  0.76134945  0.64099193  0.13696524  1
  N  N9  1  0.23865055  0.35900807  0.86303476  1
  N  N10  1  0.85176478  0.25716764  0.52313496  1
  N  N11  1  0.14823522  0.74283236  0.47686504  1
  N  N12  1  0.78403622  0.28186554  0.61182655  1
  N  N13  1  0.21596378  0.71813446  0.38817345  1
  N  N14  1  0.74168232  0.30591147  0.69661333  1
  N  N15  1  0.25831768  0.69408853  0.30338667  1
  O  O16  1  0.74909614  0.09539055  0.96668636  1
  O  O17  1  0.25090386  0.90460945  0.03331364  1
  O  O18  1  0.43609717  0.23182638  0.43977822  1
  O  O19  1  0.56390283  0.76817362  0.56022178  1
  F  F20  1  0.93212314  0.84250569  0.82415522  1
  F  F21  1  0.06787686  0.15749431  0.17584478  1
  F  F22  1  0.53991120  0.84487468  0.82767072  1
  F  F23  1  0.46008880  0.15512532  0.17232928  1
  F  F24  1  0.76205000  0.40348492  0.35774774  1
  F  F25  1  0.23795000  0.59651508  0.64225226  1
  F  F26  1  0.76142116  0.01475067  0.35844964  1
  F  F27  1  0.23857884  0.98524933  0.64155036  1
