# generated using pymatgen
data_TeMoWSeS2
_symmetry_space_group_name_H-M   'P 1'
_cell_length_a   3.30496080
_cell_length_b   3.30497662
_cell_length_c   38.72702798
_cell_angle_alpha   90.00449970
_cell_angle_beta   90.00000000
_cell_angle_gamma   119.99984171
_symmetry_Int_Tables_number   1
_chemical_formula_structural   TeMoWSeS2
_chemical_formula_sum   'Te2 Mo2 W2 Se2 S4'
_cell_volume   366.33650314
_cell_formula_units_Z   2
loop_
 _symmetry_equiv_pos_site_id
 _symmetry_equiv_pos_as_xyz
  1  'x, y, z'
loop_
 _atom_site_type_symbol
 _atom_site_label
 _atom_site_symmetry_multiplicity
 _atom_site_fract_x
 _atom_site_fract_y
 _atom_site_fract_z
 _atom_site_occupancy
  Te  Te0  1  0.33332763  0.66665627  0.33162172  1
  Te  Te1  1  0.33329139  0.66658378  0.23273829  1
  Mo  Mo2  1  0.33333588  0.66667176  0.09304461  1
  Mo  Mo3  1  0.66664375  0.33328750  0.28218585  1
  W  W4  1  0.33328111  0.66656221  0.47006803  1
  W  W5  1  0.66673857  0.33347713  0.65762058  1
  Se  Se6  1  0.66665450  0.33330800  0.04962117  1
  Se  Se7  1  0.66668875  0.33337651  0.13649459  1
  S  S8  1  0.33344758  0.66689616  0.69728716  1
  S  S9  1  0.66658366  0.33316631  0.43039458  1
  S  S10  1  0.66664941  0.33329782  0.50971869  1
  S  S11  1  0.33335777  0.66671654  0.61795273  1
