# generated using pymatgen
data_Te2Mo3W(SeS2)2
_symmetry_space_group_name_H-M   'P 1'
_cell_length_a   3.30513948
_cell_length_b   3.30525334
_cell_length_c   38.98548217
_cell_angle_alpha   89.99930224
_cell_angle_beta   90.00000000
_cell_angle_gamma   119.99886044
_symmetry_Int_Tables_number   1
_chemical_formula_structural   Te2Mo3W(SeS2)2
_chemical_formula_sum   'Te2 Mo3 W1 Se2 S4'
_cell_volume   368.83580470
_cell_formula_units_Z   1
loop_
 _symmetry_equiv_pos_site_id
 _symmetry_equiv_pos_as_xyz
  1  'x, y, z'
loop_
 _atom_site_type_symbol
 _atom_site_label
 _atom_site_symmetry_multiplicity
 _atom_site_fract_x
 _atom_site_fract_y
 _atom_site_fract_z
 _atom_site_occupancy
  Te  Te0  1  0.33332906  0.66665911  0.33148580  1
  Te  Te1  1  0.33334755  0.66669610  0.23345357  1
  Mo  Mo2  1  0.33336342  0.66672684  0.09290425  1
  Mo  Mo3  1  0.33333916  0.66667832  0.47003364  1
  Mo  Mo4  1  0.66665744  0.33331487  0.28245549  1
  W  W5  1  0.66664868  0.33329736  0.65751612  1
  Se  Se6  1  0.66667755  0.33335410  0.04982734  1
  Se  Se7  1  0.66665440  0.33330780  0.13600048  1
  S  S8  1  0.33334488  0.66669076  0.69687843  1
  S  S9  1  0.66664707  0.33329315  0.43084939  1
  S  S10  1  0.66663794  0.33327488  0.50918088  1
  S  S11  1  0.33335285  0.66670670  0.61816260  1
