# generated using pymatgen
data_Te2Mo3W(SeS2)2
_symmetry_space_group_name_H-M   'P 1'
_cell_length_a   3.30723194
_cell_length_b   3.30722247
_cell_length_c   37.57466296
_cell_angle_alpha   90.00024217
_cell_angle_beta   90.00000000
_cell_angle_gamma   120.00009473
_symmetry_Int_Tables_number   1
_chemical_formula_structural   Te2Mo3W(SeS2)2
_chemical_formula_sum   'Te2 Mo3 W1 Se2 S4'
_cell_volume   355.92080437
_cell_formula_units_Z   1
loop_
 _symmetry_equiv_pos_site_id
 _symmetry_equiv_pos_as_xyz
  1  'x, y, z'
loop_
 _atom_site_type_symbol
 _atom_site_label
 _atom_site_symmetry_multiplicity
 _atom_site_fract_x
 _atom_site_fract_y
 _atom_site_fract_z
 _atom_site_occupancy
  Te  Te0  1  0.33335137  0.66670374  0.70838262  1
  Te  Te1  1  0.33335127  0.66670354  0.60669639  1
  Mo  Mo2  1  0.33330967  0.66661933  0.09390545  1
  Mo  Mo3  1  0.33331487  0.66662975  0.46966686  1
  Mo  Mo4  1  0.66668971  0.33337943  0.65755774  1
  W  W5  1  0.66669208  0.33338415  0.28180279  1
  Se  Se6  1  0.66664667  0.33329234  0.04926266  1
  Se  Se7  1  0.66664741  0.33329382  0.13857909  1
  S  S8  1  0.33335206  0.66670512  0.32261838  1
  S  S9  1  0.66664341  0.33328582  0.42894895  1
  S  S10  1  0.66664592  0.33329084  0.51035304  1
  S  S11  1  0.33335557  0.66671213  0.24097402  1
