# generated using pymatgen
data_SnPNO4
_symmetry_space_group_name_H-M   'P 1'
_cell_length_a   5.18340272
_cell_length_b   8.89079510
_cell_length_c   8.86201759
_cell_angle_alpha   90.00000000
_cell_angle_beta   90.00000000
_cell_angle_gamma   104.43796182
_symmetry_Int_Tables_number   1
_chemical_formula_structural   SnPNO4
_chemical_formula_sum   'Sn4 P4 N4 O16'
_cell_volume   395.50419455
_cell_formula_units_Z   4
loop_
 _symmetry_equiv_pos_site_id
 _symmetry_equiv_pos_as_xyz
  1  'x, y, z'
loop_
 _atom_site_type_symbol
 _atom_site_label
 _atom_site_symmetry_multiplicity
 _atom_site_fract_x
 _atom_site_fract_y
 _atom_site_fract_z
 _atom_site_occupancy
  Sn  Sn0  1  0.80120477  0.49383200  0.74261446  1
  Sn  Sn1  1  0.19879523  0.00616800  0.24261446  1
  Sn  Sn2  1  0.19879523  0.50616800  0.25738554  1
  Sn  Sn3  1  0.80120477  0.99383200  0.75738554  1
  P  P4  1  0.22795318  0.80539457  0.93221775  1
  P  P5  1  0.77204682  0.69460543  0.43221775  1
  P  P6  1  0.77204682  0.19460543  0.06778225  1
  P  P7  1  0.22795318  0.30539457  0.56778225  1
  N  N8  1  0.46757512  0.46071802  0.94854339  1
  N  N9  1  0.53242488  0.03928198  0.44854339  1
  N  N10  1  0.53242488  0.53928198  0.05145661  1
  N  N11  1  0.46757512  0.96071802  0.55145661  1
  O  O12  1  0.11800016  0.93341235  0.85701454  1
  O  O13  1  0.88199984  0.56658765  0.35701454  1
  O  O14  1  0.88199984  0.06658765  0.14298546  1
  O  O15  1  0.11800016  0.43341235  0.64298546  1
  O  O16  1  0.53034142  0.83616589  0.89707639  1
  O  O17  1  0.46965858  0.66383411  0.39707639  1
  O  O18  1  0.46965858  0.16383411  0.10292361  1
  O  O19  1  0.53034142  0.33616589  0.60292361  1
  O  O20  1  0.19634731  0.81015591  0.10897209  1
  O  O21  1  0.80365269  0.68984409  0.60897209  1
  O  O22  1  0.80365269  0.18984409  0.89102791  1
  O  O23  1  0.19634731  0.31015591  0.39102791  1
  O  O24  1  0.08626807  0.63949447  0.88483020  1
  O  O25  1  0.91373193  0.86050553  0.38483020  1
  O  O26  1  0.91373193  0.36050553  0.11516980  1
  O  O27  1  0.08626807  0.13949447  0.61516980  1
