# generated using pymatgen
data_Mg30TiZnO32
_symmetry_space_group_name_H-M   'P 1'
_cell_length_a   8.55110505
_cell_length_b   8.52843783
_cell_length_c   8.52843783
_cell_angle_alpha   90.00000000
_cell_angle_beta   90.00000000
_cell_angle_gamma   90.00000000
_symmetry_Int_Tables_number   1
_chemical_formula_structural   Mg30TiZnO32
_chemical_formula_sum   'Mg30 Ti1 Zn1 O32'
_cell_volume   621.95822805
_cell_formula_units_Z   1
loop_
 _symmetry_equiv_pos_site_id
 _symmetry_equiv_pos_as_xyz
  1  'x, y, z'
loop_
 _atom_site_type_symbol
 _atom_site_label
 _atom_site_symmetry_multiplicity
 _atom_site_fract_x
 _atom_site_fract_y
 _atom_site_fract_z
 _atom_site_occupancy
  Mg  Mg0  1  0.00000000  -0.00000000  0.50000000  1
  Mg  Mg1  1  0.00000000  0.50000000  -0.00000000  1
  Mg  Mg2  1  0.50000000  -0.00000000  -0.00000000  1
  Mg  Mg3  1  0.50000000  -0.00000000  0.50000000  1
  Mg  Mg4  1  0.50000000  0.50000000  -0.00000000  1
  Mg  Mg5  1  0.50000000  0.50000000  0.50000000  1
  Mg  Mg6  1  0.00000000  0.24821356  0.24821356  1
  Mg  Mg7  1  0.00000000  0.24821356  0.75178644  1
  Mg  Mg8  1  0.00000000  0.75178644  0.24821356  1
  Mg  Mg9  1  0.00000000  0.75178644  0.75178644  1
  Mg  Mg10  1  0.50000000  0.25010563  0.25010563  1
  Mg  Mg11  1  0.50000000  0.25010563  0.74989437  1
  Mg  Mg12  1  0.50000000  0.74989437  0.25010563  1
  Mg  Mg13  1  0.50000000  0.74989437  0.74989437  1
  Mg  Mg14  1  0.25026879  -0.00000000  0.25012167  1
  Mg  Mg15  1  0.25026879  -0.00000000  0.74987833  1
  Mg  Mg16  1  0.25110440  0.50000000  0.25012115  1
  Mg  Mg17  1  0.25110440  0.50000000  0.74987885  1
  Mg  Mg18  1  0.74973121  -0.00000000  0.25012167  1
  Mg  Mg19  1  0.74973121  -0.00000000  0.74987833  1
  Mg  Mg20  1  0.74889560  0.50000000  0.25012115  1
  Mg  Mg21  1  0.74889560  0.50000000  0.74987885  1
  Mg  Mg22  1  0.25026879  0.25012167  -0.00000000  1
  Mg  Mg23  1  0.25110440  0.25012115  0.50000000  1
  Mg  Mg24  1  0.25026879  0.74987833  -0.00000000  1
  Mg  Mg25  1  0.25110440  0.74987885  0.50000000  1
  Mg  Mg26  1  0.74973121  0.25012167  -0.00000000  1
  Mg  Mg27  1  0.74889560  0.25012115  0.50000000  1
  Mg  Mg28  1  0.74973121  0.74987833  -0.00000000  1
  Mg  Mg29  1  0.74889560  0.74987885  0.50000000  1
  Ti  Ti30  1  0.00000000  0.50000000  0.50000000  1
  Zn  Zn31  1  0.00000000  -0.00000000  -0.00000000  1
  O  O32  1  0.25325396  -0.00000000  -0.00000000  1
  O  O33  1  0.25021496  -0.00000000  0.50000000  1
  O  O34  1  0.25021496  0.50000000  -0.00000000  1
  O  O35  1  0.25928372  0.50000000  0.50000000  1
  O  O36  1  0.74674604  -0.00000000  -0.00000000  1
  O  O37  1  0.74978504  -0.00000000  0.50000000  1
  O  O38  1  0.74978504  0.50000000  -0.00000000  1
  O  O39  1  0.74071628  0.50000000  0.50000000  1
  O  O40  1  0.24924190  0.24999273  0.24999273  1
  O  O41  1  0.24924190  0.24999273  0.75000727  1
  O  O42  1  0.24924190  0.75000727  0.24999273  1
  O  O43  1  0.24924190  0.75000727  0.75000727  1
  O  O44  1  0.75075810  0.24999273  0.24999273  1
  O  O45  1  0.75075810  0.24999273  0.75000727  1
  O  O46  1  0.75075810  0.75000727  0.24999273  1
  O  O47  1  0.75075810  0.75000727  0.75000727  1
  O  O48  1  0.00000000  -0.00000000  0.25339411  1
  O  O49  1  0.00000000  -0.00000000  0.74660589  1
  O  O50  1  0.00000000  0.50000000  0.24699175  1
  O  O51  1  0.00000000  0.50000000  0.75300825  1
  O  O52  1  0.50000000  -0.00000000  0.25004382  1
  O  O53  1  0.50000000  -0.00000000  0.74995618  1
  O  O54  1  0.50000000  0.50000000  0.24895629  1
  O  O55  1  0.50000000  0.50000000  0.75104371  1
  O  O56  1  0.00000000  0.25339411  -0.00000000  1
  O  O57  1  0.00000000  0.24699175  0.50000000  1
  O  O58  1  0.00000000  0.74660589  -0.00000000  1
  O  O59  1  0.00000000  0.75300825  0.50000000  1
  O  O60  1  0.50000000  0.25004382  -0.00000000  1
  O  O61  1  0.50000000  0.24895629  0.50000000  1
  O  O62  1  0.50000000  0.74995618  -0.00000000  1
  O  O63  1  0.50000000  0.75104371  0.50000000  1
