# generated using pymatgen
data_Ce2Mg
_symmetry_space_group_name_H-M   'P 1'
_cell_length_a   9.58477970
_cell_length_b   6.21909968
_cell_length_c   6.15415978
_cell_angle_alpha   90.00000000
_cell_angle_beta   120.03879889
_cell_angle_gamma   90.00000000
_symmetry_Int_Tables_number   1
_chemical_formula_structural   Ce2Mg
_chemical_formula_sum   'Ce8 Mg4'
_cell_volume   317.56974929
_cell_formula_units_Z   4
loop_
 _symmetry_equiv_pos_site_id
 _symmetry_equiv_pos_as_xyz
  1  'x, y, z'
loop_
 _atom_site_type_symbol
 _atom_site_label
 _atom_site_symmetry_multiplicity
 _atom_site_fract_x
 _atom_site_fract_y
 _atom_site_fract_z
 _atom_site_occupancy
  Ce  Ce0  1  0.14688630  0.59211911  0.76708763  1
  Ce  Ce1  1  0.35311370  0.09211911  0.73291237  1
  Ce  Ce2  1  0.14688630  0.40788089  0.26708763  1
  Ce  Ce3  1  0.35311370  0.90788089  0.23291237  1
  Ce  Ce4  1  0.64688630  0.09211911  0.76708763  1
  Ce  Ce5  1  0.85311370  0.59211911  0.73291237  1
  Ce  Ce6  1  0.64688630  0.90788089  0.26708763  1
  Ce  Ce7  1  0.85311370  0.40788089  0.23291237  1
  Mg  Mg8  1  0.50000000  0.40634778  0.25000000  1
  Mg  Mg9  1  0.00000000  0.09365222  0.75000000  1
  Mg  Mg10  1  0.00000000  0.90634778  0.25000000  1
  Mg  Mg11  1  0.50000000  0.59365222  0.75000000  1
