# generated using pymatgen
data_MgAl2(PO5)2
_symmetry_space_group_name_H-M   'P 1'
_cell_length_a   7.15727950
_cell_length_b   7.26898577
_cell_length_c   7.49956547
_cell_angle_alpha   90.00000000
_cell_angle_beta   90.00000000
_cell_angle_gamma   121.13608393
_symmetry_Int_Tables_number   1
_chemical_formula_structural   MgAl2(PO5)2
_chemical_formula_sum   'Mg2 Al4 P4 O20'
_cell_volume   333.96583178
_cell_formula_units_Z   2
loop_
 _symmetry_equiv_pos_site_id
 _symmetry_equiv_pos_as_xyz
  1  'x, y, z'
loop_
 _atom_site_type_symbol
 _atom_site_label
 _atom_site_symmetry_multiplicity
 _atom_site_fract_x
 _atom_site_fract_y
 _atom_site_fract_z
 _atom_site_occupancy
  Mg  Mg0  1  0.50000000  0.50000000  0.50000000  1
  Mg  Mg1  1  0.00000000  0.00000000  -0.00000000  1
  Al  Al2  1  0.49496155  0.22732190  0.76771184  1
  Al  Al3  1  0.00503845  0.27267810  0.26771184  1
  Al  Al4  1  0.50503845  0.77267810  0.23228816  1
  Al  Al5  1  0.99496155  0.72732190  0.73228816  1
  P  P6  1  0.75726285  0.00884184  0.61434699  1
  P  P7  1  0.74273715  0.49115816  0.11434699  1
  P  P8  1  0.24273715  0.99115816  0.38565301  1
  P  P9  1  0.25726285  0.50884184  0.88565301  1
  O  O10  1  0.60073918  0.81757973  0.49081267  1
  O  O11  1  0.89926082  0.68242027  0.99081267  1
  O  O12  1  0.39926082  0.18242027  0.50918733  1
  O  O13  1  0.10073918  0.31757973  0.00918733  1
  O  O14  1  0.92971382  0.19572424  0.50361256  1
  O  O15  1  0.57028618  0.30427576  0.00361256  1
  O  O16  1  0.07028618  0.80427576  0.49638744  1
  O  O17  1  0.42971382  0.69572424  0.99638744  1
  O  O18  1  0.36583408  0.41930272  0.75646537  1
  O  O19  1  0.13416592  0.08069728  0.25646537  1
  O  O20  1  0.63416592  0.58069728  0.24353463  1
  O  O21  1  0.86583408  0.91930272  0.74353463  1
  O  O22  1  0.13286298  0.57776090  0.76511367  1
  O  O23  1  0.36713702  0.92223910  0.26511367  1
  O  O24  1  0.86713702  0.42223910  0.23488633  1
  O  O25  1  0.63286298  0.07776090  0.73488633  1
  O  O26  1  0.72210461  0.49295771  0.67219738  1
  O  O27  1  0.77789539  0.00704229  0.17219738  1
  O  O28  1  0.27789539  0.50704229  0.32780262  1
  O  O29  1  0.22210461  0.99295771  0.82780262  1
