# generated using pymatgen
data_CaMg5
_symmetry_space_group_name_H-M   'P 1'
_cell_length_a   12.70741240
_cell_length_b   3.30674261
_cell_length_c   7.57987089
_cell_angle_alpha   90.00000000
_cell_angle_beta   104.25960125
_cell_angle_gamma   90.00000000
_symmetry_Int_Tables_number   1
_chemical_formula_structural   CaMg5
_chemical_formula_sum   'Ca2 Mg10'
_cell_volume   308.69393084
_cell_formula_units_Z   2
loop_
 _symmetry_equiv_pos_site_id
 _symmetry_equiv_pos_as_xyz
  1  'x, y, z'
loop_
 _atom_site_type_symbol
 _atom_site_label
 _atom_site_symmetry_multiplicity
 _atom_site_fract_x
 _atom_site_fract_y
 _atom_site_fract_z
 _atom_site_occupancy
  Ca  Ca0  1  0.38666018  -0.00000000  0.27230243  1
  Ca  Ca1  1  0.88666018  0.50000000  0.27230243  1
  Mg  Mg2  1  0.00756594  0.00000000  0.99093182  1
  Mg  Mg3  1  0.16197168  0.50000000  0.33807764  1
  Mg  Mg4  1  0.06317393  0.00000000  0.61890893  1
  Mg  Mg5  1  0.33328884  0.00000000  0.67793833  1
  Mg  Mg6  1  0.21400643  0.50000000  0.93517385  1
  Mg  Mg7  1  0.50756594  0.50000000  0.99093182  1
  Mg  Mg8  1  0.66197168  -0.00000000  0.33807764  1
  Mg  Mg9  1  0.56317393  0.50000000  0.61890893  1
  Mg  Mg10  1  0.83328884  0.50000000  0.67793833  1
  Mg  Mg11  1  0.71400643  -0.00000000  0.93517385  1
