# generated using pymatgen
data_Mg30TiFeO32
_symmetry_space_group_name_H-M   'P 1'
_cell_length_a   8.54833310
_cell_length_b   8.54317031
_cell_length_c   8.54317031
_cell_angle_alpha   90.00000000
_cell_angle_beta   90.00000000
_cell_angle_gamma   90.00000000
_symmetry_Int_Tables_number   1
_chemical_formula_structural   Mg30TiFeO32
_chemical_formula_sum   'Mg30 Ti1 Fe1 O32'
_cell_volume   623.90657902
_cell_formula_units_Z   1
loop_
 _symmetry_equiv_pos_site_id
 _symmetry_equiv_pos_as_xyz
  1  'x, y, z'
loop_
 _atom_site_type_symbol
 _atom_site_label
 _atom_site_symmetry_multiplicity
 _atom_site_fract_x
 _atom_site_fract_y
 _atom_site_fract_z
 _atom_site_occupancy
  Mg  Mg0  1  0.00000000  0.00000000  0.50000000  1
  Mg  Mg1  1  0.00000000  0.50000000  0.00000000  1
  Mg  Mg2  1  0.50000000  0.00000000  0.00000000  1
  Mg  Mg3  1  0.50000000  0.00000000  0.50000000  1
  Mg  Mg4  1  0.50000000  0.50000000  0.00000000  1
  Mg  Mg5  1  0.50000000  0.50000000  0.50000000  1
  Mg  Mg6  1  0.00000000  0.24786037  0.24786037  1
  Mg  Mg7  1  0.00000000  0.24786037  0.75213963  1
  Mg  Mg8  1  0.00000000  0.75213963  0.24786037  1
  Mg  Mg9  1  0.00000000  0.75213963  0.75213963  1
  Mg  Mg10  1  0.50000000  0.25004512  0.25004512  1
  Mg  Mg11  1  0.50000000  0.25004512  0.74995488  1
  Mg  Mg12  1  0.50000000  0.74995488  0.25004512  1
  Mg  Mg13  1  0.50000000  0.74995488  0.74995488  1
  Mg  Mg14  1  0.25063110  0.00000000  0.25142812  1
  Mg  Mg15  1  0.25063110  0.00000000  0.74857188  1
  Mg  Mg16  1  0.25085459  0.50000000  0.25027223  1
  Mg  Mg17  1  0.25085459  0.50000000  0.74972777  1
  Mg  Mg18  1  0.74936890  0.00000000  0.25142812  1
  Mg  Mg19  1  0.74936890  0.00000000  0.74857188  1
  Mg  Mg20  1  0.74914541  0.50000000  0.25027223  1
  Mg  Mg21  1  0.74914541  0.50000000  0.74972777  1
  Mg  Mg22  1  0.25063110  0.25142812  0.00000000  1
  Mg  Mg23  1  0.25085459  0.25027223  0.50000000  1
  Mg  Mg24  1  0.25063110  0.74857188  0.00000000  1
  Mg  Mg25  1  0.25085459  0.74972777  0.50000000  1
  Mg  Mg26  1  0.74936890  0.25142812  0.00000000  1
  Mg  Mg27  1  0.74914541  0.25027223  0.50000000  1
  Mg  Mg28  1  0.74936890  0.74857188  0.00000000  1
  Mg  Mg29  1  0.74914541  0.74972777  0.50000000  1
  Ti  Ti30  1  0.00000000  0.50000000  0.50000000  1
  Fe  Fe31  1  0.00000000  0.00000000  0.00000000  1
  O  O32  1  0.25016185  0.00000000  0.00000000  1
  O  O33  1  0.25095430  0.00000000  0.50000000  1
  O  O34  1  0.25095430  0.50000000  0.00000000  1
  O  O35  1  0.25972525  0.50000000  0.50000000  1
  O  O36  1  0.74983815  0.00000000  0.00000000  1
  O  O37  1  0.74904570  0.00000000  0.50000000  1
  O  O38  1  0.74904570  0.50000000  0.00000000  1
  O  O39  1  0.74027475  0.50000000  0.50000000  1
  O  O40  1  0.24953393  0.24964986  0.24964986  1
  O  O41  1  0.24953393  0.24964986  0.75035014  1
  O  O42  1  0.24953393  0.75035014  0.24964986  1
  O  O43  1  0.24953393  0.75035014  0.75035014  1
  O  O44  1  0.75046607  0.24964986  0.24964986  1
  O  O45  1  0.75046607  0.24964986  0.75035014  1
  O  O46  1  0.75046607  0.75035014  0.24964986  1
  O  O47  1  0.75046607  0.75035014  0.75035014  1
  O  O48  1  0.00000000  0.00000000  0.25608729  1
  O  O49  1  0.00000000  0.00000000  0.74391271  1
  O  O50  1  0.00000000  0.50000000  0.24772144  1
  O  O51  1  0.00000000  0.50000000  0.75227856  1
  O  O52  1  0.50000000  0.00000000  0.24928493  1
  O  O53  1  0.50000000  0.00000000  0.75071507  1
  O  O54  1  0.50000000  0.50000000  0.24847694  1
  O  O55  1  0.50000000  0.50000000  0.75152306  1
  O  O56  1  0.00000000  0.25608729  0.00000000  1
  O  O57  1  0.00000000  0.24772144  0.50000000  1
  O  O58  1  0.00000000  0.74391271  0.00000000  1
  O  O59  1  0.00000000  0.75227856  0.50000000  1
  O  O60  1  0.50000000  0.24928493  0.00000000  1
  O  O61  1  0.50000000  0.24847694  0.50000000  1
  O  O62  1  0.50000000  0.75071507  0.00000000  1
  O  O63  1  0.50000000  0.75152306  0.50000000  1
