# generated using pymatgen
data_ZnCr2(PO4)2
_symmetry_space_group_name_H-M   'P 1'
_cell_length_a   5.10731044
_cell_length_b   9.39165505
_cell_length_c   14.22393883
_cell_angle_alpha   84.74118865
_cell_angle_beta   79.65749298
_cell_angle_gamma   74.22223411
_symmetry_Int_Tables_number   1
_chemical_formula_structural   ZnCr2(PO4)2
_chemical_formula_sum   'Zn4 Cr8 P8 O32'
_cell_volume   645.23210880
_cell_formula_units_Z   4
loop_
 _symmetry_equiv_pos_site_id
 _symmetry_equiv_pos_as_xyz
  1  'x, y, z'
loop_
 _atom_site_type_symbol
 _atom_site_label
 _atom_site_symmetry_multiplicity
 _atom_site_fract_x
 _atom_site_fract_y
 _atom_site_fract_z
 _atom_site_occupancy
  Zn  Zn0  1  0.42866008  0.86142590  0.87384521  1
  Zn  Zn1  1  0.16393119  0.63857410  0.62615479  1
  Zn  Zn2  1  0.83606881  0.36142590  0.37384521  1
  Zn  Zn3  1  0.57133992  0.13857410  0.12615479  1
  Cr  Cr4  1  0.15660280  0.23563970  0.97071535  1
  Cr  Cr5  1  0.36295685  0.26436030  0.52928465  1
  Cr  Cr6  1  0.84339720  0.76436030  0.02928465  1
  Cr  Cr7  1  0.50000000  0.50000000  -0.00000000  1
  Cr  Cr8  1  0.63704315  0.73563970  0.47071535  1
  Cr  Cr9  1  0.69049864  0.75000000  0.25000000  1
  Cr  Cr10  1  0.30950136  0.25000000  0.75000000  1
  Cr  Cr11  1  0.00000000  -0.00000000  0.50000000  1
  P  P12  1  0.06604504  0.56635676  0.85765364  1
  P  P13  1  0.77027753  0.42562154  0.60657736  1
  P  P14  1  0.93395496  0.43364324  0.14234636  1
  P  P15  1  0.19752257  0.92562154  0.10657736  1
  P  P16  1  0.50994555  0.06635676  0.35765364  1
  P  P17  1  0.49005445  0.93364324  0.64234636  1
  P  P18  1  0.22972247  0.57437846  0.39342264  1
  P  P19  1  0.80247743  0.07437846  0.89342264  1
  O  O20  1  0.70171053  0.38654447  0.10666253  1
  O  O21  1  0.78141908  0.91084471  0.91633358  1
  O  O22  1  0.80508246  0.88654447  0.60666253  1
  O  O23  1  0.81942085  0.32406202  0.51982890  1
  O  O24  1  0.19683036  0.39033120  0.06193581  1
  O  O25  1  0.60298093  0.37277340  0.69424626  1
  O  O26  1  0.66331276  0.17593798  0.98017110  1
  O  O27  1  0.88254026  0.92289300  0.12155435  1
  O  O28  1  0.18057915  0.67593798  0.48017110  1
  O  O29  1  0.60859737  0.58915529  0.58366642  1
  O  O30  1  0.86715217  0.60771533  0.14291128  1
  O  O31  1  0.58963877  0.14189268  0.26175538  1
  O  O32  1  0.21858092  0.08915529  0.08366642  1
  O  O33  1  0.07301340  0.42289300  0.62155435  1
  O  O34  1  0.29828847  0.61345553  0.89333747  1
  O  O35  1  0.13284783  0.39228467  0.85708872  1
  O  O36  1  0.00671317  0.64189268  0.76175538  1
  O  O37  1  0.33668724  0.82406202  0.01982890  1
  O  O38  1  0.38222122  0.10771533  0.64291128  1
  O  O39  1  0.41036123  0.85810732  0.73824462  1
  O  O40  1  0.92698660  0.57710700  0.37844565  1
  O  O41  1  0.35090263  0.89033120  0.56193581  1
  O  O42  1  0.11745974  0.07710700  0.87844565  1
  O  O43  1  0.32999941  0.87277340  0.19424626  1
  O  O44  1  0.39140263  0.41084471  0.41633358  1
  O  O45  1  0.19491754  0.11345553  0.39333747  1
  O  O46  1  0.99328683  0.35810732  0.23824462  1
  O  O47  1  0.64909737  0.10966880  0.43806419  1
  O  O48  1  0.80316964  0.60966880  0.93806419  1
  O  O49  1  0.67000059  0.12722660  0.80575374  1
  O  O50  1  0.39701907  0.62722660  0.30575374  1
  O  O51  1  0.61777878  0.89228467  0.35708872  1
