# generated using pymatgen
data_CaMg
_symmetry_space_group_name_H-M   'P 1'
_cell_length_a   13.72818398
_cell_length_b   3.58389129
_cell_length_c   8.05083824
_cell_angle_alpha   90.00000000
_cell_angle_beta   104.69919110
_cell_angle_gamma   90.00000000
_symmetry_Int_Tables_number   1
_chemical_formula_structural   CaMg
_chemical_formula_sum   'Ca6 Mg6'
_cell_volume   383.13986092
_cell_formula_units_Z   6
loop_
 _symmetry_equiv_pos_site_id
 _symmetry_equiv_pos_as_xyz
  1  'x, y, z'
loop_
 _atom_site_type_symbol
 _atom_site_label
 _atom_site_symmetry_multiplicity
 _atom_site_fract_x
 _atom_site_fract_y
 _atom_site_fract_z
 _atom_site_occupancy
  Ca  Ca0  1  0.39727465  0.00000000  0.27635577  1
  Ca  Ca1  1  0.16582200  0.50000000  0.36004913  1
  Ca  Ca2  1  0.21198562  0.50000000  0.91172853  1
  Ca  Ca3  1  0.89727465  0.50000000  0.27635577  1
  Ca  Ca4  1  0.66582200  -0.00000000  0.36004913  1
  Ca  Ca5  1  0.71198562  0.00000000  0.91172853  1
  Mg  Mg6  1  0.50013372  0.50000000  0.99133968  1
  Mg  Mg7  1  0.04094024  -0.00000000  0.61553368  1
  Mg  Mg8  1  0.35051077  -0.00000000  0.67832621  1
  Mg  Mg9  1  0.00013372  0.00000000  0.99133968  1
  Mg  Mg10  1  0.54094024  0.50000000  0.61553368  1
  Mg  Mg11  1  0.85051077  0.50000000  0.67832621  1
