# generated using pymatgen
data_NaCeMg30O32
_symmetry_space_group_name_H-M   'P 1'
_cell_length_a   8.61600852
_cell_length_b   8.61600852
_cell_length_c   8.64887602
_cell_angle_alpha   90.00000000
_cell_angle_beta   90.00000000
_cell_angle_gamma   90.00000000
_symmetry_Int_Tables_number   1
_chemical_formula_structural   NaCeMg30O32
_chemical_formula_sum   'Na1 Ce1 Mg30 O32'
_cell_volume   642.05452503
_cell_formula_units_Z   1
loop_
 _symmetry_equiv_pos_site_id
 _symmetry_equiv_pos_as_xyz
  1  'x, y, z'
loop_
 _atom_site_type_symbol
 _atom_site_label
 _atom_site_symmetry_multiplicity
 _atom_site_fract_x
 _atom_site_fract_y
 _atom_site_fract_z
 _atom_site_occupancy
  Na  Na0  1  -0.00000000  0.00000000  0.50000000  1
  Ce  Ce1  1  -0.00000000  -0.00000000  -0.00000000  1
  Mg  Mg2  1  -0.00000000  0.50000000  0.00000000  1
  Mg  Mg3  1  -0.00000000  0.50000000  0.50000000  1
  Mg  Mg4  1  0.50000000  0.00000000  0.00000000  1
  Mg  Mg5  1  0.50000000  0.00000000  0.50000000  1
  Mg  Mg6  1  0.50000000  0.50000000  -0.00000000  1
  Mg  Mg7  1  0.50000000  0.50000000  0.50000000  1
  Mg  Mg8  1  -0.00000000  0.25644865  0.25990216  1
  Mg  Mg9  1  -0.00000000  0.25644865  0.74009784  1
  Mg  Mg10  1  -0.00000000  0.74355135  0.25990216  1
  Mg  Mg11  1  -0.00000000  0.74355135  0.74009784  1
  Mg  Mg12  1  0.50000000  0.25027306  0.25158401  1
  Mg  Mg13  1  0.50000000  0.25027306  0.74841599  1
  Mg  Mg14  1  0.50000000  0.74972694  0.25158401  1
  Mg  Mg15  1  0.50000000  0.74972694  0.74841599  1
  Mg  Mg16  1  0.25644865  -0.00000000  0.25990216  1
  Mg  Mg17  1  0.25644865  0.00000000  0.74009784  1
  Mg  Mg18  1  0.25027306  0.50000000  0.25158401  1
  Mg  Mg19  1  0.25027306  0.50000000  0.74841599  1
  Mg  Mg20  1  0.74355135  -0.00000000  0.25990216  1
  Mg  Mg21  1  0.74355135  0.00000000  0.74009784  1
  Mg  Mg22  1  0.74972694  0.50000000  0.25158401  1
  Mg  Mg23  1  0.74972694  0.50000000  0.74841599  1
  Mg  Mg24  1  0.25741855  0.25741855  0.00000000  1
  Mg  Mg25  1  0.24934702  0.24934702  0.50000000  1
  Mg  Mg26  1  0.25741855  0.74258145  -0.00000000  1
  Mg  Mg27  1  0.24934702  0.75065298  0.50000000  1
  Mg  Mg28  1  0.74258145  0.25741855  0.00000000  1
  Mg  Mg29  1  0.75065298  0.24934702  0.50000000  1
  Mg  Mg30  1  0.74258145  0.74258145  0.00000000  1
  Mg  Mg31  1  0.75065298  0.75065298  0.50000000  1
  O  O32  1  0.26582695  -0.00000000  -0.00000000  1
  O  O33  1  0.26493906  0.00000000  0.50000000  1
  O  O34  1  0.25267765  0.50000000  0.00000000  1
  O  O35  1  0.25223157  0.50000000  0.50000000  1
  O  O36  1  0.73417305  0.00000000  0.00000000  1
  O  O37  1  0.73506094  0.00000000  0.50000000  1
  O  O38  1  0.74732235  0.50000000  -0.00000000  1
  O  O39  1  0.74776843  0.50000000  0.50000000  1
  O  O40  1  0.24915099  0.24915099  0.24871967  1
  O  O41  1  0.24915099  0.24915099  0.75128033  1
  O  O42  1  0.24915099  0.75084901  0.24871967  1
  O  O43  1  0.24915099  0.75084901  0.75128033  1
  O  O44  1  0.75084901  0.24915099  0.24871967  1
  O  O45  1  0.75084901  0.24915099  0.75128033  1
  O  O46  1  0.75084901  0.75084901  0.24871967  1
  O  O47  1  0.75084901  0.75084901  0.75128033  1
  O  O48  1  -0.00000000  0.00000000  0.25479462  1
  O  O49  1  -0.00000000  -0.00000000  0.74520538  1
  O  O50  1  -0.00000000  0.50000000  0.24948326  1
  O  O51  1  -0.00000000  0.50000000  0.75051674  1
  O  O52  1  0.50000000  -0.00000000  0.24948326  1
  O  O53  1  0.50000000  0.00000000  0.75051674  1
  O  O54  1  0.50000000  0.50000000  0.24900392  1
  O  O55  1  0.50000000  0.50000000  0.75099608  1
  O  O56  1  -0.00000000  0.26582695  -0.00000000  1
  O  O57  1  -0.00000000  0.26493906  0.50000000  1
  O  O58  1  -0.00000000  0.73417305  -0.00000000  1
  O  O59  1  -0.00000000  0.73506094  0.50000000  1
  O  O60  1  0.50000000  0.25267765  0.00000000  1
  O  O61  1  0.50000000  0.25223157  0.50000000  1
  O  O62  1  0.50000000  0.74732235  -0.00000000  1
  O  O63  1  0.50000000  0.74776843  0.50000000  1
