# generated using pymatgen
data_NdB4ClO8
_symmetry_space_group_name_H-M   'P 1'
_cell_length_a   6.54814645
_cell_length_b   6.54814645
_cell_length_c   9.67582663
_cell_angle_alpha   98.02720733
_cell_angle_beta   98.02720733
_cell_angle_gamma   119.56075789
_symmetry_Int_Tables_number   1
_chemical_formula_structural   NdB4ClO8
_chemical_formula_sum   'Nd2 B8 Cl2 O16'
_cell_volume   346.71057004
_cell_formula_units_Z   2
loop_
 _symmetry_equiv_pos_site_id
 _symmetry_equiv_pos_as_xyz
  1  'x, y, z'
loop_
 _atom_site_type_symbol
 _atom_site_label
 _atom_site_symmetry_multiplicity
 _atom_site_fract_x
 _atom_site_fract_y
 _atom_site_fract_z
 _atom_site_occupancy
  Nd  Nd0  1  0.77906897  0.19445921  0.50140398  1
  Nd  Nd1  1  0.19445921  0.77906897  0.00140398  1
  B  B2  1  0.23352351  0.13035983  0.57740151  1
  B  B3  1  0.13035983  0.23352351  0.07740151  1
  B  B4  1  0.84650498  0.35391538  0.14932418  1
  B  B5  1  0.35391538  0.84650498  0.64932418  1
  B  B6  1  0.93667575  0.75264844  0.62713388  1
  B  B7  1  0.75264844  0.93667575  0.12713388  1
  B  B8  1  0.56084371  0.48982504  0.06272838  1
  B  B9  1  0.48982504  0.56084371  0.56272838  1
  Cl  Cl10  1  0.30864952  0.94828320  0.30539032  1
  Cl  Cl11  1  0.94828320  0.30864952  0.80539032  1
  O  O12  1  0.09408265  0.66185358  0.59156442  1
  O  O13  1  0.66185358  0.09408265  0.09156442  1
  O  O14  1  0.69077382  0.54766884  0.55833515  1
  O  O15  1  0.54766884  0.69077382  0.05833515  1
  O  O16  1  0.99411298  0.96854603  0.57004860  1
  O  O17  1  0.96854603  0.99411298  0.07004860  1
  O  O18  1  0.34762051  0.27077135  0.04811541  1
  O  O19  1  0.27077135  0.34762051  0.54811541  1
  O  O20  1  0.78084025  0.50689182  0.08161056  1
  O  O21  1  0.50689182  0.78084025  0.58161056  1
  O  O22  1  0.41353491  0.08604766  0.61900741  1
  O  O23  1  0.08604766  0.41353491  0.11900741  1
  O  O24  1  0.99278393  0.80526330  0.78336147  1
  O  O25  1  0.80526330  0.99278393  0.28336147  1
  O  O26  1  0.85193385  0.38351698  0.30127472  1
  O  O27  1  0.38351698  0.85193385  0.80127472  1
