# generated using pymatgen
data_Mn2P2O9
_symmetry_space_group_name_H-M   'P 1'
_cell_length_a   6.21688640
_cell_length_b   7.66278845
_cell_length_c   13.83811960
_cell_angle_alpha   90.09885029
_cell_angle_beta   90.00107211
_cell_angle_gamma   89.99933616
_symmetry_Int_Tables_number   1
_chemical_formula_structural   Mn2P2O9
_chemical_formula_sum   'Mn8 P8 O36'
_cell_volume   659.22884392
_cell_formula_units_Z   4
loop_
 _symmetry_equiv_pos_site_id
 _symmetry_equiv_pos_as_xyz
  1  'x, y, z'
loop_
 _atom_site_type_symbol
 _atom_site_label
 _atom_site_symmetry_multiplicity
 _atom_site_fract_x
 _atom_site_fract_y
 _atom_site_fract_z
 _atom_site_occupancy
  Mn  Mn0  1  0.74996584  0.35381898  0.87472739  1
  Mn  Mn1  1  0.25001961  0.64614788  0.12528276  1
  Mn  Mn2  1  0.25001468  0.85430170  0.62482645  1
  Mn  Mn3  1  0.75005386  0.14576201  0.37518798  1
  Mn  Mn4  1  0.50041398  -0.00000538  0.00010699  1
  Mn  Mn5  1  0.50057646  0.49990505  0.50013922  1
  Mn  Mn6  1  -0.00061418  0.49988008  0.50020005  1
  Mn  Mn7  1  -0.00040215  0.99999655  0.00009273  1
  P  P8  1  0.25001118  0.35426522  0.93629337  1
  P  P9  1  0.75001731  0.64582672  0.06369675  1
  P  P10  1  0.75001148  0.85431632  0.56318910  1
  P  P11  1  0.24999067  0.14560521  0.43679915  1
  P  P12  1  0.75004757  0.39616316  0.68941209  1
  P  P13  1  0.74996799  0.10382143  0.18991284  1
  P  P14  1  0.25000384  0.89615020  0.81004749  1
  P  P15  1  0.25000797  0.60385173  0.31055259  1
  O  O16  1  0.04541272  0.59219136  0.37350139  1
  O  O17  1  0.54525383  0.40792191  0.62640063  1
  O  O18  1  0.95473117  0.09202085  0.12670893  1
  O  O19  1  0.45465239  0.90794004  0.87321897  1
  O  O20  1  0.95469302  0.40790600  0.62638715  1
  O  O21  1  0.45463438  0.59212249  0.37353842  1
  O  O22  1  0.04530722  0.90799376  0.87324646  1
  O  O23  1  0.54530053  0.09202985  0.12669565  1
  O  O24  1  0.25001301  0.33750952  0.48570966  1
  O  O25  1  0.75001560  0.66240620  0.51429396  1
  O  O26  1  0.74999623  0.83731617  0.01434907  1
  O  O27  1  0.25002639  0.16275259  0.98562754  1
  O  O28  1  0.75001081  0.13744794  0.95273657  1
  O  O29  1  0.25001134  0.86254914  0.04722932  1
  O  O30  1  0.25002156  0.63751590  0.54729057  1
  O  O31  1  0.75000520  0.36251627  0.45267009  1
  O  O32  1  0.75001743  0.22588217  0.75246113  1
  O  O33  1  0.24996960  0.77426442  0.24750397  1
  O  O34  1  0.25000258  0.72614735  0.74684002  1
  O  O35  1  0.74994843  0.27382233  0.25313066  1
  O  O36  1  0.44584667  0.14419825  0.37083609  1
  O  O37  1  0.94582335  0.85581749  0.62914902  1
  O  O38  1  0.55354728  0.64490554  0.12960827  1
  O  O39  1  0.05354795  0.35509069  0.87039985  1
  O  O40  1  0.55417413  0.85582025  0.62915634  1
  O  O41  1  0.05407642  0.14420975  0.37083133  1
  O  O42  1  0.44647014  0.35509960  0.87040013  1
  O  O43  1  0.94641203  0.64492202  0.12960045  1
  O  O44  1  0.75001858  0.50956989  0.98524108  1
  O  O45  1  0.24998198  0.03258091  0.72569245  1
  O  O46  1  0.24999779  0.46751572  0.22557949  1
  O  O47  1  0.75000232  0.53236694  0.77438127  1
  O  O48  1  0.74998186  0.98991832  0.48486983  1
  O  O49  1  0.25001380  0.00999815  0.51514622  1
  O  O50  1  0.24999095  0.49046055  0.01481314  1
  O  O51  1  0.75002219  0.96746184  0.27428695  1
