# generated using pymatgen
data_ZnSi2NiO6
_symmetry_space_group_name_H-M   'P 1'
_cell_length_a   5.28289279
_cell_length_b   9.10574811
_cell_length_c   18.52110624
_cell_angle_alpha   90.00000000
_cell_angle_beta   90.00000000
_cell_angle_gamma   90.00000000
_symmetry_Int_Tables_number   1
_chemical_formula_structural   ZnSi2NiO6
_chemical_formula_sum   'Zn8 Si16 Ni8 O48'
_cell_volume   890.95209335
_cell_formula_units_Z   8
loop_
 _symmetry_equiv_pos_site_id
 _symmetry_equiv_pos_as_xyz
  1  'x, y, z'
loop_
 _atom_site_type_symbol
 _atom_site_label
 _atom_site_symmetry_multiplicity
 _atom_site_fract_x
 _atom_site_fract_y
 _atom_site_fract_z
 _atom_site_occupancy
  Zn  Zn0  1  0.61871466  0.14813275  0.62382920  1
  Zn  Zn1  1  0.38128534  0.85186725  0.37617080  1
  Zn  Zn2  1  0.61871466  0.64813275  0.87617080  1
  Zn  Zn3  1  0.11871466  0.85186725  0.87617080  1
  Zn  Zn4  1  0.88128534  0.14813275  0.12382920  1
  Zn  Zn5  1  0.38128534  0.35186725  0.12382920  1
  Zn  Zn6  1  0.11871466  0.35186725  0.62382920  1
  Zn  Zn7  1  0.88128534  0.64813275  0.37617080  1
  Si  Si8  1  0.56547144  0.65957984  0.22754372  1
  Si  Si9  1  0.71637216  0.83642673  0.52590378  1
  Si  Si10  1  0.78362784  0.83642673  0.02590378  1
  Si  Si11  1  0.93452856  0.15957984  0.77245628  1
  Si  Si12  1  0.06547144  0.34042016  0.27245628  1
  Si  Si13  1  0.43452856  0.84042016  0.72754372  1
  Si  Si14  1  0.21637216  0.66357327  0.52590378  1
  Si  Si15  1  0.71637216  0.33642673  0.97409622  1
  Si  Si16  1  0.78362784  0.33642673  0.47409622  1
  Si  Si17  1  0.93452856  0.65957984  0.72754372  1
  Si  Si18  1  0.43452856  0.34042016  0.77245628  1
  Si  Si19  1  0.56547144  0.15957984  0.27245628  1
  Si  Si20  1  0.28362784  0.16357327  0.47409622  1
  Si  Si21  1  0.06547144  0.84042016  0.22754372  1
  Si  Si22  1  0.28362784  0.66357327  0.02590378  1
  Si  Si23  1  0.21637216  0.16357327  0.97409622  1
  Ni  Ni24  1  0.37625184  0.99850771  0.12423496  1
  Ni  Ni25  1  0.62374816  0.00149229  0.87576504  1
  Ni  Ni26  1  0.87625184  0.00149229  0.37576504  1
  Ni  Ni27  1  0.12374816  0.99850771  0.62423496  1
  Ni  Ni28  1  0.37625184  0.49850771  0.37576504  1
  Ni  Ni29  1  0.62374816  0.50149229  0.62423496  1
  Ni  Ni30  1  0.87625184  0.50149229  0.12423496  1
  Ni  Ni31  1  0.12374816  0.49850771  0.87576504  1
  O  O32  1  0.92783696  0.50125854  0.68815741  1
  O  O33  1  0.30725795  0.01625447  0.93301229  1
  O  O34  1  0.07216304  0.49874146  0.31184259  1
  O  O35  1  0.71436853  0.34224971  0.06325791  1
  O  O36  1  0.21436853  0.15775029  0.06325791  1
  O  O37  1  0.92064538  0.20522295  0.94956567  1
  O  O38  1  0.94728101  0.65729170  0.81625180  1
  O  O39  1  0.05271899  0.84270830  0.31625180  1
  O  O40  1  0.71436853  0.84224971  0.43674209  1
  O  O41  1  0.94728101  0.15729170  0.68374820  1
  O  O42  1  0.42783696  0.49874146  0.81184259  1
  O  O43  1  0.78563147  0.34224971  0.56325791  1
  O  O44  1  0.69274205  0.98374553  0.06698771  1
  O  O45  1  0.44728101  0.84270830  0.81625180  1
  O  O46  1  0.57216304  0.00125854  0.31184259  1
  O  O47  1  0.30725795  0.51625447  0.56698771  1
  O  O48  1  0.42783696  0.99874146  0.68815741  1
  O  O49  1  0.16458080  0.76711015  0.69860893  1
  O  O50  1  0.33541920  0.76711015  0.19860893  1
  O  O51  1  0.57935462  0.70522295  0.05043433  1
  O  O52  1  0.78563147  0.84224971  0.93674209  1
  O  O53  1  0.55271899  0.65729170  0.31625180  1
  O  O54  1  0.80725795  0.48374553  0.93301229  1
  O  O55  1  0.16458080  0.26711015  0.80139107  1
  O  O56  1  0.28563147  0.15775029  0.56325791  1
  O  O57  1  0.55271899  0.15729170  0.18374820  1
  O  O58  1  0.69274205  0.48374553  0.43301229  1
  O  O59  1  0.21436853  0.65775029  0.43674209  1
  O  O60  1  0.19274205  0.51625447  0.06698771  1
  O  O61  1  0.66458080  0.73288985  0.69860893  1
  O  O62  1  0.07216304  0.99874146  0.18815741  1
  O  O63  1  0.83541920  0.73288985  0.19860893  1
  O  O64  1  0.83541920  0.23288985  0.30139107  1
  O  O65  1  0.80725795  0.98374553  0.56698771  1
  O  O66  1  0.28563147  0.65775029  0.93674209  1
  O  O67  1  0.19274205  0.01625447  0.43301229  1
  O  O68  1  0.33541920  0.26711015  0.30139107  1
  O  O69  1  0.07935462  0.79477705  0.05043433  1
  O  O70  1  0.42064538  0.79477705  0.55043433  1
  O  O71  1  0.66458080  0.23288985  0.80139107  1
  O  O72  1  0.42064538  0.29477705  0.94956567  1
  O  O73  1  0.57935462  0.20522295  0.44956567  1
  O  O74  1  0.07935462  0.29477705  0.44956567  1
  O  O75  1  0.44728101  0.34270830  0.68374820  1
  O  O76  1  0.57216304  0.50125854  0.18815741  1
  O  O77  1  0.92064538  0.70522295  0.55043433  1
  O  O78  1  0.05271899  0.34270830  0.18374820  1
  O  O79  1  0.92783696  0.00125854  0.81184259  1
