# generated using pymatgen
data_Cu8SiSe6
_symmetry_space_group_name_H-M   'P 1'
_cell_length_a   7.20177469
_cell_length_b   7.30674497
_cell_length_c   10.21774407
_cell_angle_alpha   90.00000000
_cell_angle_beta   90.00000000
_cell_angle_gamma   90.00000000
_symmetry_Int_Tables_number   1
_chemical_formula_structural   Cu8SiSe6
_chemical_formula_sum   'Si2 Cu16 Se12'
_cell_volume   537.67333624
_cell_formula_units_Z   2
loop_
 _symmetry_equiv_pos_site_id
 _symmetry_equiv_pos_as_xyz
  1  'x, y, z'
loop_
 _atom_site_type_symbol
 _atom_site_label
 _atom_site_symmetry_multiplicity
 _atom_site_fract_x
 _atom_site_fract_y
 _atom_site_fract_z
 _atom_site_occupancy
  Si  Si0  1  0.74822826  0.00000000  0.49203476  1
  Si  Si1  1  0.25177174  0.50000000  0.99203476  1
  Cu  Cu2  1  0.15855124  0.30628558  0.34412167  1
  Cu  Cu3  1  0.73212617  0.50000000  0.03491107  1
  Cu  Cu4  1  0.26787383  0.00000000  0.53491107  1
  Cu  Cu5  1  0.59365614  0.50000000  0.46544072  1
  Cu  Cu6  1  0.40634386  0.00000000  0.96544072  1
  Cu  Cu7  1  0.84144876  0.19371442  0.84412167  1
  Cu  Cu8  1  0.51788522  0.68772352  0.25148974  1
  Cu  Cu9  1  0.15855124  0.69371442  0.34412167  1
  Cu  Cu10  1  0.84144876  0.80628558  0.84412167  1
  Cu  Cu11  1  0.89444604  0.21462015  0.15616489  1
  Cu  Cu12  1  0.10555396  0.28537985  0.65616489  1
  Cu  Cu13  1  0.10555396  0.71462015  0.65616489  1
  Cu  Cu14  1  0.48211478  0.81227648  0.75148974  1
  Cu  Cu15  1  0.51788522  0.31227648  0.25148974  1
  Cu  Cu16  1  0.48211478  0.18772352  0.75148974  1
  Cu  Cu17  1  0.89444604  0.78537985  0.15616489  1
  Se  Se18  1  0.24851962  0.76114723  0.11250331  1
  Se  Se19  1  0.26600481  0.50000000  0.51409803  1
  Se  Se20  1  0.73399519  0.00000000  0.01409803  1
  Se  Se21  1  0.79941975  0.50000000  0.26816424  1
  Se  Se22  1  0.20058025  0.00000000  0.76816424  1
  Se  Se23  1  0.50375621  0.50000000  0.86102774  1
  Se  Se24  1  0.49624379  0.00000000  0.36102774  1
  Se  Se25  1  0.99531166  0.50000000  0.86076421  1
  Se  Se26  1  0.00468834  0.00000000  0.36076421  1
  Se  Se27  1  0.24851962  0.23885277  0.11250331  1
  Se  Se28  1  0.75148038  0.26114723  0.61250331  1
  Se  Se29  1  0.75148038  0.73885277  0.61250331  1
