# generated using pymatgen
data_MgV2CoO7
_symmetry_space_group_name_H-M   'P 1'
_cell_length_a   6.59104751
_cell_length_b   11.83939742
_cell_length_c   14.17250679
_cell_angle_alpha   90.00000000
_cell_angle_beta   90.00000000
_cell_angle_gamma   101.00946686
_symmetry_Int_Tables_number   1
_chemical_formula_structural   MgV2CoO7
_chemical_formula_sum   'Mg8 V16 Co8 O56'
_cell_volume   1085.58375832
_cell_formula_units_Z   8
loop_
 _symmetry_equiv_pos_site_id
 _symmetry_equiv_pos_as_xyz
  1  'x, y, z'
loop_
 _atom_site_type_symbol
 _atom_site_label
 _atom_site_symmetry_multiplicity
 _atom_site_fract_x
 _atom_site_fract_y
 _atom_site_fract_z
 _atom_site_occupancy
  Mg  Mg0  1  0.03509867  0.73545614  0.50628572  1
  Mg  Mg1  1  0.30312789  0.92624983  0.87051594  1
  Mg  Mg2  1  0.69687211  0.57375017  0.37051594  1
  Mg  Mg3  1  0.69687211  0.07375017  0.12948406  1
  Mg  Mg4  1  0.30312789  0.42624983  0.62948406  1
  Mg  Mg5  1  0.03509867  0.23545614  0.99371428  1
  Mg  Mg6  1  0.96490133  0.26454386  0.49371428  1
  Mg  Mg7  1  0.96490133  0.76454386  0.00628572  1
  V  V8  1  0.82210352  0.98444646  0.89803427  1
  V  V9  1  0.43549650  0.68440354  0.01373053  1
  V  V10  1  0.43549650  0.18440354  0.48626947  1
  V  V11  1  0.56450350  0.31559646  0.98626947  1
  V  V12  1  0.49986067  0.78794205  0.70991666  1
  V  V13  1  0.50013933  0.71205795  0.20991666  1
  V  V14  1  0.50013933  0.21205795  0.29008334  1
  V  V15  1  0.49986067  0.28794205  0.79008334  1
  V  V16  1  0.56450350  0.81559646  0.51373053  1
  V  V17  1  0.87005859  0.49610361  0.13992865  1
  V  V18  1  0.12994141  0.00389639  0.63992865  1
  V  V19  1  0.12994141  0.50389639  0.86007135  1
  V  V20  1  0.17789648  0.51555354  0.39803427  1
  V  V21  1  0.82210352  0.48444646  0.60196573  1
  V  V22  1  0.17789648  0.01555354  0.10196573  1
  V  V23  1  0.87005859  0.99610361  0.36007135  1
  Co  Co24  1  0.63192226  0.05926965  0.69128914  1
  Co  Co25  1  0.36807774  0.44073035  0.19128914  1
  Co  Co26  1  0.36807774  0.94073035  0.30871086  1
  Co  Co27  1  0.63192226  0.55926965  0.80871086  1
  Co  Co28  1  0.98935754  0.22681050  0.76480250  1
  Co  Co29  1  0.01064246  0.27318950  0.26480250  1
  Co  Co30  1  0.01064246  0.77318950  0.23519750  1
  Co  Co31  1  0.98935754  0.72681050  0.73519750  1
  O  O32  1  0.72043761  0.98080277  0.00707989  1
  O  O33  1  0.27956239  0.51919723  0.50707989  1
  O  O34  1  0.27956239  0.01919723  0.99292011  1
  O  O35  1  0.72043761  0.48080277  0.49292011  1
  O  O36  1  0.98066111  0.87935107  0.88873538  1
  O  O37  1  0.01933889  0.62064893  0.38873538  1
  O  O38  1  0.01933889  0.12064893  0.11126462  1
  O  O39  1  0.98066111  0.37935107  0.61126462  1
  O  O40  1  0.96717331  0.12454645  0.88076128  1
  O  O41  1  0.03282669  0.37545355  0.38076128  1
  O  O42  1  0.03282669  0.87545355  0.11923872  1
  O  O43  1  0.96717331  0.62454645  0.61923872  1
  O  O44  1  0.69254457  0.97490412  0.26904834  1
  O  O45  1  0.30745543  0.52509588  0.76904834  1
  O  O46  1  0.30745543  0.02509588  0.73095166  1
  O  O47  1  0.69254457  0.47490412  0.23095166  1
  O  O48  1  0.97036622  0.14242172  0.37645933  1
  O  O49  1  0.02963378  0.35757828  0.87645933  1
  O  O50  1  0.02963378  0.85757828  0.62354067  1
  O  O51  1  0.97036622  0.64242172  0.12354067  1
  O  O52  1  0.05514765  0.91054392  0.33252738  1
  O  O53  1  0.33804489  0.81231387  0.45582540  1
  O  O54  1  0.94485235  0.58945608  0.83252738  1
  O  O55  1  0.05514765  0.41054392  0.16747262  1
  O  O56  1  0.71574464  0.72274025  0.47168457  1
  O  O57  1  0.28425536  0.77725975  0.97168457  1
  O  O58  1  0.28425536  0.27725975  0.52831543  1
  O  O59  1  0.71574464  0.22274025  0.02831543  1
  O  O60  1  0.73370647  0.94818173  0.46393246  1
  O  O61  1  0.26629353  0.55181827  0.96393246  1
  O  O62  1  0.26629353  0.05181827  0.53606754  1
  O  O63  1  0.73370647  0.44818173  0.03606754  1
  O  O64  1  0.42991897  0.20544844  0.88954694  1
  O  O65  1  0.57008103  0.29455156  0.38954694  1
  O  O66  1  0.57008103  0.79455156  0.11045306  1
  O  O67  1  0.42991897  0.70544844  0.61045306  1
  O  O68  1  0.68823579  0.22119608  0.73955099  1
  O  O69  1  0.31176421  0.27880392  0.23955099  1
  O  O70  1  0.31176421  0.77880392  0.26044901  1
  O  O71  1  0.68823579  0.72119608  0.76044901  1
  O  O72  1  0.61106416  0.45384661  0.68321650  1
  O  O73  1  0.38893584  0.04615339  0.18321650  1
  O  O74  1  0.38893584  0.54615339  0.31678350  1
  O  O75  1  0.61106416  0.95384661  0.81678350  1
  O  O76  1  0.27645904  0.28668019  0.72485521  1
  O  O77  1  0.72354096  0.21331981  0.22485521  1
  O  O78  1  0.72354096  0.71331981  0.27514479  1
  O  O79  1  0.27645904  0.78668019  0.77514479  1
  O  O80  1  0.59335598  0.40601270  0.87056071  1
  O  O81  1  0.40664402  0.09398730  0.37056071  1
  O  O82  1  0.40664402  0.59398730  0.12943929  1
  O  O83  1  0.59335598  0.90601270  0.62943929  1
  O  O84  1  0.33804489  0.31231387  0.04417460  1
  O  O85  1  0.66195511  0.18768613  0.54417460  1
  O  O86  1  0.66195511  0.68768613  0.95582540  1
  O  O87  1  0.94485235  0.08945608  0.66747262  1
