# generated using pymatgen
data_MgNi2(PO4)2
_symmetry_space_group_name_H-M   'P 1'
_cell_length_a   4.93962990
_cell_length_b   8.88303392
_cell_length_c   14.35828759
_cell_angle_alpha   85.99150977
_cell_angle_beta   80.08291797
_cell_angle_gamma   73.84349964
_symmetry_Int_Tables_number   1
_chemical_formula_structural   MgNi2(PO4)2
_chemical_formula_sum   'Mg4 Ni8 P8 O32'
_cell_volume   595.94020822
_cell_formula_units_Z   4
loop_
 _symmetry_equiv_pos_site_id
 _symmetry_equiv_pos_as_xyz
  1  'x, y, z'
loop_
 _atom_site_type_symbol
 _atom_site_label
 _atom_site_symmetry_multiplicity
 _atom_site_fract_x
 _atom_site_fract_y
 _atom_site_fract_z
 _atom_site_occupancy
  Mg  Mg0  1  0.44302261  0.82775581  0.87289401  1
  Mg  Mg1  1  0.14438611  0.67205685  0.62599543  1
  Mg  Mg2  1  0.85738062  0.32859994  0.37296893  1
  Mg  Mg3  1  0.55898490  0.17144314  0.12586338  1
  Ni  Ni4  1  0.20044338  0.22667210  0.96875940  1
  Ni  Ni5  1  0.39634457  0.27305671  0.52999893  1
  Ni  Ni6  1  0.80261807  0.77230064  0.02976377  1
  Ni  Ni7  1  0.50163732  0.49937605  0.99943715  1
  Ni  Ni8  1  0.60504568  0.72743688  0.46882881  1
  Ni  Ni9  1  0.61007674  0.74971384  0.24922048  1
  Ni  Ni10  1  0.39434298  0.24965075  0.74935934  1
  Ni  Ni11  1  0.00004417  0.99929849  0.49907811  1
  P  P12  1  0.06878333  0.56220263  0.85758973  1
  P  P13  1  0.77734500  0.43107127  0.61287787  1
  P  P14  1  0.93454706  0.43682974  0.14118933  1
  P  P15  1  0.18047378  0.93029433  0.11291611  1
  P  P16  1  0.51169623  0.06253321  0.35756373  1
  P  P17  1  0.48818215  0.93734747  0.64123497  1
  P  P18  1  0.22490846  0.56941170  0.38549466  1
  P  P19  1  0.82266981  0.06858394  0.88551910  1
  O  O20  1  0.70502474  0.37782280  0.10283572  1
  O  O21  1  0.77443291  0.90392296  0.91290315  1
  O  O22  1  0.81519241  0.87805330  0.60282150  1
  O  O23  1  0.79505043  0.30804552  0.53651056  1
  O  O24  1  0.20700930  0.39251653  0.06187736  1
  O  O25  1  0.63597319  0.39040829  0.70947170  1
  O  O26  1  0.64040709  0.19161928  0.96181751  1
  O  O27  1  0.85884126  0.94095975  0.11014752  1
  O  O28  1  0.20702188  0.69277821  0.46166742  1
  O  O29  1  0.59119061  0.59560586  0.58550344  1
  O  O30  1  0.84567961  0.62030516  0.14185061  1
  O  O31  1  0.59279436  0.13932272  0.26401544  1
  O  O32  1  0.22832970  0.09506156  0.08550899  1
  O  O33  1  0.09083738  0.44226930  0.60984196  1
  O  O34  1  0.29849219  0.62104913  0.89594812  1
  O  O35  1  0.15826964  0.37866584  0.85668114  1
  O  O36  1  0.00487449  0.63913703  0.76408424  1
  O  O37  1  0.36242635  0.80738033  0.03653690  1
  O  O38  1  0.39373317  0.12088474  0.64204960  1
  O  O39  1  0.40759849  0.86062574  0.73480552  1
  O  O40  1  0.91104884  0.55884477  0.38835177  1
  O  O41  1  0.33920713  0.89356242  0.56184233  1
  O  O42  1  0.14412114  0.05790706  0.88859891  1
  O  O43  1  0.26670647  0.88990761  0.20944116  1
  O  O44  1  0.40994894  0.40469597  0.41318675  1
  O  O45  1  0.18443592  0.12121935  0.39559378  1
  O  O46  1  0.99801347  0.36024783  0.23487177  1
  O  O47  1  0.65951506  0.10629777  0.43728515  1
  O  O48  1  0.79683167  0.60586975  0.93708981  1
  O  O49  1  0.73750604  0.10901638  0.78885159  1
  O  O50  1  0.36778751  0.60918171  0.28894054  1
  O  O51  1  0.60743662  0.87904384  0.35668580  1
