# generated using pymatgen
data_V(GeO3)2
_symmetry_space_group_name_H-M   'P 1'
_cell_length_a   5.57872091
_cell_length_b   6.76308013
_cell_length_c   6.76308022
_cell_angle_alpha   83.32007050
_cell_angle_beta   75.41155697
_cell_angle_gamma   75.41155557
_symmetry_Int_Tables_number   1
_chemical_formula_structural   V(GeO3)2
_chemical_formula_sum   'V2 Ge4 O12'
_cell_volume   238.59734954
_cell_formula_units_Z   2
loop_
 _symmetry_equiv_pos_site_id
 _symmetry_equiv_pos_as_xyz
  1  'x, y, z'
loop_
 _atom_site_type_symbol
 _atom_site_label
 _atom_site_symmetry_multiplicity
 _atom_site_fract_x
 _atom_site_fract_y
 _atom_site_fract_z
 _atom_site_occupancy
  V  V0  1  0.75000000  0.89510487  0.10489513  1
  V  V1  1  0.25000000  0.10489513  0.89510487  1
  Ge  Ge2  1  0.77566175  0.38489329  0.21007951  1
  Ge  Ge3  1  0.72433825  0.78992049  0.61510671  1
  Ge  Ge4  1  0.22433825  0.61510671  0.78992049  1
  Ge  Ge5  1  0.27566175  0.21007951  0.38489329  1
  O  O6  1  0.49410228  0.35591041  0.38139164  1
  O  O7  1  0.00589772  0.61860836  0.64408959  1
  O  O8  1  0.50589772  0.64408959  0.61860836  1
  O  O9  1  -0.00589772  0.38139164  0.35591041  1
  O  O10  1  0.21741420  0.08594144  0.63139150  1
  O  O11  1  0.28258580  0.36860950  0.91405856  1
  O  O12  1  0.78258580  0.91405856  0.36860950  1
  O  O13  1  0.71741420  0.63139150  0.08594144  1
  O  O14  1  0.89084011  0.17705671  0.03976295  1
  O  O15  1  0.60915989  0.96023705  0.82294329  1
  O  O16  1  0.10915989  0.82294329  0.96023705  1
  O  O17  1  0.39084011  0.03976295  0.17705671  1
