# generated using pymatgen
data_ZnBi4O9
_symmetry_space_group_name_H-M   'P 1'
_cell_length_a   5.82360461
_cell_length_b   8.84320420
_cell_length_c   8.16306221
_cell_angle_alpha   96.70617875
_cell_angle_beta   90.00078870
_cell_angle_gamma   89.98068459
_symmetry_Int_Tables_number   1
_chemical_formula_structural   ZnBi4O9
_chemical_formula_sum   'Zn2 Bi8 O18'
_cell_volume   417.51587052
_cell_formula_units_Z   2
loop_
 _symmetry_equiv_pos_site_id
 _symmetry_equiv_pos_as_xyz
  1  'x, y, z'
loop_
 _atom_site_type_symbol
 _atom_site_label
 _atom_site_symmetry_multiplicity
 _atom_site_fract_x
 _atom_site_fract_y
 _atom_site_fract_z
 _atom_site_occupancy
  Zn  Zn0  1  0.19582239  0.25013540  0.24992102  1
  Zn  Zn1  1  0.80130208  0.74965545  0.75012856  1
  Bi  Bi2  1  0.68976998  0.55466600  0.35621448  1
  Bi  Bi3  1  0.24858297  0.86336830  0.46577108  1
  Bi  Bi4  1  0.75191847  0.36330487  0.96557637  1
  Bi  Bi5  1  0.31061096  0.05476252  0.85626102  1
  Bi  Bi6  1  0.68950824  0.94531891  0.14366060  1
  Bi  Bi7  1  0.75170514  0.13671075  0.53431424  1
  Bi  Bi8  1  0.31038739  0.44527002  0.64382464  1
  Bi  Bi9  1  0.24853188  0.63661643  0.03435976  1
  O  O10  1  0.55594185  0.75007067  0.25015110  1
  O  O11  1  0.44456801  0.24999127  0.74989478  1
  O  O12  1  0.89014288  0.79764638  0.98126979  1
  O  O13  1  0.04679877  0.53335270  0.80882607  1
  O  O14  1  0.04705432  0.96675016  0.69110066  1
  O  O15  1  0.89034777  0.70239509  0.51894618  1
  O  O16  1  0.10985834  0.20261661  0.01837311  1
  O  O17  1  0.95360419  0.46595317  0.19159259  1
  O  O18  1  0.95329938  0.03392956  0.30849820  1
  O  O19  1  0.10965941  0.29730986  0.48147581  1
  O  O20  1  0.47958331  0.07003544  0.33921586  1
  O  O21  1  0.63358563  0.12041996  0.99103474  1
  O  O22  1  0.63348995  0.37957829  0.50886819  1
  O  O23  1  0.47997142  0.43034182  0.16064754  1
  O  O24  1  0.52040834  0.57030635  0.83894070  1
  O  O25  1  0.36637988  0.87967333  0.00908575  1
  O  O26  1  0.36647220  0.62035358  0.49098275  1
  O  O27  1  0.52069885  0.92946710  0.66106438  1
