# generated using pymatgen
data_Ba2YAg3O8
_symmetry_space_group_name_H-M   'P 1'
_cell_length_a   4.11503874
_cell_length_b   4.11513286
_cell_length_c   12.54379405
_cell_angle_alpha   90.00006063
_cell_angle_beta   89.99998210
_cell_angle_gamma   89.99997911
_symmetry_Int_Tables_number   1
_chemical_formula_structural   Ba2YAg3O8
_chemical_formula_sum   'Ba2 Y1 Ag3 O8'
_cell_volume   212.41574467
_cell_formula_units_Z   1
loop_
 _symmetry_equiv_pos_site_id
 _symmetry_equiv_pos_as_xyz
  1  'x, y, z'
loop_
 _atom_site_type_symbol
 _atom_site_label
 _atom_site_symmetry_multiplicity
 _atom_site_fract_x
 _atom_site_fract_y
 _atom_site_fract_z
 _atom_site_occupancy
  Ba  Ba0  1  0.50000000  0.49999900  0.15743149  1
  Ba  Ba1  1  0.50000000  0.50000000  0.84247691  1
  Y  Y2  1  0.50000000  0.50000000  0.50007012  1
  Ag  Ag3  1  1.00000000  0.00000000  0.35552419  1
  Ag  Ag4  1  0.99999900  1.00000000  0.00005080  1
  Ag  Ag5  1  0.00000000  0.00000100  0.64444010  1
  O  O6  1  1.00000000  0.50000000  0.39155673  1
  O  O7  1  0.50000000  0.99999900  0.39155835  1
  O  O8  1  0.50000000  1.00000000  0.99995802  1
  O  O9  1  0.00000000  1.00000000  0.16645998  1
  O  O10  1  0.00000000  0.50000000  0.60847161  1
  O  O11  1  0.50000000  1.00000000  0.60846781  1
  O  O12  1  1.00000000  0.99999900  0.83357404  1
  O  O13  1  -0.00000000  0.50000000  0.99995786  1
