# generated using pymatgen
data_CaVAs2O7
_symmetry_space_group_name_H-M   'P 1'
_cell_length_a   8.13614273
_cell_length_b   8.57865866
_cell_length_c   10.65287522
_cell_angle_alpha   90.00000000
_cell_angle_beta   119.27018246
_cell_angle_gamma   90.00000000
_symmetry_Int_Tables_number   1
_chemical_formula_structural   CaVAs2O7
_chemical_formula_sum   'Ca4 V4 As8 O28'
_cell_volume   648.60833652
_cell_formula_units_Z   4
loop_
 _symmetry_equiv_pos_site_id
 _symmetry_equiv_pos_as_xyz
  1  'x, y, z'
loop_
 _atom_site_type_symbol
 _atom_site_label
 _atom_site_symmetry_multiplicity
 _atom_site_fract_x
 _atom_site_fract_y
 _atom_site_fract_z
 _atom_site_occupancy
  Ca  Ca0  1  0.25932239  0.93214809  0.90502083  1
  Ca  Ca1  1  0.74067761  0.43214809  0.59497917  1
  Ca  Ca2  1  0.74067761  0.06785191  0.09497917  1
  Ca  Ca3  1  0.25932239  0.56785191  0.40502083  1
  V  V4  1  0.79891532  0.06342688  0.71586985  1
  V  V5  1  0.20108468  0.56342688  0.78413015  1
  V  V6  1  0.20108468  0.93657312  0.28413015  1
  V  V7  1  0.79891532  0.43657312  0.21586985  1
  As  As8  1  0.44820116  0.23817183  0.75036547  1
  As  As9  1  0.55179884  0.73817183  0.74963453  1
  As  As10  1  0.55179884  0.76182817  0.24963453  1
  As  As11  1  0.44820116  0.26182817  0.25036447  1
  As  As12  1  0.04847174  0.31572696  0.95580347  1
  As  As13  1  0.95152826  0.81572696  0.54419653  1
  As  As14  1  0.95152826  0.68427304  0.04419653  1
  As  As15  1  0.04847174  0.18427304  0.45580347  1
  O  O16  1  0.76116290  0.33456580  0.07076792  1
  O  O17  1  0.23883710  0.83456580  0.42923208  1
  O  O18  1  0.23883710  0.66543420  0.92923208  1
  O  O19  1  0.76116290  0.16543420  0.57076792  1
  O  O20  1  0.36673044  0.42105350  0.75712023  1
  O  O21  1  0.63326956  0.92105350  0.74287977  1
  O  O22  1  0.63326956  0.57894650  0.24287977  1
  O  O23  1  0.36673044  0.07894650  0.25712023  1
  O  O24  1  0.44448601  0.11151288  0.87208252  1
  O  O25  1  0.55551399  0.61151288  0.62791748  1
  O  O26  1  0.55551399  0.88848712  0.12791748  1
  O  O27  1  0.44448601  0.38848712  0.37208252  1
  O  O28  1  0.31296198  0.18079921  0.56905235  1
  O  O29  1  0.68703802  0.68079921  0.93094765  1
  O  O30  1  0.68703802  0.81920079  0.43094765  1
  O  O31  1  0.31296198  0.31920079  0.06905235  1
  O  O32  1  0.03814702  0.09934847  0.29949162  1
  O  O33  1  0.96185298  0.59934847  0.20050838  1
  O  O34  1  0.96185298  0.90065153  0.70050838  1
  O  O35  1  0.03814702  0.40065153  0.79949162  1
  O  O36  1  0.66970946  0.25039164  0.26780176  1
  O  O37  1  0.33029054  0.75039164  0.23219824  1
  O  O38  1  0.33029054  0.74960836  0.73219824  1
  O  O39  1  0.66970946  0.24960836  0.76780176  1
  O  O40  1  0.02731102  0.38460587  0.39267467  1
  O  O41  1  0.97268898  0.88460587  0.10732533  1
  O  O42  1  0.97268898  0.61539413  0.60732533  1
  O  O43  1  0.02731102  0.11539413  0.89267467  1
