# generated using pymatgen
data_Mg2Nb2SnO8
_symmetry_space_group_name_H-M   'P 1'
_cell_length_a   5.30827855
_cell_length_b   6.12181398
_cell_length_c   10.88090369
_cell_angle_alpha   106.33257783
_cell_angle_beta   91.01802779
_cell_angle_gamma   89.99737367
_symmetry_Int_Tables_number   1
_chemical_formula_structural   Mg2Nb2SnO8
_chemical_formula_sum   'Mg4 Nb4 Sn2 O16'
_cell_volume   339.26207695
_cell_formula_units_Z   2
loop_
 _symmetry_equiv_pos_site_id
 _symmetry_equiv_pos_as_xyz
  1  'x, y, z'
loop_
 _atom_site_type_symbol
 _atom_site_label
 _atom_site_symmetry_multiplicity
 _atom_site_fract_x
 _atom_site_fract_y
 _atom_site_fract_z
 _atom_site_occupancy
  Mg  Mg0  1  0.75405917  0.41193113  0.54087509  1
  Mg  Mg1  1  0.74486904  0.87196163  0.46080949  1
  Mg  Mg2  1  0.24484184  0.59066085  0.46072227  1
  Mg  Mg3  1  0.25415299  0.13072983  0.54115922  1
  Nb  Nb4  1  0.73179865  0.30044302  0.25581357  1
  Nb  Nb5  1  0.76686352  0.04510561  0.74596411  1
  Nb  Nb6  1  0.26677105  0.70234032  0.74580224  1
  Nb  Nb7  1  0.23172238  0.95752241  0.25596527  1
  Sn  Sn8  1  0.74823646  0.69561959  0.00122190  1
  Sn  Sn9  1  0.24829693  0.30631856  0.00079806  1
  O  O10  1  0.04263714  0.17286240  0.16916632  1
  O  O11  1  0.45578887  0.00441881  0.83235663  1
  O  O12  1  0.95615255  0.83000355  0.83254717  1
  O  O13  1  0.54243793  0.99841596  0.16905793  1
  O  O14  1  0.61436368  0.44782745  0.13905572  1
  O  O15  1  0.88480400  0.30868447  0.86320761  1
  O  O16  1  0.38468408  0.55542316  0.86272290  1
  O  O17  1  0.11371790  0.69358186  0.13934207  1
  O  O18  1  0.45107461  0.30547363  0.38588158  1
  O  O19  1  0.04768352  0.92016732  0.61573930  1
  O  O20  1  0.38002289  0.84432104  0.39432996  1
  O  O21  1  0.11881451  0.45060060  0.60749285  1
  O  O22  1  0.61904779  0.15874324  0.60762375  1
  O  O23  1  0.87998463  0.55198496  0.39419383  1
  O  O24  1  0.95096072  0.08255083  0.38598226  1
  O  O25  1  0.54771714  0.69719375  0.61570693  1
