# generated using pymatgen
data_MgTiCu(PO4)3
_symmetry_space_group_name_H-M   'P 1'
_cell_length_a   8.48374433
_cell_length_b   8.48374455
_cell_length_c   8.48374417
_cell_angle_alpha   60.92541057
_cell_angle_beta   60.92541457
_cell_angle_gamma   60.92542366
_symmetry_Int_Tables_number   1
_chemical_formula_structural   MgTiCu(PO4)3
_chemical_formula_sum   'Mg2 Ti2 Cu2 P6 O24'
_cell_volume   440.76991562
_cell_formula_units_Z   2
loop_
 _symmetry_equiv_pos_site_id
 _symmetry_equiv_pos_as_xyz
  1  'x, y, z'
loop_
 _atom_site_type_symbol
 _atom_site_label
 _atom_site_symmetry_multiplicity
 _atom_site_fract_x
 _atom_site_fract_y
 _atom_site_fract_z
 _atom_site_occupancy
  Mg  Mg0  1  0.99600882  0.99600882  0.99600882  1
  Mg  Mg1  1  0.49600882  0.49600882  0.49600882  1
  Ti  Ti2  1  0.14341440  0.14341440  0.14341440  1
  Ti  Ti3  1  0.64341440  0.64341440  0.64341440  1
  Cu  Cu4  1  0.35521726  0.35521726  0.35521726  1
  Cu  Cu5  1  0.85521726  0.85521726  0.85521726  1
  P  P6  1  0.04509797  0.45546481  0.75110175  1
  P  P7  1  0.45546481  0.75110175  0.04509797  1
  P  P8  1  0.75110175  0.04509797  0.45546481  1
  P  P9  1  0.25110175  0.95546481  0.54509797  1
  P  P10  1  0.54509797  0.25110175  0.95546481  1
  P  P11  1  0.95546481  0.54509797  0.25110175  1
  O  O12  1  0.10959294  0.51244099  0.31703849  1
  O  O13  1  0.31703849  0.10959294  0.51244099  1
  O  O14  1  0.05503402  0.25651303  0.91093518  1
  O  O15  1  0.51244099  0.31703849  0.10959294  1
  O  O16  1  0.01244099  0.60959294  0.81703849  1
  O  O17  1  0.23968466  0.44340485  0.58875411  1
  O  O18  1  0.25651303  0.91093518  0.05503402  1
  O  O19  1  0.44340485  0.58875411  0.23968466  1
  O  O20  1  0.18673812  0.00476882  0.37878577  1
  O  O21  1  0.58875411  0.23968466  0.44340485  1
  O  O22  1  0.08875411  0.94340485  0.73968466  1
  O  O23  1  0.37878577  0.18673812  0.00476882  1
  O  O24  1  0.60959294  0.81703849  0.01244099  1
  O  O25  1  0.91093518  0.05503402  0.25651303  1
  O  O26  1  0.41093518  0.75651303  0.55503402  1
  O  O27  1  0.81703849  0.01244099  0.60959294  1
  O  O28  1  0.55503402  0.41093518  0.75651303  1
  O  O29  1  0.73968466  0.08875411  0.94340485  1
  O  O30  1  0.75651303  0.55503402  0.41093518  1
  O  O31  1  0.00476882  0.37878577  0.18673812  1
  O  O32  1  0.50476882  0.68673812  0.87878577  1
  O  O33  1  0.94340485  0.73968466  0.08875411  1
  O  O34  1  0.68673812  0.87878577  0.50476882  1
  O  O35  1  0.87878577  0.50476882  0.68673812  1
