# generated using pymatgen
data_CaCuP2O7
_symmetry_space_group_name_H-M   'P 1'
_cell_length_a   7.43209361
_cell_length_b   8.91759758
_cell_length_c   8.55545011
_cell_angle_alpha   90.00000000
_cell_angle_beta   110.35396388
_cell_angle_gamma   90.00000000
_symmetry_Int_Tables_number   1
_chemical_formula_structural   CaCuP2O7
_chemical_formula_sum   'Ca4 Cu4 P8 O28'
_cell_volume   531.62058569
_cell_formula_units_Z   4
loop_
 _symmetry_equiv_pos_site_id
 _symmetry_equiv_pos_as_xyz
  1  'x, y, z'
loop_
 _atom_site_type_symbol
 _atom_site_label
 _atom_site_symmetry_multiplicity
 _atom_site_fract_x
 _atom_site_fract_y
 _atom_site_fract_z
 _atom_site_occupancy
  Ca  Ca0  1  0.14376587  0.95566878  0.87114502  1
  Ca  Ca1  1  0.35623413  0.45566878  0.62885498  1
  Ca  Ca2  1  0.64376587  0.54433122  0.37114502  1
  Ca  Ca3  1  0.85623413  0.04433122  0.12885498  1
  Cu  Cu4  1  0.38896359  0.08347509  0.60888167  1
  Cu  Cu5  1  0.61103641  0.91652491  0.39111833  1
  Cu  Cu6  1  0.11103641  0.58347509  0.89111833  1
  Cu  Cu7  1  0.88896359  0.41652491  0.10888167  1
  P  P8  1  0.18197859  0.71856524  0.23459057  1
  P  P9  1  0.44802308  0.24119091  0.96176872  1
  P  P10  1  0.68197859  0.78143476  0.73459057  1
  P  P11  1  0.94802308  0.25880909  0.46176872  1
  P  P12  1  0.31802141  0.21856524  0.26540943  1
  P  P13  1  0.05197692  0.74119091  0.53823128  1
  P  P14  1  0.55197692  0.75880909  0.03823128  1
  P  P15  1  0.81802141  0.28143476  0.76540943  1
  O  O16  1  0.37135102  0.17232548  0.10373672  1
  O  O17  1  0.58299927  0.63757049  0.65457614  1
  O  O18  1  0.08299927  0.86242951  0.15457614  1
  O  O19  1  0.34232317  0.38461016  0.89106578  1
  O  O20  1  0.62864898  0.82767452  0.89626328  1
  O  O21  1  0.39244413  0.07763215  0.37948307  1
  O  O22  1  0.65767683  0.61538984  0.10893422  1
  O  O23  1  0.39484292  0.10309876  0.84242408  1
  O  O24  1  0.16641141  0.24192422  0.54736071  1
  O  O25  1  0.60755587  0.92236785  0.62051693  1
  O  O26  1  0.89244413  0.42236785  0.87948307  1
  O  O27  1  0.90055957  0.77663478  0.79964599  1
  O  O28  1  0.59944043  0.27663478  0.70035401  1
  O  O29  1  0.87135102  0.32767452  0.60373672  1
  O  O30  1  0.10755587  0.57763215  0.12051693  1
  O  O31  1  0.91700073  0.13757049  0.84542386  1
  O  O32  1  0.09944043  0.22336522  0.20035401  1
  O  O33  1  0.60515708  0.89690124  0.15757592  1
  O  O34  1  0.66641141  0.25807578  0.04736071  1
  O  O35  1  0.33358859  0.74192422  0.95263929  1
  O  O36  1  0.15767683  0.88461016  0.60893422  1
  O  O37  1  0.89484292  0.39690124  0.34242408  1
  O  O38  1  0.10515708  0.60309876  0.65757592  1
  O  O39  1  0.41700073  0.36242951  0.34542386  1
  O  O40  1  0.40055957  0.72336522  0.29964599  1
  O  O41  1  0.84232317  0.11538984  0.39106578  1
  O  O42  1  0.83358859  0.75807578  0.45263929  1
  O  O43  1  0.12864898  0.67232548  0.39626328  1
