# generated using pymatgen
data_Mn9Zn2O13
_symmetry_space_group_name_H-M   'P 1'
_cell_length_a   3.15015154
_cell_length_b   5.15123002
_cell_length_c   17.48749343
_cell_angle_alpha   97.91822263
_cell_angle_beta   92.82498643
_cell_angle_gamma   97.14274034
_symmetry_Int_Tables_number   1
_chemical_formula_structural   Mn9Zn2O13
_chemical_formula_sum   'Mn9 Zn2 O13'
_cell_volume   278.24792978
_cell_formula_units_Z   1
loop_
 _symmetry_equiv_pos_site_id
 _symmetry_equiv_pos_as_xyz
  1  'x, y, z'
loop_
 _atom_site_type_symbol
 _atom_site_label
 _atom_site_symmetry_multiplicity
 _atom_site_fract_x
 _atom_site_fract_y
 _atom_site_fract_z
 _atom_site_occupancy
  Mn  Mn0  1  0.50000000  -0.00000000  0.50000000  1
  Mn  Mn1  1  0.00598486  0.87307150  0.12885810  1
  Mn  Mn2  1  -0.00598486  0.12692850  0.87114190  1
  Mn  Mn3  1  0.01951031  0.97749406  0.32512809  1
  Mn  Mn4  1  0.98048969  0.02250594  0.67487191  1
  Mn  Mn5  1  0.64864049  0.28726452  0.04002881  1
  Mn  Mn6  1  0.35135951  0.71273548  0.95997119  1
  Mn  Mn7  1  0.76567446  0.49860927  0.41725790  1
  Mn  Mn8  1  0.23432554  0.50139073  0.58274210  1
  Zn  Zn9  1  0.49732473  0.44619113  0.22780099  1
  Zn  Zn10  1  0.50267527  0.55380887  0.77219901  1
  O  O11  1  0.00000000  -0.00000000  0.00000000  1
  O  O12  1  0.04497805  0.69075474  0.22816971  1
  O  O13  1  0.95502195  0.30924526  0.77183029  1
  O  O14  1  0.33807953  0.59279189  0.06435480  1
  O  O15  1  0.66192047  0.40720811  0.93564520  1
  O  O16  1  0.57595997  0.15837214  0.13978466  1
  O  O17  1  0.42404003  0.84162786  0.86021534  1
  O  O18  1  0.57803616  0.25174010  0.31938449  1
  O  O19  1  0.42196384  0.74825990  0.68061551  1
  O  O20  1  0.41109686  0.78091775  0.39595865  1
  O  O21  1  0.58890314  0.21908225  0.60404135  1
  O  O22  1  0.13026749  0.26641690  0.47079911  1
  O  O23  1  0.86973251  0.73358310  0.52920089  1
