# generated using pymatgen
data_Ta2ZnO6
_symmetry_space_group_name_H-M   'P 1'
_cell_length_a   5.29349721
_cell_length_b   5.47148129
_cell_length_c   7.68604265
_cell_angle_alpha   89.98422938
_cell_angle_beta   90.00051620
_cell_angle_gamma   89.99701127
_symmetry_Int_Tables_number   1
_chemical_formula_structural   Ta2ZnO6
_chemical_formula_sum   'Ta4 Zn2 O12'
_cell_volume   222.61292702
_cell_formula_units_Z   2
loop_
 _symmetry_equiv_pos_site_id
 _symmetry_equiv_pos_as_xyz
  1  'x, y, z'
loop_
 _atom_site_type_symbol
 _atom_site_label
 _atom_site_symmetry_multiplicity
 _atom_site_fract_x
 _atom_site_fract_y
 _atom_site_fract_z
 _atom_site_occupancy
  Ta  Ta0  1  0.50604025  0.00353865  0.00139573  1
  Ta  Ta1  1  0.00604748  0.49644029  0.99859741  1
  Ta  Ta2  1  0.00632902  0.49648735  0.50149265  1
  Ta  Ta3  1  0.50630399  0.00351865  0.49844926  1
  Zn  Zn4  1  0.50751760  0.53600783  0.24995178  1
  Zn  Zn5  1  0.00744317  0.96370863  0.75000567  1
  O  O6  1  0.67586153  0.31940487  0.43776487  1
  O  O7  1  0.17580639  0.18060245  0.56236382  1
  O  O8  1  0.79049624  0.78757467  0.04337353  1
  O  O9  1  0.29063212  0.71229218  0.95686905  1
  O  O10  1  0.29117235  0.71197719  0.54299742  1
  O  O11  1  0.79105559  0.78793692  0.45678229  1
  O  O12  1  0.17560774  0.18069585  0.93773132  1
  O  O13  1  0.67567229  0.31926649  0.06212722  1
  O  O14  1  0.13069148  0.47094930  0.24997352  1
  O  O15  1  0.63066440  0.02898091  0.75002432  1
  O  O16  1  0.42732370  0.95775410  0.25000822  1
  O  O17  1  0.92751465  0.54292466  0.74998493  1
