# generated using pymatgen
data_CaTiSn(PO4)3
_symmetry_space_group_name_H-M   'P 1'
_cell_length_a   8.98097899
_cell_length_b   8.98097920
_cell_length_c   8.98097897
_cell_angle_alpha   58.52300523
_cell_angle_beta   58.52300713
_cell_angle_gamma   58.52301273
_symmetry_Int_Tables_number   1
_chemical_formula_structural   CaTiSn(PO4)3
_chemical_formula_sum   'Ca2 Ti2 Sn2 P6 O24'
_cell_volume   494.91508170
_cell_formula_units_Z   2
loop_
 _symmetry_equiv_pos_site_id
 _symmetry_equiv_pos_as_xyz
  1  'x, y, z'
loop_
 _atom_site_type_symbol
 _atom_site_label
 _atom_site_symmetry_multiplicity
 _atom_site_fract_x
 _atom_site_fract_y
 _atom_site_fract_z
 _atom_site_occupancy
  Ca  Ca0  1  0.00338263  0.00338263  0.00338263  1
  Ca  Ca1  1  0.50338263  0.50338263  0.50338263  1
  Ti  Ti2  1  0.14598273  0.14598273  0.14598273  1
  Ti  Ti3  1  0.64598273  0.64598273  0.64598273  1
  Sn  Sn4  1  0.35266962  0.35266962  0.35266962  1
  Sn  Sn5  1  0.85266962  0.85266962  0.85266962  1
  P  P6  1  0.04060305  0.45639314  0.74960307  1
  P  P7  1  0.45639314  0.74960307  0.04060305  1
  P  P8  1  0.74960307  0.04060305  0.45639314  1
  P  P9  1  0.24960307  0.95639314  0.54060305  1
  P  P10  1  0.54060305  0.24960307  0.95639314  1
  P  P11  1  0.95639314  0.54060305  0.24960307  1
  O  O12  1  0.11518013  0.51746889  0.29185816  1
  O  O13  1  0.29185816  0.11518013  0.51746889  1
  O  O14  1  0.06046935  0.27243466  0.91708233  1
  O  O15  1  0.51746889  0.29185816  0.11518013  1
  O  O16  1  0.01746889  0.61518013  0.79185816  1
  O  O17  1  0.23012937  0.43624758  0.58305827  1
  O  O18  1  0.27243466  0.91708233  0.06046935  1
  O  O19  1  0.43624758  0.58305827  0.23012937  1
  O  O20  1  0.20164435  0.99440293  0.38138672  1
  O  O21  1  0.58305827  0.23012937  0.43624758  1
  O  O22  1  0.08305827  0.93624758  0.73012937  1
  O  O23  1  0.38138672  0.20164435  0.99440293  1
  O  O24  1  0.61518013  0.79185816  0.01746889  1
  O  O25  1  0.91708233  0.06046935  0.27243466  1
  O  O26  1  0.41708233  0.77243466  0.56046935  1
  O  O27  1  0.79185816  0.01746889  0.61518013  1
  O  O28  1  0.56046935  0.41708233  0.77243466  1
  O  O29  1  0.73012937  0.08305827  0.93624758  1
  O  O30  1  0.77243466  0.56046935  0.41708233  1
  O  O31  1  0.99440293  0.38138672  0.20164435  1
  O  O32  1  0.49440293  0.70164435  0.88138672  1
  O  O33  1  0.93624758  0.73012937  0.08305827  1
  O  O34  1  0.70164435  0.88138672  0.49440293  1
  O  O35  1  0.88138672  0.49440293  0.70164435  1
