# generated using pymatgen
data_V3ZnP3O13
_symmetry_space_group_name_H-M   'P 1'
_cell_length_a   6.32833833
_cell_length_b   7.49484203
_cell_length_c   10.74866366
_cell_angle_alpha   99.45785175
_cell_angle_beta   90.00000000
_cell_angle_gamma   90.00000000
_symmetry_Int_Tables_number   1
_chemical_formula_structural   V3ZnP3O13
_chemical_formula_sum   'V6 Zn2 P6 O26'
_cell_volume   502.87805152
_cell_formula_units_Z   2
loop_
 _symmetry_equiv_pos_site_id
 _symmetry_equiv_pos_as_xyz
  1  'x, y, z'
loop_
 _atom_site_type_symbol
 _atom_site_label
 _atom_site_symmetry_multiplicity
 _atom_site_fract_x
 _atom_site_fract_y
 _atom_site_fract_z
 _atom_site_occupancy
  V  V0  1  0.25000000  0.36043694  0.20408121  1
  V  V1  1  0.75000000  0.63956306  0.79591879  1
  V  V2  1  0.25000000  0.77588279  0.44329192  1
  V  V3  1  0.50000000  -0.00000000  0.00000000  1
  V  V4  1  0.75000000  0.22411721  0.55670808  1
  V  V5  1  0.00000000  -0.00000000  0.00000000  1
  Zn  Zn6  1  0.75000000  0.60312620  0.13915565  1
  Zn  Zn7  1  0.25000000  0.39687380  0.86084435  1
  P  P8  1  0.25000000  0.22200332  0.48484700  1
  P  P9  1  0.75000000  0.77799668  0.51515300  1
  P  P10  1  0.25000000  0.73372117  0.76688015  1
  P  P11  1  0.75000000  0.26627883  0.23311985  1
  P  P12  1  0.75000000  0.31263831  0.87823046  1
  P  P13  1  0.25000000  0.68736169  0.12176954  1
  O  O14  1  0.75000000  0.35322693  0.74290411  1
  O  O15  1  0.55466610  0.73567853  0.42879104  1
  O  O16  1  0.25000000  0.78603385  0.63785389  1
  O  O17  1  0.53961243  0.21729585  0.90326732  1
  O  O18  1  0.75000000  0.65289475  0.61546574  1
  O  O19  1  0.75000000  0.88074313  0.90820706  1
  O  O20  1  0.25000000  0.34710525  0.38453426  1
  O  O21  1  0.03961243  0.78270415  0.09673268  1
  O  O22  1  0.25000000  0.02249508  0.41686774  1
  O  O23  1  0.75000000  0.97750492  0.58313226  1
  O  O24  1  0.06382409  0.60711755  0.79516756  1
  O  O25  1  0.25000000  0.11925687  0.09179294  1
  O  O26  1  0.56382409  0.39288245  0.20483244  1
  O  O27  1  0.75000000  0.50882549  0.95689636  1
  O  O28  1  0.75000000  0.21396615  0.36214611  1
  O  O29  1  0.46038757  0.78270415  0.09673268  1
  O  O30  1  0.94533390  0.73567853  0.42879104  1
  O  O31  1  0.44533390  0.26432147  0.57120896  1
  O  O32  1  0.43617591  0.60711755  0.79516756  1
  O  O33  1  0.25000000  0.64677307  0.25709589  1
  O  O34  1  0.75000000  0.09626929  0.12679223  1
  O  O35  1  0.25000000  0.90373071  0.87320777  1
  O  O36  1  0.93617591  0.39288245  0.20483244  1
  O  O37  1  0.96038757  0.21729585  0.90326732  1
  O  O38  1  0.05466610  0.26432147  0.57120896  1
  O  O39  1  0.25000000  0.49117451  0.04310364  1
