# generated using pymatgen
data_ZnFe3P3O13
_symmetry_space_group_name_H-M   'P 1'
_cell_length_a   6.35440801
_cell_length_b   7.67329072
_cell_length_c   10.09070962
_cell_angle_alpha   100.56491026
_cell_angle_beta   90.00000000
_cell_angle_gamma   90.00000000
_symmetry_Int_Tables_number   1
_chemical_formula_structural   ZnFe3P3O13
_chemical_formula_sum   'Zn2 Fe6 P6 O26'
_cell_volume   483.67440232
_cell_formula_units_Z   2
loop_
 _symmetry_equiv_pos_site_id
 _symmetry_equiv_pos_as_xyz
  1  'x, y, z'
loop_
 _atom_site_type_symbol
 _atom_site_label
 _atom_site_symmetry_multiplicity
 _atom_site_fract_x
 _atom_site_fract_y
 _atom_site_fract_z
 _atom_site_occupancy
  Zn  Zn0  1  0.75000000  0.62517678  0.17884180  1
  Zn  Zn1  1  0.25000000  0.37482322  0.82115820  1
  Fe  Fe2  1  0.25000000  0.35441944  0.20605584  1
  Fe  Fe3  1  0.75000000  0.64558056  0.79394416  1
  Fe  Fe4  1  0.25000000  0.78500718  0.43286656  1
  Fe  Fe5  1  0.50000000  0.00000000  0.00000000  1
  Fe  Fe6  1  0.75000000  0.21499282  0.56713344  1
  Fe  Fe7  1  -0.00000000  0.00000000  0.00000000  1
  P  P8  1  0.25000000  0.21848979  0.49878700  1
  P  P9  1  0.75000000  0.78151021  0.50121300  1
  P  P10  1  0.25000000  0.72822509  0.76055285  1
  P  P11  1  0.75000000  0.27177491  0.23944715  1
  P  P12  1  0.75000000  0.32093291  0.88969072  1
  P  P13  1  0.25000000  0.67906709  0.11030928  1
  O  O14  1  0.75000000  0.37088535  0.74715510  1
  O  O15  1  0.56003332  0.74607507  0.40263566  1
  O  O16  1  0.25000000  0.77815575  0.62219035  1
  O  O17  1  0.54394955  0.21594476  0.90267442  1
  O  O18  1  0.75000000  0.65376628  0.60181547  1
  O  O19  1  0.75000000  0.87919817  0.90270988  1
  O  O20  1  0.25000000  0.34623372  0.39818453  1
  O  O21  1  0.04394955  0.78405524  0.09732558  1
  O  O22  1  0.25000000  0.02696069  0.41730392  1
  O  O23  1  0.75000000  0.97303931  0.58269608  1
  O  O24  1  0.06281946  0.60998733  0.78745862  1
  O  O25  1  0.25000000  0.12080183  0.09729012  1
  O  O26  1  0.56281946  0.39001267  0.21254138  1
  O  O27  1  0.75000000  0.51071670  0.97697358  1
  O  O28  1  0.75000000  0.22184425  0.37780965  1
  O  O29  1  0.45605045  0.78405524  0.09732558  1
  O  O30  1  0.93996668  0.74607507  0.40263566  1
  O  O31  1  0.43996668  0.25392493  0.59736434  1
  O  O32  1  0.43718054  0.60998733  0.78745862  1
  O  O33  1  0.25000000  0.62911465  0.25284490  1
  O  O34  1  0.75000000  0.09598082  0.13074374  1
  O  O35  1  0.25000000  0.90401918  0.86925626  1
  O  O36  1  0.93718054  0.39001267  0.21254138  1
  O  O37  1  0.95605045  0.21594476  0.90267442  1
  O  O38  1  0.06003332  0.25392493  0.59736434  1
  O  O39  1  0.25000000  0.48928330  0.02302642  1
