# generated using pymatgen
data_ZnCu2(PO4)2
_symmetry_space_group_name_H-M   'P 1'
_cell_length_a   5.07898861
_cell_length_b   9.15617962
_cell_length_c   13.85209551
_cell_angle_alpha   84.34510872
_cell_angle_beta   79.43626556
_cell_angle_gamma   73.89770696
_symmetry_Int_Tables_number   1
_chemical_formula_structural   ZnCu2(PO4)2
_chemical_formula_sum   'Zn4 Cu8 P8 O32'
_cell_volume   607.64168594
_cell_formula_units_Z   4
loop_
 _symmetry_equiv_pos_site_id
 _symmetry_equiv_pos_as_xyz
  1  'x, y, z'
loop_
 _atom_site_type_symbol
 _atom_site_label
 _atom_site_symmetry_multiplicity
 _atom_site_fract_x
 _atom_site_fract_y
 _atom_site_fract_z
 _atom_site_occupancy
  Zn  Zn0  1  0.43413899  0.85387517  0.87623316  1
  Zn  Zn1  1  0.16424732  0.64612483  0.62376684  1
  Zn  Zn2  1  0.83575268  0.35387517  0.37623316  1
  Zn  Zn3  1  0.56586101  0.14612483  0.12376684  1
  Cu  Cu4  1  0.16281620  0.23361150  0.96828975  1
  Cu  Cu5  1  0.36471744  0.26638850  0.53171025  1
  Cu  Cu6  1  0.83718380  0.76638850  0.03171025  1
  Cu  Cu7  1  0.50000000  0.50000000  -0.00000000  1
  Cu  Cu8  1  0.63528256  0.73361150  0.46828975  1
  Cu  Cu9  1  0.64633987  0.75000000  0.25000000  1
  Cu  Cu10  1  0.35366013  0.25000000  0.75000000  1
  Cu  Cu11  1  0.00000000  0.00000000  0.50000000  1
  P  P12  1  0.07431937  0.55910002  0.85946442  1
  P  P13  1  0.77601087  0.42752283  0.60678903  1
  P  P14  1  0.92568063  0.44089998  0.14053558  1
  P  P15  1  0.18967727  0.92752283  0.10678903  1
  P  P16  1  0.50711720  0.05910002  0.35946442  1
  P  P17  1  0.49288280  0.94089998  0.64053558  1
  P  P18  1  0.22398913  0.57247717  0.39321097  1
  P  P19  1  0.81032273  0.07247717  0.89321097  1
  O  O20  1  0.68196905  0.39907575  0.10665731  1
  O  O21  1  0.78878781  0.90431423  0.91811216  1
  O  O22  1  0.81229688  0.89907575  0.60665731  1
  O  O23  1  0.81014205  0.31855284  0.52355322  1
  O  O24  1  0.18823664  0.39352170  0.05786327  1
  O  O25  1  0.60957119  0.38423722  0.70181348  1
  O  O26  1  0.65225011  0.18144716  0.97644678  1
  O  O27  1  0.87499612  0.92703418  0.11629498  1
  O  O28  1  0.18985795  0.68144716  0.47644678  1
  O  O29  1  0.61121520  0.59568577  0.58188784  1
  O  O30  1  0.86840367  0.61955346  0.14517905  1
  O  O31  1  0.58146241  0.14166474  0.26238665  1
  O  O32  1  0.21121219  0.09568577  0.08188784  1
  O  O33  1  0.08167572  0.42703418  0.61629497  1
  O  O34  1  0.31802995  0.60092425  0.89334269  1
  O  O35  1  0.13159633  0.38044654  0.85482095  1
  O  O36  1  0.01448620  0.64166474  0.76238665  1
  O  O37  1  0.34774989  0.81855284  0.02355322  1
  O  O38  1  0.36686382  0.11955346  0.64517905  1
  O  O39  1  0.41853759  0.85833526  0.73761335  1
  O  O40  1  0.91832428  0.57296582  0.38370503  1
  O  O41  1  0.36037839  0.89352170  0.55786327  1
  O  O42  1  0.12500388  0.07296582  0.88370502  1
  O  O43  1  0.30437911  0.88423722  0.20181348  1
  O  O44  1  0.38878480  0.40431423  0.41811216  1
  O  O45  1  0.18770312  0.10092425  0.39334269  1
  O  O46  1  0.98551380  0.35833526  0.23761335  1
  O  O47  1  0.63962161  0.10647830  0.44213673  1
  O  O48  1  0.81176336  0.60647830  0.94213673  1
  O  O49  1  0.69562089  0.11576278  0.79818652  1
  O  O50  1  0.39042881  0.61576278  0.29818652  1
  O  O51  1  0.63313618  0.88044654  0.35482095  1
