# generated using pymatgen
data_CaV4O10
_symmetry_space_group_name_H-M   'P 1'
_cell_length_a   3.61774899
_cell_length_b   5.17477948
_cell_length_c   11.47621567
_cell_angle_alpha   90.00503743
_cell_angle_beta   89.99996534
_cell_angle_gamma   90.00000000
_symmetry_Int_Tables_number   1
_chemical_formula_structural   CaV4O10
_chemical_formula_sum   'Ca1 V4 O10'
_cell_volume   214.84684392
_cell_formula_units_Z   1
loop_
 _symmetry_equiv_pos_site_id
 _symmetry_equiv_pos_as_xyz
  1  'x, y, z'
loop_
 _atom_site_type_symbol
 _atom_site_label
 _atom_site_symmetry_multiplicity
 _atom_site_fract_x
 _atom_site_fract_y
 _atom_site_fract_z
 _atom_site_occupancy
  Ca  Ca0  1  0.25000000  0.14782898  0.75001336  1
  V  V1  1  0.25000000  0.40729709  0.10094766  1
  V  V2  1  0.75000000  0.60699532  0.90134998  1
  V  V3  1  0.74999900  0.60693165  0.59866126  1
  V  V4  1  0.25000100  0.40724415  0.39904246  1
  O  O5  1  0.75000100  0.43656803  0.75000586  1
  O  O6  1  0.24999900  0.52226223  0.25000493  1
  O  O7  1  0.74999800  0.51233125  0.07071542  1
  O  O8  1  0.24999900  0.47089764  0.92599009  1
  O  O9  1  0.75000000  0.51224028  0.42929021  1
  O  O10  1  0.24999800  0.47082385  0.57401195  1
  O  O11  1  0.25000000  0.09782548  0.38991112  1
  O  O12  1  0.74999800  0.92566628  0.62900136  1
  O  O13  1  0.74999900  0.92571603  0.87101200  1
  O  O14  1  0.24999900  0.09790075  0.11003934  1
