# generated using pymatgen
data_La2Co2O5
_symmetry_space_group_name_H-M   'P 1'
_cell_length_a   5.47937885
_cell_length_b   5.81283278
_cell_length_c   8.84891201
_cell_angle_alpha   109.17466372
_cell_angle_beta   108.03557756
_cell_angle_gamma   90.00000000
_symmetry_Int_Tables_number   1
_chemical_formula_structural   La2Co2O5
_chemical_formula_sum   'La4 Co4 O10'
_cell_volume   251.49983181
_cell_formula_units_Z   2
loop_
 _symmetry_equiv_pos_site_id
 _symmetry_equiv_pos_as_xyz
  1  'x, y, z'
loop_
 _atom_site_type_symbol
 _atom_site_label
 _atom_site_symmetry_multiplicity
 _atom_site_fract_x
 _atom_site_fract_y
 _atom_site_fract_z
 _atom_site_occupancy
  La  La0  1  0.61101082  0.13298539  0.22070257  1
  La  La1  1  0.39030824  0.86701461  0.77929743  1
  La  La2  1  0.11101082  0.58771718  0.22070257  1
  La  La3  1  0.89030824  0.41228282  0.77929743  1
  Co  Co4  1  0.01021041  0.00000000  0.00000000  1
  Co  Co5  1  0.51021041  0.50000000  0.00000000  1
  Co  Co6  1  0.21485121  0.18816394  0.50000000  1
  Co  Co7  1  0.71485121  0.81183606  0.50000000  1
  O  O8  1  0.23788196  0.23760243  0.96512505  1
  O  O9  1  0.27275691  0.76239757  0.03487495  1
  O  O10  1  0.73788196  0.22752262  0.96512505  1
  O  O11  1  0.77275691  0.77247738  0.03487495  1
  O  O12  1  0.18362983  0.22440071  0.28291956  1
  O  O13  1  0.90071028  0.77559929  0.71708044  1
  O  O14  1  0.68362983  0.55851885  0.28291956  1
  O  O15  1  0.40071028  0.44148115  0.71708044  1
  O  O16  1  0.84264034  0.13759679  0.50000000  1
  O  O17  1  0.34264034  0.86240321  0.50000000  1
