# generated using pymatgen
data_SnHg2(SBr)2
_symmetry_space_group_name_H-M   'P 1'
_cell_length_a   10.64253830
_cell_length_b   11.15448698
_cell_length_c   13.06541976
_cell_angle_alpha   114.94546776
_cell_angle_beta   90.00000000
_cell_angle_gamma   90.00000000
_symmetry_Int_Tables_number   1
_chemical_formula_structural   SnHg2(SBr)2
_chemical_formula_sum   'Sn4 Hg8 S8 Br8'
_cell_volume   1406.32730480
_cell_formula_units_Z   4
loop_
 _symmetry_equiv_pos_site_id
 _symmetry_equiv_pos_as_xyz
  1  'x, y, z'
loop_
 _atom_site_type_symbol
 _atom_site_label
 _atom_site_symmetry_multiplicity
 _atom_site_fract_x
 _atom_site_fract_y
 _atom_site_fract_z
 _atom_site_occupancy
  Sn  Sn0  1  0.31533429  0.24028670  0.46797043  1
  Sn  Sn1  1  0.18466571  0.74028670  0.96797043  1
  Sn  Sn2  1  0.68466571  0.75971330  0.53202957  1
  Sn  Sn3  1  0.81533429  0.25971330  0.03202957  1
  Hg  Hg4  1  0.39392254  0.94196674  0.17332578  1
  Hg  Hg5  1  0.10607746  0.44196674  0.67332578  1
  Hg  Hg6  1  0.60607746  0.05803326  0.82667422  1
  Hg  Hg7  1  0.89392254  0.55803326  0.32667422  1
  Hg  Hg8  1  0.17329807  0.88094274  0.37135137  1
  Hg  Hg9  1  0.32670193  0.38094274  0.87135137  1
  Hg  Hg10  1  0.82670193  0.11905726  0.62864863  1
  Hg  Hg11  1  0.67329807  0.61905726  0.12864863  1
  S  S12  1  0.40859945  0.17271647  0.28529212  1
  S  S13  1  0.09140055  0.67271647  0.78529212  1
  S  S14  1  0.59140055  0.82728353  0.71470788  1
  S  S15  1  0.90859945  0.32728353  0.21470788  1
  S  S16  1  0.39488914  0.71887399  0.03060934  1
  S  S17  1  0.10511086  0.21887399  0.53060934  1
  S  S18  1  0.60511086  0.28112601  0.96939066  1
  S  S19  1  0.89488914  0.78112601  0.46939066  1
  Br  Br20  1  0.46802981  0.18865869  0.59137406  1
  Br  Br21  1  0.03197019  0.68865869  0.09137406  1
  Br  Br22  1  0.53197019  0.81134131  0.40862594  1
  Br  Br23  1  0.96802981  0.31134131  0.90862594  1
  Br  Br24  1  0.32923139  0.48710301  0.52423631  1
  Br  Br25  1  0.17076861  0.98710301  0.02423631  1
  Br  Br26  1  0.67076861  0.51289699  0.47576369  1
  Br  Br27  1  0.82923139  0.01289699  0.97576369  1
