# generated using pymatgen
data_Ba3Sr5Co2(CuO4)6
_symmetry_space_group_name_H-M   'P 1'
_cell_length_a   7.87342335
_cell_length_b   7.85403722
_cell_length_c   7.86306903
_cell_angle_alpha   89.96957686
_cell_angle_beta   90.00000000
_cell_angle_gamma   90.00000000
_symmetry_Int_Tables_number   1
_chemical_formula_structural   Ba3Sr5Co2(CuO4)6
_chemical_formula_sum   'Ba3 Sr5 Co2 Cu6 O24'
_cell_volume   486.23765216
_cell_formula_units_Z   1
loop_
 _symmetry_equiv_pos_site_id
 _symmetry_equiv_pos_as_xyz
  1  'x, y, z'
loop_
 _atom_site_type_symbol
 _atom_site_label
 _atom_site_symmetry_multiplicity
 _atom_site_fract_x
 _atom_site_fract_y
 _atom_site_fract_z
 _atom_site_occupancy
  Ba  Ba0  1  0.25000000  0.75279939  0.24865738  1
  Ba  Ba1  1  0.25000000  0.75254677  0.75181844  1
  Ba  Ba2  1  0.75000000  0.75286997  0.75195422  1
  Sr  Sr3  1  0.25000000  0.24671200  0.24552486  1
  Sr  Sr4  1  0.25000000  0.24724036  0.75390830  1
  Sr  Sr5  1  0.75000000  0.24587051  0.24571718  1
  Sr  Sr6  1  0.75000000  0.24641882  0.75520570  1
  Sr  Sr7  1  0.75000000  0.75452087  0.24652686  1
  Co  Co8  1  0.99859994  0.49401357  0.49801718  1
  Co  Co9  1  0.50140006  0.49401357  0.49801718  1
  Cu  Cu10  1  -0.00023103  0.00068619  0.00029410  1
  Cu  Cu11  1  0.99959618  -0.00026723  0.49959953  1
  Cu  Cu12  1  0.99989358  0.49953799  -0.00011876  1
  Cu  Cu13  1  0.50023103  0.00068619  0.00029410  1
  Cu  Cu14  1  0.50040382  -0.00026723  0.49959953  1
  Cu  Cu15  1  0.50010642  0.49953799  -0.00011876  1
  O  O16  1  0.25000000  0.01398378  0.00142727  1
  O  O17  1  0.25000000  0.01379557  0.49825584  1
  O  O18  1  0.25000000  0.48487949  0.00077645  1
  O  O19  1  0.25000000  0.49241874  0.49869526  1
  O  O20  1  0.75000000  0.00947860  0.00584741  1
  O  O21  1  0.75000000  0.00834723  0.49340689  1
  O  O22  1  0.75000000  0.48955201  0.00568985  1
  O  O23  1  0.75000000  0.49379467  0.49752508  1
  O  O24  1  0.99778570  0.25115479  0.00178873  1
  O  O25  1  0.99880711  0.25513368  0.49816101  1
  O  O26  1  0.99285421  0.74831325  0.00700088  1
  O  O27  1  0.99574718  0.74179171  0.49567520  1
  O  O28  1  0.50221430  0.25115479  0.00178873  1
  O  O29  1  0.50119289  0.25513368  0.49816101  1
  O  O30  1  0.50714579  0.74831325  0.00700088  1
  O  O31  1  0.50425282  0.74179171  0.49567520  1
  O  O32  1  0.99390568  0.00904432  0.25137688  1
  O  O33  1  0.99837225  0.01401531  0.74864511  1
  O  O34  1  0.99640880  0.49320709  0.25596260  1
  O  O35  1  0.99901850  0.49075494  0.74312904  1
  O  O36  1  0.50609432  0.00904432  0.25137688  1
  O  O37  1  0.50162775  0.01401531  0.74864511  1
  O  O38  1  0.50359120  0.49320709  0.25596260  1
  O  O39  1  0.50098150  0.49075494  0.74312904  1
