# generated using pymatgen
data_Sr2Ca2Mn3FeO10
_symmetry_space_group_name_H-M   'P 1'
_cell_length_a   11.00055729
_cell_length_b   11.10752502
_cell_length_c   17.70865441
_cell_angle_alpha   108.29452193
_cell_angle_beta   108.19119511
_cell_angle_gamma   90.00578023
_symmetry_Int_Tables_number   1
_chemical_formula_structural   Sr2Ca2Mn3FeO10
_chemical_formula_sum   'Sr16 Ca16 Mn24 Fe8 O80'
_cell_volume   1940.17658932
_cell_formula_units_Z   8
loop_
 _symmetry_equiv_pos_site_id
 _symmetry_equiv_pos_as_xyz
  1  'x, y, z'
loop_
 _atom_site_type_symbol
 _atom_site_label
 _atom_site_symmetry_multiplicity
 _atom_site_fract_x
 _atom_site_fract_y
 _atom_site_fract_z
 _atom_site_occupancy
  Sr  Sr0  1  0.30995923  0.55907379  0.61146913  1
  Sr  Sr1  1  0.80783950  0.05692871  0.60935587  1
  Sr  Sr2  1  0.81065354  0.55819972  0.61118825  1
  Sr  Sr3  1  0.19604461  0.43984105  0.38602256  1
  Sr  Sr4  1  0.20035201  0.44364613  0.89344790  1
  Sr  Sr5  1  0.69707202  0.44010633  0.38601124  1
  Sr  Sr6  1  0.69873182  0.93841839  0.38631632  1
  Sr  Sr7  1  0.70074699  0.94186099  0.89287103  1
  Sr  Sr8  1  0.06037834  0.30069310  0.61051912  1
  Sr  Sr9  1  0.06015490  0.80286037  0.61052202  1
  Sr  Sr10  1  0.55930566  0.30305505  0.61078039  1
  Sr  Sr11  1  0.55934873  0.80147999  0.61028965  1
  Sr  Sr12  1  0.44630258  0.19680057  0.38654287  1
  Sr  Sr13  1  0.45178369  0.19972032  0.89125707  1
  Sr  Sr14  1  0.94705869  0.19499980  0.38607983  1
  Sr  Sr15  1  0.94867537  0.20026312  0.89217242  1
  Ca  Ca16  1  0.30429754  0.06182355  0.10543999  1
  Ca  Ca17  1  0.30601398  0.05878370  0.60473618  1
  Ca  Ca18  1  0.30630748  0.56522417  0.10710725  1
  Ca  Ca19  1  0.80318648  0.06293024  0.10482894  1
  Ca  Ca20  1  0.80686989  0.56264617  0.10643059  1
  Ca  Ca21  1  0.19987539  0.93627912  0.39194890  1
  Ca  Ca22  1  0.20276160  0.93761733  0.89787422  1
  Ca  Ca23  1  0.70335867  0.44093520  0.89866899  1
  Ca  Ca24  1  0.05325677  0.29217182  0.10564942  1
  Ca  Ca25  1  0.05571179  0.79238778  0.10620536  1
  Ca  Ca26  1  0.55397626  0.29203266  0.10409158  1
  Ca  Ca27  1  0.55481148  0.79179950  0.10406706  1
  Ca  Ca28  1  0.44871820  0.70306978  0.39237334  1
  Ca  Ca29  1  0.45052373  0.70793849  0.89727537  1
  Ca  Ca30  1  0.95016372  0.70489622  0.39189981  1
  Ca  Ca31  1  0.95141310  0.70883745  0.89865508  1
  Mn  Mn32  1  0.00453640  0.99881907  0.49838469  1
  Mn  Mn33  1  0.00192142  0.49927934  0.49748988  1
  Mn  Mn34  1  0.50179314  0.49889700  0.49714880  1
  Mn  Mn35  1  0.25744886  0.25155423  0.00341853  1
  Mn  Mn36  1  0.25232110  0.24806884  0.49777188  1
  Mn  Mn37  1  0.25228106  0.74883734  0.49758637  1
  Mn  Mn38  1  0.75288438  0.24954569  0.49864563  1
  Mn  Mn39  1  0.75258121  0.74716782  0.49674207  1
  Mn  Mn40  1  0.10616868  0.08848511  0.24439849  1
  Mn  Mn41  1  0.11851503  0.09436244  0.75628309  1
  Mn  Mn42  1  0.10557477  0.59982086  0.24545604  1
  Mn  Mn43  1  0.11412499  0.60457582  0.75582104  1
  Mn  Mn44  1  0.60443944  0.08869791  0.24248721  1
  Mn  Mn45  1  0.60865863  0.10066704  0.74978246  1
  Mn  Mn46  1  0.60524433  0.59464223  0.24452074  1
  Mn  Mn47  1  0.61324781  0.59780372  0.75745934  1
  Mn  Mn48  1  0.35317947  0.40718777  0.24270904  1
  Mn  Mn49  1  0.36593611  0.40594324  0.75503807  1
  Mn  Mn50  1  0.35338461  0.89709203  0.24702744  1
  Mn  Mn51  1  0.36035014  0.90356628  0.75344664  1
  Mn  Mn52  1  0.85581624  0.40644100  0.24474229  1
  Mn  Mn53  1  0.86069767  0.41186496  0.75775599  1
  Mn  Mn54  1  0.85896711  0.89501649  0.24285354  1
  Mn  Mn55  1  0.86797328  0.90137388  0.75362512  1
  Fe  Fe56  1  0.00870907  0.00106863  0.00362414  1
  Fe  Fe57  1  0.00689855  0.50162781  0.00298875  1
  Fe  Fe58  1  0.50660788  0.00126401  0.00322218  1
  Fe  Fe59  1  0.50181107  0.99892477  0.49816654  1
  Fe  Fe60  1  0.50705925  0.50177650  0.00301718  1
  Fe  Fe61  1  0.25704467  0.75244854  0.00325596  1
  Fe  Fe62  1  0.75769029  0.25367678  0.00482601  1
  Fe  Fe63  1  0.75721872  0.75013718  0.00192187  1
  O  O64  1  0.12828193  0.11855006  0.49434979  1
  O  O65  1  0.13166690  0.12362959  0.99543999  1
  O  O66  1  0.12147879  0.62406755  0.48981584  1
  O  O67  1  0.12508215  0.62532271  0.99383540  1
  O  O68  1  0.62525067  0.12318803  0.49490622  1
  O  O69  1  0.62812607  0.12569693  0.99778471  1
  O  O70  1  0.62080956  0.62208132  0.49081097  1
  O  O71  1  0.62519775  0.62073503  0.99010112  1
  O  O72  1  0.13901414  0.37983234  0.01578748  1
  O  O73  1  0.13034344  0.37504126  0.50343910  1
  O  O74  1  0.13682696  0.88009364  0.01160323  1
  O  O75  1  0.13045479  0.87656441  0.49962834  1
  O  O76  1  0.63756334  0.38327541  0.01517418  1
  O  O77  1  0.62786086  0.37593091  0.50101101  1
  O  O78  1  0.63473591  0.87803731  0.01320490  1
  O  O79  1  0.62621098  0.87118543  0.49856841  1
  O  O80  1  0.37092541  0.11819447  0.49289184  1
  O  O81  1  0.37333569  0.12088050  0.99404245  1
  O  O82  1  0.37565540  0.62269851  0.49208873  1
  O  O83  1  0.37924427  0.62439094  0.99531180  1
  O  O84  1  0.87710856  0.12183490  0.49675854  1
  O  O85  1  0.87936456  0.12222231  0.99630595  1
  O  O86  1  0.87452605  0.62306193  0.49232343  1
  O  O87  1  0.87556411  0.61872396  0.99032103  1
  O  O88  1  0.38466769  0.38200877  0.01356165  1
  O  O89  1  0.37898479  0.37661223  0.50201596  1
  O  O90  1  0.38582598  0.88427887  0.01360742  1
  O  O91  1  0.37723548  0.87751338  0.50292260  1
  O  O92  1  0.88468881  0.38430224  0.01216975  1
  O  O93  1  0.87769209  0.37521897  0.50174334  1
  O  O94  1  0.88921977  0.88276633  0.01497911  1
  O  O95  1  0.88074403  0.87448726  0.50039965  1
  O  O96  1  0.09087178  0.09290494  0.13551548  1
  O  O97  1  0.08818050  0.07790801  0.64210693  1
  O  O98  1  0.07800769  0.59484816  0.13338275  1
  O  O99  1  0.07095286  0.58257473  0.64007365  1
  O  O100  1  0.58085524  0.09502372  0.13382623  1
  O  O101  1  0.57260574  0.07727619  0.63232773  1
  O  O102  1  0.57715685  0.59537416  0.13349122  1
  O  O103  1  0.57550446  0.57893096  0.64227253  1
  O  O104  1  0.42891683  0.41594002  0.35485582  1
  O  O105  1  0.44406944  0.41438987  0.86896875  1
  O  O106  1  0.43473146  0.91632493  0.36325778  1
  O  O107  1  0.44675197  0.91482543  0.86892014  1
  O  O108  1  0.93026046  0.41689147  0.35757872  1
  O  O109  1  0.94608373  0.41366046  0.86936071  1
  O  O110  1  0.93722247  0.91446095  0.35764826  1
  O  O111  1  0.95024212  0.91148719  0.86966037  1
  O  O112  1  0.33292764  0.29327390  0.13189953  1
  O  O113  1  0.32992273  0.30456393  0.64094207  1
  O  O114  1  0.32660216  0.79019097  0.13570101  1
  O  O115  1  0.31960867  0.80377020  0.63882965  1
  O  O116  1  0.83856938  0.29379244  0.13546550  1
  O  O117  1  0.82485666  0.31545369  0.64291305  1
  O  O118  1  0.83384368  0.78453924  0.13243718  1
  O  O119  1  0.82363677  0.80645145  0.63732304  1
  O  O120  1  0.18085601  0.18897769  0.35811445  1
  O  O121  1  0.19435924  0.20482706  0.87201911  1
  O  O122  1  0.19008491  0.69693920  0.35882669  1
  O  O123  1  0.20338611  0.70883584  0.86932030  1
  O  O124  1  0.68208326  0.18384361  0.35725559  1
  O  O125  1  0.68571929  0.20636580  0.86624979  1
  O  O126  1  0.69022750  0.68778920  0.35804647  1
  O  O127  1  0.70268682  0.70578595  0.86855235  1
  O  O128  1  0.42749481  0.05910947  0.23960633  1
  O  O129  1  0.42719139  0.06651621  0.74442461  1
  O  O130  1  0.42826865  0.57766405  0.24698043  1
  O  O131  1  0.43962821  0.57981950  0.76114916  1
  O  O132  1  0.92814541  0.06173910  0.23762324  1
  O  O133  1  0.94173120  0.06715420  0.75167398  1
  O  O134  1  0.92951229  0.57706058  0.24760728  1
  O  O135  1  0.94083798  0.57902959  0.76258081  1
  O  O136  1  0.17604126  0.42855467  0.23866333  1
  O  O137  1  0.19176093  0.43929068  0.75300704  1
  O  O138  1  0.17705027  0.91886159  0.24705456  1
  O  O139  1  0.18680558  0.92731402  0.76151987  1
  O  O140  1  0.67613018  0.42511765  0.23749466  1
  O  O141  1  0.68563298  0.43030265  0.76133519  1
  O  O142  1  0.68123431  0.92208683  0.23812329  1
  O  O143  1  0.69232398  0.94177547  0.75339461  1
