# generated using pymatgen
data_Eu2Ti2O5
_symmetry_space_group_name_H-M   'P 1'
_cell_length_a   5.54823255
_cell_length_b   5.57045600
_cell_length_c   8.74100955
_cell_angle_alpha   108.58064742
_cell_angle_beta   108.50382411
_cell_angle_gamma   90.00000000
_symmetry_Int_Tables_number   1
_chemical_formula_structural   Eu2Ti2O5
_chemical_formula_sum   'Eu4 Ti4 O10'
_cell_volume   241.29009672
_cell_formula_units_Z   2
loop_
 _symmetry_equiv_pos_site_id
 _symmetry_equiv_pos_as_xyz
  1  'x, y, z'
loop_
 _atom_site_type_symbol
 _atom_site_label
 _atom_site_symmetry_multiplicity
 _atom_site_fract_x
 _atom_site_fract_y
 _atom_site_fract_z
 _atom_site_occupancy
  Eu  Eu0  1  0.61864628  0.12548246  0.23869045  1
  Eu  Eu1  1  0.37995583  0.87451754  0.76130955  1
  Eu  Eu2  1  0.11864628  0.61320798  0.23869045  1
  Eu  Eu3  1  0.87995583  0.38679202  0.76130955  1
  Ti  Ti4  1  0.99754341  0.00000000  -0.00000000  1
  Ti  Ti5  1  0.49754341  0.50000000  -0.00000000  1
  Ti  Ti6  1  0.23400169  0.24118393  0.50000000  1
  Ti  Ti7  1  0.73400169  0.75881607  0.50000000  1
  O  O8  1  0.23611945  0.23932815  0.97937043  1
  O  O9  1  0.25674902  0.76067185  0.02062957  1
  O  O10  1  0.73611945  0.24004228  0.97937043  1
  O  O11  1  0.75674902  0.75995772  0.02062957  1
  O  O12  1  0.12019603  0.17274173  0.25575915  1
  O  O13  1  0.86443688  0.82725827  0.74424085  1
  O  O14  1  0.62019603  0.58301742  0.25575915  1
  O  O15  1  0.36443688  0.41698258  0.74424085  1
  O  O16  1  0.95635140  0.02651020  0.50000000  1
  O  O17  1  0.45635140  0.97348980  0.50000000  1
