# generated using pymatgen
data_HoHg2
_symmetry_space_group_name_H-M   'P 1'
_cell_length_a   3.82461989
_cell_length_b   5.66575223
_cell_length_c   3.89618769
_cell_angle_alpha   110.11080474
_cell_angle_beta   90.00000064
_cell_angle_gamma   71.10616858
_symmetry_Int_Tables_number   1
_chemical_formula_structural   HoHg2
_chemical_formula_sum   'Ho1 Hg2'
_cell_volume   74.41728297
_cell_formula_units_Z   1
loop_
 _symmetry_equiv_pos_site_id
 _symmetry_equiv_pos_as_xyz
  1  'x, y, z'
loop_
 _atom_site_type_symbol
 _atom_site_label
 _atom_site_symmetry_multiplicity
 _atom_site_fract_x
 _atom_site_fract_y
 _atom_site_fract_z
 _atom_site_occupancy
  Ho  Ho0  1  -0.00000000  0.00000000  -0.00000000  1
  Hg  Hg1  1  0.33452719  0.33469600  0.66734800  1
  Hg  Hg2  1  0.66547281  0.66530400  0.33265200  1
