# generated using pymatgen
data_Sr2Ca2Co3CuO10
_symmetry_space_group_name_H-M   'P 1'
_cell_length_a   10.75979189
_cell_length_b   11.03086731
_cell_length_c   17.43588183
_cell_angle_alpha   108.49502847
_cell_angle_beta   108.19627524
_cell_angle_gamma   89.67866545
_symmetry_Int_Tables_number   1
_chemical_formula_structural   Sr2Ca2Co3CuO10
_chemical_formula_sum   'Sr16 Ca16 Co24 Cu8 O80'
_cell_volume   1854.37546574
_cell_formula_units_Z   8
loop_
 _symmetry_equiv_pos_site_id
 _symmetry_equiv_pos_as_xyz
  1  'x, y, z'
loop_
 _atom_site_type_symbol
 _atom_site_label
 _atom_site_symmetry_multiplicity
 _atom_site_fract_x
 _atom_site_fract_y
 _atom_site_fract_z
 _atom_site_occupancy
  Sr  Sr0  1  0.30447311  0.55770190  0.61937715  1
  Sr  Sr1  1  0.80869315  0.06171810  0.61260499  1
  Sr  Sr2  1  0.81011334  0.55787786  0.61749696  1
  Sr  Sr3  1  0.18981261  0.43562489  0.38301198  1
  Sr  Sr4  1  0.19616002  0.44663055  0.88576990  1
  Sr  Sr5  1  0.68804506  0.43385471  0.38288189  1
  Sr  Sr6  1  0.69600659  0.93657994  0.38133787  1
  Sr  Sr7  1  0.70053617  0.93660561  0.89278426  1
  Sr  Sr8  1  0.06364420  0.30411291  0.61609584  1
  Sr  Sr9  1  0.05737745  0.80823260  0.61845817  1
  Sr  Sr10  1  0.56173693  0.30622373  0.61464495  1
  Sr  Sr11  1  0.55684218  0.79829336  0.61157379  1
  Sr  Sr12  1  0.44115014  0.19374327  0.38063015  1
  Sr  Sr13  1  0.44199273  0.19795980  0.88543876  1
  Sr  Sr14  1  0.94436877  0.19457669  0.38446479  1
  Sr  Sr15  1  0.94857669  0.19201606  0.88646761  1
  Ca  Ca16  1  0.30641259  0.06523655  0.10975973  1
  Ca  Ca17  1  0.30823758  0.06536415  0.60866853  1
  Ca  Ca18  1  0.30061667  0.56660957  0.10809412  1
  Ca  Ca19  1  0.79964357  0.06600942  0.10892009  1
  Ca  Ca20  1  0.80495547  0.56847092  0.11113175  1
  Ca  Ca21  1  0.19410992  0.92898615  0.38543797  1
  Ca  Ca22  1  0.19880930  0.93655539  0.89693838  1
  Ca  Ca23  1  0.69958286  0.43995633  0.89404015  1
  Ca  Ca24  1  0.05735698  0.28841598  0.10912128  1
  Ca  Ca25  1  0.05811967  0.79264321  0.10904626  1
  Ca  Ca26  1  0.54563250  0.29427073  0.10663300  1
  Ca  Ca27  1  0.54656823  0.79567398  0.10791205  1
  Ca  Ca28  1  0.43336324  0.70461231  0.38482567  1
  Ca  Ca29  1  0.44498277  0.70551156  0.89496745  1
  Ca  Ca30  1  0.94056913  0.70675877  0.38710264  1
  Ca  Ca31  1  0.94855457  0.70692757  0.89563279  1
  Co  Co32  1  0.00966437  0.00029340  0.00270306  1
  Co  Co33  1  0.01016506  0.00363201  0.50605963  1
  Co  Co34  1  0.00604618  0.49970425  0.00166340  1
  Co  Co35  1  0.00066165  0.49906591  0.50060998  1
  Co  Co36  1  0.50236475  -0.00031426  0.00161741  1
  Co  Co37  1  0.49493882  0.99682562  0.48881389  1
  Co  Co38  1  0.50392583  0.50184119  0.00269818  1
  Co  Co39  1  0.49979559  0.49934315  0.50214660  1
  Co  Co40  1  0.25458483  0.25213804  0.00087882  1
  Co  Co41  1  0.25328879  0.24907396  0.50066257  1
  Co  Co42  1  0.25441744  0.75263258  0.00437419  1
  Co  Co43  1  0.25261514  0.75152432  0.50533126  1
  Co  Co44  1  0.76093290  0.25864702  0.01350648  1
  Co  Co45  1  0.75422329  0.25075172  0.50213180  1
  Co  Co46  1  0.75720123  0.74989808  0.00270669  1
  Co  Co47  1  0.74964566  0.74822299  0.49927529  1
  Co  Co48  1  0.10472418  0.08539622  0.24460847  1
  Co  Co49  1  0.10458514  0.59672488  0.24465726  1
  Co  Co50  1  0.61033043  0.08825876  0.24179735  1
  Co  Co51  1  0.60852576  0.09099887  0.75037470  1
  Co  Co52  1  0.60457707  0.59432467  0.24439315  1
  Co  Co53  1  0.35440951  0.40901162  0.24349275  1
  Co  Co54  1  0.85366303  0.40939884  0.24627310  1
  Co  Co55  1  0.86257901  0.89716321  0.24151125  1
  Cu  Cu56  1  0.12460784  0.09421880  0.75487043  1
  Cu  Cu57  1  0.11716036  0.61264026  0.75654859  1
  Cu  Cu58  1  0.61970887  0.60196042  0.75703273  1
  Cu  Cu59  1  0.37800137  0.40538945  0.75518564  1
  Cu  Cu60  1  0.34616256  0.89922256  0.24360554  1
  Cu  Cu61  1  0.36279937  0.88967702  0.75451786  1
  Cu  Cu62  1  0.86646466  0.40814175  0.75868138  1
  Cu  Cu63  1  0.86521938  0.89613170  0.75247086  1
  O  O64  1  0.12548801  0.10836251  0.49097700  1
  O  O65  1  0.13350856  0.12496445  0.99423427  1
  O  O66  1  0.10921016  0.61603382  0.48968930  1
  O  O67  1  0.12474648  0.62941770  0.99065146  1
  O  O68  1  0.62096106  0.11347873  0.49116659  1
  O  O69  1  0.63269319  0.13497938  0.99493577  1
  O  O70  1  0.60794243  0.61430818  0.48826635  1
  O  O71  1  0.63037107  0.63187025  0.99271006  1
  O  O72  1  0.12975222  0.38595129  0.01598683  1
  O  O73  1  0.13009318  0.37019143  0.50585839  1
  O  O74  1  0.12907236  0.88302772  0.01085588  1
  O  O75  1  0.13272204  0.86658138  0.49987911  1
  O  O76  1  0.63297783  0.39248855  0.01557789  1
  O  O77  1  0.62865020  0.37132959  0.50223711  1
  O  O78  1  0.63021424  0.88738089  0.01466873  1
  O  O79  1  0.62788973  0.86399311  0.49569128  1
  O  O80  1  0.36926050  0.12343621  0.49125703  1
  O  O81  1  0.37907106  0.11475852  0.99253045  1
  O  O82  1  0.36448550  0.62888470  0.49164094  1
  O  O83  1  0.38326839  0.62051635  0.99613229  1
  O  O84  1  0.87542286  0.12495612  0.49475395  1
  O  O85  1  0.88437296  0.11448154  0.99940555  1
  O  O86  1  0.86347645  0.62813872  0.49143987  1
  O  O87  1  0.87752941  0.60892520  0.99139248  1
  O  O88  1  0.38026217  0.38300302  0.01519996  1
  O  O89  1  0.37870862  0.38449639  0.50263226  1
  O  O90  1  0.37929575  0.87988521  0.01458002  1
  O  O91  1  0.38669853  0.89037971  0.51080955  1
  O  O92  1  0.87845781  0.37616190  0.01456810  1
  O  O93  1  0.87966649  0.38449308  0.50325309  1
  O  O94  1  0.88177845  0.87358917  0.01471849  1
  O  O95  1  0.88731983  0.88410909  0.50336279  1
  O  O96  1  0.09996994  0.09747678  0.14159898  1
  O  O97  1  0.09764081  0.08303519  0.63816282  1
  O  O98  1  0.08180775  0.60226879  0.13809373  1
  O  O99  1  0.06820691  0.58921841  0.63858053  1
  O  O100  1  0.58887083  0.10461886  0.13780943  1
  O  O101  1  0.59811154  0.10201081  0.64838882  1
  O  O102  1  0.58578938  0.60666721  0.13997199  1
  O  O103  1  0.57281010  0.57994925  0.63840973  1
  O  O104  1  0.42891725  0.40450182  0.35080344  1
  O  O105  1  0.45067037  0.41280115  0.86886256  1
  O  O106  1  0.42571358  0.91087338  0.36131823  1
  O  O107  1  0.44751054  0.90470092  0.86792809  1
  O  O108  1  0.92964537  0.40680020  0.35447513  1
  O  O109  1  0.94365254  0.40716423  0.86887912  1
  O  O110  1  0.94127406  0.89757854  0.34994001  1
  O  O111  1  0.94476202  0.90973161  0.86798218  1
  O  O112  1  0.34239276  0.28943291  0.14112200  1
  O  O113  1  0.33366631  0.29515482  0.64042268  1
  O  O114  1  0.31861913  0.78743568  0.12971256  1
  O  O115  1  0.31614893  0.79602096  0.63802984  1
  O  O116  1  0.84584135  0.28892615  0.14317081  1
  O  O117  1  0.83181458  0.31263704  0.64306210  1
  O  O118  1  0.84549590  0.78244507  0.13709701  1
  O  O119  1  0.81381219  0.80055499  0.63459957  1
  O  O120  1  0.18160118  0.19516858  0.35206922  1
  O  O121  1  0.19107036  0.21375014  0.86585706  1
  O  O122  1  0.19609386  0.70238196  0.35152800  1
  O  O123  1  0.20571465  0.71198600  0.87157821  1
  O  O124  1  0.68595585  0.18941109  0.35182421  1
  O  O125  1  0.69002158  0.21277359  0.85250358  1
  O  O126  1  0.69712920  0.69586486  0.35172170  1
  O  O127  1  0.70742751  0.70490269  0.86843023  1
  O  O128  1  0.43667073  0.04859664  0.23779907  1
  O  O129  1  0.43964896  0.06024099  0.74307528  1
  O  O130  1  0.42342176  0.57409301  0.24561141  1
  O  O131  1  0.45312558  0.57243940  0.76434533  1
  O  O132  1  0.92358717  0.05917086  0.23772324  1
  O  O133  1  0.95163363  0.04311104  0.74810051  1
  O  O134  1  0.92508760  0.57128518  0.24808543  1
  O  O135  1  0.95053131  0.57262467  0.76544754  1
  O  O136  1  0.17248532  0.43219400  0.23807386  1
  O  O137  1  0.21117724  0.46392821  0.74974189  1
  O  O138  1  0.16338874  0.92173568  0.24644739  1
  O  O139  1  0.20016295  0.94008624  0.76627400  1
  O  O140  1  0.67082751  0.42835478  0.23684374  1
  O  O141  1  0.69866396  0.44512930  0.76154380  1
  O  O142  1  0.68177034  0.92621607  0.23592163  1
  O  O143  1  0.68125709  0.94228275  0.75349827  1
