# generated using pymatgen
data_Te2Mo3W(SeS2)2
_symmetry_space_group_name_H-M   'P 1'
_cell_length_a   3.30725619
_cell_length_b   3.30721907
_cell_length_c   37.59379601
_cell_angle_alpha   89.99994169
_cell_angle_beta   90.00000000
_cell_angle_gamma   120.00037933
_symmetry_Int_Tables_number   1
_chemical_formula_structural   Te2Mo3W(SeS2)2
_chemical_formula_sum   'Te2 Mo3 W1 Se2 S4'
_cell_volume   356.10326308
_cell_formula_units_Z   1
loop_
 _symmetry_equiv_pos_site_id
 _symmetry_equiv_pos_as_xyz
  1  'x, y, z'
loop_
 _atom_site_type_symbol
 _atom_site_label
 _atom_site_symmetry_multiplicity
 _atom_site_fract_x
 _atom_site_fract_y
 _atom_site_fract_z
 _atom_site_occupancy
  Te  Te0  1  0.33335452  0.66671004  0.70834411  1
  Te  Te1  1  0.33335691  0.66671482  0.60679176  1
  Mo  Mo2  1  0.33331178  0.66662357  0.09392641  1
  Mo  Mo3  1  0.33330583  0.66661165  0.46962024  1
  Mo  Mo4  1  0.66669433  0.33338865  0.65758116  1
  W  W5  1  0.66668898  0.33337797  0.28179431  1
  Se  Se6  1  0.66664586  0.33329072  0.42506313  1
  Se  Se7  1  0.66664113  0.33328125  0.51418947  1
  S  S8  1  0.33335432  0.66670965  0.32257306  1
  S  S9  1  0.66664556  0.33329012  0.05319635  1
  S  S10  1  0.66664585  0.33329070  0.13466248  1
  S  S11  1  0.33335493  0.66671085  0.24100553  1
