# generated using pymatgen
data_EuZnGe
_symmetry_space_group_name_H-M   'P 1'
_cell_length_a   4.35853575
_cell_length_b   6.14875201
_cell_length_c   6.14875201
_cell_angle_alpha   75.87907507
_cell_angle_beta   69.24182741
_cell_angle_gamma   69.24182741
_symmetry_Int_Tables_number   1
_chemical_formula_structural   EuZnGe
_chemical_formula_sum   'Eu2 Zn2 Ge2'
_cell_volume   142.75823396
_cell_formula_units_Z   2
loop_
 _symmetry_equiv_pos_site_id
 _symmetry_equiv_pos_as_xyz
  1  'x, y, z'
loop_
 _atom_site_type_symbol
 _atom_site_label
 _atom_site_symmetry_multiplicity
 _atom_site_fract_x
 _atom_site_fract_y
 _atom_site_fract_z
 _atom_site_occupancy
  Eu  Eu0  1  0.24958132  0.75041868  0.75041868  1
  Eu  Eu1  1  0.75041868  0.24958132  0.24958132  1
  Zn  Zn2  1  -0.00000000  0.66742170  0.33257830  1
  Zn  Zn3  1  0.00000000  0.33257830  0.66742170  1
  Ge  Ge4  1  0.50000000  0.16790509  0.83209491  1
  Ge  Ge5  1  0.50000000  0.83209491  0.16790509  1
