# generated using pymatgen
data_Sr3Ca5Mn3(FeO4)5
_symmetry_space_group_name_H-M   'P 1'
_cell_length_a   11.02106023
_cell_length_b   11.24994082
_cell_length_c   17.39674370
_cell_angle_alpha   108.91651089
_cell_angle_beta   108.52349373
_cell_angle_gamma   89.85553329
_symmetry_Int_Tables_number   1
_chemical_formula_structural   Sr3Ca5Mn3(FeO4)5
_chemical_formula_sum   'Sr12 Ca20 Mn12 Fe20 O80'
_cell_volume   1922.57966805
_cell_formula_units_Z   4
loop_
 _symmetry_equiv_pos_site_id
 _symmetry_equiv_pos_as_xyz
  1  'x, y, z'
loop_
 _atom_site_type_symbol
 _atom_site_label
 _atom_site_symmetry_multiplicity
 _atom_site_fract_x
 _atom_site_fract_y
 _atom_site_fract_z
 _atom_site_occupancy
  Sr  Sr0  1  0.30841111  0.56056117  0.61013701  1
  Sr  Sr1  1  0.80593191  0.05859284  0.60809259  1
  Sr  Sr2  1  0.80832296  0.56052222  0.61018364  1
  Sr  Sr3  1  0.19555460  0.43402488  0.38671525  1
  Sr  Sr4  1  0.19940594  0.44244132  0.89318598  1
  Sr  Sr5  1  0.69496438  0.93645507  0.38598432  1
  Sr  Sr6  1  0.05860422  0.29830297  0.60858024  1
  Sr  Sr7  1  0.05852172  0.80101642  0.61019981  1
  Sr  Sr8  1  0.55827970  0.29930545  0.61051713  1
  Sr  Sr9  1  0.44906405  0.20112254  0.89090917  1
  Sr  Sr10  1  0.94501090  0.19772915  0.38541192  1
  Sr  Sr11  1  0.94873299  0.20153714  0.89219663  1
  Ca  Ca12  1  0.30404278  0.06529599  0.10751479  1
  Ca  Ca13  1  0.30567273  0.06065650  0.60378617  1
  Ca  Ca14  1  0.30237565  0.56683458  0.10920791  1
  Ca  Ca15  1  0.80437991  0.06338033  0.10636483  1
  Ca  Ca16  1  0.80189022  0.56693440  0.10677565  1
  Ca  Ca17  1  0.20094122  0.93238058  0.39181773  1
  Ca  Ca18  1  0.20150328  0.93860343  0.89722823  1
  Ca  Ca19  1  0.69800431  0.43480939  0.39317039  1
  Ca  Ca20  1  0.70100149  0.43911718  0.89643532  1
  Ca  Ca21  1  0.70065166  0.93747215  0.89502526  1
  Ca  Ca22  1  0.05372000  0.28896486  0.10748833  1
  Ca  Ca23  1  0.05493711  0.79087218  0.10623278  1
  Ca  Ca24  1  0.55284863  0.28948047  0.10592828  1
  Ca  Ca25  1  0.55683083  0.79279130  0.10634705  1
  Ca  Ca26  1  0.55676085  0.79550037  0.60556190  1
  Ca  Ca27  1  0.44694532  0.20712528  0.39226146  1
  Ca  Ca28  1  0.44373669  0.70645968  0.39152094  1
  Ca  Ca29  1  0.45113292  0.70843470  0.89623676  1
  Ca  Ca30  1  0.94495559  0.70916555  0.39230227  1
  Ca  Ca31  1  0.95035816  0.70932925  0.89698150  1
  Mn  Mn32  1  0.11634016  0.09426071  0.75272292  1
  Mn  Mn33  1  0.11360207  0.60274034  0.75297061  1
  Mn  Mn34  1  0.60431703  0.09556446  0.24698202  1
  Mn  Mn35  1  0.60819384  0.09472312  0.75018450  1
  Mn  Mn36  1  0.61370417  0.60464530  0.75401993  1
  Mn  Mn37  1  0.35889977  0.40138140  0.24739592  1
  Mn  Mn38  1  0.36731811  0.40440466  0.75267566  1
  Mn  Mn39  1  0.35438471  0.90397939  0.24908477  1
  Mn  Mn40  1  0.36477528  0.90178384  0.75130353  1
  Mn  Mn41  1  0.86026181  0.40971165  0.75509390  1
  Mn  Mn42  1  0.85937522  0.89510330  0.24538364  1
  Mn  Mn43  1  0.85824874  0.89924151  0.75110905  1
  Fe  Fe44  1  0.00694612  0.00057300  0.00251037  1
  Fe  Fe45  1  0.00473664  0.99898709  0.49800273  1
  Fe  Fe46  1  0.00579443  0.50220474  0.00404656  1
  Fe  Fe47  1  0.00144705  0.49857953  0.49563508  1
  Fe  Fe48  1  0.50592645  0.00015642  0.00167966  1
  Fe  Fe49  1  0.50209180  0.99890506  0.49822904  1
  Fe  Fe50  1  0.50729135  0.50223640  0.00358110  1
  Fe  Fe51  1  0.50289610  0.50045789  0.49743382  1
  Fe  Fe52  1  0.25620441  0.25247259  0.00328728  1
  Fe  Fe53  1  0.25401463  0.24725522  0.49701636  1
  Fe  Fe54  1  0.25666666  0.75287048  0.00272718  1
  Fe  Fe55  1  0.25400785  0.75008184  0.49870807  1
  Fe  Fe56  1  0.75647733  0.25241521  0.00419564  1
  Fe  Fe57  1  0.75160330  0.24922166  0.49762335  1
  Fe  Fe58  1  0.75574005  0.75069493  0.00047737  1
  Fe  Fe59  1  0.75127127  0.74657044  0.49526817  1
  Fe  Fe60  1  0.10883154  0.08331756  0.24645982  1
  Fe  Fe61  1  0.10345592  0.59000982  0.24728981  1
  Fe  Fe62  1  0.60473850  0.58745768  0.24801779  1
  Fe  Fe63  1  0.85100485  0.41165304  0.24782668  1
  O  O64  1  0.12681215  0.11728352  0.48922604  1
  O  O65  1  0.12748994  0.11975130  0.99245179  1
  O  O66  1  0.11929345  0.62349430  0.48665691  1
  O  O67  1  0.12366833  0.62658241  0.99310355  1
  O  O68  1  0.61956608  0.12238296  0.48890276  1
  O  O69  1  0.62846323  0.12176826  0.99479585  1
  O  O70  1  0.62071838  0.61881651  0.48429476  1
  O  O71  1  0.62477057  0.62040110  0.98847658  1
  O  O72  1  0.13713353  0.38366393  0.01810033  1
  O  O73  1  0.13094574  0.37597246  0.50470993  1
  O  O74  1  0.13635853  0.88110073  0.01317793  1
  O  O75  1  0.13325819  0.87733802  0.50255405  1
  O  O76  1  0.63860349  0.38343211  0.01840857  1
  O  O77  1  0.62939656  0.37735511  0.50228614  1
  O  O78  1  0.63540412  0.87909217  0.01250654  1
  O  O79  1  0.62639493  0.87134807  0.50369714  1
  O  O80  1  0.37063202  0.11502338  0.48690494  1
  O  O81  1  0.37396206  0.11788998  0.99220068  1
  O  O82  1  0.37658977  0.62427928  0.48914734  1
  O  O83  1  0.37972469  0.62517220  0.99576365  1
  O  O84  1  0.87470332  0.12014141  0.49325044  1
  O  O85  1  0.87435156  0.11766809  0.99351916  1
  O  O86  1  0.86963921  0.61595957  0.48383579  1
  O  O87  1  0.87425045  0.61913274  0.99043858  1
  O  O88  1  0.38774417  0.38690352  0.01744077  1
  O  O89  1  0.38268828  0.37779622  0.50519923  1
  O  O90  1  0.38542116  0.88307526  0.01199612  1
  O  O91  1  0.38276708  0.88098325  0.50957528  1
  O  O92  1  0.88562263  0.38602414  0.01727680  1
  O  O93  1  0.87715309  0.37901084  0.50173482  1
  O  O94  1  0.88812606  0.88366881  0.01472931  1
  O  O95  1  0.88246932  0.87561233  0.50405692  1
  O  O96  1  0.09632584  0.10285281  0.14098324  1
  O  O97  1  0.08307685  0.08024616  0.63520245  1
  O  O98  1  0.08670572  0.60807538  0.14100206  1
  O  O99  1  0.07015872  0.58580221  0.63403407  1
  O  O100  1  0.57745627  0.09598868  0.13563189  1
  O  O101  1  0.57784415  0.08478253  0.63436173  1
  O  O102  1  0.59180640  0.60767177  0.14246665  1
  O  O103  1  0.57475631  0.59134256  0.63507254  1
  O  O104  1  0.43764621  0.40723582  0.36142330  1
  O  O105  1  0.44625606  0.41101894  0.86840720  1
  O  O106  1  0.43579839  0.90554019  0.36232795  1
  O  O107  1  0.45267942  0.90935597  0.86646733  1
  O  O108  1  0.93989696  0.40246019  0.35672259  1
  O  O109  1  0.94282105  0.41069490  0.86832272  1
  O  O110  1  0.94051144  0.90981617  0.36201392  1
  O  O111  1  0.94410227  0.90633558  0.86661898  1
  O  O112  1  0.33516883  0.28975970  0.13668241  1
  O  O113  1  0.32827222  0.29447258  0.63507156  1
  O  O114  1  0.33060032  0.79393091  0.13741246  1
  O  O115  1  0.32417179  0.79645879  0.63431190  1
  O  O116  1  0.83761938  0.28576924  0.14262998  1
  O  O117  1  0.82308374  0.30655366  0.63687886  1
  O  O118  1  0.83028850  0.78604930  0.13342522  1
  O  O119  1  0.82022115  0.79782756  0.63297148  1
  O  O120  1  0.19664181  0.20049971  0.35709018  1
  O  O121  1  0.19164250  0.20769264  0.86764001  1
  O  O122  1  0.19705313  0.70790335  0.35678386  1
  O  O123  1  0.19999772  0.71115612  0.86763501  1
  O  O124  1  0.68760150  0.20138614  0.36195197  1
  O  O125  1  0.68865825  0.20972137  0.86640435  1
  O  O126  1  0.69735392  0.70464882  0.35663186  1
  O  O127  1  0.70049775  0.71586858  0.86751041  1
  O  O128  1  0.42902102  0.06762354  0.24955861  1
  O  O129  1  0.42800179  0.06449489  0.74301193  1
  O  O130  1  0.43004144  0.56535047  0.24877516  1
  O  O131  1  0.44080290  0.57415763  0.75873148  1
  O  O132  1  0.93363278  0.05451840  0.23970856  1
  O  O133  1  0.93910846  0.05724763  0.75022071  1
  O  O134  1  0.92483068  0.57023333  0.24853459  1
  O  O135  1  0.93990762  0.57386088  0.76025108  1
  O  O136  1  0.17265871  0.43042700  0.24068573  1
  O  O137  1  0.19141866  0.44236301  0.75115894  1
  O  O138  1  0.17451031  0.92288939  0.24777557  1
  O  O139  1  0.19281259  0.93332651  0.76012407  1
  O  O140  1  0.67208732  0.42675362  0.24754067  1
  O  O141  1  0.68646675  0.43927912  0.75928826  1
  O  O142  1  0.68196538  0.93344742  0.24100410  1
  O  O143  1  0.67983593  0.92810524  0.75187805  1
