# generated using pymatgen
data_I3NO9
_symmetry_space_group_name_H-M   'P 1'
_cell_length_a   8.25390956
_cell_length_b   8.60189029
_cell_length_c   8.41732265
_cell_angle_alpha   80.07594874
_cell_angle_beta   68.12178908
_cell_angle_gamma   61.27232169
_symmetry_Int_Tables_number   1
_chemical_formula_structural   I3NO9
_chemical_formula_sum   'I6 N2 O18'
_cell_volume   486.30341133
_cell_formula_units_Z   2
loop_
 _symmetry_equiv_pos_site_id
 _symmetry_equiv_pos_as_xyz
  1  'x, y, z'
loop_
 _atom_site_type_symbol
 _atom_site_label
 _atom_site_symmetry_multiplicity
 _atom_site_fract_x
 _atom_site_fract_y
 _atom_site_fract_z
 _atom_site_occupancy
  I  I0  1  0.40603165  0.79754238  0.29696883  1
  I  I1  1  0.59396835  0.20245762  0.70303117  1
  I  I2  1  0.53545635  0.24355285  0.19615914  1
  I  I3  1  0.46454365  0.75644715  0.80384086  1
  I  I4  1  0.99963803  0.23227153  0.27392782  1
  I  I5  1  0.00036197  0.76772847  0.72607218  1
  N  N6  1  0.91760934  0.81235636  0.13834469  1
  N  N7  1  0.08239066  0.18764364  0.86165531  1
  O  O8  1  0.22307740  0.76257266  0.86614475  1
  O  O9  1  0.77692260  0.23742734  0.13385525  1
  O  O10  1  0.10542182  0.28624309  0.05179092  1
  O  O11  1  0.89457818  0.71375691  0.94820908  1
  O  O12  1  0.92232010  0.71163281  0.24455492  1
  O  O13  1  0.07767990  0.28836719  0.75544508  1
  O  O14  1  0.14551265  0.96990426  0.26531123  1
  O  O15  1  0.85448735  0.03009574  0.73468877  1
  O  O16  1  0.35325428  0.87674717  0.50482766  1
  O  O17  1  0.64674572  0.12325283  0.49517234  1
  O  O18  1  0.65976626  0.38130998  0.63318314  1
  O  O19  1  0.34023374  0.61869002  0.36681686  1
  O  O20  1  0.51348803  0.68076413  0.00427707  1
  O  O21  1  0.48651197  0.31923587  0.99572293  1
  O  O22  1  0.39767539  0.99338661  0.81548543  1
  O  O23  1  0.60232461  0.00661339  0.18451457  1
  O  O24  1  0.86800039  0.71023591  0.63725485  1
  O  O25  1  0.13199961  0.28976409  0.36274515  1
