# generated using pymatgen
data_BaCrS2
_symmetry_space_group_name_H-M   'P 1'
_cell_length_a   4.62959160
_cell_length_b   4.63776603
_cell_length_c   9.19988448
_cell_angle_alpha   90.00000000
_cell_angle_beta   90.00000000
_cell_angle_gamma   90.00000000
_symmetry_Int_Tables_number   1
_chemical_formula_structural   BaCrS2
_chemical_formula_sum   'Ba2 Cr2 S4'
_cell_volume   197.53037610
_cell_formula_units_Z   2
loop_
 _symmetry_equiv_pos_site_id
 _symmetry_equiv_pos_as_xyz
  1  'x, y, z'
loop_
 _atom_site_type_symbol
 _atom_site_label
 _atom_site_symmetry_multiplicity
 _atom_site_fract_x
 _atom_site_fract_y
 _atom_site_fract_z
 _atom_site_occupancy
  Ba  Ba0  1  0.75000000  0.25000000  0.69071525  1
  Ba  Ba1  1  0.25000000  0.75000000  0.30928475  1
  Cr  Cr2  1  0.25000000  0.75000000  0.91413656  1
  Cr  Cr3  1  0.75000000  0.25000000  0.08586344  1
  S  S4  1  0.25000000  0.25000000  0.99958559  1
  S  S5  1  0.75000000  0.75000000  0.00041441  1
  S  S6  1  0.25000000  0.75000000  0.65378667  1
  S  S7  1  0.75000000  0.25000000  0.34621333  1
