# generated using pymatgen
data_BaZrSe3
_symmetry_space_group_name_H-M   'P 1'
_cell_length_a   6.44910603
_cell_length_b   7.26256864
_cell_length_c   7.26256864
_cell_angle_alpha   119.99905438
_cell_angle_beta   90.00000000
_cell_angle_gamma   90.00000000
_symmetry_Int_Tables_number   1
_chemical_formula_structural   BaZrSe3
_chemical_formula_sum   'Ba2 Zr2 Se6'
_cell_volume   294.58782010
_cell_formula_units_Z   2
loop_
 _symmetry_equiv_pos_site_id
 _symmetry_equiv_pos_as_xyz
  1  'x, y, z'
loop_
 _atom_site_type_symbol
 _atom_site_label
 _atom_site_symmetry_multiplicity
 _atom_site_fract_x
 _atom_site_fract_y
 _atom_site_fract_z
 _atom_site_occupancy
  Ba  Ba0  1  0.25000000  0.66669637  0.33330363  1
  Ba  Ba1  1  0.75000000  0.33330363  0.66669637  1
  Zr  Zr2  1  0.50000000  0.00000000  0.00000000  1
  Zr  Zr3  1  0.00000000  0.00000000  0.00000000  1
  Se  Se4  1  0.75000000  0.82737056  0.65476439  1
  Se  Se5  1  0.75000000  0.82738235  0.17261765  1
  Se  Se6  1  0.75000000  0.34523561  0.17262944  1
  Se  Se7  1  0.25000000  0.17262944  0.34523561  1
  Se  Se8  1  0.25000000  0.17261765  0.82738235  1
  Se  Se9  1  0.25000000  0.65476439  0.82737056  1
