# generated using pymatgen
data_Mg5Ga
_symmetry_space_group_name_H-M   'P 1'
_cell_length_a   11.87635629
_cell_length_b   3.11033082
_cell_length_c   7.22862732
_cell_angle_alpha   90.00000000
_cell_angle_beta   103.45699660
_cell_angle_gamma   90.00000000
_symmetry_Int_Tables_number   1
_chemical_formula_structural   Mg5Ga
_chemical_formula_sum   'Mg10 Ga2'
_cell_volume   259.69003137
_cell_formula_units_Z   2
loop_
 _symmetry_equiv_pos_site_id
 _symmetry_equiv_pos_as_xyz
  1  'x, y, z'
loop_
 _atom_site_type_symbol
 _atom_site_label
 _atom_site_symmetry_multiplicity
 _atom_site_fract_x
 _atom_site_fract_y
 _atom_site_fract_z
 _atom_site_occupancy
  Mg  Mg0  1  0.99810054  -0.00000000  0.00407825  1
  Mg  Mg1  1  0.16882928  0.50000000  0.33163148  1
  Mg  Mg2  1  0.05306274  0.00000000  0.60569951  1
  Mg  Mg3  1  0.33279550  -0.00000000  0.66395475  1
  Mg  Mg4  1  0.22399436  0.50000000  0.94846134  1
  Mg  Mg5  1  0.49810054  0.50000000  0.00407825  1
  Mg  Mg6  1  0.66882928  -0.00000000  0.33163148  1
  Mg  Mg7  1  0.55306274  0.50000000  0.60569951  1
  Mg  Mg8  1  0.83279550  0.50000000  0.66395475  1
  Mg  Mg9  1  0.72399436  0.00000000  0.94846134  1
  Ga  Ga10  1  0.38988458  -0.00000000  0.27950769  1
  Ga  Ga11  1  0.88988458  0.50000000  0.27950769  1
