# generated using pymatgen
data_LaMg
_symmetry_space_group_name_H-M   'P 1'
_cell_length_a   5.68844610
_cell_length_b   3.80553826
_cell_length_c   17.05342943
_cell_angle_alpha   90.00000000
_cell_angle_beta   90.00000000
_cell_angle_gamma   90.00000000
_symmetry_Int_Tables_number   1
_chemical_formula_structural   LaMg
_chemical_formula_sum   'La6 Mg6'
_cell_volume   369.16580654
_cell_formula_units_Z   6
loop_
 _symmetry_equiv_pos_site_id
 _symmetry_equiv_pos_as_xyz
  1  'x, y, z'
loop_
 _atom_site_type_symbol
 _atom_site_label
 _atom_site_symmetry_multiplicity
 _atom_site_fract_x
 _atom_site_fract_y
 _atom_site_fract_z
 _atom_site_occupancy
  La  La0  1  0.00000000  0.00000000  0.01706691  1
  La  La1  1  0.00000000  0.00000000  0.35213508  1
  La  La2  1  0.50000000  0.00000000  0.20066403  1
  La  La3  1  0.00000000  0.50000000  0.51706691  1
  La  La4  1  0.00000000  0.50000000  0.85213508  1
  La  La5  1  0.50000000  0.50000000  0.70066403  1
  Mg  Mg6  1  0.00000000  0.50000000  0.17905296  1
  Mg  Mg7  1  0.50000000  0.50000000  0.38583600  1
  Mg  Mg8  1  0.50000000  0.50000000  0.03191201  1
  Mg  Mg9  1  0.00000000  0.00000000  0.67905296  1
  Mg  Mg10  1  0.50000000  -0.00000000  0.88583600  1
  Mg  Mg11  1  0.50000000  0.00000000  0.53191201  1
