# generated using pymatgen
data_YMg2
_symmetry_space_group_name_H-M   'P 1'
_cell_length_a   13.07169167
_cell_length_b   3.38657113
_cell_length_c   7.34844595
_cell_angle_alpha   90.00000000
_cell_angle_beta   105.23965546
_cell_angle_gamma   90.00000000
_symmetry_Int_Tables_number   1
_chemical_formula_structural   YMg2
_chemical_formula_sum   'Y4 Mg8'
_cell_volume   313.86324419
_cell_formula_units_Z   4
loop_
 _symmetry_equiv_pos_site_id
 _symmetry_equiv_pos_as_xyz
  1  'x, y, z'
loop_
 _atom_site_type_symbol
 _atom_site_label
 _atom_site_symmetry_multiplicity
 _atom_site_fract_x
 _atom_site_fract_y
 _atom_site_fract_z
 _atom_site_occupancy
  Y  Y0  1  0.48081673  0.00000000  0.22580939  1
  Y  Y1  1  0.01918327  0.50000000  0.77419061  1
  Y  Y2  1  0.98081673  0.50000000  0.22580939  1
  Y  Y3  1  0.51918327  -0.00000000  0.77419061  1
  Mg  Mg4  1  0.19346992  -0.00000000  0.12858537  1
  Mg  Mg5  1  0.33932680  0.50000000  0.45937121  1
  Mg  Mg6  1  0.16067320  0.00000000  0.54062879  1
  Mg  Mg7  1  0.30653008  0.50000000  0.87141463  1
  Mg  Mg8  1  0.69346992  0.50000000  0.12858537  1
  Mg  Mg9  1  0.83932680  -0.00000000  0.45937121  1
  Mg  Mg10  1  0.66067320  0.50000000  0.54062879  1
  Mg  Mg11  1  0.80653008  0.00000000  0.87141463  1
