# generated using pymatgen
data_CsEuS2
_symmetry_space_group_name_H-M   'P 1'
_cell_length_a   4.26658494
_cell_length_b   4.26658494
_cell_length_c   16.02653010
_cell_angle_alpha   90.00000000
_cell_angle_beta   90.00000000
_cell_angle_gamma   120.00343398
_symmetry_Int_Tables_number   1
_chemical_formula_structural   CsEuS2
_chemical_formula_sum   'Cs2 Eu2 S4'
_cell_volume   252.64801932
_cell_formula_units_Z   2
loop_
 _symmetry_equiv_pos_site_id
 _symmetry_equiv_pos_as_xyz
  1  'x, y, z'
loop_
 _atom_site_type_symbol
 _atom_site_label
 _atom_site_symmetry_multiplicity
 _atom_site_fract_x
 _atom_site_fract_y
 _atom_site_fract_z
 _atom_site_occupancy
  Cs  Cs0  1  0.66670338  0.33329662  0.75000000  1
  Cs  Cs1  1  0.33329662  0.66670338  0.25000000  1
  Eu  Eu2  1  0.00000000  -0.00000000  0.50000000  1
  Eu  Eu3  1  0.00000000  -0.00000000  -0.00000000  1
  S  S4  1  0.66670228  0.33329772  0.09198642  1
  S  S5  1  0.33329772  0.66670228  0.90801358  1
  S  S6  1  0.33329772  0.66670228  0.59198642  1
  S  S7  1  0.66670228  0.33329772  0.40801358  1
