# generated using pymatgen
data_UMo5O16
_symmetry_space_group_name_H-M   'P 1'
_cell_length_a   4.15326148
_cell_length_b   14.77188255
_cell_length_c   12.40771134
_cell_angle_alpha   53.46810096
_cell_angle_beta   90.00000000
_cell_angle_gamma   90.00000000
_symmetry_Int_Tables_number   1
_chemical_formula_structural   UMo5O16
_chemical_formula_sum   'U2 Mo10 O32'
_cell_volume   611.66904751
_cell_formula_units_Z   2
loop_
 _symmetry_equiv_pos_site_id
 _symmetry_equiv_pos_as_xyz
  1  'x, y, z'
loop_
 _atom_site_type_symbol
 _atom_site_label
 _atom_site_symmetry_multiplicity
 _atom_site_fract_x
 _atom_site_fract_y
 _atom_site_fract_z
 _atom_site_occupancy
  U  U0  1  0.00000000  0.00168172  0.99663656  1
  U  U1  1  0.00000000  0.49831828  0.00336344  1
  Mo  Mo2  1  0.09364218  0.25000000  -0.00000000  1
  Mo  Mo3  1  0.09224409  0.03422465  0.68357947  1
  Mo  Mo4  1  0.09224409  0.46577535  0.31642053  1
  Mo  Mo5  1  0.08841584  0.53409719  0.68122999  1
  Mo  Mo6  1  0.08841584  0.96590281  0.31877001  1
  Mo  Mo7  1  0.90775591  0.21780412  0.31642053  1
  Mo  Mo8  1  0.90775591  0.28219588  0.68357947  1
  Mo  Mo9  1  0.91158416  0.71532717  0.31877001  1
  Mo  Mo10  1  0.91158416  0.78467283  0.68122999  1
  Mo  Mo11  1  0.90635782  0.75000000  -0.00000000  1
  O  O12  1  0.00922028  0.06994654  0.35100706  1
  O  O13  1  0.00000000  0.37880746  0.24238507  1
  O  O14  1  0.00000000  0.33978575  0.50000000  1
  O  O15  1  0.99077972  0.57904640  0.35100706  1
  O  O16  1  0.00000000  0.87586870  0.24826259  1
  O  O17  1  0.00000000  0.83952552  0.50000000  1
  O  O18  1  0.00100459  0.29654093  0.11910088  1
  O  O19  1  0.99016909  0.79347756  0.12519112  1
  O  O20  1  0.00100459  0.20345907  0.88089912  1
  O  O21  1  0.99016909  0.70652244  0.87480888  1
  O  O22  1  0.51074013  0.03109899  0.68418917  1
  O  O23  1  0.51074013  0.46890101  0.31581083  1
  O  O24  1  0.50673594  0.96339582  0.31884334  1
  O  O25  1  0.50673594  0.53660418  0.68115666  1
  O  O26  1  0.50000000  0.00074555  0.99850890  1
  O  O27  1  0.51357559  0.25000000  -0.00000000  1
  O  O28  1  0.50000000  0.49925445  0.00149110  1
  O  O29  1  0.48642441  0.75000000  -0.00000000  1
  O  O30  1  0.48925987  0.21528816  0.31581083  1
  O  O31  1  0.48925987  0.28471184  0.68418917  1
  O  O32  1  0.49326406  0.71776083  0.31884334  1
  O  O33  1  0.49326406  0.78223917  0.68115666  1
  O  O34  1  0.00983091  0.08133132  0.12519112  1
  O  O35  1  0.99899541  0.58435820  0.11910088  1
  O  O36  1  0.00983091  0.41866868  0.87480888  1
  O  O37  1  0.99899541  0.91564180  0.88089912  1
  O  O38  1  0.00000000  0.16021425  0.50000000  1
  O  O39  1  0.00000000  0.12119254  0.75761493  1
  O  O40  1  0.00922028  0.43005346  0.64899294  1
  O  O41  1  0.00000000  0.66047448  0.50000000  1
  O  O42  1  0.00000000  0.62413130  0.75173741  1
  O  O43  1  0.99077972  0.92095360  0.64899294  1
