# generated using pymatgen
data_Sr4Ca4TiMn7O20
_symmetry_space_group_name_H-M   'P 1'
_cell_length_a   11.04307110
_cell_length_b   11.23330498
_cell_length_c   17.57557579
_cell_angle_alpha   108.66744968
_cell_angle_beta   108.35454468
_cell_angle_gamma   90.08077533
_symmetry_Int_Tables_number   1
_chemical_formula_structural   Sr4Ca4TiMn7O20
_chemical_formula_sum   'Sr16 Ca16 Ti4 Mn28 O80'
_cell_volume   1947.76861252
_cell_formula_units_Z   4
loop_
 _symmetry_equiv_pos_site_id
 _symmetry_equiv_pos_as_xyz
  1  'x, y, z'
loop_
 _atom_site_type_symbol
 _atom_site_label
 _atom_site_symmetry_multiplicity
 _atom_site_fract_x
 _atom_site_fract_y
 _atom_site_fract_z
 _atom_site_occupancy
  Sr  Sr0  1  0.30967256  0.56121853  0.61049145  1
  Sr  Sr1  1  0.80673479  0.05811214  0.60791356  1
  Sr  Sr2  1  0.80697754  0.56075113  0.61033582  1
  Sr  Sr3  1  0.19750164  0.43913334  0.38885221  1
  Sr  Sr4  1  0.19944588  0.44061102  0.89108613  1
  Sr  Sr5  1  0.69723072  0.43937862  0.38848217  1
  Sr  Sr6  1  0.69845391  0.93823813  0.38792608  1
  Sr  Sr7  1  0.69807936  0.93896469  0.88981934  1
  Sr  Sr8  1  0.05879761  0.29725708  0.60879622  1
  Sr  Sr9  1  0.05990640  0.80138504  0.60996513  1
  Sr  Sr10  1  0.55840398  0.30057868  0.61020843  1
  Sr  Sr11  1  0.55716861  0.79951659  0.60915651  1
  Sr  Sr12  1  0.44667765  0.19962847  0.38883492  1
  Sr  Sr13  1  0.44675131  0.20243705  0.88837115  1
  Sr  Sr14  1  0.94869200  0.19750939  0.38814358  1
  Sr  Sr15  1  0.94694301  0.20142914  0.88928304  1
  Ca  Ca16  1  0.30565662  0.06581510  0.10910696  1
  Ca  Ca17  1  0.30568973  0.06004420  0.60382214  1
  Ca  Ca18  1  0.31052803  0.56635241  0.10999877  1
  Ca  Ca19  1  0.80582361  0.06781586  0.10987203  1
  Ca  Ca20  1  0.80358547  0.56262170  0.11098585  1
  Ca  Ca21  1  0.19881638  0.93489205  0.39352760  1
  Ca  Ca22  1  0.19599690  0.93565510  0.89133544  1
  Ca  Ca23  1  0.69547747  0.43482470  0.89239830  1
  Ca  Ca24  1  0.05592041  0.29257761  0.10884612  1
  Ca  Ca25  1  0.05933722  0.79512414  0.10956980  1
  Ca  Ca26  1  0.55597889  0.29538755  0.10775285  1
  Ca  Ca27  1  0.55122711  0.79316804  0.10901785  1
  Ca  Ca28  1  0.44776615  0.70624947  0.39366026  1
  Ca  Ca29  1  0.44236981  0.70132791  0.89185364  1
  Ca  Ca30  1  0.95147124  0.70676743  0.39309995  1
  Ca  Ca31  1  0.95033319  0.70587764  0.89386069  1
  Ti  Ti32  1  0.00822377  0.00016696  0.00295352  1
  Ti  Ti33  1  0.00652484  0.50442468  0.00512273  1
  Ti  Ti34  1  0.50268394  0.99883222  0.99945483  1
  Ti  Ti35  1  0.75407737  0.74856809  0.00207744  1
  Mn  Mn36  1  0.00609199  0.99665149  0.49774726  1
  Mn  Mn37  1  0.00366992  0.50025724  0.49859593  1
  Mn  Mn38  1  0.50307850  0.99872314  0.49859241  1
  Mn  Mn39  1  0.50601011  0.50058297  0.00229518  1
  Mn  Mn40  1  0.50447681  0.50130994  0.49947387  1
  Mn  Mn41  1  0.25593263  0.25153184  0.00287492  1
  Mn  Mn42  1  0.25410400  0.24806066  0.49789505  1
  Mn  Mn43  1  0.25558551  0.75215014  0.00198548  1
  Mn  Mn44  1  0.25514159  0.75023362  0.49869864  1
  Mn  Mn45  1  0.75640725  0.25206888  0.00316673  1
  Mn  Mn46  1  0.75441102  0.24965432  0.49954225  1
  Mn  Mn47  1  0.75491010  0.74816639  0.49872525  1
  Mn  Mn48  1  0.10816372  0.09116209  0.24685856  1
  Mn  Mn49  1  0.11212024  0.09502787  0.74965078  1
  Mn  Mn50  1  0.10963433  0.59903545  0.24887544  1
  Mn  Mn51  1  0.11109357  0.59968111  0.75069171  1
  Mn  Mn52  1  0.60713753  0.09290032  0.24433968  1
  Mn  Mn53  1  0.60659475  0.09830087  0.74728050  1
  Mn  Mn54  1  0.60898211  0.59559643  0.24886839  1
  Mn  Mn55  1  0.61449756  0.59868991  0.75480638  1
  Mn  Mn56  1  0.35758517  0.40531673  0.24884432  1
  Mn  Mn57  1  0.36417540  0.40302282  0.75080482  1
  Mn  Mn58  1  0.35638697  0.90166180  0.25010200  1
  Mn  Mn59  1  0.36120123  0.90404668  0.75031618  1
  Mn  Mn60  1  0.86016530  0.40533343  0.24947179  1
  Mn  Mn61  1  0.86129572  0.40768225  0.75570106  1
  Mn  Mn62  1  0.86085889  0.89952135  0.24595130  1
  Mn  Mn63  1  0.86629593  0.90210123  0.75166446  1
  O  O64  1  0.12784935  0.11635130  0.49148527  1
  O  O65  1  0.12702499  0.11851450  0.99090405  1
  O  O66  1  0.12078611  0.62344923  0.48847161  1
  O  O67  1  0.12182027  0.62538022  0.99028976  1
  O  O68  1  0.62330653  0.12104621  0.49210124  1
  O  O69  1  0.62520357  0.12032616  0.99439592  1
  O  O70  1  0.62109982  0.62247847  0.48831551  1
  O  O71  1  0.62785948  0.62341528  0.98829871  1
  O  O72  1  0.13410917  0.38423602  0.01525562  1
  O  O73  1  0.13221701  0.37710800  0.50665433  1
  O  O74  1  0.13744462  0.88142527  0.01359901  1
  O  O75  1  0.13661347  0.88056817  0.50791820  1
  O  O76  1  0.64045621  0.37827042  0.01378365  1
  O  O77  1  0.63054380  0.37829989  0.50520489  1
  O  O78  1  0.63907840  0.87979358  0.01595814  1
  O  O79  1  0.62838268  0.87432757  0.50318707  1
  O  O80  1  0.37146881  0.11465803  0.49062839  1
  O  O81  1  0.37442427  0.11345525  0.99132464  1
  O  O82  1  0.37521524  0.62128953  0.48777825  1
  O  O83  1  0.37478102  0.62818769  0.99305902  1
  O  O84  1  0.87720263  0.11808586  0.49261040  1
  O  O85  1  0.87794440  0.11990340  0.99390276  1
  O  O86  1  0.87526357  0.62114200  0.48921121  1
  O  O87  1  0.87578925  0.61781808  0.98735828  1
  O  O88  1  0.38354522  0.37985333  0.01466562  1
  O  O89  1  0.38195314  0.37941402  0.50680477  1
  O  O90  1  0.38793886  0.88299781  0.01423511  1
  O  O91  1  0.38111605  0.88243229  0.50754936  1
  O  O92  1  0.88593809  0.38777351  0.01390607  1
  O  O93  1  0.88188898  0.37988761  0.50605296  1
  O  O94  1  0.89084440  0.88377005  0.01511952  1
  O  O95  1  0.88416547  0.87651626  0.50444200  1
  O  O96  1  0.08176208  0.09157825  0.12835153  1
  O  O97  1  0.08044876  0.08096408  0.63361298  1
  O  O98  1  0.07462698  0.59699444  0.12732470  1
  O  O99  1  0.07303421  0.58507660  0.63410492  1
  O  O100  1  0.57744489  0.09179225  0.13003426  1
  O  O101  1  0.57349776  0.08333520  0.63150774  1
  O  O102  1  0.58113253  0.59819681  0.13730197  1
  O  O103  1  0.57530864  0.58520993  0.63325109  1
  O  O104  1  0.43775201  0.41485418  0.36342296  1
  O  O105  1  0.44484960  0.41179653  0.86491671  1
  O  O106  1  0.43955920  0.91054073  0.36538230  1
  O  O107  1  0.45093173  0.90748048  0.87542384  1
  O  O108  1  0.93817814  0.41491822  0.36451074  1
  O  O109  1  0.94607933  0.41553511  0.87244798  1
  O  O110  1  0.94785657  0.90626031  0.36729737  1
  O  O111  1  0.95030324  0.90849372  0.87448959  1
  O  O112  1  0.33480229  0.28900691  0.14022579  1
  O  O113  1  0.32658022  0.29398018  0.63573269  1
  O  O114  1  0.32944001  0.78907788  0.13999899  1
  O  O115  1  0.32164573  0.79282241  0.62844350  1
  O  O116  1  0.83834528  0.29137562  0.14053595  1
  O  O117  1  0.82586840  0.30546893  0.64020837  1
  O  O118  1  0.83215427  0.77846988  0.12581999  1
  O  O119  1  0.82367687  0.79698829  0.63041373  1
  O  O120  1  0.18826437  0.19942221  0.36516910  1
  O  O121  1  0.18942196  0.20473346  0.86210661  1
  O  O122  1  0.19834263  0.71084862  0.36940732  1
  O  O123  1  0.19551406  0.71175966  0.86188511  1
  O  O124  1  0.68612819  0.19335722  0.35924906  1
  O  O125  1  0.68772989  0.20809561  0.86088383  1
  O  O126  1  0.69350149  0.69695873  0.36387645  1
  O  O127  1  0.70606623  0.71326702  0.87544128  1
  O  O128  1  0.42458693  0.06224461  0.24164166  1
  O  O129  1  0.42728446  0.07125952  0.74366126  1
  O  O130  1  0.42972076  0.57233090  0.24864977  1
  O  O131  1  0.43296363  0.57109437  0.75840263  1
  O  O132  1  0.92449130  0.06733995  0.24057290  1
  O  O133  1  0.93729821  0.06964325  0.75024122  1
  O  O134  1  0.92411185  0.56843326  0.24854982  1
  O  O135  1  0.93838369  0.57450225  0.75911692  1
  O  O136  1  0.17950399  0.42454489  0.24092694  1
  O  O137  1  0.18570523  0.43837887  0.75121824  1
  O  O138  1  0.17884038  0.92165928  0.24843988  1
  O  O139  1  0.18334450  0.93641769  0.75957343  1
  O  O140  1  0.67464351  0.42636982  0.24075210  1
  O  O141  1  0.68627785  0.43070760  0.75875540  1
  O  O142  1  0.67383257  0.92928433  0.24048035  1
  O  O143  1  0.68655573  0.94384208  0.75196487  1
