# generated using pymatgen
data_K2MnV14O40
_symmetry_space_group_name_H-M   'P 1'
_cell_length_a   11.56006888
_cell_length_b   11.56006888
_cell_length_c   12.95563839
_cell_angle_alpha   116.49632803
_cell_angle_beta   116.49632803
_cell_angle_gamma   90.00000000
_symmetry_Int_Tables_number   1
_chemical_formula_structural   K2MnV14O40
_chemical_formula_sum   'K2 Mn1 V14 O40'
_cell_volume   1343.22295359
_cell_formula_units_Z   1
loop_
 _symmetry_equiv_pos_site_id
 _symmetry_equiv_pos_as_xyz
  1  'x, y, z'
loop_
 _atom_site_type_symbol
 _atom_site_label
 _atom_site_symmetry_multiplicity
 _atom_site_fract_x
 _atom_site_fract_y
 _atom_site_fract_z
 _atom_site_occupancy
  K  K0  1  0.00000000  0.50000000  -0.00000000  1
  K  K1  1  0.50000000  0.00000000  -0.00000000  1
  Mn  Mn2  1  0.50000000  0.50000000  -0.00000000  1
  V  V3  1  0.71712746  0.71712746  0.43425493  1
  V  V4  1  0.28287254  0.28287254  0.56574507  1
  V  V5  1  0.70137052  0.70137052  -0.00000000  1
  V  V6  1  0.29862948  0.29862948  -0.00000000  1
  V  V7  1  0.29862948  0.70137052  -0.00000000  1
  V  V8  1  0.70137052  0.29862948  -0.00000000  1
  V  V9  1  0.80681095  0.60772811  0.21545623  1
  V  V10  1  0.40864527  0.60772811  0.21545623  1
  V  V11  1  0.60772811  0.40864527  0.21545623  1
  V  V12  1  0.60772811  0.80681095  0.21545623  1
  V  V13  1  0.19318905  0.39227189  0.78454377  1
  V  V14  1  0.59135473  0.39227189  0.78454377  1
  V  V15  1  0.39227189  0.59135473  0.78454377  1
  V  V16  1  0.39227189  0.19318905  0.78454377  1
  O  O17  1  0.75395713  0.75395713  0.18164158  1
  O  O18  1  0.42768445  0.42768445  0.18164158  1
  O  O19  1  0.42768445  0.75395713  0.18164158  1
  O  O20  1  0.75395713  0.42768445  0.18164158  1
  O  O21  1  0.24604287  0.24604287  0.81835842  1
  O  O22  1  0.57231555  0.57231555  0.81835842  1
  O  O23  1  0.57231555  0.24604287  0.81835842  1
  O  O24  1  0.24604287  0.57231555  0.81835842  1
  O  O25  1  0.33110077  0.50000000  -0.00000000  1
  O  O26  1  0.66889923  0.50000000  -0.00000000  1
  O  O27  1  0.50000000  0.66889923  -0.00000000  1
  O  O28  1  0.50000000  0.33110077  -0.00000000  1
  O  O29  1  0.79702968  0.79702968  0.59405936  1
  O  O30  1  0.20297032  0.20297032  0.40594064  1
  O  O31  1  0.85276480  0.69201528  0.38403055  1
  O  O32  1  0.53126575  0.69201528  0.38403055  1
  O  O33  1  0.69201528  0.53126575  0.38403055  1
  O  O34  1  0.69201528  0.85276480  0.38403055  1
  O  O35  1  0.14723520  0.30798472  0.61596945  1
  O  O36  1  0.46873425  0.30798472  0.61596945  1
  O  O37  1  0.30798472  0.46873425  0.61596945  1
  O  O38  1  0.30798472  0.14723520  0.61596945  1
  O  O39  1  0.94348506  0.60369843  0.20739686  1
  O  O40  1  0.26391181  0.60369843  0.20739686  1
  O  O41  1  0.60369843  0.26391181  0.20739686  1
  O  O42  1  0.60369843  0.94348506  0.20739686  1
  O  O43  1  0.05651494  0.39630157  0.79260314  1
  O  O44  1  0.73608819  0.39630157  0.79260314  1
  O  O45  1  0.39630157  0.73608819  0.79260314  1
  O  O46  1  0.39630157  0.05651494  0.79260314  1
  O  O47  1  0.59324385  0.59324385  0.18648770  1
  O  O48  1  0.40675615  0.40675615  0.81351230  1
  O  O49  1  0.68984196  0.84595195  -0.00000000  1
  O  O50  1  0.31015804  0.15404805  -0.00000000  1
  O  O51  1  0.31015804  0.84595195  -0.00000000  1
  O  O52  1  0.68984196  0.15404805  -0.00000000  1
  O  O53  1  0.84595195  0.31015804  -0.00000000  1
  O  O54  1  0.15404805  0.68984196  -0.00000000  1
  O  O55  1  0.15404805  0.31015804  -0.00000000  1
  O  O56  1  0.84595195  0.68984196  -0.00000000  1
