# generated using pymatgen
data_MgGa
_symmetry_space_group_name_H-M   'P 1'
_cell_length_a   9.21330573
_cell_length_b   5.26351882
_cell_length_c   5.62950548
_cell_angle_alpha   90.00000000
_cell_angle_beta   120.19942131
_cell_angle_gamma   90.00000000
_symmetry_Int_Tables_number   1
_chemical_formula_structural   MgGa
_chemical_formula_sum   'Mg6 Ga6'
_cell_volume   235.94800706
_cell_formula_units_Z   6
loop_
 _symmetry_equiv_pos_site_id
 _symmetry_equiv_pos_as_xyz
  1  'x, y, z'
loop_
 _atom_site_type_symbol
 _atom_site_label
 _atom_site_symmetry_multiplicity
 _atom_site_fract_x
 _atom_site_fract_y
 _atom_site_fract_z
 _atom_site_occupancy
  Mg  Mg0  1  0.00000000  0.65908005  -0.00000000  1
  Mg  Mg1  1  0.66496748  0.50286590  0.50239015  1
  Mg  Mg2  1  0.33503252  0.50286590  0.49760985  1
  Mg  Mg3  1  0.50000000  0.15908005  -0.00000000  1
  Mg  Mg4  1  0.16496748  0.00286590  0.50239015  1
  Mg  Mg5  1  0.83503252  0.00286590  0.49760985  1
  Ga  Ga6  1  0.33567393  0.66544782  0.00303697  1
  Ga  Ga7  1  0.16432607  0.16544782  0.99696303  1
  Ga  Ga8  1  0.00000000  0.50429352  0.50000000  1
  Ga  Ga9  1  0.83567393  0.16544782  0.00303697  1
  Ga  Ga10  1  0.66432607  0.66544782  0.99696303  1
  Ga  Ga11  1  0.50000000  0.00429352  0.50000000  1
