# generated using pymatgen
data_TlCu7Se4
_symmetry_space_group_name_H-M   'P 1'
_cell_length_a   4.00835214
_cell_length_b   7.68129509
_cell_length_c   7.59139892
_cell_angle_alpha   87.20526173
_cell_angle_beta   74.62234578
_cell_angle_gamma   75.52254335
_symmetry_Int_Tables_number   1
_chemical_formula_structural   TlCu7Se4
_chemical_formula_sum   'Tl1 Cu7 Se4'
_cell_volume   218.17142873
_cell_formula_units_Z   1
loop_
 _symmetry_equiv_pos_site_id
 _symmetry_equiv_pos_as_xyz
  1  'x, y, z'
loop_
 _atom_site_type_symbol
 _atom_site_label
 _atom_site_symmetry_multiplicity
 _atom_site_fract_x
 _atom_site_fract_y
 _atom_site_fract_z
 _atom_site_occupancy
  Tl  Tl0  1  0.99711721  0.99037540  0.00901548  1
  Cu  Cu1  1  0.03016186  0.35116560  0.60042127  1
  Cu  Cu2  1  0.32360014  0.89775699  0.45530230  1
  Cu  Cu3  1  0.34666640  0.59980289  0.64828382  1
  Cu  Cu4  1  0.64105105  0.39326399  0.35575466  1
  Cu  Cu5  1  0.66691889  0.12474629  0.55810409  1
  Cu  Cu6  1  0.75192885  0.54740366  0.88171643  1
  Cu  Cu7  1  0.02857522  0.64446909  0.38324812  1
  Se  Se8  1  0.25161682  0.18518668  0.31116408  1
  Se  Se9  1  0.41752491  0.32938603  0.83060036  1
  Se  Se10  1  0.61039264  0.66457264  0.18826125  1
  Se  Se11  1  0.71344603  0.81787073  0.67412813  1
