# generated using pymatgen
data_V3FeCo2(PO4)6
_symmetry_space_group_name_H-M   'P 1'
_cell_length_a   8.50606464
_cell_length_b   8.62785408
_cell_length_c   8.62785383
_cell_angle_alpha   60.00000080
_cell_angle_beta   59.52522469
_cell_angle_gamma   59.52523339
_symmetry_Int_Tables_number   1
_chemical_formula_structural   V3FeCo2(PO4)6
_chemical_formula_sum   'V3 Fe1 Co2 P6 O24'
_cell_volume   444.49320175
_cell_formula_units_Z   1
loop_
 _symmetry_equiv_pos_site_id
 _symmetry_equiv_pos_as_xyz
  1  'x, y, z'
loop_
 _atom_site_type_symbol
 _atom_site_label
 _atom_site_symmetry_multiplicity
 _atom_site_fract_x
 _atom_site_fract_y
 _atom_site_fract_z
 _atom_site_occupancy
  V  V0  1  0.07079026  0.64306991  0.64306991  1
  V  V1  1  0.42819611  0.85726763  0.85726763  1
  V  V2  1  0.92686580  0.35771173  0.35771173  1
  Fe  Fe3  1  0.56732722  0.14422459  0.14422459  1
  Co  Co4  1  0.99691810  0.00102730  0.00102730  1
  Co  Co5  1  0.49937777  0.50020774  0.50020774  1
  P  P6  1  0.25072498  0.24915840  0.54414126  1
  P  P7  1  0.25072498  0.95597635  0.24915840  1
  P  P8  1  0.25072498  0.54414126  0.95597635  1
  P  P9  1  0.74959232  0.45755423  0.04219044  1
  P  P10  1  0.74959232  0.04219044  0.75066302  1
  P  P11  1  0.74959232  0.75066302  0.45755423  1
  O  O12  1  0.06784284  0.11436260  0.30753390  1
  O  O13  1  0.06784284  0.51026067  0.11436260  1
  O  O14  1  0.06784284  0.30753390  0.51026067  1
  O  O15  1  0.23546553  0.08610370  0.74277844  1
  O  O16  1  0.43580185  0.19011829  0.38580873  1
  O  O17  1  0.26547596  0.41225663  0.56520929  1
  O  O18  1  0.23546553  0.93565332  0.08610370  1
  O  O19  1  0.26547596  0.75705812  0.41225663  1
  O  O20  1  0.56633495  0.61820198  0.99818883  1
  O  O21  1  0.26547596  0.56520929  0.75705812  1
  O  O22  1  0.77534757  0.26271386  0.05068957  1
  O  O23  1  0.56633495  0.99818883  0.81727424  1
  O  O24  1  0.43580185  0.98827013  0.19011829  1
  O  O25  1  0.23546553  0.74277844  0.93565332  1
  O  O26  1  0.72333163  0.44776518  0.23751469  1
  O  O27  1  0.43580185  0.38580873  0.98827013  1
  O  O28  1  0.72333163  0.23751469  0.59138950  1
  O  O29  1  0.77534757  0.05068957  0.91124800  1
  O  O30  1  0.72333163  0.59138950  0.44776518  1
  O  O31  1  0.56633495  0.81727424  0.61820198  1
  O  O32  1  0.77534757  0.91124800  0.26271386  1
  O  O33  1  0.93359128  0.68125839  0.50245859  1
  O  O34  1  0.93359128  0.50245859  0.88269073  1
  O  O35  1  0.93359128  0.88269073  0.68125839  1
