# generated using pymatgen
data_V2Fe3Sn(PO4)6
_symmetry_space_group_name_H-M   'P 1'
_cell_length_a   8.57698823
_cell_length_b   8.68782431
_cell_length_c   8.68782376
_cell_angle_alpha   60.00000062
_cell_angle_beta   59.57160335
_cell_angle_gamma   59.57160085
_symmetry_Int_Tables_number   1
_chemical_formula_structural   V2Fe3Sn(PO4)6
_chemical_formula_sum   'V2 Fe3 Sn1 P6 O24'
_cell_volume   454.77766998
_cell_formula_units_Z   1
loop_
 _symmetry_equiv_pos_site_id
 _symmetry_equiv_pos_as_xyz
  1  'x, y, z'
loop_
 _atom_site_type_symbol
 _atom_site_label
 _atom_site_symmetry_multiplicity
 _atom_site_fract_x
 _atom_site_fract_y
 _atom_site_fract_z
 _atom_site_occupancy
  V  V0  1  0.00990732  0.99669756  0.99669756  1
  V  V1  1  0.49693048  0.50102284  0.50102284  1
  Fe  Fe2  1  0.05999942  0.64666653  0.64666653  1
  Fe  Fe3  1  0.44131352  0.85289549  0.85289549  1
  Fe  Fe4  1  0.93661395  0.35446202  0.35446202  1
  Sn  Sn5  1  0.56477277  0.14507574  0.14507574  1
  P  P6  1  0.24606230  0.25250498  0.55070313  1
  P  P7  1  0.24606230  0.95072859  0.25250498  1
  P  P8  1  0.24606230  0.55070313  0.95072859  1
  P  P9  1  0.74961527  0.45736573  0.04700910  1
  P  P10  1  0.74961527  0.04700910  0.74600990  1
  P  P11  1  0.74961527  0.74600990  0.45736573  1
  O  O12  1  0.06950929  0.10996655  0.31749686  1
  O  O13  1  0.06950929  0.50302730  0.10996655  1
  O  O14  1  0.06950929  0.31749686  0.50302730  1
  O  O15  1  0.22472052  0.09209078  0.74595865  1
  O  O16  1  0.43475337  0.18419586  0.39697976  1
  O  O17  1  0.27175895  0.40952299  0.56528830  1
  O  O18  1  0.22472052  0.93723005  0.09209078  1
  O  O19  1  0.27175895  0.75342976  0.40952299  1
  O  O20  1  0.56722121  0.60868459  0.00522344  1
  O  O21  1  0.27175895  0.56528830  0.75342976  1
  O  O22  1  0.77773731  0.25579741  0.05980048  1
  O  O23  1  0.56722121  0.00522344  0.81887076  1
  O  O24  1  0.43475337  0.98407102  0.18419586  1
  O  O25  1  0.22472052  0.74595865  0.93723005  1
  O  O26  1  0.72353271  0.44017489  0.24552956  1
  O  O27  1  0.43475337  0.39697976  0.98407102  1
  O  O28  1  0.72353271  0.24552956  0.59076384  1
  O  O29  1  0.77773731  0.05980048  0.90666579  1
  O  O30  1  0.72353271  0.59076384  0.44017489  1
  O  O31  1  0.56722121  0.81887076  0.60868459  1
  O  O32  1  0.77773731  0.90666579  0.25579741  1
  O  O33  1  0.93191025  0.68043949  0.49592960  1
  O  O34  1  0.93191025  0.49592960  0.89171966  1
  O  O35  1  0.93191025  0.89171966  0.68043949  1
