# generated using pymatgen
data_Sr3CaCo3CuO10
_symmetry_space_group_name_H-M   'P 1'
_cell_length_a   10.89602635
_cell_length_b   11.11350882
_cell_length_c   17.41199692
_cell_angle_alpha   108.50032927
_cell_angle_beta   108.39894262
_cell_angle_gamma   89.72980459
_symmetry_Int_Tables_number   1
_chemical_formula_structural   Sr3CaCo3CuO10
_chemical_formula_sum   'Sr24 Ca8 Co24 Cu8 O80'
_cell_volume   1886.59792277
_cell_formula_units_Z   8
loop_
 _symmetry_equiv_pos_site_id
 _symmetry_equiv_pos_as_xyz
  1  'x, y, z'
loop_
 _atom_site_type_symbol
 _atom_site_label
 _atom_site_symmetry_multiplicity
 _atom_site_fract_x
 _atom_site_fract_y
 _atom_site_fract_z
 _atom_site_occupancy
  Sr  Sr0  1  0.30914435  0.05889772  0.61164569  1
  Sr  Sr1  1  0.30683586  0.55908295  0.61298844  1
  Sr  Sr2  1  0.80867667  0.05824577  0.61039788  1
  Sr  Sr3  1  0.80616673  0.55666651  0.61367701  1
  Sr  Sr4  1  0.19160791  0.43944741  0.38746055  1
  Sr  Sr5  1  0.19598138  0.44406435  0.89110723  1
  Sr  Sr6  1  0.19632551  0.93902938  0.38860100  1
  Sr  Sr7  1  0.69464842  0.43869703  0.38844658  1
  Sr  Sr8  1  0.69627236  0.44386476  0.89036069  1
  Sr  Sr9  1  0.69775308  0.93815729  0.38748924  1
  Sr  Sr10  1  0.69749612  0.94119383  0.89047515  1
  Sr  Sr11  1  0.05570938  0.29903823  0.11069918  1
  Sr  Sr12  1  0.05983074  0.29910684  0.61224114  1
  Sr  Sr13  1  0.05835058  0.80224304  0.61427777  1
  Sr  Sr14  1  0.55846652  0.30627676  0.61123363  1
  Sr  Sr15  1  0.55365423  0.79588910  0.11059723  1
  Sr  Sr16  1  0.55548150  0.80119942  0.61023484  1
  Sr  Sr17  1  0.44696160  0.19880957  0.38592417  1
  Sr  Sr18  1  0.44659396  0.20025489  0.89192785  1
  Sr  Sr19  1  0.44248478  0.70238088  0.38532630  1
  Sr  Sr20  1  0.44439964  0.69653927  0.89109668  1
  Sr  Sr21  1  0.94531322  0.19577377  0.38669360  1
  Sr  Sr22  1  0.94640524  0.20318450  0.89105677  1
  Sr  Sr23  1  0.94481787  0.69850016  0.38676552  1
  Ca  Ca24  1  0.30399568  0.06091142  0.10570099  1
  Ca  Ca25  1  0.30280055  0.56166871  0.10424802  1
  Ca  Ca26  1  0.80567730  0.06521043  0.10536730  1
  Ca  Ca27  1  0.79980193  0.56164203  0.10622014  1
  Ca  Ca28  1  0.20158993  0.93605938  0.89531970  1
  Ca  Ca29  1  0.06059148  0.79158561  0.10675235  1
  Ca  Ca30  1  0.55126273  0.29382620  0.10645601  1
  Ca  Ca31  1  0.95755067  0.70577076  0.89439442  1
  Co  Co32  1  0.00557274  0.99875202  0.99895072  1
  Co  Co33  1  0.00646453  0.00084185  0.50522014  1
  Co  Co34  1  0.00354705  0.50294725  0.00122138  1
  Co  Co35  1  0.00160928  0.49972580  0.50268506  1
  Co  Co36  1  0.50457091  0.00031415  0.00075331  1
  Co  Co37  1  0.50175226  0.00086158  0.49624542  1
  Co  Co38  1  0.50433255  0.49985485  0.00284036  1
  Co  Co39  1  0.50124134  0.50043551  0.49888377  1
  Co  Co40  1  0.25383693  0.24960771  0.99940867  1
  Co  Co41  1  0.25435961  0.25227661  0.50358049  1
  Co  Co42  1  0.25532295  0.75194537  0.00409906  1
  Co  Co43  1  0.25367030  0.75238717  0.50576318  1
  Co  Co44  1  0.75563086  0.25545299  0.00703189  1
  Co  Co45  1  0.75734994  0.25189062  0.50634405  1
  Co  Co46  1  0.75584669  0.74955453  0.00109061  1
  Co  Co47  1  0.75540756  0.75154579  0.50574630  1
  Co  Co48  1  0.10487137  0.08761826  0.24394921  1
  Co  Co49  1  0.10576006  0.59501034  0.24516981  1
  Co  Co50  1  0.60816505  0.09386115  0.24433030  1
  Co  Co51  1  0.61229877  0.09393044  0.74742412  1
  Co  Co52  1  0.60439141  0.58575143  0.24255192  1
  Co  Co53  1  0.35903114  0.40644150  0.24550426  1
  Co  Co54  1  0.85527564  0.40497497  0.24802155  1
  Co  Co55  1  0.86211102  0.90390643  0.24464348  1
  Cu  Cu56  1  0.11332922  0.09501115  0.75557443  1
  Cu  Cu57  1  0.11081837  0.60166155  0.75070966  1
  Cu  Cu58  1  0.61811507  0.60387527  0.75318939  1
  Cu  Cu59  1  0.36651582  0.40244357  0.75494127  1
  Cu  Cu60  1  0.35314950  0.90659950  0.24717171  1
  Cu  Cu61  1  0.36515339  0.90330144  0.75490761  1
  Cu  Cu62  1  0.86725539  0.40449946  0.75395154  1
  Cu  Cu63  1  0.86499657  0.90297733  0.75293675  1
  O  O64  1  0.12314385  0.11648218  0.49593990  1
  O  O65  1  0.12379273  0.11436909  0.99220941  1
  O  O66  1  0.11703503  0.61751257  0.49385780  1
  O  O67  1  0.12139161  0.62637751  0.99343043  1
  O  O68  1  0.62703918  0.12545502  0.49556385  1
  O  O69  1  0.62713737  0.12710196  0.99799107  1
  O  O70  1  0.61627087  0.62063699  0.49435371  1
  O  O71  1  0.62380068  0.62081293  0.99446281  1
  O  O72  1  0.13374063  0.37981682  0.01072537  1
  O  O73  1  0.12978038  0.37171980  0.50396460  1
  O  O74  1  0.13782052  0.87848827  0.01294847  1
  O  O75  1  0.13149734  0.87348518  0.50508934  1
  O  O76  1  0.63300635  0.38052721  0.01523288  1
  O  O77  1  0.63002235  0.37603415  0.50470523  1
  O  O78  1  0.64405577  0.87717101  0.01204883  1
  O  O79  1  0.63088783  0.87344240  0.50171287  1
  O  O80  1  0.37414126  0.12871594  0.49543017  1
  O  O81  1  0.37092176  0.11743068  0.99344762  1
  O  O82  1  0.36498867  0.62794305  0.49183105  1
  O  O83  1  0.37200587  0.61783606  0.99524665  1
  O  O84  1  0.87696417  0.11600935  0.49242056  1
  O  O85  1  0.87162459  0.12206197  0.99201465  1
  O  O86  1  0.86862485  0.62184803  0.49475475  1
  O  O87  1  0.87659356  0.63198193  0.99642592  1
  O  O88  1  0.38718563  0.38288914  0.01708955  1
  O  O89  1  0.37970942  0.38426155  0.50261342  1
  O  O90  1  0.38010535  0.88147465  0.00884157  1
  O  O91  1  0.38448528  0.88622040  0.50638150  1
  O  O92  1  0.87859654  0.38772678  0.01111606  1
  O  O93  1  0.87812359  0.37347879  0.50228590  1
  O  O94  1  0.89240111  0.88791033  0.01160157  1
  O  O95  1  0.88515318  0.88047611  0.50479291  1
  O  O96  1  0.08989677  0.09236140  0.13842144  1
  O  O97  1  0.07829292  0.08305033  0.64075555  1
  O  O98  1  0.08558658  0.59674741  0.13744333  1
  O  O99  1  0.06798004  0.57980330  0.63145484  1
  O  O100  1  0.58177560  0.09316378  0.13622309  1
  O  O101  1  0.57780429  0.08737511  0.63688457  1
  O  O102  1  0.58118588  0.58516185  0.13308218  1
  O  O103  1  0.57304152  0.58714183  0.63783935  1
  O  O104  1  0.43873855  0.41256883  0.35600747  1
  O  O105  1  0.44112224  0.41498533  0.87118522  1
  O  O106  1  0.44067881  0.92474195  0.36721117  1
  O  O107  1  0.44765593  0.91245751  0.87026227  1
  O  O108  1  0.93398134  0.41711231  0.36169249  1
  O  O109  1  0.93964069  0.41667648  0.86853493  1
  O  O110  1  0.94117200  0.90869391  0.35370470  1
  O  O111  1  0.94842870  0.90599867  0.86708373  1
  O  O112  1  0.33387485  0.28632172  0.14103899  1
  O  O113  1  0.32707522  0.30199461  0.63956642  1
  O  O114  1  0.32488479  0.78859796  0.13587413  1
  O  O115  1  0.32356944  0.80046124  0.63791337  1
  O  O116  1  0.83902059  0.28743565  0.14528515  1
  O  O117  1  0.83188697  0.30448925  0.63831232  1
  O  O118  1  0.83876336  0.78663330  0.14058959  1
  O  O119  1  0.82336408  0.79997872  0.63611166  1
  O  O120  1  0.18389290  0.19379596  0.35376053  1
  O  O121  1  0.19112271  0.20775619  0.86735487  1
  O  O122  1  0.18203734  0.69920598  0.35400511  1
  O  O123  1  0.18667168  0.70879159  0.86487038  1
  O  O124  1  0.68134671  0.19431052  0.35205115  1
  O  O125  1  0.68424073  0.20314188  0.85262066  1
  O  O126  1  0.68365798  0.69327308  0.35046009  1
  O  O127  1  0.69909690  0.70315957  0.86739867  1
  O  O128  1  0.43684130  0.05468924  0.23914117  1
  O  O129  1  0.45022786  0.05345971  0.75156189  1
  O  O130  1  0.42613205  0.56187877  0.23884484  1
  O  O131  1  0.45462535  0.55399228  0.75326595  1
  O  O132  1  0.92772530  0.06093742  0.23871676  1
  O  O133  1  0.94168151  0.05990517  0.75229569  1
  O  O134  1  0.92680430  0.55737091  0.23982476  1
  O  O135  1  0.94934899  0.56562971  0.75989276  1
  O  O136  1  0.18619454  0.44067023  0.24775110  1
  O  O137  1  0.20188360  0.45329440  0.75161682  1
  O  O138  1  0.17640964  0.92963426  0.24185900  1
  O  O139  1  0.19824361  0.94289011  0.76104909  1
  O  O140  1  0.67543912  0.42600840  0.24109532  1
  O  O141  1  0.70093973  0.44601610  0.75061010  1
  O  O142  1  0.68937429  0.94118692  0.24642447  1
  O  O143  1  0.69219219  0.94387568  0.75049591  1
