# generated using pymatgen
data_Ti3Cr2Fe(PO4)6
_symmetry_space_group_name_H-M   'P 1'
_cell_length_a   8.65731362
_cell_length_b   8.65731396
_cell_length_c   8.65731408
_cell_angle_alpha   60.10858124
_cell_angle_beta   60.10858150
_cell_angle_gamma   60.10858146
_symmetry_Int_Tables_number   1
_chemical_formula_structural   Ti3Cr2Fe(PO4)6
_chemical_formula_sum   'Ti3 Cr2 Fe1 P6 O24'
_cell_volume   459.94044296
_cell_formula_units_Z   1
loop_
 _symmetry_equiv_pos_site_id
 _symmetry_equiv_pos_as_xyz
  1  'x, y, z'
loop_
 _atom_site_type_symbol
 _atom_site_label
 _atom_site_symmetry_multiplicity
 _atom_site_fract_x
 _atom_site_fract_y
 _atom_site_fract_z
 _atom_site_occupancy
  Ti  Ti0  1  0.14467941  0.14467941  0.14467941  1
  Ti  Ti1  1  0.35480475  0.35480475  0.35480475  1
  Ti  Ti2  1  0.64654421  0.64654421  0.64654421  1
  Cr  Cr3  1  0.99702651  0.99702651  0.99702651  1
  Cr  Cr4  1  0.49942190  0.49942190  0.49942190  1
  Fe  Fe5  1  0.85531856  0.85531856  0.85531856  1
  P  P6  1  0.25175764  0.54306034  0.95748746  1
  P  P7  1  0.54306034  0.95748746  0.25175764  1
  P  P8  1  0.95748746  0.25175764  0.54306034  1
  P  P9  1  0.04481760  0.75192705  0.45485101  1
  P  P10  1  0.45485101  0.04481760  0.75192705  1
  P  P11  1  0.75192705  0.45485101  0.04481760  1
  O  O12  1  0.11915061  0.31699684  0.49077308  1
  O  O13  1  0.31699684  0.49077308  0.11915061  1
  O  O14  1  0.05799667  0.91432183  0.25752916  1
  O  O15  1  0.49077308  0.11915061  0.31699684  1
  O  O16  1  0.01704895  0.80883127  0.60643890  1
  O  O17  1  0.23630252  0.58431655  0.43140059  1
  O  O18  1  0.25752916  0.05799667  0.91432183  1
  O  O19  1  0.43140059  0.23630252  0.58431655  1
  O  O20  1  0.19298163  0.37819291  0.00087008  1
  O  O21  1  0.58431655  0.43140059  0.23630252  1
  O  O22  1  0.09304713  0.73389287  0.94883245  1
  O  O23  1  0.37819291  0.00087008  0.19298163  1
  O  O24  1  0.60643890  0.01704895  0.80883127  1
  O  O25  1  0.91432183  0.25752916  0.05799667  1
  O  O26  1  0.41823730  0.55379386  0.76566711  1
  O  O27  1  0.80883127  0.60643890  0.01704895  1
  O  O28  1  0.55379386  0.76566711  0.41823730  1
  O  O29  1  0.73389287  0.94883245  0.09304713  1
  O  O30  1  0.76566711  0.41823730  0.55379386  1
  O  O31  1  0.00087008  0.19298163  0.37819291  1
  O  O32  1  0.49967978  0.87792278  0.69407967  1
  O  O33  1  0.94883245  0.09304713  0.73389287  1
  O  O34  1  0.69407967  0.49967978  0.87792278  1
  O  O35  1  0.87792278  0.69407967  0.49967978  1
