# generated using pymatgen
data_Li2Ni(PO3)5
_symmetry_space_group_name_H-M   'P 1'
_cell_length_a   5.15852961
_cell_length_b   13.37107562
_cell_length_c   8.80455834
_cell_angle_alpha   90.00000000
_cell_angle_beta   101.47712010
_cell_angle_gamma   90.00000000
_symmetry_Int_Tables_number   1
_chemical_formula_structural   Li2Ni(PO3)5
_chemical_formula_sum   'Li4 Ni2 P10 O30'
_cell_volume   595.15187036
_cell_formula_units_Z   2
loop_
 _symmetry_equiv_pos_site_id
 _symmetry_equiv_pos_as_xyz
  1  'x, y, z'
loop_
 _atom_site_type_symbol
 _atom_site_label
 _atom_site_symmetry_multiplicity
 _atom_site_fract_x
 _atom_site_fract_y
 _atom_site_fract_z
 _atom_site_occupancy
  Li  Li0  1  0.06427716  0.11612374  0.10186743  1
  Li  Li1  1  0.06427716  0.38387626  0.10186743  1
  Li  Li2  1  0.93572284  0.88387626  0.89813257  1
  Li  Li3  1  0.93572284  0.61612374  0.89813257  1
  Ni  Ni4  1  0.50000000  0.00000000  0.50000000  1
  Ni  Ni5  1  0.50000000  0.50000000  0.50000000  1
  P  P6  1  0.99387049  0.36078356  0.51530070  1
  P  P7  1  0.65909150  0.92382596  0.18706155  1
  P  P8  1  0.00612951  0.86078356  0.48469930  1
  P  P9  1  0.54436825  0.25000000  0.01099999  1
  P  P10  1  0.34090850  0.07617404  0.81293845  1
  P  P11  1  0.00612951  0.63921644  0.48469930  1
  P  P12  1  0.99387049  0.13921644  0.51530070  1
  P  P13  1  0.65909150  0.57617404  0.18706155  1
  P  P14  1  0.45563175  0.75000000  0.98900001  1
  P  P15  1  0.34090850  0.42382596  0.81293845  1
  O  O16  1  0.13741569  0.14453778  0.69278627  1
  O  O17  1  0.71277990  0.75000000  0.93455208  1
  O  O18  1  0.19439150  0.75000000  0.88004007  1
  O  O19  1  0.51359087  0.99283144  0.27906463  1
  O  O20  1  0.44624585  0.65697631  0.10835281  1
  O  O21  1  0.03578001  0.25000000  0.45885499  1
  O  O22  1  0.80560850  0.25000000  0.11995993  1
  O  O23  1  0.13741569  0.35546222  0.69278627  1
  O  O24  1  0.55375415  0.34302369  0.89164719  1
  O  O25  1  0.86258431  0.85546222  0.30721373  1
  O  O26  1  0.96421999  0.75000000  0.54114501  1
  O  O27  1  0.30029689  0.87475785  0.49373880  1
  O  O28  1  0.69970311  0.37475785  0.50626120  1
  O  O29  1  0.28722010  0.25000000  0.06544792  1
  O  O30  1  0.19601767  0.03056678  0.92607431  1
  O  O31  1  0.69970311  0.12524215  0.50626120  1
  O  O32  1  0.80398233  0.53056678  0.07392569  1
  O  O33  1  0.14013262  0.42763354  0.42310327  1
  O  O34  1  0.44624585  0.84302369  0.10835281  1
  O  O35  1  0.55375415  0.15697631  0.89164719  1
  O  O36  1  0.85986738  0.92763354  0.57689673  1
  O  O37  1  0.14013262  0.07236646  0.42310327  1
  O  O38  1  0.80398233  0.96943322  0.07392569  1
  O  O39  1  0.86258431  0.64453778  0.30721373  1
  O  O40  1  0.48640913  0.00716856  0.72093537  1
  O  O41  1  0.30029689  0.62524215  0.49373880  1
  O  O42  1  0.85986738  0.57236646  0.57689673  1
  O  O43  1  0.51359087  0.50716856  0.27906463  1
  O  O44  1  0.48640913  0.49283144  0.72093537  1
  O  O45  1  0.19601767  0.46943322  0.92607431  1
