# generated using pymatgen
data_NaCoPO4
_symmetry_space_group_name_H-M   'P 1'
_cell_length_a   10.29222747
_cell_length_b   6.27910240
_cell_length_c   5.00488354
_cell_angle_alpha   90.01581797
_cell_angle_beta   89.94627946
_cell_angle_gamma   89.92594741
_symmetry_Int_Tables_number   1
_chemical_formula_structural   NaCoPO4
_chemical_formula_sum   'Na4 Co4 P4 O16'
_cell_volume   323.44492974
_cell_formula_units_Z   4
loop_
 _symmetry_equiv_pos_site_id
 _symmetry_equiv_pos_as_xyz
  1  'x, y, z'
loop_
 _atom_site_type_symbol
 _atom_site_label
 _atom_site_symmetry_multiplicity
 _atom_site_fract_x
 _atom_site_fract_y
 _atom_site_fract_z
 _atom_site_occupancy
  Na  Na0  1  -0.00000000  0.50000000  -0.00000000  1
  Na  Na1  1  -0.00000000  -0.00000000  -0.00000000  1
  Na  Na2  1  0.50000000  -0.00000000  0.50000000  1
  Na  Na3  1  0.50000000  0.50000000  0.50000000  1
  Co  Co4  1  0.21936540  0.75011181  0.49026739  1
  Co  Co5  1  0.28067526  0.24982578  0.98952553  1
  Co  Co6  1  0.71932474  0.75017422  0.01047447  1
  Co  Co7  1  0.78063460  0.24988819  0.50973261  1
  P  P8  1  0.10620986  0.24993597  0.43350119  1
  P  P9  1  0.39423578  0.75021927  0.93269418  1
  P  P10  1  0.60576422  0.24978073  0.06730582  1
  P  P11  1  0.89379014  0.75006403  0.56649881  1
  O  O12  1  0.03816880  0.75024573  0.66240039  1
  O  O13  1  0.11392433  0.25053215  0.74125349  1
  O  O14  1  0.17556475  0.05394227  0.29895843  1
  O  O15  1  0.17513683  0.44552610  0.29812833  1
  O  O16  1  0.32553403  0.55416908  0.79733359  1
  O  O17  1  0.32490795  0.94614922  0.79741989  1
  O  O18  1  0.38609097  0.75004028  0.23981389  1
  O  O19  1  0.46128289  0.24935759  0.16296845  1
  O  O20  1  0.53871711  0.75064241  0.83703155  1
  O  O21  1  0.61390903  0.24995972  0.76018611  1
  O  O22  1  0.67509205  0.05385078  0.20258011  1
  O  O23  1  0.67446597  0.44583092  0.20266641  1
  O  O24  1  0.82486317  0.55447390  0.70187167  1
  O  O25  1  0.82443525  0.94605773  0.70104157  1
  O  O26  1  0.88607567  0.74946785  0.25874651  1
  O  O27  1  0.96183120  0.24975427  0.33759961  1
