# generated using pymatgen
data_LiMo(PO4)2
_symmetry_space_group_name_H-M   'P 1'
_cell_length_a   5.05330579
_cell_length_b   5.09193063
_cell_length_c   8.48514010
_cell_angle_alpha   94.92800440
_cell_angle_beta   94.03624649
_cell_angle_gamma   58.80308515
_symmetry_Int_Tables_number   1
_chemical_formula_structural   LiMo(PO4)2
_chemical_formula_sum   'Li1 Mo1 P2 O8'
_cell_volume   185.98308672
_cell_formula_units_Z   1
loop_
 _symmetry_equiv_pos_site_id
 _symmetry_equiv_pos_as_xyz
  1  'x, y, z'
loop_
 _atom_site_type_symbol
 _atom_site_label
 _atom_site_symmetry_multiplicity
 _atom_site_fract_x
 _atom_site_fract_y
 _atom_site_fract_z
 _atom_site_occupancy
  Li  Li0  1  0.88762065  0.41774335  0.43066988  1
  Mo  Mo1  1  0.98271481  0.02373260  0.99148100  1
  P  P2  1  0.62349355  0.68907518  0.78650739  1
  P  P3  1  0.33709279  0.35654968  0.19813255  1
  O  O4  1  0.82872992  0.39823823  0.88930992  1
  O  O5  1  0.13008551  0.65622665  0.10179329  1
  O  O6  1  0.28161859  0.79084016  0.81862627  1
  O  O7  1  0.68103295  0.94352159  0.86378727  1
  O  O8  1  0.24242986  0.41568882  0.36631656  1
  O  O9  1  0.68091959  0.26659874  0.17903269  1
  O  O10  1  0.29525048  0.09836259  0.11070153  1
  O  O11  1  0.69538530  0.61032241  0.61622865  1
