# generated using pymatgen
data_HfTaNO3
_symmetry_space_group_name_H-M   'P 1'
_cell_length_a   5.07227156
_cell_length_b   5.12871801
_cell_length_c   5.30470843
_cell_angle_alpha   90.00000000
_cell_angle_beta   80.75089063
_cell_angle_gamma   90.00000000
_symmetry_Int_Tables_number   1
_chemical_formula_structural   HfTaNO3
_chemical_formula_sum   'Hf2 Ta2 N2 O6'
_cell_volume   136.20388315
_cell_formula_units_Z   2
loop_
 _symmetry_equiv_pos_site_id
 _symmetry_equiv_pos_as_xyz
  1  'x, y, z'
loop_
 _atom_site_type_symbol
 _atom_site_label
 _atom_site_symmetry_multiplicity
 _atom_site_fract_x
 _atom_site_fract_y
 _atom_site_fract_z
 _atom_site_occupancy
  Hf  Hf0  1  0.28191239  0.46114175  0.53670515  1
  Hf  Hf1  1  0.71808761  0.96114175  0.46329485  1
  Ta  Ta2  1  0.28797524  0.05414381  0.03739048  1
  Ta  Ta3  1  0.71202476  0.55414381  0.96260952  1
  N  N4  1  0.55230228  0.26634703  0.21158124  1
  N  N5  1  0.44769772  0.76634703  0.78841876  1
  O  O6  1  0.06060795  0.31082341  0.90034402  1
  O  O7  1  0.93939205  0.81082341  0.09965598  1
  O  O8  1  0.92438036  0.65575449  0.60105037  1
  O  O9  1  0.07561964  0.15575449  0.39894963  1
  O  O10  1  0.44611140  0.75268951  0.27123883  1
  O  O11  1  0.55388860  0.25268951  0.72876117  1
