# generated using pymatgen
data_CaH6(C2O3)2
_symmetry_space_group_name_H-M   'P 1'
_cell_length_a   6.11345873
_cell_length_b   10.45120067
_cell_length_c   16.79950142
_cell_angle_alpha   72.58668600
_cell_angle_beta   79.80913864
_cell_angle_gamma   90.57588256
_symmetry_Int_Tables_number   1
_chemical_formula_structural   CaH6(C2O3)2
_chemical_formula_sum   'Ca6 H36 C24 O36'
_cell_volume   1005.75032131
_cell_formula_units_Z   6
loop_
 _symmetry_equiv_pos_site_id
 _symmetry_equiv_pos_as_xyz
  1  'x, y, z'
loop_
 _atom_site_type_symbol
 _atom_site_label
 _atom_site_symmetry_multiplicity
 _atom_site_fract_x
 _atom_site_fract_y
 _atom_site_fract_z
 _atom_site_occupancy
  Ca  Ca0  1  0.74784023  0.88198733  0.99602916  1
  Ca  Ca1  1  0.25215977  0.11801267  0.00397084  1
  Ca  Ca2  1  0.04684814  0.19531131  0.39047921  1
  Ca  Ca3  1  0.95315186  0.80468869  0.60952079  1
  Ca  Ca4  1  0.54447986  0.42490775  0.39421975  1
  Ca  Ca5  1  0.45552014  0.57509225  0.60578025  1
  H  H6  1  0.52024420  0.66555300  0.96262636  1
  H  H7  1  0.47975580  0.33444700  0.03737364  1
  H  H8  1  0.45705720  0.60191355  0.06180222  1
  H  H9  1  0.54294280  0.39808645  0.93819778  1
  H  H10  1  0.18703239  0.74097301  0.98295359  1
  H  H11  1  0.81296761  0.25902699  0.01704641  1
  H  H12  1  0.06797863  0.69488277  0.91943087  1
  H  H13  1  0.93202137  0.30511723  0.08056913  1
  H  H14  1  0.71796650  0.65760976  0.24340592  1
  H  H15  1  0.28203350  0.34239024  0.75659408  1
  H  H16  1  0.84571468  0.02782291  0.63498571  1
  H  H17  1  0.15428532  0.97217709  0.36501429  1
  H  H18  1  0.25140897  0.74861618  0.20510443  1
  H  H19  1  0.74859103  0.25138382  0.79489557  1
  H  H20  1  0.08373048  0.86896948  0.23339925  1
  H  H21  1  0.91626952  0.13103052  0.76660075  1
  H  H22  1  0.96832078  0.81490034  0.36465988  1
  H  H23  1  0.03167922  0.18509966  0.63534012  1
  H  H24  1  0.16077154  0.69136772  0.39153007  1
  H  H25  1  0.83922846  0.30863228  0.60846993  1
  H  H26  1  0.50293784  0.18448057  0.63165595  1
  H  H27  1  0.49706216  0.81551943  0.36834405  1
  H  H28  1  0.32993614  0.07707794  0.60351771  1
  H  H29  1  0.67006386  0.92292206  0.39648229  1
  H  H30  1  0.25237083  0.96222315  0.79179132  1
  H  H31  1  0.74762917  0.03777685  0.20820868  1
  H  H32  1  0.41986632  0.11247516  0.76073705  1
  H  H33  1  0.58013368  0.88752484  0.23926295  1
  H  H34  1  0.11877613  0.49671856  0.85658565  1
  H  H35  1  0.88122387  0.50328144  0.14341435  1
  H  H36  1  0.11642063  0.64043376  0.79067044  1
  H  H37  1  0.88357937  0.35956624  0.20932956  1
  H  H38  1  0.77078739  0.57717340  0.86585320  1
  H  H39  1  0.22921261  0.42282660  0.13414680  1
  H  H40  1  0.56849028  0.60074072  0.81955631  1
  H  H41  1  0.43150972  0.39925928  0.18044369  1
  C  C42  1  0.97362153  0.79399142  0.14278011  1
  C  C43  1  0.02637847  0.20600858  0.85721989  1
  C  C44  1  0.07707940  0.77116776  0.22163019  1
  C  C45  1  0.92292060  0.22883224  0.77836981  1
  C  C46  1  0.96120630  0.66106859  0.30363721  1
  C  C47  1  0.03879370  0.33893141  0.69636279  1
  C  C48  1  0.98961018  0.70672781  0.38046049  1
  C  C49  1  0.01038982  0.29327219  0.61953951  1
  C  C50  1  0.83495448  0.64086681  0.46469971  1
  C  C51  1  0.16504552  0.35913319  0.53530029  1
  C  C52  1  0.07295540  0.52553833  0.31355041  1
  C  C53  1  0.92704460  0.47446167  0.68644959  1
  C  C54  1  0.65950447  0.11174656  0.53190110  1
  C  C55  1  0.34049553  0.88825344  0.46809890  1
  C  C56  1  0.49808918  0.09010507  0.61565863  1
  C  C57  1  0.50191082  0.90989493  0.38434137  1
  C  C58  1  0.53803594  0.97244716  0.69223902  1
  C  C59  1  0.46196406  0.02755284  0.30776098  1
  C  C60  1  0.42669928  0.00323397  0.77441844  1
  C  C61  1  0.57330072  0.99676603  0.22558156  1
  C  C62  1  0.52934879  0.95517294  0.85386440  1
  C  C63  1  0.47065121  0.04482706  0.14613560  1
  C  C64  1  0.43103972  0.83952112  0.68750534  1
  C  C65  1  0.56896028  0.16047888  0.31249466  1
  O  O66  1  0.81942704  0.71000065  0.14172151  1
  O  O67  1  0.18057296  0.28999935  0.85827849  1
  O  O68  1  0.47519786  0.68933452  0.01548899  1
  O  O69  1  0.52480214  0.31066548  0.98451101  1
  O  O70  1  0.03949124  0.89855448  0.08065861  1
  O  O71  1  0.96050876  0.10144552  0.91934139  1
  O  O72  1  0.05531151  0.75380672  0.95581926  1
  O  O73  1  0.94468849  0.24619328  0.04418074  1
  O  O74  1  0.81518426  0.70570126  0.51894259  1
  O  O75  1  0.18481574  0.29429874  0.48105741  1
  O  O76  1  0.72727268  0.52897847  0.48034684  1
  O  O77  1  0.27272732  0.47102153  0.51965316  1
  O  O78  1  0.94556944  0.42000617  0.32760899  1
  O  O79  1  0.05443056  0.57999383  0.67239101  1
  O  O80  1  0.28054681  0.52831719  0.30999509  1
  O  O81  1  0.71945319  0.47168281  0.69000491  1
  O  O82  1  0.72688390  0.64376408  0.30486036  1
  O  O83  1  0.27311610  0.35623592  0.69513964  1
  O  O84  1  0.78193097  0.01885936  0.51913775  1
  O  O85  1  0.21806903  0.98114064  0.48086225  1
  O  O86  1  0.67612759  0.22738583  0.47712281  1
  O  O87  1  0.32387241  0.77261417  0.52287719  1
  O  O88  1  0.46324045  0.00974516  0.91260972  1
  O  O89  1  0.53675955  0.99025484  0.08739028  1
  O  O90  1  0.67191533  0.86837698  0.86087363  1
  O  O91  1  0.32808467  0.13162302  0.13912637  1
  O  O92  1  0.55715274  0.74659828  0.67708488  1
  O  O93  1  0.44284726  0.25340172  0.32291512  1
  O  O94  1  0.22167828  0.83279981  0.69364690  1
  O  O95  1  0.77832172  0.16720019  0.30635310  1
  O  O96  1  0.77590859  0.96287813  0.68888159  1
  O  O97  1  0.22409141  0.03712187  0.31111841  1
  O  O98  1  0.06665615  0.58713571  0.85050789  1
  O  O99  1  0.93334385  0.41286429  0.14949211  1
  O  O100  1  0.60572040  0.56364042  0.87582256  1
  O  O101  1  0.39427960  0.43635958  0.12417744  1
