# generated using pymatgen
data_CdF2
_symmetry_space_group_name_H-M   'P 1'
_cell_length_a   3.62916472
_cell_length_b   5.93448205
_cell_length_c   7.06736713
_cell_angle_alpha   90.00000000
_cell_angle_beta   90.00000000
_cell_angle_gamma   90.00000000
_symmetry_Int_Tables_number   1
_chemical_formula_structural   CdF2
_chemical_formula_sum   'Cd4 F8'
_cell_volume   152.21139043
_cell_formula_units_Z   4
loop_
 _symmetry_equiv_pos_site_id
 _symmetry_equiv_pos_as_xyz
  1  'x, y, z'
loop_
 _atom_site_type_symbol
 _atom_site_label
 _atom_site_symmetry_multiplicity
 _atom_site_fract_x
 _atom_site_fract_y
 _atom_site_fract_z
 _atom_site_occupancy
  Cd  Cd0  1  0.75000000  0.25504778  0.89217824  1
  Cd  Cd1  1  0.75000000  0.75504778  0.60782176  1
  Cd  Cd2  1  0.25000000  0.74495222  0.10782176  1
  Cd  Cd3  1  0.25000000  0.24495222  0.39217824  1
  F  F4  1  0.75000000  0.36006481  0.57761862  1
  F  F5  1  0.75000000  0.86006481  0.92238138  1
  F  F6  1  0.25000000  0.63993519  0.42238138  1
  F  F7  1  0.25000000  0.13993519  0.07761862  1
  F  F8  1  0.75000000  0.48340490  0.16124949  1
  F  F9  1  0.75000000  0.98340490  0.33875051  1
  F  F10  1  0.25000000  0.51659510  0.83875051  1
  F  F11  1  0.25000000  0.01659510  0.66124949  1
