# generated using pymatgen
data_Cu4(PO4)3
_symmetry_space_group_name_H-M   'P 1'
_cell_length_a   6.03208786
_cell_length_b   14.51813605
_cell_length_c   10.16605148
_cell_angle_alpha   90.00000000
_cell_angle_beta   90.00000000
_cell_angle_gamma   90.00000000
_symmetry_Int_Tables_number   1
_chemical_formula_structural   Cu4(PO4)3
_chemical_formula_sum   'Cu16 P12 O48'
_cell_volume   890.28862610
_cell_formula_units_Z   4
loop_
 _symmetry_equiv_pos_site_id
 _symmetry_equiv_pos_as_xyz
  1  'x, y, z'
loop_
 _atom_site_type_symbol
 _atom_site_label
 _atom_site_symmetry_multiplicity
 _atom_site_fract_x
 _atom_site_fract_y
 _atom_site_fract_z
 _atom_site_occupancy
  Cu  Cu0  1  0.56104789  0.63445002  0.64686324  1
  Cu  Cu1  1  0.85701911  0.40538873  0.56706497  1
  Cu  Cu2  1  0.43895211  0.13445002  0.35313676  1
  Cu  Cu3  1  0.14298089  0.90538873  0.43293503  1
  Cu  Cu4  1  0.93895211  0.36554998  0.14686324  1
  Cu  Cu5  1  0.06104789  0.63445002  0.85313676  1
  Cu  Cu6  1  0.85701911  0.09461127  0.56706497  1
  Cu  Cu7  1  0.06104789  0.86554998  0.85313676  1
  Cu  Cu8  1  0.35701911  0.09461127  0.93293503  1
  Cu  Cu9  1  0.35701911  0.40538873  0.93293503  1
  Cu  Cu10  1  0.14298089  0.59461127  0.43293503  1
  Cu  Cu11  1  0.64298089  0.90538873  0.06706497  1
  Cu  Cu12  1  0.64298089  0.59461127  0.06706497  1
  Cu  Cu13  1  0.56104789  0.86554998  0.64686324  1
  Cu  Cu14  1  0.43895211  0.36554998  0.35313676  1
  Cu  Cu15  1  0.93895211  0.13445002  0.14686324  1
  P  P16  1  0.63647150  0.56897082  0.36430197  1
  P  P17  1  0.86352850  0.43102918  0.86430197  1
  P  P18  1  0.13647150  0.93102918  0.13569803  1
  P  P19  1  0.36352850  0.43102918  0.63569803  1
  P  P20  1  0.01246159  0.25000000  0.39884063  1
  P  P21  1  0.48753841  0.75000000  0.89884063  1
  P  P22  1  0.36352850  0.06897082  0.63569803  1
  P  P23  1  0.98753841  0.75000000  0.60115937  1
  P  P24  1  0.51246159  0.25000000  0.10115937  1
  P  P25  1  0.13647150  0.56897082  0.13569803  1
  P  P26  1  0.86352850  0.06897082  0.86430197  1
  P  P27  1  0.63647150  0.93102918  0.36430197  1
  O  O28  1  0.94269633  0.25000000  0.54248789  1
  O  O29  1  0.96207867  0.98170653  0.80084632  1
  O  O30  1  0.96212079  0.88770504  0.03320193  1
  O  O31  1  0.96207867  0.51829347  0.80084632  1
  O  O32  1  0.53792133  0.01829347  0.30084632  1
  O  O33  1  0.15999766  0.45050233  0.54568947  1
  O  O34  1  0.65999766  0.45050233  0.95431053  1
  O  O35  1  0.91976105  0.16063187  0.33479773  1
  O  O36  1  0.53792133  0.48170653  0.30084632  1
  O  O37  1  0.58023895  0.66063187  0.83479773  1
  O  O38  1  0.81575508  0.36571523  0.75073229  1
  O  O39  1  0.91976105  0.33936813  0.33479773  1
  O  O40  1  0.03787921  0.11229496  0.96679807  1
  O  O41  1  0.65999766  0.04949767  0.95431053  1
  O  O42  1  0.18424492  0.86571523  0.24926771  1
  O  O43  1  0.46212079  0.88770504  0.46679807  1
  O  O44  1  0.41976105  0.33936813  0.16520227  1
  O  O45  1  0.27846148  0.25000000  0.38525660  1
  O  O46  1  0.84000234  0.95050233  0.45431053  1
  O  O47  1  0.31575508  0.13428477  0.74926771  1
  O  O48  1  0.34000234  0.54949767  0.04568947  1
  O  O49  1  0.08023895  0.83936813  0.66520227  1
  O  O50  1  0.84000234  0.54949767  0.45431053  1
  O  O51  1  0.03792133  0.01829347  0.19915368  1
  O  O52  1  0.68424492  0.86571523  0.25073229  1
  O  O53  1  0.34000234  0.95050233  0.04568947  1
  O  O54  1  0.31575508  0.36571523  0.74926771  1
  O  O55  1  0.53787921  0.11229496  0.53320193  1
  O  O56  1  0.18424492  0.63428477  0.24926771  1
  O  O57  1  0.08023895  0.66063187  0.66520227  1
  O  O58  1  0.96212079  0.61229496  0.03320193  1
  O  O59  1  0.22153852  0.75000000  0.88525660  1
  O  O60  1  0.77846148  0.25000000  0.11474340  1
  O  O61  1  0.55730367  0.75000000  0.04248789  1
  O  O62  1  0.46207867  0.98170653  0.69915368  1
  O  O63  1  0.58023895  0.83936813  0.83479773  1
  O  O64  1  0.03787921  0.38770504  0.96679807  1
  O  O65  1  0.72153852  0.75000000  0.61474340  1
  O  O66  1  0.46207867  0.51829347  0.69915368  1
  O  O67  1  0.68424492  0.63428477  0.25073229  1
  O  O68  1  0.81575508  0.13428477  0.75073229  1
  O  O69  1  0.41976105  0.16063187  0.16520227  1
  O  O70  1  0.03792133  0.48170653  0.19915368  1
  O  O71  1  0.05730367  0.75000000  0.45751211  1
  O  O72  1  0.15999766  0.04949767  0.54568947  1
  O  O73  1  0.53787921  0.38770504  0.53320193  1
  O  O74  1  0.46212079  0.61229496  0.46679807  1
  O  O75  1  0.44269633  0.25000000  0.95751211  1
