# generated using pymatgen
data_NaCr2O4
_symmetry_space_group_name_H-M   'P 1'
_cell_length_a   5.09421415
_cell_length_b   5.94818130
_cell_length_c   11.38752098
_cell_angle_alpha   90.00000000
_cell_angle_beta   90.00000000
_cell_angle_gamma   90.00000000
_symmetry_Int_Tables_number   1
_chemical_formula_structural   NaCr2O4
_chemical_formula_sum   'Na4 Cr8 O16'
_cell_volume   345.05679589
_cell_formula_units_Z   4
loop_
 _symmetry_equiv_pos_site_id
 _symmetry_equiv_pos_as_xyz
  1  'x, y, z'
loop_
 _atom_site_type_symbol
 _atom_site_label
 _atom_site_symmetry_multiplicity
 _atom_site_fract_x
 _atom_site_fract_y
 _atom_site_fract_z
 _atom_site_occupancy
  Na  Na0  1  0.02976649  0.75000000  0.25000000  1
  Na  Na1  1  0.35563492  0.75000000  0.75000000  1
  Na  Na2  1  0.64436508  0.25000000  0.25000000  1
  Na  Na3  1  0.97023351  0.25000000  0.75000000  1
  Cr  Cr4  1  0.00319558  0.25000000  0.00610286  1
  Cr  Cr5  1  0.99680442  0.75000000  0.99389714  1
  Cr  Cr6  1  0.00319558  0.25000000  0.49389714  1
  Cr  Cr7  1  0.99680442  0.75000000  0.50610286  1
  Cr  Cr8  1  0.50000000  0.50000000  0.00000000  1
  Cr  Cr9  1  0.50000000  -0.00000000  0.00000000  1
  Cr  Cr10  1  0.50000000  0.00000000  0.50000000  1
  Cr  Cr11  1  0.50000000  0.50000000  0.50000000  1
  O  O12  1  0.15940598  0.00205119  0.59162877  1
  O  O13  1  0.15940598  0.00205119  0.90837123  1
  O  O14  1  0.15940598  0.49794881  0.59162877  1
  O  O15  1  0.15940598  0.49794881  0.90837123  1
  O  O16  1  0.32813938  0.25000000  0.08963473  1
  O  O17  1  0.32813938  0.25000000  0.41036527  1
  O  O18  1  0.31578974  0.75000000  0.08364482  1
  O  O19  1  0.31578974  0.75000000  0.41635518  1
  O  O20  1  0.68421026  0.25000000  0.58364482  1
  O  O21  1  0.68421026  0.25000000  0.91635518  1
  O  O22  1  0.67186062  0.75000000  0.58963473  1
  O  O23  1  0.67186062  0.75000000  0.91036527  1
  O  O24  1  0.84059402  0.99794881  0.40837123  1
  O  O25  1  0.84059402  0.50205119  0.40837123  1
  O  O26  1  0.84059402  0.99794881  0.09162877  1
  O  O27  1  0.84059402  0.50205119  0.09162877  1
