# generated using pymatgen
data_Cr2(PO3)5
_symmetry_space_group_name_H-M   'P 1'
_cell_length_a   12.96958249
_cell_length_b   8.35779578
_cell_length_c   5.30419147
_cell_angle_alpha   90.00000000
_cell_angle_beta   94.19056290
_cell_angle_gamma   90.00000000
_symmetry_Int_Tables_number   1
_chemical_formula_structural   Cr2(PO3)5
_chemical_formula_sum   'Cr4 P10 O30'
_cell_volume   573.42195072
_cell_formula_units_Z   2
loop_
 _symmetry_equiv_pos_site_id
 _symmetry_equiv_pos_as_xyz
  1  'x, y, z'
loop_
 _atom_site_type_symbol
 _atom_site_label
 _atom_site_symmetry_multiplicity
 _atom_site_fract_x
 _atom_site_fract_y
 _atom_site_fract_z
 _atom_site_occupancy
  Cr  Cr0  1  0.96393293  0.29570460  0.88907837  1
  Cr  Cr1  1  0.53724519  0.29601421  0.61026574  1
  Cr  Cr2  1  0.46393293  0.70429440  0.38907937  1
  Cr  Cr3  1  0.03724519  0.70398579  0.11026574  1
  P  P4  1  0.60260094  0.82542670  0.93743731  1
  P  P5  1  0.64386836  0.50108817  0.12870787  1
  P  P6  1  0.75088107  0.07154044  0.74984301  1
  P  P7  1  0.85701353  0.49937150  0.37029386  1
  P  P8  1  0.10259994  0.17457230  0.43743831  1
  P  P9  1  0.14386836  0.49891083  0.62870687  1
  P  P10  1  0.25088107  0.92846056  0.24984201  1
  P  P11  1  0.35701353  0.50062850  0.87029486  1
  P  P12  1  0.39879639  0.17472617  0.06115067  1
  P  P13  1  0.89879639  0.82527283  0.56114867  1
  O  O14  1  0.67496387  0.66991801  0.01833256  1
  O  O15  1  0.96390240  0.86020939  0.34566088  1
  O  O16  1  0.94815877  0.79799169  0.82055544  1
  O  O17  1  0.92660765  0.51316681  0.14984668  1
  O  O18  1  0.03710166  0.14231753  0.65407985  1
  O  O19  1  0.05257204  0.20065237  0.17815938  1
  O  O20  1  0.07427768  0.48108455  0.84830853  1
  O  O21  1  0.17496387  0.33008199  0.51833356  1
  O  O22  1  0.10997666  0.60985820  0.42040735  1
  O  O23  1  0.17098886  0.84087280  0.08385577  1
  O  O24  1  0.19356377  0.04624848  0.43889953  1
  O  O25  1  0.25003123  0.56654627  0.75050372  1
  O  O26  1  0.33173150  0.84211974  0.41617240  1
  O  O27  1  0.30682713  0.04793822  0.06198557  1
  O  O28  1  0.32699364  0.33061402  0.97702905  1
  O  O29  1  0.39011374  0.61036741  0.08124544  1
  O  O30  1  0.42660665  0.48683219  0.64984568  1
  O  O31  1  0.46390340  0.13979061  0.84566188  1
  O  O32  1  0.44815977  0.20200831  0.32055644  1
  O  O33  1  0.82699464  0.66938598  0.47703005  1
  O  O34  1  0.53710166  0.85768347  0.15408085  1
  O  O35  1  0.57427768  0.51891645  0.34830953  1
  O  O36  1  0.89011374  0.38963259  0.58124644  1
  O  O37  1  0.60997666  0.39014180  0.92040735  1
  O  O38  1  0.67098886  0.15912720  0.58385477  1
  O  O39  1  0.69356377  0.95375152  0.93889853  1
  O  O40  1  0.75003123  0.43345373  0.25050472  1
  O  O41  1  0.83173250  0.15788026  0.91617140  1
  O  O42  1  0.80682713  0.95206178  0.56198457  1
  O  O43  1  0.55257204  0.79934763  0.67815838  1
