# generated using pymatgen
data_V2O5
_symmetry_space_group_name_H-M   'P 1'
_cell_length_a   6.32591096
_cell_length_b   6.58817495
_cell_length_c   7.77655659
_cell_angle_alpha   78.16653093
_cell_angle_beta   80.09248792
_cell_angle_gamma   75.99584666
_symmetry_Int_Tables_number   1
_chemical_formula_structural   V2O5
_chemical_formula_sum   'V4 O10'
_cell_volume   305.21296441
_cell_formula_units_Z   2
loop_
 _symmetry_equiv_pos_site_id
 _symmetry_equiv_pos_as_xyz
  1  'x, y, z'
loop_
 _atom_site_type_symbol
 _atom_site_label
 _atom_site_symmetry_multiplicity
 _atom_site_fract_x
 _atom_site_fract_y
 _atom_site_fract_z
 _atom_site_occupancy
  V  V0  1  0.16198786  0.71602184  0.56137207  1
  V  V1  1  0.83801214  0.28397816  0.43862793  1
  V  V2  1  0.67765481  0.83622596  0.39829936  1
  V  V3  1  0.32234519  0.16377404  0.60170064  1
  O  O4  1  0.97077826  0.82629736  0.40350265  1
  O  O5  1  0.02922174  0.17370264  0.59649735  1
  O  O6  1  0.37946093  0.87433123  0.53239954  1
  O  O7  1  0.62053907  0.12566877  0.46760046  1
  O  O8  1  0.02833171  0.70526801  0.75724011  1
  O  O9  1  0.97166829  0.29473199  0.24275989  1
  O  O10  1  0.64183124  0.88117863  0.19391486  1
  O  O11  1  0.35816876  0.11882137  0.80608514  1
  O  O12  1  0.28729350  0.45302671  0.52727110  1
  O  O13  1  0.71270650  0.54697329  0.47272890  1
