# generated using pymatgen
data_Na2LiInF6
_symmetry_space_group_name_H-M   'P 1'
_cell_length_a   5.78540562
_cell_length_b   5.78540566
_cell_length_c   5.78540566
_cell_angle_alpha   59.99999983
_cell_angle_beta   59.99999975
_cell_angle_gamma   59.99999977
_symmetry_Int_Tables_number   1
_chemical_formula_structural   Na2LiInF6
_chemical_formula_sum   'Na2 Li1 In1 F6'
_cell_volume   136.92616539
_cell_formula_units_Z   1
loop_
 _symmetry_equiv_pos_site_id
 _symmetry_equiv_pos_as_xyz
  1  'x, y, z'
loop_
 _atom_site_type_symbol
 _atom_site_label
 _atom_site_symmetry_multiplicity
 _atom_site_fract_x
 _atom_site_fract_y
 _atom_site_fract_z
 _atom_site_occupancy
  Na  Na0  1  0.25000000  0.25000000  0.25000000  1
  Na  Na1  1  0.75000000  0.75000000  0.75000000  1
  Li  Li2  1  0.50000000  0.50000000  0.50000000  1
  In  In3  1  0.00000000  0.00000000  -0.00000000  1
  F  F4  1  0.25468004  0.74531996  0.25468005  1
  F  F5  1  0.74531996  0.74531995  0.25468004  1
  F  F6  1  0.74531996  0.25468004  0.74531995  1
  F  F7  1  0.74531996  0.25468005  0.25468005  1
  F  F8  1  0.25468004  0.74531995  0.74531995  1
  F  F9  1  0.25468004  0.25468005  0.74531996  1
