# generated using pymatgen
data_CoCuCO5
_symmetry_space_group_name_H-M   'P 1'
_cell_length_a   2.97912325
_cell_length_b   9.13986704
_cell_length_c   11.88798900
_cell_angle_alpha   90.02192057
_cell_angle_beta   95.62276014
_cell_angle_gamma   89.45513139
_symmetry_Int_Tables_number   1
_chemical_formula_structural   CoCuCO5
_chemical_formula_sum   'Co4 Cu4 C4 O20'
_cell_volume   322.12350346
_cell_formula_units_Z   4
loop_
 _symmetry_equiv_pos_site_id
 _symmetry_equiv_pos_as_xyz
  1  'x, y, z'
loop_
 _atom_site_type_symbol
 _atom_site_label
 _atom_site_symmetry_multiplicity
 _atom_site_fract_x
 _atom_site_fract_y
 _atom_site_fract_z
 _atom_site_occupancy
  Co  Co0  1  0.59094509  0.76296660  0.37873331  1
  Co  Co1  1  0.40905491  0.23703340  0.62126669  1
  Co  Co2  1  0.58457123  0.73002201  0.87869040  1
  Co  Co3  1  0.41542877  0.26997799  0.12130960  1
  Cu  Cu4  1  0.98588946  0.00354508  0.21901914  1
  Cu  Cu5  1  0.01411054  0.99645492  0.78098086  1
  Cu  Cu6  1  0.98809435  0.49875763  0.70869239  1
  Cu  Cu7  1  0.01190565  0.50124237  0.29130761  1
  C  C8  1  0.61486007  0.73371249  0.13355180  1
  C  C9  1  0.38513993  0.26628751  0.86644820  1
  C  C10  1  0.61222252  0.77013257  0.62055022  1
  C  C11  1  0.38777748  0.22986743  0.37944978  1
  O  O12  1  0.57906524  0.87558954  0.13371286  1
  O  O13  1  0.42093476  0.12441046  0.86628714  1
  O  O14  1  0.56936831  0.62826162  0.62354259  1
  O  O15  1  0.43063169  0.37173838  0.37645741  1
  O  O16  1  0.60357565  0.66473802  0.23374057  1
  O  O17  1  0.39642435  0.33526198  0.76625943  1
  O  O18  1  0.61423564  0.84099218  0.71791051  1
  O  O19  1  0.38576436  0.15900782  0.28208949  1
  O  O20  1  0.63430669  0.65823588  0.04681315  1
  O  O21  1  0.36569331  0.34176412  0.95318685  1
  O  O22  1  0.62656320  0.84187235  0.53038982  1
  O  O23  1  0.37343680  0.15812765  0.46961018  1
  O  O24  1  0.06593087  0.88780473  0.34682610  1
  O  O25  1  0.93406913  0.11219527  0.65317390  1
  O  O26  1  0.06769005  0.60992001  0.84043915  1
  O  O27  1  0.93230995  0.39007999  0.15956085  1
  O  O28  1  0.10387462  0.63658486  0.41094624  1
  O  O29  1  0.89612538  0.36341514  0.58905376  1
  O  O30  1  0.09236884  0.86436208  0.90505712  1
  O  O31  1  0.90763116  0.13563792  0.09494288  1
