# generated using pymatgen
data_MnSeO5
_symmetry_space_group_name_H-M   'P 1'
_cell_length_a   5.48502155
_cell_length_b   5.48502155
_cell_length_c   7.58179117
_cell_angle_alpha   70.39948093
_cell_angle_beta   109.60051907
_cell_angle_gamma   78.04540953
_symmetry_Int_Tables_number   1
_chemical_formula_structural   MnSeO5
_chemical_formula_sum   'Mn2 Se2 O10'
_cell_volume   188.84394967
_cell_formula_units_Z   2
loop_
 _symmetry_equiv_pos_site_id
 _symmetry_equiv_pos_as_xyz
  1  'x, y, z'
loop_
 _atom_site_type_symbol
 _atom_site_label
 _atom_site_symmetry_multiplicity
 _atom_site_fract_x
 _atom_site_fract_y
 _atom_site_fract_z
 _atom_site_occupancy
  Mn  Mn0  1  -0.00000000  0.50000000  0.50000000  1
  Mn  Mn1  1  0.50000000  0.00000000  -0.00000000  1
  Se  Se2  1  0.92131865  0.92131865  0.75000000  1
  Se  Se3  1  0.07868135  0.07868135  0.25000000  1
  O  O4  1  0.26746522  0.79076619  0.89146475  1
  O  O5  1  0.79076619  0.26746522  0.60853525  1
  O  O6  1  0.73253478  0.20923381  0.10853525  1
  O  O7  1  0.20923381  0.73253478  0.39146475  1
  O  O8  1  0.82381518  0.78433344  0.58189447  1
  O  O9  1  0.78433344  0.82381518  0.91810553  1
  O  O10  1  0.17618482  0.21566656  0.41810553  1
  O  O11  1  0.21566656  0.17618482  0.08189447  1
  O  O12  1  0.31617135  0.31617135  0.75000000  1
  O  O13  1  0.68382865  0.68382865  0.25000000  1
