# generated using pymatgen
data_V2CuH14C2N2(OF2)4
_symmetry_space_group_name_H-M   'P 1'
_cell_length_a   6.76129795
_cell_length_b   7.06427223
_cell_length_c   7.63790983
_cell_angle_alpha   80.99191614
_cell_angle_beta   67.22117088
_cell_angle_gamma   70.40958017
_symmetry_Int_Tables_number   1
_chemical_formula_structural   V2CuH14C2N2(OF2)4
_chemical_formula_sum   'V2 Cu1 H14 C2 N2 O4 F8'
_cell_volume   316.74007607
_cell_formula_units_Z   1
loop_
 _symmetry_equiv_pos_site_id
 _symmetry_equiv_pos_as_xyz
  1  'x, y, z'
loop_
 _atom_site_type_symbol
 _atom_site_label
 _atom_site_symmetry_multiplicity
 _atom_site_fract_x
 _atom_site_fract_y
 _atom_site_fract_z
 _atom_site_occupancy
  V  V0  1  0.54501986  0.65739374  0.30314942  1
  V  V1  1  0.45498014  0.34260626  0.69685058  1
  Cu  Cu2  1  -0.00000000  0.50000000  0.50000000  1
  H  H3  1  0.03237226  0.90815165  0.29303304  1
  H  H4  1  0.96762774  0.09184835  0.70696696  1
  H  H5  1  0.86584601  0.14715867  0.34317372  1
  H  H6  1  0.13415399  0.85284133  0.65682628  1
  H  H7  1  0.75983640  0.98335659  0.30337445  1
  H  H8  1  0.24016360  0.01664341  0.69662555  1
  H  H9  1  0.84038348  0.21752810  0.03922959  1
  H  H10  1  0.15961652  0.78247190  0.96077041  1
  H  H11  1  0.12640655  0.13554177  0.02216774  1
  H  H12  1  0.87359345  0.86445823  0.97783226  1
  H  H13  1  0.75276922  0.65768622  0.82784637  1
  H  H14  1  0.24723078  0.34231378  0.17215363  1
  H  H15  1  0.69069089  0.82009479  0.67135061  1
  H  H16  1  0.30930911  0.17990521  0.32864939  1
  C  C17  1  0.97620811  0.08756412  0.05875088  1
  C  C18  1  0.02379189  0.91243588  0.94124912  1
  N  N19  1  0.90523454  0.02629635  0.26295966  1
  N  N20  1  0.09476546  0.97370365  0.73704034  1
  O  O21  1  0.64299461  0.62805090  0.07153673  1
  O  O22  1  0.35700539  0.37194910  0.92846327  1
  O  O23  1  0.81558392  0.70841960  0.69329560  1
  O  O24  1  0.18441608  0.29158040  0.30670440  1
  F  F25  1  0.22073473  0.72704471  0.36366351  1
  F  F26  1  0.77926527  0.27295529  0.63633649  1
  F  F27  1  0.16334222  0.37501880  0.66780077  1
  F  F28  1  0.83665778  0.62498120  0.33219923  1
  F  F29  1  0.56415749  0.37013358  0.38517251  1
  F  F30  1  0.43584251  0.62986642  0.61482749  1
  F  F31  1  0.49887676  0.94151936  0.32605690  1
  F  F32  1  0.50112324  0.05848064  0.67394310  1
