# generated using pymatgen
data_ReN2
_symmetry_space_group_name_H-M   'P 1'
_cell_length_a   4.24162939
_cell_length_b   2.95717958
_cell_length_c   4.99414481
_cell_angle_alpha   90.00000000
_cell_angle_beta   65.84480619
_cell_angle_gamma   90.00000000
_symmetry_Int_Tables_number   1
_chemical_formula_structural   ReN2
_chemical_formula_sum   'Re2 N4'
_cell_volume   57.15787266
_cell_formula_units_Z   2
loop_
 _symmetry_equiv_pos_site_id
 _symmetry_equiv_pos_as_xyz
  1  'x, y, z'
loop_
 _atom_site_type_symbol
 _atom_site_label
 _atom_site_symmetry_multiplicity
 _atom_site_fract_x
 _atom_site_fract_y
 _atom_site_fract_z
 _atom_site_occupancy
  Re  Re0  1  0.50000000  0.80996379  0.75000000  1
  Re  Re1  1  0.50000000  0.19003621  0.25000000  1
  N  N2  1  0.17665476  0.30179071  0.69168413  1
  N  N3  1  0.82334524  0.30179071  0.80831587  1
  N  N4  1  0.82334524  0.69820929  0.30831587  1
  N  N5  1  0.17665476  0.69820929  0.19168413  1
