# generated using pymatgen
data_LiCr(PO3)4
_symmetry_space_group_name_H-M   'P 1'
_cell_length_a   9.42082572
_cell_length_b   10.37867222
_cell_length_c   9.07134471
_cell_angle_alpha   90.00000000
_cell_angle_beta   91.17316818
_cell_angle_gamma   90.00000000
_symmetry_Int_Tables_number   1
_chemical_formula_structural   LiCr(PO3)4
_chemical_formula_sum   'Li4 Cr4 P16 O48'
_cell_volume   886.77081397
_cell_formula_units_Z   4
loop_
 _symmetry_equiv_pos_site_id
 _symmetry_equiv_pos_as_xyz
  1  'x, y, z'
loop_
 _atom_site_type_symbol
 _atom_site_label
 _atom_site_symmetry_multiplicity
 _atom_site_fract_x
 _atom_site_fract_y
 _atom_site_fract_z
 _atom_site_occupancy
  Li  Li0  1  0.00213917  0.81788903  0.10588039  1
  Li  Li1  1  0.99934016  0.16868517  0.61410379  1
  Li  Li2  1  0.50065984  0.66868517  0.38589621  1
  Li  Li3  1  0.49786083  0.31788903  0.89411961  1
  Cr  Cr4  1  0.51509815  0.29014451  0.25369985  1
  Cr  Cr5  1  0.48621005  0.71090089  0.74480687  1
  Cr  Cr6  1  0.98490185  0.79014451  0.74630015  1
  Cr  Cr7  1  0.01378995  0.21090089  0.25519313  1
  P  P8  1  0.28707407  0.10722546  0.46153671  1
  P  P9  1  0.80346368  0.61215588  0.26328952  1
  P  P10  1  0.69653632  0.11215588  0.73671048  1
  P  P11  1  0.73532666  0.01849259  0.24513240  1
  P  P12  1  0.26662347  0.98229671  0.75384587  1
  P  P13  1  0.78816161  0.38588930  0.05855248  1
  P  P14  1  0.76467334  0.51849259  0.75486760  1
  P  P15  1  0.79433421  0.39393946  0.46045464  1
  P  P16  1  0.71183839  0.88588930  0.94144752  1
  P  P17  1  0.19839803  0.38907482  0.74307571  1
  P  P18  1  0.21292593  0.60722546  0.53846329  1
  P  P19  1  0.70566579  0.89393946  0.53954536  1
  P  P20  1  0.30160197  0.88907482  0.25692429  1
  P  P21  1  0.29364630  0.11340306  0.06174753  1
  P  P22  1  0.20635370  0.61340306  0.93825247  1
  P  P23  1  0.23337653  0.48229671  0.24615413  1
  O  O24  1  0.69784279  0.91096701  0.36562166  1
  O  O25  1  0.10522132  0.72797308  0.92327018  1
  O  O26  1  0.14790618  0.87856819  0.22474641  1
  O  O27  1  0.88383171  0.27239279  0.08997333  1
  O  O28  1  0.64721389  0.00568605  0.85861313  1
  O  O29  1  0.35209382  0.37856819  0.77525359  1
  O  O30  1  0.36902931  0.99774236  0.14580214  1
  O  O31  1  0.60066539  0.78752033  0.57518597  1
  O  O32  1  0.39477868  0.22797308  0.07672982  1
  O  O33  1  0.64687698  0.03152933  0.58734780  1
  O  O34  1  0.63424689  0.12938658  0.25147025  1
  O  O35  1  0.86995041  0.86558441  0.91581909  1
  O  O36  1  0.40013235  0.77875877  0.25990117  1
  O  O37  1  0.89208286  0.04859324  0.25314069  1
  O  O38  1  0.35778128  0.63479876  0.89594312  1
  O  O39  1  0.85663600  0.87123927  0.59181100  1
  O  O40  1  0.11011089  0.95126592  0.73907602  1
  O  O41  1  0.69608352  0.92790804  0.10801017  1
  O  O42  1  0.36963209  0.63641161  0.57035610  1
  O  O43  1  0.80215721  0.41096701  0.63437834  1
  O  O44  1  0.85312302  0.53152933  0.41265220  1
  O  O45  1  0.11015593  0.70555438  0.59415204  1
  O  O46  1  0.13024030  0.37312643  0.25144639  1
  O  O47  1  0.09986765  0.27875877  0.74009883  1
  O  O48  1  0.38984407  0.20555438  0.40584796  1
  O  O49  1  0.59796804  0.22161831  0.75427205  1
  O  O50  1  0.89933461  0.28752033  0.42481403  1
  O  O51  1  0.90203196  0.72161831  0.24572795  1
  O  O52  1  0.32745510  0.96517481  0.41403716  1
  O  O53  1  0.64336400  0.37123927  0.40818900  1
  O  O54  1  0.38988911  0.45126592  0.26092398  1
  O  O55  1  0.64746804  0.62433727  0.26166333  1
  O  O56  1  0.61616829  0.77239279  0.91002667  1
  O  O57  1  0.17254490  0.46517481  0.58596284  1
  O  O58  1  0.80391648  0.42790804  0.89198983  1
  O  O59  1  0.19262858  0.59178507  0.36426126  1
  O  O60  1  0.29954344  0.06897012  0.89521959  1
  O  O61  1  0.13097069  0.49774236  0.85419786  1
  O  O62  1  0.30737142  0.09178507  0.63573874  1
  O  O63  1  0.20045656  0.56897012  0.10478041  1
  O  O64  1  0.14221872  0.13479876  0.10405688  1
  O  O65  1  0.60791714  0.54859324  0.74685931  1
  O  O66  1  0.85278611  0.50568605  0.14138687  1
  O  O67  1  0.63004959  0.36558441  0.08418091  1
  O  O68  1  0.36975970  0.87312643  0.74855361  1
  O  O69  1  0.86575311  0.62938658  0.74852975  1
  O  O70  1  0.13036791  0.13641161  0.42964390  1
  O  O71  1  0.85253196  0.12433727  0.73833667  1
