# generated using pymatgen
data_K(AuO2)2
_symmetry_space_group_name_H-M   'P 1'
_cell_length_a   5.59119788
_cell_length_b   6.96950319
_cell_length_c   6.96950319
_cell_angle_alpha   90.00000000
_cell_angle_beta   90.00000000
_cell_angle_gamma   90.00000000
_symmetry_Int_Tables_number   1
_chemical_formula_structural   K(AuO2)2
_chemical_formula_sum   'K2 Au4 O8'
_cell_volume   271.58670445
_cell_formula_units_Z   2
loop_
 _symmetry_equiv_pos_site_id
 _symmetry_equiv_pos_as_xyz
  1  'x, y, z'
loop_
 _atom_site_type_symbol
 _atom_site_label
 _atom_site_symmetry_multiplicity
 _atom_site_fract_x
 _atom_site_fract_y
 _atom_site_fract_z
 _atom_site_occupancy
  K  K0  1  0.00000000  -0.00000000  0.50000000  1
  K  K1  1  0.50000000  0.50000000  0.00000000  1
  Au  Au2  1  0.00000000  0.79467975  0.00000000  1
  Au  Au3  1  0.00000000  0.20532025  0.00000000  1
  Au  Au4  1  0.50000000  -0.00000000  0.20532025  1
  Au  Au5  1  0.50000000  -0.00000000  0.79467975  1
  O  O6  1  0.25000000  0.20947765  0.20947765  1
  O  O7  1  0.75000000  0.20947765  0.20947765  1
  O  O8  1  0.25000000  0.79052235  0.20947765  1
  O  O9  1  0.75000000  0.79052235  0.20947765  1
  O  O10  1  0.25000000  0.79052235  0.79052235  1
  O  O11  1  0.75000000  0.20947765  0.79052235  1
  O  O12  1  0.75000000  0.79052235  0.79052235  1
  O  O13  1  0.25000000  0.20947765  0.79052235  1
