# generated using pymatgen
data_TiZnSnO4
_symmetry_space_group_name_H-M   'P 1'
_cell_length_a   9.27246307
_cell_length_b   9.31374217
_cell_length_c   9.31390530
_cell_angle_alpha   120.00114388
_cell_angle_beta   90.00000000
_cell_angle_gamma   90.00000000
_symmetry_Int_Tables_number   1
_chemical_formula_structural   TiZnSnO4
_chemical_formula_sum   'Ti6 Zn6 Sn6 O24'
_cell_volume   696.58924846
_cell_formula_units_Z   6
loop_
 _symmetry_equiv_pos_site_id
 _symmetry_equiv_pos_as_xyz
  1  'x, y, z'
loop_
 _atom_site_type_symbol
 _atom_site_label
 _atom_site_symmetry_multiplicity
 _atom_site_fract_x
 _atom_site_fract_y
 _atom_site_fract_z
 _atom_site_occupancy
  Ti  Ti0  1  0.07339576  0.30879919  0.98311324  1
  Ti  Ti1  1  0.07340784  0.01684600  0.32562383  1
  Ti  Ti2  1  0.07341256  0.67427046  0.69119944  1
  Ti  Ti3  1  0.57339576  0.69120081  0.01688676  1
  Ti  Ti4  1  0.57340784  0.98315400  0.67437617  1
  Ti  Ti5  1  0.57341256  0.32572954  0.30880056  1
  Zn  Zn6  1  0.95002472  0.97672027  0.64492303  1
  Zn  Zn7  1  0.94999369  0.35505425  0.33181288  1
  Zn  Zn8  1  0.94996482  0.66816188  0.02325642  1
  Zn  Zn9  1  0.45002472  0.02327973  0.35507697  1
  Zn  Zn10  1  0.44999369  0.64494575  0.66818712  1
  Zn  Zn11  1  0.44996482  0.33183812  0.97674358  1
  Sn  Sn12  1  0.32908104  0.00004580  0.00002178  1
  Sn  Sn13  1  0.82908104  0.99995420  0.99997822  1
  Sn  Sn14  1  0.16882888  0.33330280  0.66666157  1
  Sn  Sn15  1  0.66882888  0.66669720  0.33333843  1
  Sn  Sn16  1  0.20480519  0.66665455  0.33332185  1
  Sn  Sn17  1  0.70480519  0.33334545  0.66667815  1
  O  O18  1  0.96651602  0.11411931  0.89381565  1
  O  O19  1  0.96653052  0.10616345  0.22030618  1
  O  O20  1  0.96652028  0.77964461  0.88583787  1
  O  O21  1  0.46651602  0.88588069  0.10618435  1
  O  O22  1  0.46653052  0.89383655  0.77969382  1
  O  O23  1  0.46652028  0.22035539  0.11416213  1
  O  O24  1  0.01374989  0.43676837  0.89321266  1
  O  O25  1  0.01383510  0.10673123  0.54353546  1
  O  O26  1  0.01381879  0.45639632  0.56319525  1
  O  O27  1  0.51374989  0.56323163  0.10678734  1
  O  O28  1  0.51383510  0.89326877  0.45646454  1
  O  O29  1  0.51381879  0.54360368  0.43680475  1
  O  O30  1  0.07508301  0.43987631  0.21307883  1
  O  O31  1  0.07509261  0.78692171  0.22680320  1
  O  O32  1  0.07508314  0.77313944  0.56010878  1
  O  O33  1  0.57508301  0.56012369  0.78692117  1
  O  O34  1  0.57509261  0.21307829  0.77319680  1
  O  O35  1  0.57508314  0.22686056  0.43989122  1
  O  O36  1  0.75263471  0.89856223  0.64085014  1
  O  O37  1  0.75261608  0.35916832  0.25773349  1
  O  O38  1  0.75260530  0.74229921  0.10144681  1
  O  O39  1  0.25263471  0.10143777  0.35914986  1
  O  O40  1  0.25261608  0.64083168  0.74226651  1
  O  O41  1  0.25260530  0.25770079  0.89855319  1
