# generated using pymatgen
data_Ta8Cr3O24
_symmetry_space_group_name_H-M   'P 1'
_cell_length_a   9.57266133
_cell_length_b   6.77717445
_cell_length_c   9.22201323
_cell_angle_alpha   89.99281372
_cell_angle_beta   89.99358666
_cell_angle_gamma   45.01679071
_symmetry_Int_Tables_number   1
_chemical_formula_structural   Ta8Cr3O24
_chemical_formula_sum   'Ta8 Cr3 O24'
_cell_volume   423.17434696
_cell_formula_units_Z   1
loop_
 _symmetry_equiv_pos_site_id
 _symmetry_equiv_pos_as_xyz
  1  'x, y, z'
loop_
 _atom_site_type_symbol
 _atom_site_label
 _atom_site_symmetry_multiplicity
 _atom_site_fract_x
 _atom_site_fract_y
 _atom_site_fract_z
 _atom_site_occupancy
  Ta  Ta0  1  0.00057565  0.50122691  0.17028277  1
  Ta  Ta1  1  0.99986778  0.00163039  0.33055014  1
  Ta  Ta2  1  0.50098137  0.99828241  0.01067775  1
  Ta  Ta3  1  0.50116097  0.99851073  0.63797161  1
  Ta  Ta4  1  0.50034435  0.49921316  0.82929974  1
  Ta  Ta5  1  0.49988889  0.49943288  0.19220383  1
  Ta  Ta6  1  0.99986902  0.99905054  0.66589860  1
  Ta  Ta7  1  0.00112524  0.49741273  0.83618837  1
  Cr  Cr8  1  0.00014348  0.99989319  0.99869383  1
  Cr  Cr9  1  0.99997103  0.50018968  0.50331629  1
  Cr  Cr10  1  0.49997430  0.50012066  0.49891463  1
  O  O11  1  0.00061772  0.69109337  0.99780357  1
  O  O12  1  0.00095317  0.69858691  0.33072250  1
  O  O13  1  0.00007583  0.70087643  0.67215165  1
  O  O14  1  0.30116517  0.19799486  0.83492408  1
  O  O15  1  0.28866066  0.21036985  0.14562077  1
  O  O16  1  0.28704151  0.21221386  0.51666143  1
  O  O17  1  0.19138844  0.80969177  0.50017276  1
  O  O18  1  0.20004971  0.80090494  0.82612281  1
  O  O19  1  0.19608953  0.80478388  0.17138938  1
  O  O20  1  0.49843505  0.31099538  0.33362077  1
  O  O21  1  0.49992975  0.30201550  0.67353440  1
  O  O22  1  0.49902424  0.30411505  0.99499281  1
  O  O23  1  0.50061604  0.69618443  0.99499323  1
  O  O24  1  0.50070932  0.68932444  0.33313046  1
  O  O25  1  0.50152682  0.69621632  0.67356093  1
  O  O26  1  0.80057431  0.19880982  0.82678283  1
  O  O27  1  0.80367842  0.19539929  0.17156459  1
  O  O28  1  0.80849508  0.19078847  0.49998553  1
  O  O29  1  0.71258768  0.78841390  0.51469500  1
  O  O30  1  0.69717288  0.80365881  0.83482483  1
  O  O31  1  0.71113843  0.79017489  0.14626887  1
  O  O32  1  0.99927437  0.30240990  0.33048694  1
  O  O33  1  0.99841708  0.30022516  0.67204218  1
  O  O34  1  0.99845673  0.30988950  0.99814012  1
