# generated using pymatgen
data_K2ZrSi3O10
_symmetry_space_group_name_H-M   'P 1'
_cell_length_a   7.27656428
_cell_length_b   10.41304497
_cell_length_c   13.52081620
_cell_angle_alpha   90.00000000
_cell_angle_beta   90.00000000
_cell_angle_gamma   90.00000000
_symmetry_Int_Tables_number   1
_chemical_formula_structural   K2ZrSi3O10
_chemical_formula_sum   'K8 Zr4 Si12 O40'
_cell_volume   1024.48834778
_cell_formula_units_Z   4
loop_
 _symmetry_equiv_pos_site_id
 _symmetry_equiv_pos_as_xyz
  1  'x, y, z'
loop_
 _atom_site_type_symbol
 _atom_site_label
 _atom_site_symmetry_multiplicity
 _atom_site_fract_x
 _atom_site_fract_y
 _atom_site_fract_z
 _atom_site_occupancy
  K  K0  1  0.34358683  0.77435311  0.13462704  1
  K  K1  1  0.84358683  0.72564689  0.86537296  1
  K  K2  1  0.65641317  0.27435311  0.36537296  1
  K  K3  1  0.15641317  0.22564689  0.63462704  1
  K  K4  1  0.77564306  0.57346692  0.58192781  1
  K  K5  1  0.27564306  0.92653308  0.41807219  1
  K  K6  1  0.22435694  0.07346692  0.91807219  1
  K  K7  1  0.72435694  0.42653308  0.08192781  1
  Zr  Zr8  1  0.24139072  0.55372531  0.70704110  1
  Zr  Zr9  1  0.74139072  0.94627469  0.29295890  1
  Zr  Zr10  1  0.75860928  0.05372531  0.79295890  1
  Zr  Zr11  1  0.25860928  0.44627469  0.20704110  1
  Si  Si12  1  0.49270076  0.82801217  0.67465314  1
  Si  Si13  1  0.99270076  0.67198783  0.32534686  1
  Si  Si14  1  0.50729924  0.32801217  0.82534686  1
  Si  Si15  1  0.00729924  0.17198783  0.17465314  1
  Si  Si16  1  0.76691911  0.97202391  0.55062406  1
  Si  Si17  1  0.26691911  0.52797609  0.44937594  1
  Si  Si18  1  0.23308089  0.47202391  0.94937594  1
  Si  Si19  1  0.73308089  0.02797609  0.05062406  1
  Si  Si20  1  0.92043390  0.36395302  0.83318689  1
  Si  Si21  1  0.42043390  0.13604698  0.16681311  1
  Si  Si22  1  0.07956610  0.86395302  0.66681311  1
  Si  Si23  1  0.57956610  0.63604698  0.33318689  1
  O  O24  1  0.25277255  0.58487010  0.86536737  1
  O  O25  1  0.75277255  0.91512990  0.13463263  1
  O  O26  1  0.74722745  0.08487010  0.63463263  1
  O  O27  1  0.24722745  0.41512990  0.36536737  1
  O  O28  1  0.46304342  0.67454991  0.68507339  1
  O  O29  1  0.96304342  0.82545009  0.31492661  1
  O  O30  1  0.53695658  0.17454991  0.81492661  1
  O  O31  1  0.03695658  0.32545009  0.18507339  1
  O  O32  1  0.22380915  0.48502896  0.56144460  1
  O  O33  1  0.72380915  0.01497104  0.43855540  1
  O  O34  1  0.77619085  0.98502896  0.93855540  1
  O  O35  1  0.27619085  0.51497104  0.06144460  1
  O  O36  1  0.00247314  0.44380368  0.73983795  1
  O  O37  1  0.50247314  0.05619632  0.26016205  1
  O  O38  1  0.99752686  0.94380368  0.76016205  1
  O  O39  1  0.49752686  0.55619632  0.23983795  1
  O  O40  1  0.41129954  0.39040308  0.72806106  1
  O  O41  1  0.91129954  0.10959692  0.27193894  1
  O  O42  1  0.58870046  0.89040308  0.77193894  1
  O  O43  1  0.08870046  0.60959692  0.22806106  1
  O  O44  1  0.05818121  0.70995452  0.68386670  1
  O  O45  1  0.55818121  0.79004548  0.31613330  1
  O  O46  1  0.94181879  0.20995452  0.81613330  1
  O  O47  1  0.44181879  0.29004548  0.18386670  1
  O  O48  1  0.29758475  0.90252880  0.64733505  1
  O  O49  1  0.79758475  0.59747120  0.35266495  1
  O  O50  1  0.70241525  0.40252880  0.85266495  1
  O  O51  1  0.20241525  0.09747120  0.14733505  1
  O  O52  1  0.97948153  0.91256510  0.56216486  1
  O  O53  1  0.47948153  0.58743490  0.43783514  1
  O  O54  1  0.02051847  0.41256510  0.93783514  1
  O  O55  1  0.52051847  0.08743490  0.06216486  1
  O  O56  1  0.62759695  0.85051233  0.57759784  1
  O  O57  1  0.12759695  0.64948767  0.42240216  1
  O  O58  1  0.37240305  0.35051233  0.92240216  1
  O  O59  1  0.87240305  0.14948767  0.07759784  1
  O  O60  1  0.63275825  0.29377899  0.58064060  1
  O  O61  1  0.13275825  0.20622101  0.41935940  1
  O  O62  1  0.36724175  0.79377899  0.91935940  1
  O  O63  1  0.86724175  0.70622101  0.08064060  1
