# generated using pymatgen
data_Sr4Nb17O26
_symmetry_space_group_name_H-M   'P 1'
_cell_length_a   4.18474383
_cell_length_b   12.20325663
_cell_length_c   12.20325663
_cell_angle_alpha   90.00000000
_cell_angle_beta   90.00000000
_cell_angle_gamma   90.00000000
_symmetry_Int_Tables_number   1
_chemical_formula_structural   Sr4Nb17O26
_chemical_formula_sum   'Sr4 Nb17 O26'
_cell_volume   623.18984320
_cell_formula_units_Z   1
loop_
 _symmetry_equiv_pos_site_id
 _symmetry_equiv_pos_as_xyz
  1  'x, y, z'
loop_
 _atom_site_type_symbol
 _atom_site_label
 _atom_site_symmetry_multiplicity
 _atom_site_fract_x
 _atom_site_fract_y
 _atom_site_fract_z
 _atom_site_occupancy
  Sr  Sr0  1  -0.00000000  0.43393032  0.26232885  1
  Sr  Sr1  1  -0.00000000  0.26232885  0.56606968  1
  Sr  Sr2  1  0.00000000  0.73767115  0.43393032  1
  Sr  Sr3  1  0.00000000  0.56606968  0.73767115  1
  Nb  Nb4  1  0.00000000  0.94053839  0.75723761  1
  Nb  Nb5  1  -0.00000000  0.75723761  0.05946161  1
  Nb  Nb6  1  0.00000000  0.24276239  0.94053839  1
  Nb  Nb7  1  -0.00000000  0.05946161  0.24276239  1
  Nb  Nb8  1  0.50000000  0.50000000  0.50000000  1
  Nb  Nb9  1  0.50000000  0.62582654  0.97073132  1
  Nb  Nb10  1  0.50000000  0.66890035  0.19941835  1
  Nb  Nb11  1  0.50000000  0.80058165  0.66890035  1
  Nb  Nb12  1  0.50000000  0.85103295  0.90193558  1
  Nb  Nb13  1  0.50000000  0.90193558  0.14896705  1
  Nb  Nb14  1  0.50000000  0.97073132  0.37417346  1
  Nb  Nb15  1  0.50000000  0.02926868  0.62582654  1
  Nb  Nb16  1  0.50000000  0.09806442  0.85103295  1
  Nb  Nb17  1  0.50000000  0.14896705  0.09806442  1
  Nb  Nb18  1  0.50000000  0.19941835  0.33109965  1
  Nb  Nb19  1  0.50000000  0.33109965  0.80058165  1
  Nb  Nb20  1  0.50000000  0.37417346  0.02926868  1
  O  O21  1  0.00000000  0.78923934  0.66741738  1
  O  O22  1  0.00000000  0.62384514  0.95244301  1
  O  O23  1  -0.00000000  0.04755699  0.62384514  1
  O  O24  1  0.00000000  0.85865994  0.91170051  1
  O  O25  1  0.00000000  0.66741738  0.21076066  1
  O  O26  1  -0.00000000  0.08829949  0.85865994  1
  O  O27  1  0.00000000  0.91170051  0.14134006  1
  O  O28  1  -0.00000000  0.33258262  0.78923934  1
  O  O29  1  -0.00000000  0.14134006  0.08829949  1
  O  O30  1  0.00000000  0.95244301  0.37615486  1
  O  O31  1  -0.00000000  0.37615486  0.04755699  1
  O  O32  1  -0.00000000  0.21076066  0.33258262  1
  O  O33  1  -0.00000000  0.50000000  0.50000000  1
  O  O34  1  0.50000000  0.88773528  0.52770807  1
  O  O35  1  0.50000000  0.52770807  0.11226472  1
  O  O36  1  0.50000000  0.47229193  0.88773528  1
  O  O37  1  0.50000000  0.54631692  0.34087620  1
  O  O38  1  0.50000000  0.65912380  0.54631692  1
  O  O39  1  0.50000000  0.69897586  0.80985514  1
  O  O40  1  0.50000000  0.80985514  0.30102414  1
  O  O41  1  0.50000000  -0.00000000  0.00000000  1
  O  O42  1  0.50000000  0.11226472  0.47229193  1
  O  O43  1  0.50000000  0.19014486  0.69897586  1
  O  O44  1  0.50000000  0.30102414  0.19014486  1
  O  O45  1  0.50000000  0.34087620  0.45368308  1
  O  O46  1  0.50000000  0.45368308  0.65912380  1
