# generated using pymatgen
data_Li7Mn4CoO12
_symmetry_space_group_name_H-M   'P 1'
_cell_length_a   2.97129167
_cell_length_b   7.65680992
_cell_length_c   9.76989157
_cell_angle_alpha   92.23414579
_cell_angle_beta   83.52351347
_cell_angle_gamma   81.53691216
_symmetry_Int_Tables_number   1
_chemical_formula_structural   Li7Mn4CoO12
_chemical_formula_sum   'Li7 Mn4 Co1 O12'
_cell_volume   218.09802707
_cell_formula_units_Z   1
loop_
 _symmetry_equiv_pos_site_id
 _symmetry_equiv_pos_as_xyz
  1  'x, y, z'
loop_
 _atom_site_type_symbol
 _atom_site_label
 _atom_site_symmetry_multiplicity
 _atom_site_fract_x
 _atom_site_fract_y
 _atom_site_fract_z
 _atom_site_occupancy
  Li  Li0  1  0.74119563  0.26295384  0.24157750  1
  Li  Li1  1  0.92547137  0.40371316  0.75842250  1
  Li  Li2  1  0.09672719  0.57462690  0.24348678  1
  Li  Li3  1  0.25129202  0.75043447  0.74462250  1
  Li  Li4  1  0.41537498  0.91623253  0.25537750  1
  Li  Li5  1  0.56993881  0.09203910  0.75651322  1
  Li  Li6  1  0.33333300  0.33333300  -0.00000000  1
  Mn  Mn7  1  0.00387464  0.00922406  0.99656122  1
  Mn  Mn8  1  0.66279236  0.65744294  0.00343878  1
  Mn  Mn9  1  0.17057167  0.16312111  0.49893183  1
  Mn  Mn10  1  0.49609533  0.50354589  0.50106817  1
  Co  Co11  1  0.83333300  0.83333300  0.50000000  1
  O  O12  1  0.42478020  0.10306318  0.10885859  1
  O  O13  1  0.50499786  0.29890330  0.61864951  1
  O  O14  1  0.69414755  0.47629817  0.11832002  1
  O  O15  1  0.83851030  0.63467784  0.61796969  1
  O  O16  1  0.06742505  0.78517093  0.10585170  1
  O  O17  1  0.17911280  0.95902758  0.61358897  1
  O  O18  1  0.16166914  0.36776370  0.38135049  1
  O  O19  1  0.24188680  0.56360382  0.89114141  1
  O  O20  1  0.48755320  0.70763842  0.38641103  1
  O  O21  1  0.59924195  0.88149607  0.89414830  1
  O  O22  1  0.82815670  0.03198916  0.38203031  1
  O  O23  1  0.97251845  0.19036783  0.88167998  1
