# generated using pymatgen
data_Li7Mn4CoO12
_symmetry_space_group_name_H-M   'P 1'
_cell_length_a   2.96864290
_cell_length_b   7.80580745
_cell_length_c   10.16503438
_cell_angle_alpha   69.30417414
_cell_angle_beta   91.45007441
_cell_angle_gamma   83.05069330
_symmetry_Int_Tables_number   1
_chemical_formula_structural   Li7Mn4CoO12
_chemical_formula_sum   'Li7 Mn4 Co1 O12'
_cell_volume   218.14351857
_cell_formula_units_Z   1
loop_
 _symmetry_equiv_pos_site_id
 _symmetry_equiv_pos_as_xyz
  1  'x, y, z'
loop_
 _atom_site_type_symbol
 _atom_site_label
 _atom_site_symmetry_multiplicity
 _atom_site_fract_x
 _atom_site_fract_y
 _atom_site_fract_z
 _atom_site_occupancy
  Li  Li0  1  0.80914755  0.34775142  0.08799578  1
  Li  Li1  1  0.15637334  0.67511436  0.40683270  1
  Li  Li2  1  0.49861894  0.00130370  0.75182224  1
  Li  Li3  1  0.17696066  0.65821964  0.92650130  1
  Li  Li4  1  0.52418545  0.98558158  0.24533722  1
  Li  Li5  1  0.83471406  0.33202930  0.58151076  1
  Li  Li6  1  0.66666700  0.66666700  0.16666700  1
  Mn  Mn7  1  0.01192038  0.98932869  0.00639262  1
  Mn  Mn8  1  0.32141262  0.34400431  0.32694038  1
  Mn  Mn9  1  0.33982820  0.33433768  0.83162754  1
  Mn  Mn10  1  0.99350480  0.99899532  0.50170546  1
  Co  Co11  1  0.66666700  0.66666700  0.66666700  1
  O  O12  1  0.45504215  0.15159105  0.02983690  1
  O  O13  1  0.77883294  0.47924325  0.36885768  1
  O  O14  1  0.05198868  0.82872216  0.70058021  1
  O  O15  1  0.71974248  0.50326397  0.86518062  1
  O  O16  1  0.06938942  0.85068565  0.19541104  1
  O  O17  1  0.37665017  0.16859404  0.53112812  1
  O  O18  1  0.26394358  0.48264735  0.13792196  1
  O  O19  1  0.61359152  0.83007003  0.46815338  1
  O  O20  1  0.95668283  0.16473896  0.80220488  1
  O  O21  1  0.55450106  0.85409075  0.96447632  1
  O  O22  1  0.87829085  0.18174195  0.30349610  1
  O  O23  1  0.28134432  0.50461084  0.63275279  1
