# generated using pymatgen
data_Li3MnCoO5
_symmetry_space_group_name_H-M   'P 1'
_cell_length_a   5.14438256
_cell_length_b   7.65123094
_cell_length_c   5.10365470
_cell_angle_alpha   109.48247176
_cell_angle_beta   70.27683065
_cell_angle_gamma   96.46258991
_symmetry_Int_Tables_number   1
_chemical_formula_structural   Li3MnCoO5
_chemical_formula_sum   'Li6 Mn2 Co2 O10'
_cell_volume   178.27204457
_cell_formula_units_Z   2
loop_
 _symmetry_equiv_pos_site_id
 _symmetry_equiv_pos_as_xyz
  1  'x, y, z'
loop_
 _atom_site_type_symbol
 _atom_site_label
 _atom_site_symmetry_multiplicity
 _atom_site_fract_x
 _atom_site_fract_y
 _atom_site_fract_z
 _atom_site_occupancy
  Li  Li0  1  0.50000000  0.19857083  0.09928542  1
  Li  Li1  1  0.50000000  0.40142917  0.70071458  1
  Li  Li2  1  0.50000000  0.60434670  0.30217335  1
  Li  Li3  1  0.50000000  0.80000000  0.90000000  1
  Li  Li4  1  0.50000000  0.99565330  0.49782665  1
  Li  Li5  1  0.00000000  0.80000000  0.40000000  1
  Mn  Mn6  1  0.00000000  -0.00254321  -0.00127160  1
  Mn  Mn7  1  1.00000000  0.60254321  0.80127160  1
  Co  Co8  1  0.00000000  0.18708359  0.59354179  1
  Co  Co9  1  1.00000000  0.41291641  0.20645821  1
  O  O10  1  0.22727082  0.18903061  0.85767873  1
  O  O11  1  0.22727082  0.41096939  0.46864812  1
  O  O12  1  0.22591504  0.58922319  0.03313111  1
  O  O13  1  0.22677567  0.80000000  0.68155470  1
  O  O14  1  0.22591504  0.01077681  0.24390792  1
  O  O15  1  0.77272918  0.18903061  0.33135188  1
  O  O16  1  0.77272918  0.41096939  0.94232127  1
  O  O17  1  0.77408496  0.58922319  0.55609208  1
  O  O18  1  0.77322433  0.80000000  0.11844530  1
  O  O19  1  0.77408496  0.01077681  0.76686889  1
