# generated using pymatgen
data_Li7Mn4CoO12
_symmetry_space_group_name_H-M   'P 1'
_cell_length_a   2.87554178
_cell_length_b   9.84338876
_cell_length_c   7.97940162
_cell_angle_alpha   81.46689256
_cell_angle_beta   79.61945280
_cell_angle_gamma   81.60106534
_symmetry_Int_Tables_number   1
_chemical_formula_structural   Li7Mn4CoO12
_chemical_formula_sum   'Li7 Mn4 Co1 O12'
_cell_volume   218.04228053
_cell_formula_units_Z   1
loop_
 _symmetry_equiv_pos_site_id
 _symmetry_equiv_pos_as_xyz
  1  'x, y, z'
loop_
 _atom_site_type_symbol
 _atom_site_label
 _atom_site_symmetry_multiplicity
 _atom_site_fract_x
 _atom_site_fract_y
 _atom_site_fract_z
 _atom_site_occupancy
  Li  Li0  1  0.33354054  0.24376176  0.08915616  1
  Li  Li1  1  0.99392515  0.75566197  0.25648773  1
  Li  Li2  1  0.67274185  0.24433803  0.41017927  1
  Li  Li3  1  0.33312546  0.75623824  0.57750984  1
  Li  Li4  1  0.99925455  0.25260040  0.74889051  1
  Li  Li5  1  0.66741245  0.74739960  0.91777649  1
  Li  Li6  1  0.33333300  -0.00000000  0.33333300  1
  Mn  Mn7  1  0.99467141  0.00272115  0.00793603  1
  Mn  Mn8  1  0.67199559  0.99727885  0.65873097  1
  Mn  Mn9  1  0.66938088  0.49814461  0.16309464  1
  Mn  Mn10  1  0.99728612  0.50185539  0.50357236  1
  Co  Co11  1  0.33333300  0.50000000  0.83333300  1
  O  O12  1  0.50972849  0.10674333  0.87379870  1
  O  O13  1  0.16327335  0.61701424  0.05643905  1
  O  O14  1  0.85397734  0.11320789  0.17883844  1
  O  O15  1  0.49388732  0.61966393  0.39256043  1
  O  O16  1  0.16434035  0.11333842  0.55798088  1
  O  O17  1  0.82792631  0.61434698  0.72980139  1
  O  O18  1  0.17277868  0.38033607  0.27410557  1
  O  O19  1  0.81268966  0.88679211  0.48782856  1
  O  O20  1  0.50339365  0.38298576  0.61022795  1
  O  O21  1  0.15693751  0.89325667  0.79286730  1
  O  O22  1  0.83874069  0.38565302  0.93686561  1
  O  O23  1  0.50232665  0.88666158  0.10868612  1
