# generated using pymatgen
data_Li7Mn4CoO12
_symmetry_space_group_name_H-M   'P 1'
_cell_length_a   2.87391494
_cell_length_b   7.79482539
_cell_length_c   10.40608754
_cell_angle_alpha   107.09501558
_cell_angle_beta   90.00000000
_cell_angle_gamma   100.62309932
_symmetry_Int_Tables_number   1
_chemical_formula_structural   Li7Mn4CoO12
_chemical_formula_sum   'Li7 Mn4 Co1 O12'
_cell_volume   218.63095623
_cell_formula_units_Z   1
loop_
 _symmetry_equiv_pos_site_id
 _symmetry_equiv_pos_as_xyz
  1  'x, y, z'
loop_
 _atom_site_type_symbol
 _atom_site_label
 _atom_site_symmetry_multiplicity
 _atom_site_fract_x
 _atom_site_fract_y
 _atom_site_fract_z
 _atom_site_occupancy
  Li  Li0  1  0.49638146  0.99276292  0.24432046  1
  Li  Li1  1  0.49593358  0.99186716  0.75495211  1
  Li  Li2  1  0.17051484  0.34102868  0.42493322  1
  Li  Li3  1  0.17035466  0.34070833  0.90848187  1
  Li  Li4  1  0.82971355  0.65942809  0.06858057  1
  Li  Li5  1  0.83649096  0.67298292  0.59879387  1
  Li  Li6  1  0.33206091  0.66412281  0.83226069  1
  Mn  Mn7  1  0.99087285  0.98174570  0.98536467  1
  Mn  Mn8  1  0.67302293  0.34604486  0.67721887  1
  Mn  Mn9  1  0.66415472  0.32830844  0.16026263  1
  Mn  Mn10  1  0.33606241  0.67212581  0.33774021  1
  Co  Co11  1  0.00459600  0.00919199  0.50865053  1
  O  O12  1  0.42349752  0.84699504  0.03808433  1
  O  O13  1  0.43037887  0.86075775  0.54532561  1
  O  O14  1  0.08453368  0.16906635  0.19317736  1
  O  O15  1  0.09469636  0.18939172  0.70525862  1
  O  O16  1  0.74118798  0.48237697  0.85444917  1
  O  O17  1  0.75929366  0.51858832  0.37570209  1
  O  O18  1  0.58144736  0.16289472  0.47657269  1
  O  O19  1  0.56917188  0.13834376  0.95712518  1
  O  O20  1  0.24157201  0.48314303  0.62646652  1
  O  O21  1  0.23954111  0.47908123  0.12091721  1
  O  O22  1  0.91161689  0.82323479  0.29699911  1
  O  O23  1  0.92290381  0.84580861  0.80836243  1
