# generated using pymatgen
data_Li7Mn4CoO12
_symmetry_space_group_name_H-M   'P 1'
_cell_length_a   2.87642313
_cell_length_b   7.97666995
_cell_length_c   9.76385811
_cell_angle_alpha   81.85749137
_cell_angle_beta   89.99999968
_cell_angle_gamma   79.61263045
_symmetry_Int_Tables_number   1
_chemical_formula_structural   Li7Mn4CoO12
_chemical_formula_sum   'Li7 Mn4 Co1 O12'
_cell_volume   218.05673868
_cell_formula_units_Z   1
loop_
 _symmetry_equiv_pos_site_id
 _symmetry_equiv_pos_as_xyz
  1  'x, y, z'
loop_
 _atom_site_type_symbol
 _atom_site_label
 _atom_site_symmetry_multiplicity
 _atom_site_fract_x
 _atom_site_fract_y
 _atom_site_fract_z
 _atom_site_occupancy
  Li  Li0  1  0.58523445  0.82953011  0.24440104  1
  Li  Li1  1  0.74808286  0.50383428  0.75625855  1
  Li  Li2  1  0.91572008  0.16856084  0.25024226  1
  Li  Li3  1  0.24715878  0.50568243  0.24648574  1
  Li  Li4  1  0.41679435  0.16641229  0.74754202  1
  Li  Li5  1  0.08738802  0.82522297  0.75591871  1
  Li  Li6  1  0.66674861  0.66650378  0.00008934  1
  Mn  Mn7  1  0.00441017  0.99117966  0.00267952  1
  Mn  Mn8  1  0.32908472  0.34182956  0.99718966  1
  Mn  Mn9  1  0.16850291  0.66299518  0.50112033  1
  Mn  Mn10  1  0.49796475  0.00407050  0.50010700  1
  Co  Co11  1  0.83344662  0.33310575  0.49883333  1
  O  O12  1  0.45481179  0.09037541  0.10683608  1
  O  O13  1  0.63314242  0.73371516  0.61963108  1
  O  O14  1  0.79796750  0.40406601  0.11330680  1
  O  O15  1  0.10872940  0.78254120  0.11289144  1
  O  O16  1  0.30041829  0.39916442  0.61289505  1
  O  O17  1  0.96344436  0.07311027  0.61802666  1
  O  O18  1  0.70263607  0.59472685  0.38202288  1
  O  O19  1  0.87829246  0.24341509  0.89301949  1
  O  O20  1  0.03321397  0.93357306  0.38345333  1
  O  O21  1  0.36639450  0.26721100  0.38378452  1
  O  O22  1  0.53557945  0.92884210  0.88680368  1
  O  O23  1  0.22483347  0.55033207  0.88646150  1
