# generated using pymatgen
data_Li3MnCoO5
_symmetry_space_group_name_H-M   'P 1'
_cell_length_a   5.08724167
_cell_length_b   5.12703175
_cell_length_c   7.63301878
_cell_angle_alpha   83.18406878
_cell_angle_beta   108.45980755
_cell_angle_gamma   109.25581431
_symmetry_Int_Tables_number   1
_chemical_formula_structural   Li3MnCoO5
_chemical_formula_sum   'Li6 Mn2 Co2 O10'
_cell_volume   178.25659856
_cell_formula_units_Z   2
loop_
 _symmetry_equiv_pos_site_id
 _symmetry_equiv_pos_as_xyz
  1  'x, y, z'
loop_
 _atom_site_type_symbol
 _atom_site_label
 _atom_site_symmetry_multiplicity
 _atom_site_fract_x
 _atom_site_fract_y
 _atom_site_fract_z
 _atom_site_occupancy
  Li  Li0  1  0.10000000  0.50000000  0.20000000  1
  Li  Li1  1  0.69429304  0.50282066  0.39517764  1
  Li  Li2  1  0.29061573  0.49539205  0.59653539  1
  Li  Li3  1  0.90938427  0.50460795  0.80346461  1
  Li  Li4  1  0.50570696  0.49717934  0.00482236  1
  Li  Li5  1  0.60000000  -0.00000000  0.20000000  1
  Mn  Mn6  1  0.00379441  0.00747422  0.00224003  1
  Mn  Mn7  1  0.19620559  0.99252578  0.39775997  1
  Co  Co8  1  0.79231616  0.99790612  0.58916161  1
  Co  Co9  1  0.40768384  0.00209388  0.81083839  1
  O  O10  1  0.76248496  0.23216276  0.99212804  1
  O  O11  1  0.31872581  0.22387384  0.19967052  1
  O  O12  1  0.95713735  0.22077806  0.41322649  1
  O  O13  1  0.51873003  0.21743092  0.59026156  1
  O  O14  1  0.14742257  0.23362570  0.81078071  1
  O  O15  1  0.43751504  0.76783724  0.40787196  1
  O  O16  1  0.05257743  0.76637430  0.58921929  1
  O  O17  1  0.68126997  0.78256908  0.80973844  1
  O  O18  1  0.24286265  0.77922194  0.98677351  1
  O  O19  1  0.88127419  0.77612616  0.20032948  1
