# generated using pymatgen
data_Li7Mn4CoO12
_symmetry_space_group_name_H-M   'P 1'
_cell_length_a   2.96818677
_cell_length_b   10.17235315
_cell_length_c   7.65461030
_cell_angle_alpha   72.48312991
_cell_angle_beta   98.43054353
_cell_angle_gamma   91.55526701
_symmetry_Int_Tables_number   1
_chemical_formula_structural   Li7Mn4CoO12
_chemical_formula_sum   'Li7 Mn4 Co1 O12'
_cell_volume   217.98473984
_cell_formula_units_Z   1
loop_
 _symmetry_equiv_pos_site_id
 _symmetry_equiv_pos_as_xyz
  1  'x, y, z'
loop_
 _atom_site_type_symbol
 _atom_site_label
 _atom_site_symmetry_multiplicity
 _atom_site_fract_x
 _atom_site_fract_y
 _atom_site_fract_z
 _atom_site_occupancy
  Li  Li0  1  0.81966106  0.24178474  0.65655006  1
  Li  Li1  1  0.16615768  0.74447868  0.33456484  1
  Li  Li2  1  0.50023228  0.25300209  0.99756545  1
  Li  Li3  1  0.18045357  0.24572509  0.34464575  1
  Li  Li4  1  0.48780573  0.75683936  0.98891629  1
  Li  Li5  1  0.84472283  0.75907994  0.67712718  1
  Li  Li6  1  0.33253582  -0.00001318  0.66653392  1
  Mn  Mn7  1  0.00420765  0.99621432  0.99259826  1
  Mn  Mn8  1  0.66280144  0.00385580  0.34109961  1
  Mn  Mn9  1  0.32968683  0.50072135  0.66356082  1
  Mn  Mn10  1  0.00490627  0.50037840  0.00279586  1
  Co  Co11  1  0.66529800  0.49923921  0.33344625  1
  O  O12  1  0.46232355  0.10810782  0.86075415  1
  O  O13  1  0.70870894  0.61727714  0.49187089  1
  O  O14  1  0.10425423  0.10629567  0.17967049  1
  O  O15  1  0.73599083  0.11770333  0.48621141  1
  O  O16  1  0.04980421  0.61388211  0.17110865  1
  O  O17  1  0.37495918  0.62001107  0.82655029  1
  O  O18  1  0.28324937  0.38353449  0.50025265  1
  O  O19  1  0.56199799  0.89412657  0.15346904  1
  O  O20  1  0.95933061  0.38108019  0.83827584  1
  O  O21  1  0.62403236  0.38430075  0.17140337  1
  O  O22  1  0.93294706  0.88102229  0.84903820  1
  O  O23  1  0.20393252  0.89135274  0.47199072  1
