# generated using pymatgen
data_Li3MnCoO5
_symmetry_space_group_name_H-M   'P 1'
_cell_length_a   5.03117204
_cell_length_b   5.12168016
_cell_length_c   7.73778241
_cell_angle_alpha   83.77569925
_cell_angle_beta   108.67753081
_cell_angle_gamma   108.94801592
_symmetry_Int_Tables_number   1
_chemical_formula_structural   Li3MnCoO5
_chemical_formula_sum   'Li6 Mn2 Co2 O10'
_cell_volume   178.64973189
_cell_formula_units_Z   2
loop_
 _symmetry_equiv_pos_site_id
 _symmetry_equiv_pos_as_xyz
  1  'x, y, z'
loop_
 _atom_site_type_symbol
 _atom_site_label
 _atom_site_symmetry_multiplicity
 _atom_site_fract_x
 _atom_site_fract_y
 _atom_site_fract_z
 _atom_site_occupancy
  Li  Li0  1  0.10489242  0.49729021  0.21221619  1
  Li  Li1  1  0.70443653  0.50087732  0.40631770  1
  Li  Li2  1  0.29054240  0.50106635  0.59120923  1
  Li  Li3  1  0.89685967  0.49854555  0.79503443  1
  Li  Li4  1  0.50293275  0.50040237  0.99845321  1
  Li  Li5  1  0.19673308  0.99640163  0.39948428  1
  Mn  Mn6  1  0.00306724  0.00170317  0.00333111  1
  Mn  Mn7  1  0.60226902  0.00101523  0.20395162  1
  Co  Co8  1  0.80419777  0.98998530  0.59322179  1
  Co  Co9  1  0.40274739  0.00925929  0.78575081  1
  O  O10  1  0.75585073  0.22128781  0.01042223  1
  O  O11  1  0.34502955  0.22138232  0.18599309  1
  O  O12  1  0.91425713  0.23399953  0.38862938  1
  O  O13  1  0.55030139  0.23046098  0.61212039  1
  O  O14  1  0.13426200  0.22637952  0.80795881  1
  O  O15  1  0.47196257  0.76749750  0.39065497  1
  O  O16  1  0.04756285  0.76422973  0.60934979  1
  O  O17  1  0.67071974  0.77107980  0.81354113  1
  O  O18  1  0.25943169  0.78715007  0.00538611  1
  O  O19  1  0.84194406  0.77998633  0.18697373  1
