# generated using pymatgen
data_Li7Mn4CoO12
_symmetry_space_group_name_H-M   'P 1'
_cell_length_a   2.96634224
_cell_length_b   7.65640427
_cell_length_c   9.92719975
_cell_angle_alpha   78.90322832
_cell_angle_beta   92.96633651
_cell_angle_gamma   81.56388022
_symmetry_Int_Tables_number   1
_chemical_formula_structural   Li7Mn4CoO12
_chemical_formula_sum   'Li7 Mn4 Co1 O12'
_cell_volume   218.10827104
_cell_formula_units_Z   1
loop_
 _symmetry_equiv_pos_site_id
 _symmetry_equiv_pos_as_xyz
  1  'x, y, z'
loop_
 _atom_site_type_symbol
 _atom_site_label
 _atom_site_symmetry_multiplicity
 _atom_site_fract_x
 _atom_site_fract_y
 _atom_site_fract_z
 _atom_site_occupancy
  Li  Li0  1  0.91555180  0.16629348  0.25346779  1
  Li  Li1  1  0.41444721  0.16943983  0.74486494  1
  Li  Li2  1  0.23822674  0.51181642  0.24436263  1
  Li  Li3  1  0.74100116  0.50662357  0.75644019  1
  Li  Li4  1  0.59277853  0.82787099  0.24341588  1
  Li  Li5  1  0.09756997  0.81687785  0.75891871  1
  Li  Li6  1  0.66657918  0.66640285  0.00043689  1
  Mn  Mn7  1  0.99764311  0.98997313  0.00361077  1
  Mn  Mn8  1  0.33598117  0.34287581  0.99647813  1
  Mn  Mn9  1  0.49834462  0.00278095  0.50215835  1
  Mn  Mn10  1  0.16952475  0.66415155  0.49920675  1
  Co  Co11  1  0.83168279  0.33366207  0.49855776  1
  O  O12  1  0.47463886  0.08299415  0.10641380  1
  O  O13  1  0.91403860  0.09689226  0.61861929  1
  O  O14  1  0.83072377  0.39979117  0.10794806  1
  O  O15  1  0.25399222  0.42079232  0.61283843  1
  O  O16  1  0.10837506  0.76905297  0.11794739  1
  O  O17  1  0.58236609  0.75826958  0.62033346  1
  O  O18  1  0.41223456  0.24464492  0.38300018  1
  O  O19  1  0.85845576  0.25060872  0.89354287  1
  O  O20  1  0.75096055  0.57132873  0.38132263  1
  O  O21  1  0.22575198  0.56390003  0.88109692  1
  O  O22  1  0.08641712  0.90940592  0.38339900  1
  O  O23  1  0.50271441  0.93355073  0.89161920  1
