# generated using pymatgen
data_BeAlSiO5
_symmetry_space_group_name_H-M   'P 1'
_cell_length_a   4.61878249
_cell_length_b   4.83035080
_cell_length_c   14.55723441
_cell_angle_alpha   90.00000000
_cell_angle_beta   90.00000000
_cell_angle_gamma   99.13943935
_symmetry_Int_Tables_number   1
_chemical_formula_structural   BeAlSiO5
_chemical_formula_sum   'Be4 Al4 Si4 O20'
_cell_volume   320.65370688
_cell_formula_units_Z   4
loop_
 _symmetry_equiv_pos_site_id
 _symmetry_equiv_pos_as_xyz
  1  'x, y, z'
loop_
 _atom_site_type_symbol
 _atom_site_label
 _atom_site_symmetry_multiplicity
 _atom_site_fract_x
 _atom_site_fract_y
 _atom_site_fract_z
 _atom_site_occupancy
  Be  Be0  1  0.45495212  0.67926652  0.19999437  1
  Be  Be1  1  0.54504788  0.82073348  0.69999437  1
  Be  Be2  1  0.54504788  0.32073348  0.80000563  1
  Be  Be3  1  0.45495212  0.17926652  0.30000563  1
  Al  Al4  1  0.95791922  0.74885876  0.05483998  1
  Al  Al5  1  0.04208078  0.75114124  0.55483998  1
  Al  Al6  1  0.04208078  0.25114124  0.94516002  1
  Al  Al7  1  0.95791922  0.24885876  0.44516002  1
  Si  Si8  1  0.53797099  0.67986386  0.39827881  1
  Si  Si9  1  0.46202901  0.82013614  0.89827881  1
  Si  Si10  1  0.46202901  0.32013614  0.60172119  1
  Si  Si11  1  0.53797099  0.17986386  0.10172119  1
  O  O12  1  0.76582143  0.88486420  0.46491395  1
  O  O13  1  0.23417857  0.61513580  0.96491395  1
  O  O14  1  0.23417857  0.11513580  0.53508605  1
  O  O15  1  0.76582143  0.38486420  0.03508605  1
  O  O16  1  0.66366508  0.88617963  0.12706111  1
  O  O17  1  0.33633492  0.61382037  0.62706111  1
  O  O18  1  0.33633492  0.11382037  0.87293889  1
  O  O19  1  0.66366508  0.38617963  0.37293889  1
  O  O20  1  0.49753076  0.84468414  0.30045038  1
  O  O21  1  0.50246924  0.65531586  0.80045038  1
  O  O22  1  0.50246924  0.15531586  0.69954962  1
  O  O23  1  0.49753076  0.34468414  0.19954962  1
  O  O24  1  0.21752605  0.59762351  0.44961887  1
  O  O25  1  0.78247395  0.90237649  0.94961887  1
  O  O26  1  0.78247395  0.40237649  0.55038113  1
  O  O27  1  0.21752605  0.09762351  0.05038113  1
  O  O28  1  0.12230034  0.65255558  0.16450623  1
  O  O29  1  0.87769966  0.84744442  0.66450623  1
  O  O30  1  0.87769966  0.34744442  0.83549377  1
  O  O31  1  0.12230034  0.15255558  0.33549377  1
