# generated using pymatgen
data_LiNi(PO3)4
_symmetry_space_group_name_H-M   'P 1'
_cell_length_a   7.08971710
_cell_length_b   12.64266890
_cell_length_c   7.08971710
_cell_angle_alpha   67.68771763
_cell_angle_beta   70.79596079
_cell_angle_gamma   112.31228237
_symmetry_Int_Tables_number   1
_chemical_formula_structural   LiNi(PO3)4
_chemical_formula_sum   'Li2 Ni2 P8 O24'
_cell_volume   453.24124400
_cell_formula_units_Z   2
loop_
 _symmetry_equiv_pos_site_id
 _symmetry_equiv_pos_as_xyz
  1  'x, y, z'
loop_
 _atom_site_type_symbol
 _atom_site_label
 _atom_site_symmetry_multiplicity
 _atom_site_fract_x
 _atom_site_fract_y
 _atom_site_fract_z
 _atom_site_occupancy
  Li  Li0  1  0.90492508  0.75000000  0.90492508  1
  Li  Li1  1  0.09507492  0.25000000  0.09507492  1
  Ni  Ni2  1  0.64165433  0.75000000  0.64165433  1
  Ni  Ni3  1  0.35834567  0.25000000  0.35834567  1
  P  P4  1  0.30277982  0.02964949  0.84464672  1
  P  P5  1  0.15535328  0.52964949  0.69722018  1
  P  P6  1  0.26106789  0.97600532  0.32851857  1
  P  P7  1  0.32851857  0.52399468  0.26106789  1
  P  P8  1  0.67148143  0.47600532  0.73893211  1
  P  P9  1  0.73893211  0.02399468  0.67148143  1
  P  P10  1  0.84464672  0.47035051  0.30277982  1
  P  P11  1  0.69722018  0.97035051  0.15535328  1
  O  O12  1  0.14589970  0.88933119  0.89825857  1
  O  O13  1  0.28979320  0.63668623  0.73448791  1
  O  O14  1  0.00499636  0.85729021  0.54996334  1
  O  O15  1  0.10174143  0.38933119  0.85410030  1
  O  O16  1  0.60117237  0.89470431  0.68678025  1
  O  O17  1  0.26551209  0.13668623  0.71020680  1
  O  O18  1  0.08599370  0.47815004  0.25692620  1
  O  O19  1  0.41068181  0.90691886  0.30519379  1
  O  O20  1  0.30519379  0.59308114  0.41068181  1
  O  O21  1  0.25692620  0.02184996  0.08599370  1
  O  O22  1  0.45003666  0.35729021  0.99500364  1
  O  O23  1  0.68678025  0.60529569  0.60117237  1
  O  O24  1  0.31321975  0.39470431  0.39882763  1
  O  O25  1  0.54996334  0.64270979  0.00499636  1
  O  O26  1  0.74307380  0.97815004  0.91400630  1
  O  O27  1  0.69480621  0.40691886  0.58931819  1
  O  O28  1  0.58931819  0.09308114  0.69480621  1
  O  O29  1  0.91400630  0.52184996  0.74307380  1
  O  O30  1  0.73448791  0.86331377  0.28979320  1
  O  O31  1  0.39882763  0.10529569  0.31321975  1
  O  O32  1  0.89825857  0.61066881  0.14589970  1
  O  O33  1  0.99500364  0.14270979  0.45003666  1
  O  O34  1  0.71020680  0.36331377  0.26551209  1
  O  O35  1  0.85410030  0.11066881  0.10174143  1
