# generated using pymatgen
data_Mn3Ni2Sb(PO4)6
_symmetry_space_group_name_H-M   'P 1'
_cell_length_a   8.53986308
_cell_length_b   8.53986281
_cell_length_c   8.53986282
_cell_angle_alpha   61.02898720
_cell_angle_beta   61.02899375
_cell_angle_gamma   61.02898696
_symmetry_Int_Tables_number   1
_chemical_formula_structural   Mn3Ni2Sb(PO4)6
_chemical_formula_sum   'Mn3 Ni2 Sb1 P6 O24'
_cell_volume   450.59554979
_cell_formula_units_Z   1
loop_
 _symmetry_equiv_pos_site_id
 _symmetry_equiv_pos_as_xyz
  1  'x, y, z'
loop_
 _atom_site_type_symbol
 _atom_site_label
 _atom_site_symmetry_multiplicity
 _atom_site_fract_x
 _atom_site_fract_y
 _atom_site_fract_z
 _atom_site_occupancy
  Mn  Mn0  1  0.14474565  0.14474565  0.14474565  1
  Mn  Mn1  1  0.35574742  0.35574742  0.35574742  1
  Mn  Mn2  1  0.64263298  0.64263298  0.64263298  1
  Ni  Ni3  1  0.00523734  0.00523734  0.00523734  1
  Ni  Ni4  1  0.49933113  0.49933113  0.49933113  1
  Sb  Sb5  1  0.85715596  0.85715596  0.85715596  1
  P  P6  1  0.04779995  0.74758862  0.45126003  1
  P  P7  1  0.45126003  0.04779995  0.74758862  1
  P  P8  1  0.74758862  0.45126003  0.04779995  1
  P  P9  1  0.25391876  0.54270184  0.95103055  1
  P  P10  1  0.54270184  0.95103055  0.25391876  1
  P  P11  1  0.95103055  0.25391876  0.54270184  1
  O  O12  1  0.10474408  0.31365666  0.51532963  1
  O  O13  1  0.31365666  0.51532963  0.10474408  1
  O  O14  1  0.05874080  0.91132620  0.25788773  1
  O  O15  1  0.51532963  0.10474408  0.31365666  1
  O  O16  1  0.00721857  0.81837488  0.61082304  1
  O  O17  1  0.24410351  0.59372476  0.44297072  1
  O  O18  1  0.25788773  0.05874080  0.91132620  1
  O  O19  1  0.44297072  0.24410351  0.59372476  1
  O  O20  1  0.18487959  0.39089438  0.98658272  1
  O  O21  1  0.59372476  0.44297072  0.24410351  1
  O  O22  1  0.08706734  0.74672672  0.93693622  1
  O  O23  1  0.39089438  0.98658272  0.18487959  1
  O  O24  1  0.61082304  0.00721857  0.81837488  1
  O  O25  1  0.91132620  0.25788773  0.05874080  1
  O  O26  1  0.40583665  0.56502522  0.75083989  1
  O  O27  1  0.81837488  0.61082304  0.00721857  1
  O  O28  1  0.56502522  0.75083989  0.40583665  1
  O  O29  1  0.74672672  0.93693622  0.08706734  1
  O  O30  1  0.75083989  0.40583665  0.56502522  1
  O  O31  1  0.98658272  0.18487959  0.39089438  1
  O  O32  1  0.49279011  0.88985092  0.68452141  1
  O  O33  1  0.93693622  0.08706734  0.74672672  1
  O  O34  1  0.68452141  0.49279011  0.88985092  1
  O  O35  1  0.88985092  0.68452141  0.49279011  1
