# generated using pymatgen
data_LiMn(PO3)3
_symmetry_space_group_name_H-M   'P 1'
_cell_length_a   6.57125159
_cell_length_b   10.36188992
_cell_length_c   11.42314339
_cell_angle_alpha   89.99846121
_cell_angle_beta   89.99819626
_cell_angle_gamma   88.84439263
_symmetry_Int_Tables_number   1
_chemical_formula_structural   LiMn(PO3)3
_chemical_formula_sum   'Li4 Mn4 P12 O36'
_cell_volume   777.65032293
_cell_formula_units_Z   4
loop_
 _symmetry_equiv_pos_site_id
 _symmetry_equiv_pos_as_xyz
  1  'x, y, z'
loop_
 _atom_site_type_symbol
 _atom_site_label
 _atom_site_symmetry_multiplicity
 _atom_site_fract_x
 _atom_site_fract_y
 _atom_site_fract_z
 _atom_site_occupancy
  Li  Li0  1  0.75521546  0.18913138  0.59353887  1
  Li  Li1  1  0.24475138  0.31088671  0.09353863  1
  Li  Li2  1  0.75538553  0.68928441  0.90641635  1
  Li  Li3  1  0.24471584  0.81070854  0.40645685  1
  Mn  Mn4  1  0.50007904  0.00007722  0.49983492  1
  Mn  Mn5  1  -0.00015271  -0.00003334  -0.00006324  1
  Mn  Mn6  1  0.00010604  0.49979810  0.49997500  1
  Mn  Mn7  1  0.50018377  0.49992350  0.00006912  1
  P  P8  1  0.23060646  0.06989390  0.25325488  1
  P  P9  1  0.85623461  0.19926117  0.36183295  1
  P  P10  1  0.61949819  0.19909219  0.14787204  1
  P  P11  1  0.14370277  0.30072942  0.86186050  1
  P  P12  1  0.38054763  0.30088638  0.64803343  1
  P  P13  1  0.76941538  0.43010415  0.75343890  1
  P  P14  1  0.23075828  0.56990622  0.24672036  1
  P  P15  1  0.85621129  0.69924685  0.13819850  1
  P  P16  1  0.61958641  0.69907156  0.35218381  1
  P  P17  1  0.38045333  0.80089581  0.85205855  1
  P  P18  1  0.14369025  0.80074329  0.63817933  1
  P  P19  1  0.76926551  0.93010551  0.74655336  1
  O  O20  1  0.84177123  0.00967522  0.84576946  1
  O  O21  1  0.70314513  0.00717884  0.64134313  1
  O  O22  1  0.76487436  0.07363513  0.39680904  1
  O  O23  1  0.73470023  0.08165837  0.11016793  1
  O  O24  1  0.43991624  0.19819344  0.56075162  1
  O  O25  1  0.11446844  0.20702443  0.96133398  1
  O  O26  1  0.39841778  0.16879153  0.20872227  1
  O  O27  1  0.07017341  0.18071197  0.29297394  1
  O  O28  1  0.27316578  0.23042435  0.75862195  1
  O  O29  1  0.72665445  0.26950927  0.25860471  1
  O  O30  1  0.60161724  0.33128452  0.70875896  1
  O  O31  1  0.92992675  0.31937759  0.79294946  1
  O  O32  1  0.88555668  0.29283709  0.46143010  1
  O  O33  1  0.56009126  0.30189083  0.06073707  1
  O  O34  1  0.23522346  0.42629157  0.89690165  1
  O  O35  1  0.26536865  0.41832222  0.61023984  1
  O  O36  1  0.15796397  0.49055081  0.34599914  1
  O  O37  1  0.29682892  0.49278420  0.14150999  1
  O  O38  1  0.70347153  0.50732188  0.85854750  1
  O  O39  1  0.84187302  0.50951571  0.65415279  1
  O  O40  1  0.76493795  0.57359164  0.10318046  1
  O  O41  1  0.73475255  0.58160160  0.38992201  1
  O  O42  1  0.44003114  0.69817049  0.93926811  1
  O  O43  1  0.11443812  0.70695237  0.53872230  1
  O  O44  1  0.39849806  0.66877489  0.29127196  1
  O  O45  1  0.07024690  0.68068456  0.20700589  1
  O  O46  1  0.27311923  0.73047307  0.74144642  1
  O  O47  1  0.72668437  0.76947427  0.24146899  1
  O  O48  1  0.60154325  0.83128383  0.79124908  1
  O  O49  1  0.92984543  0.81940317  0.70703155  1
  O  O50  1  0.88557609  0.79289984  0.03863317  1
  O  O51  1  0.55995066  0.80191341  0.43929937  1
  O  O52  1  0.26534816  0.91835732  0.88984934  1
  O  O53  1  0.23513203  0.92636023  0.60308688  1
  O  O54  1  0.15787316  0.99072743  0.15392525  1
  O  O55  1  0.29656793  0.99263796  0.35836159  1
