# generated using pymatgen
data_LiMnPO4F
_symmetry_space_group_name_H-M   'P 1'
_cell_length_a   10.66623247
_cell_length_b   6.44707062
_cell_length_c   11.00175985
_cell_angle_alpha   88.82832786
_cell_angle_beta   89.54946474
_cell_angle_gamma   90.30984982
_symmetry_Int_Tables_number   1
_chemical_formula_structural   LiMnPO4F
_chemical_formula_sum   'Li8 Mn8 P8 O32 F8'
_cell_volume   756.35321238
_cell_formula_units_Z   8
loop_
 _symmetry_equiv_pos_site_id
 _symmetry_equiv_pos_as_xyz
  1  'x, y, z'
loop_
 _atom_site_type_symbol
 _atom_site_label
 _atom_site_symmetry_multiplicity
 _atom_site_fract_x
 _atom_site_fract_y
 _atom_site_fract_z
 _atom_site_occupancy
  Li  Li0  1  0.22596400  0.24556674  0.08885466  1
  Li  Li1  1  0.23861558  0.52761800  0.33708917  1
  Li  Li2  1  0.43864716  0.25549671  0.77940097  1
  Li  Li3  1  0.72187172  0.25710133  0.40835283  1
  Li  Li4  1  0.73133292  0.98598629  0.17815146  1
  Li  Li5  1  0.76566471  0.50411317  0.67118769  1
  Li  Li6  1  0.77870732  0.75538609  0.90979898  1
  Li  Li7  1  0.96789989  0.23422525  0.72850879  1
  Mn  Mn8  1  0.00191484  0.99886607  0.00125831  1
  Mn  Mn9  1  0.99975337  0.50541315  0.00454438  1
  Mn  Mn10  1  0.00967474  0.98779536  0.49645157  1
  Mn  Mn11  1  0.99705534  0.49881472  0.49795650  1
  Mn  Mn12  1  0.49376176  0.99551381  0.49748023  1
  Mn  Mn13  1  0.49396010  0.50558833  0.49935188  1
  Mn  Mn14  1  0.49925426  0.99897352  0.00030560  1
  Mn  Mn15  1  0.50300381  0.50853851  0.00367081  1
  P  P16  1  0.04048338  0.73846711  0.73783885  1
  P  P17  1  0.23819424  0.74550492  0.08270859  1
  P  P18  1  0.26389570  0.23981579  0.57309950  1
  P  P19  1  0.46500983  0.25436105  0.23465842  1
  P  P20  1  0.54129233  0.75048721  0.76260100  1
  P  P21  1  0.73625998  0.76212099  0.42176563  1
  P  P22  1  0.76539077  0.26016712  0.92175634  1
  P  P23  1  0.96469395  0.24379668  0.26478342  1
  O  O24  1  0.02090367  0.26031767  0.13048178  1
  O  O25  1  0.02654014  0.05109280  0.32652317  1
  O  O26  1  0.01420393  0.44402089  0.32783409  1
  O  O27  1  0.11987535  0.23352519  0.53730741  1
  O  O28  1  0.17827743  0.72534713  0.74419962  1
  O  O29  1  0.17532907  0.55087364  0.02172831  1
  O  O30  1  0.17725001  0.94968373  0.02665951  1
  O  O31  1  0.23182725  0.73696153  0.21735228  1
  O  O32  1  0.28155309  0.25372986  0.70658870  1
  O  O33  1  0.32099086  0.04315886  0.51299183  1
  O  O34  1  0.31842407  0.43572951  0.49927345  1
  O  O35  1  0.32371590  0.27001595  0.23651887  1
  O  O36  1  0.37720138  0.74697582  0.03084844  1
  O  O37  1  0.48043149  0.55720247  0.83045288  1
  O  O38  1  0.49751125  0.95412053  0.82702635  1
  O  O39  1  0.48726079  0.75971213  0.63157218  1
  O  O40  1  0.52287061  0.24177620  0.36647230  1
  O  O41  1  0.51852172  0.05604691  0.16957224  1
  O  O42  1  0.52670049  0.44923486  0.17093059  1
  O  O43  1  0.62338070  0.26077390  0.95941454  1
  O  O44  1  0.68326156  0.72580516  0.76197641  1
  O  O45  1  0.67752949  0.55828416  0.48650734  1
  O  O46  1  0.67189463  0.95804419  0.47849342  1
  O  O47  1  0.72829260  0.75678540  0.28692195  1
  O  O48  1  0.78754859  0.26495982  0.78617808  1
  O  O49  1  0.82075601  0.05605135  0.98377404  1
  O  O50  1  0.82314045  0.45450563  0.98457343  1
  O  O51  1  0.82273503  0.22259736  0.26151611  1
  O  O52  1  0.87411949  0.76688026  0.47184776  1
  O  O53  1  0.97229264  0.54729136  0.67186578  1
  O  O54  1  0.98740661  0.94046392  0.67195174  1
  O  O55  1  0.97329955  0.73798239  0.86938182  1
  F  F56  1  0.03830509  0.23540055  0.89221937  1
  F  F57  1  0.11854736  0.71624267  0.47875074  1
  F  F58  1  0.38212416  0.24516001  0.97878679  1
  F  F59  1  0.45856479  0.73409512  0.39305888  1
  F  F60  1  0.53394808  0.26992423  0.60770743  1
  F  F61  1  0.62727093  0.76750988  0.01599282  1
  F  F62  1  0.87556166  0.26925212  0.52141994  1
  F  F63  1  0.95353043  0.77094991  0.10475104  1
