# generated using pymatgen
data_LiV3OF11
_symmetry_space_group_name_H-M   'P 1'
_cell_length_a   5.23996338
_cell_length_b   5.44368147
_cell_length_c   15.44373356
_cell_angle_alpha   79.67633147
_cell_angle_beta   89.79086137
_cell_angle_gamma   89.18795927
_symmetry_Int_Tables_number   1
_chemical_formula_structural   LiV3OF11
_chemical_formula_sum   'Li2 V6 O2 F22'
_cell_volume   433.35227018
_cell_formula_units_Z   2
loop_
 _symmetry_equiv_pos_site_id
 _symmetry_equiv_pos_as_xyz
  1  'x, y, z'
loop_
 _atom_site_type_symbol
 _atom_site_label
 _atom_site_symmetry_multiplicity
 _atom_site_fract_x
 _atom_site_fract_y
 _atom_site_fract_z
 _atom_site_occupancy
  Li  Li0  1  0.96749228  0.69724869  0.43302915  1
  Li  Li1  1  0.03223895  0.63099105  0.90125783  1
  V  V2  1  0.01357661  0.30857970  0.32941365  1
  V  V3  1  0.50025015  0.16695751  0.66669780  1
  V  V4  1  0.51928561  0.48767859  0.00426856  1
  V  V5  1  0.98889366  0.02464783  0.00364397  1
  V  V6  1  0.48302862  0.84594468  0.32884913  1
  V  V7  1  0.00022125  0.66698048  0.66688104  1
  O  O8  1  0.18766653  0.00786602  0.35888911  1
  O  O9  1  0.81317298  0.32498033  0.97516274  1
  F  F10  1  0.30550617  0.18461624  0.02605438  1
  F  F11  1  0.69638832  0.14722020  0.30695254  1
  F  F12  1  0.07737296  0.01219618  0.88933471  1
  F  F13  1  0.41478090  0.20939826  0.55450951  1
  F  F14  1  0.08558643  0.38913692  0.21700305  1
  F  F15  1  0.58515300  0.12382814  0.77868396  1
  F  F16  1  0.57237337  0.46476661  0.11776863  1
  F  F17  1  0.92090363  0.32124857  0.44359081  1
  F  F18  1  0.19626853  0.35465502  0.69149952  1
  F  F19  1  0.29807411  0.52694280  0.35804474  1
  F  F20  1  0.19317418  0.68880518  0.02113496  1
  F  F21  1  0.69963254  0.47823056  0.64343892  1
  F  F22  1  0.80657201  0.64572382  0.31175109  1
  F  F23  1  0.38858048  0.53466989  0.89086158  1
  F  F24  1  0.08966719  0.70473813  0.55189837  1
  F  F25  1  0.42358579  0.87076948  0.21570543  1
  F  F26  1  0.91102361  0.94641777  0.11599169  1
  F  F27  1  0.91097111  0.62934428  0.78168537  1
  F  F28  1  0.61170512  0.79701626  0.44251210  1
  F  F29  1  0.30098965  0.85556674  0.68991819  1
  F  F30  1  0.70166671  0.80685520  0.97509719  1
  F  F31  1  0.80419554  0.97932386  0.64180627  1
