# generated using pymatgen
data_LiV3OF11
_symmetry_space_group_name_H-M   'P 1'
_cell_length_a   5.28938685
_cell_length_b   5.46821202
_cell_length_c   15.63442130
_cell_angle_alpha   80.14415102
_cell_angle_beta   89.96139289
_cell_angle_gamma   89.34224841
_symmetry_Int_Tables_number   1
_chemical_formula_structural   LiV3OF11
_chemical_formula_sum   'Li2 V6 O2 F22'
_cell_volume   445.49845389
_cell_formula_units_Z   2
loop_
 _symmetry_equiv_pos_site_id
 _symmetry_equiv_pos_as_xyz
  1  'x, y, z'
loop_
 _atom_site_type_symbol
 _atom_site_label
 _atom_site_symmetry_multiplicity
 _atom_site_fract_x
 _atom_site_fract_y
 _atom_site_fract_z
 _atom_site_occupancy
  Li  Li0  1  0.23179331  0.53984927  0.51303727  1
  Li  Li1  1  0.81983396  0.69612996  0.15638696  1
  V  V2  1  0.00524478  0.66320646  0.67137502  1
  V  V3  1  0.50358953  0.83871942  0.32452628  1
  V  V4  1  0.49817909  0.49901123  0.99690647  1
  V  V5  1  0.48330506  0.18767927  0.66777103  1
  V  V6  1  0.99789729  0.32889668  0.33639476  1
  V  V7  1  0.00271111  0.00628114  0.99319841  1
  O  O8  1  0.58914207  0.86013808  0.22190930  1
  O  O9  1  0.28075472  0.45942040  0.64552007  1
  F  F10  1  0.20519440  0.96777571  0.64549833  1
  F  F11  1  0.30447649  0.80936683  0.97538234  1
  F  F12  1  0.71456817  0.86941645  0.68695517  1
  F  F13  1  0.06665501  0.94277428  0.11141368  1
  F  F14  1  0.41139055  0.77972169  0.44447443  1
  F  F15  1  0.08344760  0.62340909  0.78287425  1
  F  F16  1  0.93302506  0.70047588  0.55482471  1
  F  F17  1  0.59228245  0.54165052  0.88740196  1
  F  F18  1  0.18932631  0.63261559  0.31114622  1
  F  F19  1  0.20065048  0.31462034  0.97702003  1
  F  F20  1  0.70656033  0.51707221  0.35949231  1
  F  F21  1  0.79637194  0.69067596  0.02564949  1
  F  F22  1  0.78453245  0.37217658  0.69092682  1
  F  F23  1  0.42901044  0.46779140  0.11037975  1
  F  F24  1  0.09159380  0.29892710  0.44872218  1
  F  F25  1  0.42542373  0.10997396  0.78087976  1
  F  F26  1  0.91092611  0.38058252  0.22167129  1
  F  F27  1  0.91218748  0.03908919  0.88295657  1
  F  F28  1  0.57851562  0.20783985  0.55625114  1
  F  F29  1  0.29129367  0.14754264  0.30970575  1
  F  F30  1  0.69924803  0.19395431  0.02085712  1
  F  F31  1  0.80316296  0.03273196  0.35779912  1
