# generated using pymatgen
data_Li7Mn4CoO12
_symmetry_space_group_name_H-M   'P 1'
_cell_length_a   2.87382767
_cell_length_b   7.98434460
_cell_length_c   10.54909367
_cell_angle_alpha   113.30318626
_cell_angle_beta   82.17127796
_cell_angle_gamma   100.36780350
_symmetry_Int_Tables_number   1
_chemical_formula_structural   Li7Mn4CoO12
_chemical_formula_sum   'Li7 Mn4 Co1 O12'
_cell_volume   218.11301122
_cell_formula_units_Z   1
loop_
 _symmetry_equiv_pos_site_id
 _symmetry_equiv_pos_as_xyz
  1  'x, y, z'
loop_
 _atom_site_type_symbol
 _atom_site_label
 _atom_site_symmetry_multiplicity
 _atom_site_fract_x
 _atom_site_fract_y
 _atom_site_fract_z
 _atom_site_occupancy
  Li  Li0  1  0.49869167  0.24824646  0.25086311  1
  Li  Li1  1  0.49602697  0.74852738  0.75647343  1
  Li  Li2  1  0.17038720  0.58685309  0.24607970  1
  Li  Li3  1  0.16775561  0.08291891  0.74740869  1
  Li  Li4  1  0.83105304  0.90607782  0.24397074  1
  Li  Li5  1  0.83568692  0.42694846  0.75557362  1
  Li  Li6  1  0.33335952  0.66656984  0.99984979  1
  Mn  Mn7  1  0.99647322  0.98969712  0.99675068  1
  Mn  Mn8  1  0.67041230  0.34427340  0.00344981  1
  Mn  Mn9  1  0.00114861  0.50536881  0.50307160  1
  Mn  Mn10  1  0.33174718  0.16251669  0.49902134  1
  Co  Co11  1  0.66723336  0.83236867  0.49790295  1
  O  O12  1  0.42654420  0.96615279  0.11306438  1
  O  O13  1  0.42546767  0.47176247  0.62082712  1
  O  O14  1  0.08594025  0.27866443  0.10678493  1
  O  O15  1  0.09637896  0.80560645  0.61284954  1
  O  O16  1  0.73804157  0.58918573  0.11310159  1
  O  O17  1  0.75793967  0.13263523  0.61675488  1
  O  O18  1  0.57379685  0.53255448  0.38496077  1
  O  O19  1  0.58060668  0.05452092  0.89330755  1
  O  O20  1  0.23940913  0.86177234  0.38295508  1
  O  O21  1  0.23995950  0.36687711  0.88695912  1
  O  O22  1  0.90658187  0.19487275  0.38170800  1
  O  O23  1  0.92935804  0.74502866  0.88631157  1
