# generated using pymatgen
data_Mn2O3F
_symmetry_space_group_name_H-M   'P 1'
_cell_length_a   7.04285342
_cell_length_b   5.49359235
_cell_length_c   5.49359235
_cell_angle_alpha   74.15681264
_cell_angle_beta   73.63906311
_cell_angle_gamma   73.63906311
_symmetry_Int_Tables_number   1
_chemical_formula_structural   Mn2O3F
_chemical_formula_sum   'Mn6 O9 F3'
_cell_volume   191.30665799
_cell_formula_units_Z   3
loop_
 _symmetry_equiv_pos_site_id
 _symmetry_equiv_pos_as_xyz
  1  'x, y, z'
loop_
 _atom_site_type_symbol
 _atom_site_label
 _atom_site_symmetry_multiplicity
 _atom_site_fract_x
 _atom_site_fract_y
 _atom_site_fract_z
 _atom_site_occupancy
  Mn  Mn0  1  0.83537671  0.66585895  0.66501937  1
  Mn  Mn1  1  0.66586530  0.35282007  0.31233781  1
  Mn  Mn2  1  0.33413470  0.68766219  0.64717993  1
  Mn  Mn3  1  0.16462329  0.33498063  0.33414105  1
  Mn  Mn4  1  0.50000000  0.98241454  0.01758546  1
  Mn  Mn5  1  -0.00000000  0.97088066  0.02911934  1
  O  O6  1  0.29580731  0.89690649  0.90237456  1
  O  O7  1  0.62801430  0.57514400  0.55127381  1
  O  O8  1  0.95823923  0.22336130  0.23898292  1
  O  O9  1  0.70419269  0.09762544  0.10309351  1
  O  O10  1  0.04176077  0.76101708  0.77663870  1
  O  O11  1  0.37198570  0.44872619  0.42485600  1
  O  O12  1  0.32741298  0.98085822  0.36630953  1
  O  O13  1  0.67258702  0.63369047  0.01914178  1
  O  O14  1  -0.00000000  0.68545952  0.31454048  1
  F  F15  1  0.65734972  0.05561445  0.62692189  1
  F  F16  1  0.34265028  0.37307811  0.94438555  1
  F  F17  1  -0.00000000  0.27390067  0.72609933  1
