# generated using pymatgen
data_LiMnF4
_symmetry_space_group_name_H-M   'P 1'
_cell_length_a   4.90727416
_cell_length_b   5.53058858
_cell_length_c   10.24823520
_cell_angle_alpha   90.00000000
_cell_angle_beta   91.19882100
_cell_angle_gamma   90.00000000
_symmetry_Int_Tables_number   1
_chemical_formula_structural   LiMnF4
_chemical_formula_sum   'Li4 Mn4 F16'
_cell_volume   278.07739560
_cell_formula_units_Z   4
loop_
 _symmetry_equiv_pos_site_id
 _symmetry_equiv_pos_as_xyz
  1  'x, y, z'
loop_
 _atom_site_type_symbol
 _atom_site_label
 _atom_site_symmetry_multiplicity
 _atom_site_fract_x
 _atom_site_fract_y
 _atom_site_fract_z
 _atom_site_occupancy
  Li  Li0  1  0.00000000  0.07584330  0.75000000  1
  Li  Li1  1  0.00000000  0.92415670  0.25000000  1
  Li  Li2  1  0.50000000  0.43682955  0.75000000  1
  Li  Li3  1  0.50000000  0.56317045  0.25000000  1
  Mn  Mn4  1  0.00000000  0.50000000  0.50000000  1
  Mn  Mn5  1  0.00000000  0.50000000  0.00000000  1
  Mn  Mn6  1  0.50000000  -0.00000000  0.50000000  1
  Mn  Mn7  1  0.50000000  -0.00000000  0.00000000  1
  F  F8  1  0.17001767  0.38156677  0.85398106  1
  F  F9  1  0.21458385  0.88732692  0.89245848  1
  F  F10  1  0.17001767  0.61843323  0.35398106  1
  F  F11  1  0.21458385  0.11267308  0.39245848  1
  F  F12  1  0.28496634  0.64709601  0.59682145  1
  F  F13  1  0.32623325  0.15614339  0.63636738  1
  F  F14  1  0.28496634  0.35290399  0.09682145  1
  F  F15  1  0.32623325  0.84385661  0.13636738  1
  F  F16  1  0.67376675  0.15614339  0.86363262  1
  F  F17  1  0.71503366  0.64709601  0.90317855  1
  F  F18  1  0.67376675  0.84385661  0.36363262  1
  F  F19  1  0.71503366  0.35290399  0.40317855  1
  F  F20  1  0.78541615  0.88732692  0.60754152  1
  F  F21  1  0.82998233  0.38156677  0.64601894  1
  F  F22  1  0.78541615  0.11267308  0.10754152  1
  F  F23  1  0.82998233  0.61843323  0.14601894  1
