# generated using pymatgen
data_CsHgC3(SN)3
_symmetry_space_group_name_H-M   'P 1'
_cell_length_a   10.03669422
_cell_length_b   11.23346505
_cell_length_c   20.24227865
_cell_angle_alpha   90.00000000
_cell_angle_beta   98.31417301
_cell_angle_gamma   90.00000000
_symmetry_Int_Tables_number   1
_chemical_formula_structural   CsHgC3(SN)3
_chemical_formula_sum   'Cs8 Hg8 C24 S24 N24'
_cell_volume   2258.26686266
_cell_formula_units_Z   8
loop_
 _symmetry_equiv_pos_site_id
 _symmetry_equiv_pos_as_xyz
  1  'x, y, z'
loop_
 _atom_site_type_symbol
 _atom_site_label
 _atom_site_symmetry_multiplicity
 _atom_site_fract_x
 _atom_site_fract_y
 _atom_site_fract_z
 _atom_site_occupancy
  Cs  Cs0  1  0.45702098  0.71645306  0.92547913  1
  Cs  Cs1  1  0.04297902  0.21645306  0.57452087  1
  Cs  Cs2  1  0.54297902  0.28354694  0.07452087  1
  Cs  Cs3  1  0.95702098  0.78354694  0.42547913  1
  Cs  Cs4  1  0.91312986  0.75447583  0.82990238  1
  Cs  Cs5  1  0.58687014  0.25447583  0.67009762  1
  Cs  Cs6  1  0.08687014  0.24552417  0.17009762  1
  Cs  Cs7  1  0.41312986  0.74552417  0.32990238  1
  Hg  Hg8  1  0.61687172  0.73249450  0.59195087  1
  Hg  Hg9  1  0.88312828  0.23249450  0.90804913  1
  Hg  Hg10  1  0.38312828  0.26750550  0.40804913  1
  Hg  Hg11  1  0.11687172  0.76750550  0.09195087  1
  Hg  Hg12  1  0.21580230  0.77322461  0.63317096  1
  Hg  Hg13  1  0.28419770  0.27322461  0.86682904  1
  Hg  Hg14  1  0.78419770  0.22677539  0.36682904  1
  Hg  Hg15  1  0.71580230  0.72677539  0.13317096  1
  C  C16  1  0.54482509  0.65027667  0.73703820  1
  C  C17  1  0.95517491  0.15027667  0.76296180  1
  C  C18  1  0.45517491  0.34972333  0.26296180  1
  C  C19  1  0.04482509  0.84972333  0.23703820  1
  C  C20  1  0.35372947  0.99157864  0.54705756  1
  C  C21  1  0.14627053  0.49157864  0.95294244  1
  C  C22  1  0.64627053  0.00842136  0.45294244  1
  C  C23  1  0.85372947  0.50842136  0.04705756  1
  C  C24  1  0.95660800  0.61089359  0.64693844  1
  C  C25  1  0.54339200  0.11089359  0.85306156  1
  C  C26  1  0.04339200  0.38910641  0.35306156  1
  C  C27  1  0.45660800  0.88910641  0.14693844  1
  C  C28  1  0.22850580  0.51263982  0.78192709  1
  C  C29  1  0.27149420  0.01263982  0.71807291  1
  C  C30  1  0.77149420  0.48736018  0.21807291  1
  C  C31  1  0.72850580  0.98736018  0.28192709  1
  C  C32  1  0.78980686  0.99173912  0.97485904  1
  C  C33  1  0.71019314  0.49173912  0.52514096  1
  C  C34  1  0.21019314  0.00826088  0.02514096  1
  C  C35  1  0.28980686  0.50826088  0.47485904  1
  C  C36  1  0.85794414  0.91701361  0.61166147  1
  C  C37  1  0.64205586  0.41701361  0.88833853  1
  C  C38  1  0.14205586  0.08298639  0.38833853  1
  C  C39  1  0.35794414  0.58298639  0.11166147  1
  S  S40  1  0.47772750  0.60249242  0.66200781  1
  S  S41  1  0.02227250  0.10249242  0.83799219  1
  S  S42  1  0.52227250  0.39750758  0.33799219  1
  S  S43  1  0.97772750  0.89750758  0.16200781  1
  S  S44  1  0.32760772  0.84693802  0.53282504  1
  S  S45  1  0.17239228  0.34693802  0.96717496  1
  S  S46  1  0.67239228  0.15306198  0.46717496  1
  S  S47  1  0.82760772  0.65306198  0.03282504  1
  S  S48  1  0.07003167  0.59694617  0.59517768  1
  S  S49  1  0.42996833  0.09694617  0.90482232  1
  S  S50  1  0.92996833  0.40305383  0.40482232  1
  S  S51  1  0.57003167  0.90305383  0.09517768  1
  S  S52  1  0.24820984  0.87403856  0.74332994  1
  S  S53  1  0.25179016  0.37403856  0.75667006  1
  S  S54  1  0.75179016  0.12596144  0.25667006  1
  S  S55  1  0.74820984  0.62596144  0.24332994  1
  S  S56  1  0.16351609  0.87806761  0.99007778  1
  S  S57  1  0.33648391  0.37806761  0.50992222  1
  S  S58  1  0.83648391  0.12193239  0.00992222  1
  S  S59  1  0.66351609  0.62193239  0.49007778  1
  S  S60  1  0.71954271  0.91424028  0.64770067  1
  S  S61  1  0.78045729  0.41424028  0.85229933  1
  S  S62  1  0.28045729  0.08575972  0.35229933  1
  S  S63  1  0.21954271  0.58575972  0.14770067  1
  N  N64  1  0.59024501  0.68135451  0.79120686  1
  N  N65  1  0.90975499  0.18135451  0.70879314  1
  N  N66  1  0.40975499  0.31864549  0.20879314  1
  N  N67  1  0.09024501  0.81864549  0.29120686  1
  N  N68  1  0.12548195  0.59470718  0.94747101  1
  N  N69  1  0.37451805  0.09470718  0.55252899  1
  N  N70  1  0.87451805  0.40529282  0.05252899  1
  N  N71  1  0.62548195  0.90529282  0.44747101  1
  N  N72  1  0.87160369  0.61640345  0.68142721  1
  N  N73  1  0.62839631  0.11640345  0.81857279  1
  N  N74  1  0.12839631  0.38359655  0.31857279  1
  N  N75  1  0.37160369  0.88359655  0.18142721  1
  N  N76  1  0.21094295  0.61305143  0.79535861  1
  N  N77  1  0.28905705  0.11305143  0.70464139  1
  N  N78  1  0.78905705  0.38694857  0.20464139  1
  N  N79  1  0.71094295  0.88694857  0.29535861  1
  N  N80  1  0.75367283  0.89817161  0.95252652  1
  N  N81  1  0.74632717  0.39817161  0.54747348  1
  N  N82  1  0.24632717  0.10182839  0.04747348  1
  N  N83  1  0.25367283  0.60182839  0.45252652  1
  N  N84  1  0.95880255  0.92550287  0.58848613  1
  N  N85  1  0.54119745  0.42550287  0.91151387  1
  N  N86  1  0.04119745  0.07449713  0.41151387  1
  N  N87  1  0.45880255  0.57449713  0.08848613  1
