# generated using pymatgen
data_Li6Co2OF11
_symmetry_space_group_name_H-M   'P 1'
_cell_length_a   5.12069075
_cell_length_b   5.46261407
_cell_length_c   8.99864760
_cell_angle_alpha   85.84878525
_cell_angle_beta   73.20080509
_cell_angle_gamma   117.72939882
_symmetry_Int_Tables_number   1
_chemical_formula_structural   Li6Co2OF11
_chemical_formula_sum   'Li6 Co2 O1 F11'
_cell_volume   206.84316415
_cell_formula_units_Z   1
loop_
 _symmetry_equiv_pos_site_id
 _symmetry_equiv_pos_as_xyz
  1  'x, y, z'
loop_
 _atom_site_type_symbol
 _atom_site_label
 _atom_site_symmetry_multiplicity
 _atom_site_fract_x
 _atom_site_fract_y
 _atom_site_fract_z
 _atom_site_occupancy
  Li  Li0  1  0.11147699  0.34706365  0.08066643  1
  Li  Li1  1  0.17614896  0.87186021  0.57008582  1
  Li  Li2  1  0.34440064  0.89677057  0.16779600  1
  Li  Li3  1  0.37379133  0.37979162  0.67960844  1
  Li  Li4  1  0.85469347  0.15243912  0.44144357  1
  Li  Li5  1  0.63738320  0.09503386  0.80926927  1
  Co  Co6  1  0.65918059  0.64353911  0.32564299  1
  Co  Co7  1  0.83887163  0.60366562  0.92465466  1
  O  O8  1  0.60968858  0.62677336  0.12487447  1
  F  F9  1  0.04857584  0.02800440  0.22193903  1
  F  F10  1  0.04833683  0.52094878  0.72973288  1
  F  F11  1  0.44651842  0.85808897  0.36351206  1
  F  F12  1  0.27346999  0.30712414  0.45747135  1
  F  F13  1  0.22353640  0.75948260  0.96825010  1
  F  F14  1  0.75523772  0.72705189  0.51941273  1
  F  F15  1  0.74109073  0.22053381  0.02755887  1
  F  F16  1  0.44910202  0.38738748  0.88656559  1
  F  F17  1  0.54214626  0.12394478  0.62523472  1
  F  F18  1  0.92883281  0.48605434  0.28188982  1
  F  F19  1  0.91829160  0.93716669  0.79387323  1
