# generated using pymatgen
data_Li6MnV3(PO4)6
_symmetry_space_group_name_H-M   'P 1'
_cell_length_a   8.79298239
_cell_length_b   8.79298283
_cell_length_c   14.49430014
_cell_angle_alpha   106.12407834
_cell_angle_beta   73.87592025
_cell_angle_gamma   119.35987923
_symmetry_Int_Tables_number   1
_chemical_formula_structural   Li6MnV3(PO4)6
_chemical_formula_sum   'Li12 Mn2 V6 P12 O48'
_cell_volume   924.78170076
_cell_formula_units_Z   2
loop_
 _symmetry_equiv_pos_site_id
 _symmetry_equiv_pos_as_xyz
  1  'x, y, z'
loop_
 _atom_site_type_symbol
 _atom_site_label
 _atom_site_symmetry_multiplicity
 _atom_site_fract_x
 _atom_site_fract_y
 _atom_site_fract_z
 _atom_site_occupancy
  Li  Li0  1  0.01581542  0.85784218  0.11348898  1
  Li  Li1  1  0.00420304  0.50301495  0.00171544  1
  Li  Li2  1  0.10784218  0.76581542  0.63651102  1
  Li  Li3  1  0.25140428  0.24896563  0.25018901  1
  Li  Li4  1  0.48535834  0.64186868  0.38650559  1
  Li  Li5  1  0.39214306  0.73665304  0.86431369  1
  Li  Li6  1  0.60929665  0.26338514  0.13859725  1
  Li  Li7  1  0.51338514  0.35929665  0.61140275  1
  Li  Li8  1  0.75301495  0.75420304  0.74828456  1
  Li  Li9  1  0.49896563  0.00140428  0.49981099  1
  Li  Li10  1  0.89186868  0.23535834  0.36349441  1
  Li  Li11  1  0.98665304  0.14214306  0.88568631  1
  Mn  Mn12  1  0.82728723  0.67757302  0.53453699  1
  Mn  Mn13  1  0.92757302  0.57728723  0.21546301  1
  V  V14  1  0.06911805  0.42483753  0.78707619  1
  V  V15  1  0.17184779  0.31673280  0.46328658  1
  V  V16  1  0.56673280  0.92184779  0.28671342  1
  V  V17  1  0.32812111  0.18245551  0.03714477  1
  V  V18  1  0.67483753  0.81911805  0.96292381  1
  V  V19  1  0.43245551  0.07812111  0.71285523  1
  P  P20  1  0.33241680  0.86783795  0.11649849  1
  P  P21  1  0.16544190  0.63153220  0.38062248  1
  P  P22  1  0.07718558  0.82718558  0.87500000  1
  P  P23  1  0.11783795  0.08241680  0.63350151  1
  P  P24  1  0.42560583  0.67406484  0.62419768  1
  P  P25  1  0.61879374  0.58147021  0.13315037  1
  P  P26  1  0.38311252  0.41977225  0.86859089  1
  P  P27  1  0.56818544  0.31818544  0.37500000  1
  P  P28  1  0.88153220  0.91544190  0.36937752  1
  P  P29  1  0.92406484  0.17560583  0.12580232  1
  P  P30  1  0.83147021  0.36879474  0.61684963  1
  P  P31  1  0.66977325  0.13311152  0.88140911  1
  O  O32  1  0.14422516  0.71839722  0.10778300  1
  O  O33  1  0.08477809  0.61538697  0.29596711  1
  O  O34  1  0.05667438  0.66967833  0.48025484  1
  O  O35  1  0.45042677  0.83881731  0.01876374  1
  O  O36  1  0.40875737  0.88024602  0.20226401  1
  O  O37  1  0.10808578  0.19202049  0.12834962  1
  O  O38  1  0.19747391  0.89859832  0.78119611  1
  O  O39  1  0.17574969  0.45235551  0.36515531  1
  O  O40  1  0.14859832  0.94747391  0.96880389  1
  O  O41  1  0.03087332  0.10683905  0.36503750  1
  O  O42  1  0.35683905  0.78087332  0.38496250  1
  O  O43  1  0.06137056  0.64391016  0.87816458  1
  O  O44  1  0.44202049  0.85808578  0.62165038  1
  O  O45  1  0.13024602  0.15875737  0.54773599  1
  O  O46  1  0.63954426  0.65967701  0.04697796  1
  O  O47  1  0.35211842  0.55401338  0.53068956  1
  O  O48  1  0.08881731  0.20042677  0.73123626  1
  O  O49  1  0.46864817  0.39055629  0.13722335  1
  O  O50  1  0.30500879  0.60325449  0.71841808  1
  O  O51  1  0.58370200  0.69321188  0.23145619  1
  O  O52  1  0.32280747  0.04839123  0.13456464  1
  O  O53  1  0.20525221  0.43299282  0.88539724  1
  O  O54  1  0.38478491  0.30294392  0.37145263  1
  O  O55  1  0.70235551  0.92574969  0.38484469  1
  O  O56  1  0.29839123  0.07280747  0.61543536  1
  O  O57  1  0.60723195  0.68540554  0.62729460  1
  O  O58  1  0.79904872  0.57066898  0.11907968  1
  O  O59  1  0.68299282  0.95525221  0.86460276  1
  O  O60  1  0.41773440  0.30777644  0.76985909  1
  O  O61  1  0.68698715  0.38725154  0.28092739  1
  O  O62  1  0.53491128  0.61066388  0.86385114  1
  O  O63  1  0.91967833  0.80667438  0.26974516  1
  O  O64  1  0.63725154  0.43698715  0.46907261  1
  O  O65  1  0.36709407  0.34031366  0.95355953  1
  O  O66  1  0.86538697  0.83477809  0.45403289  1
  O  O67  1  0.55294392  0.13478491  0.37854737  1
  O  O68  1  0.93540554  0.35723195  0.12270540  1
  O  O69  1  0.64055629  0.21864817  0.61277665  1
  O  O70  1  0.96839722  0.89422516  0.64221700  1
  O  O71  1  0.85325449  0.05500879  0.03158192  1
  O  O72  1  0.82066898  0.54904872  0.63092032  1
  O  O73  1  0.80401338  0.10211842  0.21931044  1
  O  O74  1  0.89391016  0.81137056  0.87183542  1
  O  O75  1  0.59031366  0.11709407  0.79644047  1
  O  O76  1  0.55777644  0.16773440  0.98014091  1
  O  O77  1  0.94321188  0.33370200  0.51854381  1
  O  O78  1  0.90967701  0.38954426  0.70302204  1
  O  O79  1  0.86066388  0.28491128  0.88614886  1
