# generated using pymatgen
data_Li6Mn3Fe(PO4)6
_symmetry_space_group_name_H-M   'P 1'
_cell_length_a   8.62341399
_cell_length_b   8.56586424
_cell_length_c   8.64498580
_cell_angle_alpha   61.79224876
_cell_angle_beta   61.79059467
_cell_angle_gamma   60.88688247
_symmetry_Int_Tables_number   1
_chemical_formula_structural   Li6Mn3Fe(PO4)6
_chemical_formula_sum   'Li6 Mn3 Fe1 P6 O24'
_cell_volume   466.57265743
_cell_formula_units_Z   1
loop_
 _symmetry_equiv_pos_site_id
 _symmetry_equiv_pos_as_xyz
  1  'x, y, z'
loop_
 _atom_site_type_symbol
 _atom_site_label
 _atom_site_symmetry_multiplicity
 _atom_site_fract_x
 _atom_site_fract_y
 _atom_site_fract_z
 _atom_site_occupancy
  Li  Li0  1  0.03751907  0.99808378  0.99459811  1
  Li  Li1  1  0.76078493  0.15667708  0.35454647  1
  Li  Li2  1  0.48594044  0.50795965  0.47713121  1
  Li  Li3  1  0.25723558  0.84496522  0.65728020  1
  Li  Li4  1  0.65760167  0.25617647  0.85539119  1
  Li  Li5  1  0.83455169  0.66542258  0.24833223  1
  Mn  Mn6  1  0.14337581  0.15092889  0.13609810  1
  Mn  Mn7  1  0.35418375  0.35888464  0.35675652  1
  Mn  Mn8  1  0.64997489  0.64226532  0.64884670  1
  Fe  Fe9  1  0.85377079  0.85351646  0.84891706  1
  P  P10  1  0.04710445  0.74798210  0.44912347  1
  P  P11  1  0.45207355  0.04585119  0.74398451  1
  P  P12  1  0.75616338  0.45223155  0.05167318  1
  P  P13  1  0.25161461  0.54608945  0.96135554  1
  P  P14  1  0.53557849  0.96654885  0.24516519  1
  P  P15  1  0.94838296  0.24741900  0.54479804  1
  O  O16  1  0.12022186  0.28434349  0.50298031  1
  O  O17  1  0.29915307  0.51697157  0.12425888  1
  O  O18  1  0.04965176  0.91700710  0.26780325  1
  O  O19  1  0.52042706  0.12942505  0.28932608  1
  O  O20  1  0.23771178  0.58373268  0.43476974  1
  O  O21  1  0.01281171  0.80296480  0.61194668  1
  O  O22  1  0.26418146  0.06756602  0.89679415  1
  O  O23  1  0.45665035  0.22693552  0.57145376  1
  O  O24  1  0.61036227  0.42938611  0.24563231  1
  O  O25  1  0.20132996  0.38518758  0.98970173  1
  O  O26  1  0.09167259  0.74332920  0.93082739  1
  O  O27  1  0.36309104  0.00811254  0.20366324  1
  O  O28  1  0.61346037  0.00630339  0.80333899  1
  O  O29  1  0.92132397  0.25638107  0.06822393  1
  O  O30  1  0.81805598  0.61293682  0.00922884  1
  O  O31  1  0.41473353  0.56539128  0.77167318  1
  O  O32  1  0.55700152  0.77456853  0.40195173  1
  O  O33  1  0.72298748  0.94012571  0.08285317  1
  O  O34  1  0.95323508  0.20190387  0.39134296  1
  O  O35  1  0.75770670  0.41842664  0.57302241  1
  O  O36  1  0.48592102  0.88173673  0.68636114  1
  O  O37  1  0.92194519  0.09045636  0.73767637  1
  O  O38  1  0.69399865  0.47393229  0.90193501  1
  O  O39  1  0.88650954  0.69087343  0.48023503  1
