# generated using pymatgen
data_Li9Fe4(BO3)8
_symmetry_space_group_name_H-M   'P 1'
_cell_length_a   5.25444123
_cell_length_b   8.95329965
_cell_length_c   9.99408505
_cell_angle_alpha   90.00316427
_cell_angle_beta   92.65169419
_cell_angle_gamma   89.77414828
_symmetry_Int_Tables_number   1
_chemical_formula_structural   Li9Fe4(BO3)8
_chemical_formula_sum   'Li9 Fe4 B8 O24'
_cell_volume   469.66051036
_cell_formula_units_Z   1
loop_
 _symmetry_equiv_pos_site_id
 _symmetry_equiv_pos_as_xyz
  1  'x, y, z'
loop_
 _atom_site_type_symbol
 _atom_site_label
 _atom_site_symmetry_multiplicity
 _atom_site_fract_x
 _atom_site_fract_y
 _atom_site_fract_z
 _atom_site_occupancy
  Li  Li0  1  0.18112612  0.66436444  0.63368426  1
  Li  Li1  1  0.17198028  0.98978255  0.10492298  1
  Li  Li2  1  0.32130325  0.16584054  0.86628725  1
  Li  Li3  1  0.33042821  0.49094304  0.38629426  1
  Li  Li4  1  0.66750939  0.51088431  0.61137890  1
  Li  Li5  1  0.66703473  0.82737916  0.12315830  1
  Li  Li6  1  0.82987902  0.00798687  0.88355923  1
  Li  Li7  1  0.81797706  0.34766573  0.36788270  1
  Li  Li8  1  0.84447100  0.01881397  0.33676966  1
  Fe  Fe9  1  0.15078222  0.32808499  0.12631870  1
  Fe  Fe10  1  0.35223613  0.82197320  0.37525269  1
  Fe  Fe11  1  0.65259641  0.17203701  0.62336095  1
  Fe  Fe12  1  0.84968441  0.67173422  0.87382864  1
  B  B13  1  0.16810727  0.33082078  0.61507117  1
  B  B14  1  0.16502486  0.66432035  0.12950013  1
  B  B15  1  0.32804545  0.83242284  0.88159858  1
  B  B16  1  0.33930970  0.15982465  0.36777120  1
  B  B17  1  0.66662012  0.83577137  0.63187717  1
  B  B18  1  0.67018586  0.17170827  0.12381028  1
  B  B19  1  0.83256879  0.33502031  0.87122599  1
  B  B20  1  0.82901215  0.67535877  0.38209643  1
  O  O21  1  0.06983611  0.31216619  0.93326597  1
  O  O22  1  0.09242777  0.67158401  0.40428231  1
  O  O23  1  0.19193274  0.95794236  0.90609144  1
  O  O24  1  0.20728073  0.28859814  0.32850847  1
  O  O25  1  0.21050153  0.70155741  0.83775368  1
  O  O26  1  0.21794523  0.02320183  0.35294735  1
  O  O27  1  0.29363363  0.20080343  0.65675499  1
  O  O28  1  0.26514279  0.52575348  0.15396525  1
  O  O29  1  0.29682834  0.79089148  0.17437136  1
  O  O30  1  0.30330097  0.45669087  0.59335264  1
  O  O31  1  0.43158171  0.81268798  0.56843773  1
  O  O32  1  0.40882571  0.17275616  0.09754228  1
  O  O33  1  0.59130868  0.82938971  0.90372826  1
  O  O34  1  0.59043695  0.16772279  0.41961762  1
  O  O35  1  0.68683070  0.55298173  0.40414597  1
  O  O36  1  0.69998218  0.20834331  0.82826307  1
  O  O37  1  0.73369084  0.47386210  0.84633951  1
  O  O38  1  0.71910229  0.81203027  0.34069016  1
  O  O39  1  0.76986292  0.97399658  0.65303269  1
  O  O40  1  0.78856905  0.30539490  0.15858574  1
  O  O41  1  0.79848242  0.70822338  0.67563233  1
  O  O42  1  0.80520610  0.04103036  0.12077620  1
  O  O43  1  0.90488380  0.32724138  0.59373783  1
  O  O44  1  0.93015738  0.68667280  0.06505066  1
