# generated using pymatgen
data_LiFe4(PO4)3
_symmetry_space_group_name_H-M   'P 1'
_cell_length_a   6.28343761
_cell_length_b   16.53830965
_cell_length_c   9.88648206
_cell_angle_alpha   90.00000000
_cell_angle_beta   90.00000000
_cell_angle_gamma   90.00000000
_symmetry_Int_Tables_number   1
_chemical_formula_structural   LiFe4(PO4)3
_chemical_formula_sum   'Li4 Fe16 P12 O48'
_cell_volume   1027.37787524
_cell_formula_units_Z   4
loop_
 _symmetry_equiv_pos_site_id
 _symmetry_equiv_pos_as_xyz
  1  'x, y, z'
loop_
 _atom_site_type_symbol
 _atom_site_label
 _atom_site_symmetry_multiplicity
 _atom_site_fract_x
 _atom_site_fract_y
 _atom_site_fract_z
 _atom_site_occupancy
  Li  Li0  1  -0.00000000  0.43412022  0.25586483  1
  Li  Li1  1  -0.00000000  0.56587978  0.74413517  1
  Li  Li2  1  0.50000000  0.06587978  0.75586483  1
  Li  Li3  1  0.50000000  0.93412022  0.24413517  1
  Fe  Fe4  1  -0.00000000  0.09339542  0.54369171  1
  Fe  Fe5  1  -0.00000000  0.13542083  0.98714754  1
  Fe  Fe6  1  0.00000000  0.86457917  0.01285246  1
  Fe  Fe7  1  0.00000000  0.90660458  0.45630829  1
  Fe  Fe8  1  0.24836704  0.29955815  0.75362072  1
  Fe  Fe9  1  0.24836704  0.70044185  0.24637928  1
  Fe  Fe10  1  0.25163296  0.20044185  0.25362072  1
  Fe  Fe11  1  0.25163296  0.79955815  0.74637928  1
  Fe  Fe12  1  0.50000000  0.59339542  0.95630829  1
  Fe  Fe13  1  0.50000000  0.40660458  0.04369171  1
  Fe  Fe14  1  0.50000000  0.36457917  0.48714754  1
  Fe  Fe15  1  0.50000000  0.63542083  0.51285246  1
  Fe  Fe16  1  0.74836704  0.20044185  0.25362072  1
  Fe  Fe17  1  0.74836704  0.79955815  0.74637928  1
  Fe  Fe18  1  0.75163296  0.29955815  0.75362072  1
  Fe  Fe19  1  0.75163296  0.70044185  0.24637928  1
  P  P20  1  -0.00000000  0.03589831  0.21444886  1
  P  P21  1  0.00000000  0.33650021  0.05026246  1
  P  P22  1  0.00000000  0.28598223  0.46054285  1
  P  P23  1  0.00000000  0.71401777  0.53945715  1
  P  P24  1  0.00000000  0.66349979  0.94973754  1
  P  P25  1  0.00000000  0.96410169  0.78555114  1
  P  P26  1  0.50000000  0.21401777  0.96054285  1
  P  P27  1  0.50000000  0.46410169  0.71444886  1
  P  P28  1  0.50000000  0.53589831  0.28555114  1
  P  P29  1  0.50000000  0.78598223  0.03945715  1
  P  P30  1  0.50000000  0.16349979  0.55026246  1
  P  P31  1  0.50000000  0.83650021  0.44973754  1
  O  O32  1  -0.00000000  0.02346239  0.36967415  1
  O  O33  1  0.00000000  0.24884633  0.11785035  1
  O  O34  1  -0.00000000  0.19634052  0.40255235  1
  O  O35  1  0.00000000  0.04719245  0.85103966  1
  O  O36  1  0.00000000  0.27968979  0.61715037  1
  O  O37  1  0.00000000  0.67380183  0.10554153  1
  O  O38  1  -0.00000000  0.32619817  0.89445847  1
  O  O39  1  -0.00000000  0.72031021  0.38284963  1
  O  O40  1  0.00000000  0.95280755  0.14896034  1
  O  O41  1  -0.00000000  0.80365948  0.59744765  1
  O  O42  1  0.00000000  0.75115367  0.88214965  1
  O  O43  1  0.00000000  0.97653761  0.63032585  1
  O  O44  1  0.19801760  0.08729331  0.16929421  1
  O  O45  1  0.19801760  0.91270669  0.83070579  1
  O  O46  1  0.19457290  0.61613392  0.89690769  1
  O  O47  1  0.19457290  0.38386708  0.10309231  1
  O  O48  1  0.20264051  0.32548878  0.40236144  1
  O  O49  1  0.20264051  0.67451122  0.59763856  1
  O  O50  1  0.29735949  0.17451122  0.90236144  1
  O  O51  1  0.29735949  0.82548878  0.09763856  1
  O  O52  1  0.30542710  0.88386608  0.39690769  1
  O  O53  1  0.30542710  0.11613292  0.60309231  1
  O  O54  1  0.30198240  0.58729331  0.33070579  1
  O  O55  1  0.30198240  0.41270669  0.66929421  1
  O  O56  1  0.50000000  0.45280755  0.35103966  1
  O  O57  1  0.50000000  0.47653761  0.86967415  1
  O  O58  1  0.50000000  0.52346239  0.13032585  1
  O  O59  1  0.50000000  0.54719245  0.64896034  1
  O  O60  1  0.50000000  0.77968979  0.88284963  1
  O  O61  1  0.50000000  0.82619817  0.60554153  1
  O  O62  1  0.50000000  0.25115367  0.61785035  1
  O  O63  1  0.50000000  0.30365948  0.90255235  1
  O  O64  1  0.50000000  0.69634052  0.09744765  1
  O  O65  1  0.50000000  0.17380183  0.39445847  1
  O  O66  1  0.50000000  0.22031021  0.11715037  1
  O  O67  1  0.50000000  0.74884633  0.38214965  1
  O  O68  1  0.69801760  0.41270669  0.66929421  1
  O  O69  1  0.69801760  0.58729331  0.33070579  1
  O  O70  1  0.69457290  0.11613292  0.60309231  1
  O  O71  1  0.69457290  0.88386608  0.39690769  1
  O  O72  1  0.70264051  0.17451122  0.90236144  1
  O  O73  1  0.70264051  0.82548878  0.09763856  1
  O  O74  1  0.79735949  0.32548878  0.40236144  1
  O  O75  1  0.79735949  0.67451122  0.59763856  1
  O  O76  1  0.80542710  0.38386708  0.10309231  1
  O  O77  1  0.80542710  0.61613392  0.89690769  1
  O  O78  1  0.80198240  0.08729331  0.16929421  1
  O  O79  1  0.80198240  0.91270669  0.83070579  1
