# generated using pymatgen
data_Li6V5O12
_symmetry_space_group_name_H-M   'P 1'
_cell_length_a   5.05739853
_cell_length_b   5.03433508
_cell_length_c   9.54508077
_cell_angle_alpha   93.23974940
_cell_angle_beta   85.92484803
_cell_angle_gamma   63.80515771
_symmetry_Int_Tables_number   1
_chemical_formula_structural   Li6V5O12
_chemical_formula_sum   'Li6 V5 O12'
_cell_volume   216.46239224
_cell_formula_units_Z   1
loop_
 _symmetry_equiv_pos_site_id
 _symmetry_equiv_pos_as_xyz
  1  'x, y, z'
loop_
 _atom_site_type_symbol
 _atom_site_label
 _atom_site_symmetry_multiplicity
 _atom_site_fract_x
 _atom_site_fract_y
 _atom_site_fract_z
 _atom_site_occupancy
  Li  Li0  1  0.75692763  0.75585872  0.25051525  1
  Li  Li1  1  0.35600221  0.82958907  0.49252239  1
  Li  Li2  1  0.13213267  0.69183252  0.01033068  1
  Li  Li3  1  0.84050930  0.35525788  0.00440118  1
  Li  Li4  1  0.68096929  0.13454042  0.49220941  1
  Li  Li5  1  0.08398813  0.08534737  0.25025797  1
  V  V6  1  0.92070308  0.91823016  0.74915832  1
  V  V7  1  0.56615034  0.57311413  0.75112787  1
  V  V8  1  0.42746929  0.42568998  0.25002486  1
  V  V9  1  0.01082288  0.47671243  0.49940000  1
  V  V10  1  0.48226766  0.01450643  0.00191095  1
  O  O11  1  0.66752634  0.81604267  0.61684923  1
  O  O12  1  0.82084171  0.67499047  0.88338731  1
  O  O13  1  0.23616551  0.91597314  0.87186348  1
  O  O14  1  0.45628996  0.73288621  0.12565617  1
  O  O15  1  0.09298378  0.73562787  0.36134268  1
  O  O16  1  0.72952867  0.45405009  0.37375813  1
  O  O17  1  0.24767762  0.56978012  0.62383464  1
  O  O18  1  0.91533597  0.22648805  0.62528021  1
  O  O19  1  0.57438870  0.25724008  0.87745467  1
  O  O20  1  0.16866038  0.35833979  0.11735909  1
  O  O21  1  0.73858617  0.09364972  0.13867423  1
  O  O22  1  0.35493871  0.16514666  0.38269228  1
