# generated using pymatgen
data_Li6MnV3(PO4)6
_symmetry_space_group_name_H-M   'P 1'
_cell_length_a   8.59759602
_cell_length_b   8.45603679
_cell_length_c   8.64699974
_cell_angle_alpha   61.75406901
_cell_angle_beta   61.41933757
_cell_angle_gamma   62.78124900
_symmetry_Int_Tables_number   1
_chemical_formula_structural   Li6MnV3(PO4)6
_chemical_formula_sum   'Li6 Mn1 V3 P6 O24'
_cell_volume   464.12565455
_cell_formula_units_Z   1
loop_
 _symmetry_equiv_pos_site_id
 _symmetry_equiv_pos_as_xyz
  1  'x, y, z'
loop_
 _atom_site_type_symbol
 _atom_site_label
 _atom_site_symmetry_multiplicity
 _atom_site_fract_x
 _atom_site_fract_y
 _atom_site_fract_z
 _atom_site_occupancy
  Li  Li0  1  0.87455627  0.74478013  0.15817250  1
  Li  Li1  1  0.49889082  0.00310682  0.00070874  1
  Li  Li2  1  0.74210811  0.87243174  0.65948213  1
  Li  Li3  1  0.25850199  0.12826851  0.33835385  1
  Li  Li4  1  0.00015904  0.50068703  0.49935224  1
  Li  Li5  1  0.12640378  0.25769952  0.84126026  1
  Mn  Mn6  1  0.63754054  0.14397873  0.14921913  1
  V  V7  1  0.85458569  0.36400911  0.35513988  1
  V  V8  1  0.14523585  0.63702830  0.64504929  1
  V  V9  1  0.36357073  0.85367313  0.85715608  1
  P  P10  1  0.24721136  0.44955669  0.03690832  1
  P  P11  1  0.95116666  0.05016429  0.75165435  1
  P  P12  1  0.54989747  0.75208922  0.46297205  1
  P  P13  1  0.45111988  0.25014900  0.53602286  1
  P  P14  1  0.05123620  0.94827117  0.25024831  1
  P  P15  1  0.75010393  0.54710463  0.96380191  1
  O  O16  1  0.81234769  0.53418331  0.11096734  1
  O  O17  1  0.89107092  0.96942538  0.20151104  1
  O  O18  1  0.68033351  0.38272232  0.02560283  1
  O  O19  1  0.93750623  0.23686208  0.58334634  1
  O  O20  1  0.38766213  0.25225774  0.07595011  1
  O  O21  1  0.74436110  0.60651298  0.42098555  1
  O  O22  1  0.54603531  0.91868270  0.27190429  1
  O  O23  1  0.97863332  0.88356324  0.70134070  1
  O  O24  1  0.23793305  0.93777905  0.08313453  1
  O  O25  1  0.61424577  0.31825856  0.47343714  1
  O  O26  1  0.91383920  0.54157846  0.77428288  1
  O  O27  1  0.46198107  0.18940845  0.38739145  1
  O  O28  1  0.53571378  0.81407432  0.61102058  1
  O  O29  1  0.08273483  0.45996399  0.22569157  1
  O  O30  1  0.38787725  0.68435627  0.52064509  1
  O  O31  1  0.76590116  0.05828539  0.92118325  1
  O  O32  1  0.02112537  0.11649691  0.29902951  1
  O  O33  1  0.45563376  0.08638286  0.72542745  1
  O  O34  1  0.25577747  0.39571248  0.57797189  1
  O  O35  1  0.60486926  0.74366263  0.92303626  1
  O  O36  1  0.06497122  0.76188488  0.41902421  1
  O  O37  1  0.31872615  0.61237577  0.97532041  1
  O  O38  1  0.11582007  0.02342421  0.79829648  1
  O  O39  1  0.18261209  0.46915100  0.88799720  1
