# generated using pymatgen
data_Li6MnV3(PO4)6
_symmetry_space_group_name_H-M   'P 1'
_cell_length_a   8.49647326
_cell_length_b   15.16889628
_cell_length_c   8.63314053
_cell_angle_alpha   74.65857429
_cell_angle_beta   61.78186122
_cell_angle_gamma   93.04077354
_symmetry_Int_Tables_number   1
_chemical_formula_structural   Li6MnV3(PO4)6
_chemical_formula_sum   'Li12 Mn2 V6 P12 O48'
_cell_volume   924.47621370
_cell_formula_units_Z   2
loop_
 _symmetry_equiv_pos_site_id
 _symmetry_equiv_pos_as_xyz
  1  'x, y, z'
loop_
 _atom_site_type_symbol
 _atom_site_label
 _atom_site_symmetry_multiplicity
 _atom_site_fract_x
 _atom_site_fract_y
 _atom_site_fract_z
 _atom_site_occupancy
  Li  Li0  1  0.50035383  0.00057128  0.00015417  1
  Li  Li1  1  0.31873162  0.06396360  0.34563042  1
  Li  Li2  1  0.82082480  0.56417366  0.34168354  1
  Li  Li3  1  0.24744543  0.37468531  0.15328974  1
  Li  Li4  1  0.74387211  0.87189009  0.15658965  1
  Li  Li5  1  0.00015691  0.50177346  0.00108307  1
  Li  Li6  1  0.25018874  0.24978158  0.50058194  1
  Li  Li7  1  0.75411909  0.74956552  0.49996782  1
  Li  Li8  1  0.25480966  0.12748371  0.84511311  1
  Li  Li9  1  0.75738931  0.62788385  0.84256476  1
  Li  Li10  1  0.18015755  0.43651738  0.65521574  1
  Li  Li11  1  0.68595612  0.93591238  0.65385847  1
  Mn  Mn12  1  0.21091593  0.57162238  0.14735861  1
  Mn  Mn13  1  0.96144282  0.81905917  0.64906641  1
  V  V14  1  0.70740834  0.07219272  0.14802674  1
  V  V15  1  0.03778376  0.18262133  0.35500466  1
  V  V16  1  0.46297895  0.31799186  0.64702291  1
  V  V17  1  0.79271281  0.42750367  0.85571387  1
  V  V18  1  0.53595531  0.68161331  0.35578912  1
  V  V19  1  0.29049843  0.92726136  0.85512479  1
  P  P20  1  0.47532591  0.22421156  0.03684121  1
  P  P21  1  0.97405527  0.02690257  0.75057241  1
  P  P22  1  0.97343018  0.72428686  0.03314112  1
  P  P23  1  0.92798089  0.37560170  0.46286894  1
  P  P24  1  0.57354116  0.12528972  0.53757465  1
  P  P25  1  0.52751948  0.47388493  0.25018962  1
  P  P26  1  0.47502906  0.52502934  0.75260557  1
  P  P27  1  0.42112649  0.87422786  0.46543996  1
  P  P28  1  0.07368687  0.62485900  0.53202356  1
  P  P29  1  0.02499892  0.27537514  0.96444775  1
  P  P30  1  0.02502180  0.97468181  0.25279974  1
  P  P31  1  0.52501159  0.77466391  0.96350377  1
  O  O32  1  0.87272214  0.19329972  0.02935703  1
  O  O33  1  0.52325042  0.12650322  0.07632916  1
  O  O34  1  0.71024593  0.46877622  0.08301406  1
  O  O35  1  0.77319792  0.16000131  0.47273182  1
  O  O36  1  0.55313252  0.09276494  0.39189749  1
  O  O37  1  0.94630439  0.40741164  0.60982840  1
  O  O38  1  0.31628631  0.22684998  0.22707221  1
  O  O39  1  0.72929301  0.34185950  0.52421293  1
  O  O40  1  0.79566807  0.03348967  0.91987556  1
  O  O41  1  0.81445987  0.72907171  0.22259478  1
  O  O42  1  0.08248653  0.05810542  0.29917100  1
  O  O43  1  0.49688446  0.04445249  0.72833525  1
  O  O44  1  0.08399608  0.26887487  0.11018277  1
  O  O45  1  0.57990718  0.55771767  0.29924021  1
  O  O46  1  0.58189373  0.76807102  0.11015778  1
  O  O47  1  0.37687448  0.48351228  0.20032317  1
  O  O48  1  0.45183514  0.19862490  0.57683196  1
  O  O49  1  0.97733635  0.37325330  0.92457725  1
  O  O50  1  0.87199620  0.98734529  0.20451137  1
  O  O51  1  0.37712480  0.69138596  0.02180172  1
  O  O52  1  0.94594932  0.69433458  0.57270305  1
  O  O53  1  0.44893414  0.38132453  0.41917279  1
  O  O54  1  0.94122694  0.88215596  0.42327123  1
  O  O55  1  0.05697752  0.12081419  0.58379410  1
  O  O56  1  0.55348077  0.61802860  0.58498336  1
  O  O57  1  0.05017312  0.30278120  0.42233849  1
  O  O58  1  0.62755969  0.30662878  0.97185758  1
  O  O59  1  0.12641041  0.01147774  0.79905649  1
  O  O60  1  0.01521129  0.62594260  0.07317526  1
  O  O61  1  0.54355352  0.80115987  0.42575865  1
  O  O62  1  0.62833127  0.51179126  0.79952647  1
  O  O63  1  0.41679953  0.23084410  0.89059031  1
  O  O64  1  0.00581998  0.45725873  0.27113925  1
  O  O65  1  0.41727647  0.44208164  0.70464524  1
  O  O66  1  0.91619170  0.73163807  0.88454504  1
  O  O67  1  0.49916479  0.95546559  0.27461436  1
  O  O68  1  0.91352584  0.94666150  0.70039076  1
  O  O69  1  0.18420662  0.27286826  0.77382907  1
  O  O70  1  0.20358947  0.96719892  0.08546840  1
  O  O71  1  0.27260583  0.66096876  0.46732116  1
  O  O72  1  0.68833922  0.77421931  0.77108430  1
  O  O73  1  0.05732562  0.59289430  0.38248559  1
  O  O74  1  0.44126098  0.90716667  0.61062661  1
  O  O75  1  0.22169159  0.83947966  0.52879815  1
  O  O76  1  0.29428847  0.52959413  0.92277471  1
  O  O77  1  0.00244212  0.54310942  0.72098308  1
  O  O78  1  0.47560394  0.87194065  0.92344310  1
  O  O79  1  0.12673517  0.80571685  0.96872764  1
