# generated using pymatgen
data_Li7V6(OF)12
_symmetry_space_group_name_H-M   'P 1'
_cell_length_a   4.94772050
_cell_length_b   7.54699138
_cell_length_c   22.18021239
_cell_angle_alpha   84.15610172
_cell_angle_beta   90.28300491
_cell_angle_gamma   90.38902487
_symmetry_Int_Tables_number   1
_chemical_formula_structural   Li7V6(OF)12
_chemical_formula_sum   'Li14 V12 O24 F24'
_cell_volume   823.88733043
_cell_formula_units_Z   2
loop_
 _symmetry_equiv_pos_site_id
 _symmetry_equiv_pos_as_xyz
  1  'x, y, z'
loop_
 _atom_site_type_symbol
 _atom_site_label
 _atom_site_symmetry_multiplicity
 _atom_site_fract_x
 _atom_site_fract_y
 _atom_site_fract_z
 _atom_site_occupancy
  Li  Li0  1  0.74401022  0.52195000  0.12280302  1
  Li  Li1  1  0.76031064  0.02901087  0.12381453  1
  Li  Li2  1  0.25389530  0.64050853  0.21203267  1
  Li  Li3  1  0.25950881  0.12820242  0.20200739  1
  Li  Li4  1  0.23621873  0.23207194  0.30640682  1
  Li  Li5  1  0.75556325  0.67956219  0.45861732  1
  Li  Li6  1  0.74248296  0.20682092  0.45595777  1
  Li  Li7  1  0.26593465  0.78980474  0.53658104  1
  Li  Li8  1  0.25768839  0.31213610  0.54445990  1
  Li  Li9  1  0.23450646  0.89538094  0.64032571  1
  Li  Li10  1  0.74630391  0.87055124  0.78331941  1
  Li  Li11  1  0.75992856  0.35795545  0.78944749  1
  Li  Li12  1  0.25278571  0.98126979  0.87276334  1
  Li  Li13  1  0.22427140  0.54135509  0.95243630  1
  V  V14  1  0.23021469  0.78413405  0.05573457  1
  V  V15  1  0.27097075  0.27938217  0.05282979  1
  V  V16  1  0.76265466  0.88388704  0.27964105  1
  V  V17  1  0.73076362  0.39015225  0.27881854  1
  V  V18  1  0.26085428  0.93801281  0.38743131  1
  V  V19  1  0.22296402  0.46046997  0.38880049  1
  V  V20  1  0.76759752  0.55048529  0.61396414  1
  V  V21  1  0.73189862  0.05790690  0.61199463  1
  V  V22  1  0.26532969  0.60378295  0.72301710  1
  V  V23  1  0.22265408  0.12700922  0.72202821  1
  V  V24  1  0.72888193  0.72939684  0.94724132  1
  V  V25  1  0.76162382  0.21252540  0.94531879  1
  O  O26  1  0.95113425  0.68855731  0.01391771  1
  O  O27  1  0.11466802  0.98765650  0.06153157  1
  O  O28  1  0.56096019  0.19029681  0.01350038  1
  O  O29  1  0.38479386  0.48508551  0.05902935  1
  O  O30  1  0.88192644  0.68061467  0.27208902  1
  O  O31  1  0.06112559  0.98391279  0.31912536  1
  O  O32  1  0.59477286  0.18528797  0.27048865  1
  O  O33  1  0.43172409  0.47792067  0.32375224  1
  O  O34  1  0.55842381  0.85192731  0.34394765  1
  O  O35  1  0.94944760  0.35608859  0.35124408  1
  O  O36  1  0.10865743  0.66659772  0.39519657  1
  O  O37  1  0.38715785  0.14131476  0.39263358  1
  O  O38  1  0.59491300  0.85335770  0.60445660  1
  O  O39  1  0.88210262  0.34603760  0.60582984  1
  O  O40  1  0.06312166  0.64789224  0.65336390  1
  O  O41  1  0.43298495  0.14637190  0.65790724  1
  O  O42  1  0.55902150  0.51951543  0.67766995  1
  O  O43  1  0.38726283  0.80935805  0.72692692  1
  O  O44  1  0.94920374  0.02094133  0.68514745  1
  O  O45  1  0.10573843  0.33217518  0.72919340  1
  O  O46  1  0.62031271  0.52282063  0.94229272  1
  O  O47  1  0.44220578  0.81071066  0.98888004  1
  O  O48  1  0.88731977  0.01108265  0.94273355  1
  O  O49  1  0.06083689  0.31448870  0.98759116  1
  F  F50  1  0.54923415  0.79238338  0.10371874  1
  F  F51  1  0.96272696  0.28608167  0.10523029  1
  F  F52  1  0.07739442  0.66971535  0.13020121  1
  F  F53  1  0.43730248  0.16808530  0.12757076  1
  F  F54  1  0.57980767  0.50376348  0.20144818  1
  F  F55  1  0.45126525  0.87557372  0.22785528  1
  F  F56  1  0.92492854  0.99552171  0.20344032  1
  F  F57  1  0.07220851  0.35463310  0.23475029  1
  F  F58  1  0.95857408  0.95894661  0.43738810  1
  F  F59  1  0.54407520  0.45956868  0.43904103  1
  F  F60  1  0.43955576  0.83318065  0.46062734  1
  F  F61  1  0.08015348  0.33962899  0.46481740  1
  F  F62  1  0.92741439  0.66256118  0.53731026  1
  F  F63  1  0.57944222  0.17065674  0.53488954  1
  F  F64  1  0.45473740  0.54488121  0.56140752  1
  F  F65  1  0.07236385  0.01956683  0.56866332  1
  F  F66  1  0.95343920  0.62873074  0.77049773  1
  F  F67  1  0.07128163  0.00533149  0.79846218  1
  F  F68  1  0.53879949  0.12152136  0.77459826  1
  F  F69  1  0.43893018  0.50027672  0.79302958  1
  F  F70  1  0.58148697  0.83380952  0.87243885  1
  F  F71  1  0.90336356  0.32535808  0.87392602  1
  F  F72  1  0.05181348  0.71936757  0.90077923  1
  F  F73  1  0.44725959  0.18833413  0.90083801  1
