# generated using pymatgen
data_Li6MnV3(PO4)6
_symmetry_space_group_name_H-M   'P 1'
_cell_length_a   8.80378644
_cell_length_b   8.78851766
_cell_length_c   14.53531617
_cell_angle_alpha   105.83255855
_cell_angle_beta   73.13402273
_cell_angle_gamma   119.27603902
_symmetry_Int_Tables_number   1
_chemical_formula_structural   Li6MnV3(PO4)6
_chemical_formula_sum   'Li12 Mn2 V6 P12 O48'
_cell_volume   927.16653003
_cell_formula_units_Z   2
loop_
 _symmetry_equiv_pos_site_id
 _symmetry_equiv_pos_as_xyz
  1  'x, y, z'
loop_
 _atom_site_type_symbol
 _atom_site_label
 _atom_site_symmetry_multiplicity
 _atom_site_fract_x
 _atom_site_fract_y
 _atom_site_fract_z
 _atom_site_occupancy
  Li  Li0  1  0.01355664  0.85500964  0.11268866  1
  Li  Li1  1  -0.00000000  0.50000000  -0.00000000  1
  Li  Li2  1  0.10450368  0.76605924  0.63733516  1
  Li  Li3  1  0.24862382  0.24829456  0.25128690  1
  Li  Li4  1  0.48631674  0.64409476  0.38842041  1
  Li  Li5  1  0.39511513  0.73630169  0.86284493  1
  Li  Li6  1  0.60488487  0.26369831  0.13715507  1
  Li  Li7  1  0.51368326  0.35590524  0.61157959  1
  Li  Li8  1  0.75137618  0.75170544  0.74871310  1
  Li  Li9  1  0.50000000  -0.00000000  0.50000000  1
  Li  Li10  1  0.89549632  0.23394076  0.36266484  1
  Li  Li11  1  0.98644336  0.14499036  0.88731134  1
  Mn  Mn12  1  0.17283586  0.32064753  0.46538382  1
  Mn  Mn13  1  0.82716414  0.67935247  0.53461618  1
  V  V14  1  0.06956505  0.42426908  0.78661246  1
  V  V15  1  0.56734130  0.92192546  0.28699142  1
  V  V16  1  0.32690572  0.18233763  0.03715620  1
  V  V17  1  0.67309428  0.81766237  0.96284380  1
  V  V18  1  0.43265870  0.07807454  0.71300858  1
  V  V19  1  0.93043495  0.57573092  0.21338754  1
  P  P20  1  0.33207730  0.86896030  0.11918180  1
  P  P21  1  0.16647868  0.63065655  0.38226018  1
  P  P22  1  0.07642732  0.82629532  0.87551232  1
  P  P23  1  0.12046577  0.08455794  0.63187181  1
  P  P24  1  0.42875627  0.67752014  0.62409734  1
  P  P25  1  0.61872450  0.58161174  0.13170792  1
  P  P26  1  0.38127550  0.41838826  0.86829208  1
  P  P27  1  0.57124373  0.32247986  0.37590266  1
  P  P28  1  0.87953423  0.91544206  0.36812819  1
  P  P29  1  0.92357268  0.17370468  0.12448768  1
  P  P30  1  0.83352132  0.36934345  0.61773982  1
  P  P31  1  0.66792270  0.13103970  0.88081820  1
  O  O32  1  0.14090196  0.71856968  0.11478806  1
  O  O33  1  0.08905940  0.61254407  0.29720709  1
  O  O34  1  0.05512071  0.66857522  0.48132687  1
  O  O35  1  0.44413558  0.83397612  0.01984122  1
  O  O36  1  0.40999936  0.88392330  0.20336277  1
  O  O37  1  0.10672989  0.18986220  0.12780175  1
  O  O38  1  0.19799876  0.89847455  0.78128699  1
  O  O39  1  0.17697083  0.45041840  0.36810565  1
  O  O40  1  0.14695746  0.94573828  0.96851875  1
  O  O41  1  0.02870538  0.10403769  0.35896294  1
  O  O42  1  0.35717665  0.77917353  0.38645149  1
  O  O43  1  0.05984917  0.64232430  0.87849852  1
  O  O44  1  0.44397534  0.86146588  0.62243982  1
  O  O45  1  0.13426254  0.16082891  0.54544261  1
  O  O46  1  0.63405651  0.65955287  0.04620271  1
  O  O47  1  0.36089582  0.56147786  0.53063014  1
  O  O48  1  0.08856209  0.20055886  0.72958746  1
  O  O49  1  0.46793855  0.39068058  0.13713619  1
  O  O50  1  0.30531905  0.60402941  0.71820433  1
  O  O51  1  0.58387170  0.69378350  0.22987035  1
  O  O52  1  0.32002016  0.04731106  0.13485858  1
  O  O53  1  0.20141853  0.42840871  0.88513690  1
  O  O54  1  0.38989515  0.31124708  0.37157506  1
  O  O55  1  0.69846212  0.92393579  0.38532373  1
  O  O56  1  0.30153788  0.07606421  0.61467627  1
  O  O57  1  0.61010485  0.68875292  0.62842494  1
  O  O58  1  0.79858147  0.57159129  0.11486310  1
  O  O59  1  0.67997984  0.95268894  0.86514142  1
  O  O60  1  0.41612830  0.30621650  0.77012965  1
  O  O61  1  0.69468095  0.39597059  0.28179567  1
  O  O62  1  0.53206145  0.60931942  0.86286381  1
  O  O63  1  0.91143791  0.79944114  0.27041254  1
  O  O64  1  0.63910418  0.43852214  0.46936986  1
  O  O65  1  0.36594449  0.34044713  0.95379729  1
  O  O66  1  0.86573746  0.83917109  0.45455739  1
  O  O67  1  0.55602466  0.13853412  0.37756018  1
  O  O68  1  0.94015083  0.35767570  0.12150148  1
  O  O69  1  0.64282335  0.22082647  0.61354851  1
  O  O70  1  0.97129462  0.89596231  0.64103706  1
  O  O71  1  0.85304254  0.05426172  0.03148125  1
  O  O72  1  0.82302917  0.54958160  0.63189435  1
  O  O73  1  0.80200124  0.10152545  0.21871301  1
  O  O74  1  0.89327011  0.81013780  0.87219825  1
  O  O75  1  0.59000064  0.11607670  0.79663723  1
  O  O76  1  0.55586442  0.16602388  0.98015878  1
  O  O77  1  0.94487929  0.33142478  0.51867313  1
  O  O78  1  0.91094060  0.38745593  0.70279291  1
  O  O79  1  0.85909804  0.28143032  0.88521194  1
