# generated using pymatgen
data_Li5Mn4(P2O7)4
_symmetry_space_group_name_H-M   'P 1'
_cell_length_a   9.80217558
_cell_length_b   9.78388571
_cell_length_c   11.27133856
_cell_angle_alpha   89.70785614
_cell_angle_beta   103.31979972
_cell_angle_gamma   90.44843294
_symmetry_Int_Tables_number   1
_chemical_formula_structural   Li5Mn4(P2O7)4
_chemical_formula_sum   'Li10 Mn8 P16 O56'
_cell_volume   1051.84250803
_cell_formula_units_Z   2
loop_
 _symmetry_equiv_pos_site_id
 _symmetry_equiv_pos_as_xyz
  1  'x, y, z'
loop_
 _atom_site_type_symbol
 _atom_site_label
 _atom_site_symmetry_multiplicity
 _atom_site_fract_x
 _atom_site_fract_y
 _atom_site_fract_z
 _atom_site_occupancy
  Li  Li0  1  0.15875271  0.42793576  0.53243744  1
  Li  Li1  1  0.08671964  0.11257524  0.02306554  1
  Li  Li2  1  0.33677743  0.92052310  0.46033241  1
  Li  Li3  1  0.62075347  0.04131029  0.50550323  1
  Li  Li4  1  0.58372605  0.41059328  0.02613119  1
  Li  Li5  1  0.85649264  0.58865472  0.95721088  1
  Li  Li6  1  0.64067913  0.09947847  0.04557911  1
  Li  Li7  1  0.91271276  0.89574742  0.96634295  1
  Li  Li8  1  0.83588968  0.59189189  0.45797523  1
  Li  Li9  1  0.88433825  0.27824622  0.54762373  1
  Mn  Mn10  1  0.19916365  0.92797042  0.67602769  1
  Mn  Mn11  1  0.26804583  0.22954054  0.83117228  1
  Mn  Mn12  1  0.23908717  0.71353261  0.17203949  1
  Mn  Mn13  1  0.30344218  0.42668521  0.32875493  1
  Mn  Mn14  1  0.70385897  0.57553954  0.67517919  1
  Mn  Mn15  1  0.75526814  0.27873498  0.82789150  1
  Mn  Mn16  1  0.73021150  0.77292534  0.16563434  1
  Mn  Mn17  1  0.80068220  0.07053894  0.32453834  1
  P  P18  1  0.02255166  0.45553423  0.75228840  1
  P  P19  1  0.12406332  0.71193656  0.88784779  1
  P  P20  1  0.06181956  0.92621445  0.23999982  1
  P  P21  1  0.12520814  0.14488815  0.43153353  1
  P  P22  1  0.38208625  0.64412091  0.57842263  1
  P  P23  1  0.42961774  0.41991922  0.75204576  1
  P  P24  1  0.51922360  0.04449058  0.75725583  1
  P  P25  1  0.38059268  0.21728595  0.11553717  1
  P  P26  1  0.60987401  0.78300896  0.89055248  1
  P  P27  1  0.47258189  0.94877251  0.24229364  1
  P  P28  1  0.57262245  0.57731134  0.24440020  1
  P  P29  1  0.62305991  0.35304436  0.42079565  1
  P  P30  1  0.87897364  0.85272059  0.58349563  1
  P  P31  1  0.93620196  0.07795835  0.75704334  1
  P  P32  1  0.88498731  0.29461866  0.11006921  1
  P  P33  1  0.98242125  0.54818963  0.24859108  1
  O  O34  1  0.01292342  0.42914856  0.61843743  1
  O  O35  1  0.03434839  0.84532519  0.57641374  1
  O  O36  1  0.08637061  0.09120696  0.73685070  1
  O  O37  1  0.09860436  0.34711559  0.83986773  1
  O  O38  1  0.10897545  0.59427779  0.78379841  1
  O  O39  1  0.18550533  0.83207104  0.82922263  1
  O  O40  1  0.22411939  0.65622979  0.00436349  1
  O  O41  1  0.02297952  0.26874784  0.08054697  1
  O  O42  1  0.11872047  0.07023753  0.30139212  1
  O  O43  1  0.06344831  0.93764853  0.10622488  1
  O  O44  1  0.13786755  0.54225493  0.22513350  1
  O  O45  1  0.18907097  0.28520741  0.41751348  1
  O  O46  1  0.17467404  0.81889820  0.30060081  1
  O  O47  1  0.21595484  0.04923487  0.52640293  1
  O  O48  1  0.29582603  0.55247255  0.47717241  1
  O  O49  1  0.31530692  0.31577586  0.68457843  1
  O  O50  1  0.32363851  0.78551947  0.58598386  1
  O  O51  1  0.36420154  0.03684932  0.77691039  1
  O  O52  1  0.37295862  0.56832992  0.70581716  1
  O  O53  1  0.42283113  0.39762566  0.88473907  1
  O  O54  1  0.47521387  0.75891672  0.92562874  1
  O  O55  1  0.27389324  0.16640006  0.99722532  1
  O  O56  1  0.31820989  0.33181037  0.17710344  1
  O  O57  1  0.39187922  0.09140494  0.20921835  1
  O  O58  1  0.42579412  0.59009818  0.26809131  1
  O  O59  1  0.38313846  0.84247343  0.15877883  1
  O  O60  1  0.52600498  0.07754412  0.62920678  1
  O  O61  1  0.46884945  0.34629755  0.42771532  1
  O  O62  1  0.53864515  0.65218182  0.57559232  1
  O  O63  1  0.48648461  0.93497061  0.37755817  1
  O  O64  1  0.60089456  0.13749948  0.85970347  1
  O  O65  1  0.57740153  0.40903922  0.72793193  1
  O  O66  1  0.59183847  0.89582048  0.78302172  1
  O  O67  1  0.68268428  0.66343160  0.84032540  1
  O  O68  1  0.72593450  0.84739336  0.00144326  1
  O  O69  1  0.52332964  0.24214712  0.09124058  1
  O  O70  1  0.58904485  0.58618887  0.11377334  1
  O  O71  1  0.63022733  0.42891505  0.29405128  1
  O  O72  1  0.61693933  0.95732163  0.20343944  1
  O  O73  1  0.68291610  0.21054524  0.41430883  1
  O  O74  1  0.68134760  0.68546009  0.31267487  1
  O  O75  1  0.71848071  0.43933006  0.52057089  1
  O  O76  1  0.78760568  0.93505346  0.48163903  1
  O  O77  1  0.83661649  0.18607577  0.68591633  1
  O  O78  1  0.82568284  0.70653100  0.59768616  1
  O  O79  1  0.87046718  0.47561158  0.77828296  1
  O  O80  1  0.92460869  0.07695103  0.88939160  1
  O  O81  1  0.87626983  0.92845891  0.70974531  1
  O  O82  1  0.97871796  0.73202815  0.91002115  1
  O  O83  1  0.78019580  0.37096433  0.00385018  1
  O  O84  1  0.81092498  0.17242604  0.15525049  1
  O  O85  1  0.91438734  0.39885813  0.22609784  1
  O  O86  1  0.89682875  0.64182737  0.14769657  1
  O  O87  1  0.91527937  0.90163523  0.26509497  1
  O  O88  1  0.97494448  0.15952789  0.44662724  1
  O  O89  1  0.98347957  0.57902371  0.37852077  1
