# generated using pymatgen
data_Li3MnV(PO4)3
_symmetry_space_group_name_H-M   'P 1'
_cell_length_a   8.67394897
_cell_length_b   8.65645653
_cell_length_c   15.12546281
_cell_angle_alpha   105.53075593
_cell_angle_beta   90.58636572
_cell_angle_gamma   61.27239150
_symmetry_Int_Tables_number   1
_chemical_formula_structural   Li3MnV(PO4)3
_chemical_formula_sum   'Li12 Mn4 V4 P12 O48'
_cell_volume   950.07415911
_cell_formula_units_Z   4
loop_
 _symmetry_equiv_pos_site_id
 _symmetry_equiv_pos_as_xyz
  1  'x, y, z'
loop_
 _atom_site_type_symbol
 _atom_site_label
 _atom_site_symmetry_multiplicity
 _atom_site_fract_x
 _atom_site_fract_y
 _atom_site_fract_z
 _atom_site_occupancy
  Li  Li0  1  0.29772446  0.75510667  0.31555170  1
  Li  Li1  1  0.18461250  0.70960856  0.55217767  1
  Li  Li2  1  0.68850535  0.71705713  0.05164891  1
  Li  Li3  1  0.17303436  0.25099518  0.18522024  1
  Li  Li4  1  0.21219736  0.67984319  0.83074963  1
  Li  Li5  1  0.70937702  0.67883490  0.32772239  1
  Li  Li6  1  0.25848535  0.22260134  0.63399739  1
  Li  Li7  1  0.77197657  0.21631244  0.13312498  1
  Li  Li8  1  0.81885264  0.74446964  0.81660137  1
  Li  Li9  1  0.67977771  0.25018797  0.68974474  1
  Li  Li10  1  0.35806484  0.18102138  0.97862366  1
  Li  Li11  1  0.86599939  0.17605734  0.47969137  1
  Mn  Mn12  1  0.28516410  0.85917707  0.07357707  1
  Mn  Mn13  1  0.03111780  0.35551564  0.81959426  1
  Mn  Mn14  1  0.78154069  0.85609945  0.57241963  1
  Mn  Mn15  1  0.22475878  0.13677414  0.42390125  1
  V  V16  1  0.46881874  0.64374029  0.68153461  1
  V  V17  1  0.53322364  0.35397424  0.31972664  1
  V  V18  1  0.97632618  0.63924757  0.17971071  1
  V  V19  1  0.71356004  0.14020715  0.92330496  1
  P  P20  1  0.00805233  0.95028031  0.73353352  1
  P  P21  1  0.51548207  0.94871695  0.23341509  1
  P  P22  1  0.02058546  0.25569451  0.02155946  1
  P  P23  1  0.10271298  0.53178688  0.37500071  1
  P  P24  1  0.40503767  0.45425458  0.12327889  1
  P  P25  1  0.47745840  0.75428387  0.47646685  1
  P  P26  1  0.52044391  0.25544361  0.52465695  1
  P  P27  1  0.60320466  0.53887029  0.87570801  1
  P  P28  1  0.89896526  0.45682241  0.62723717  1
  P  P29  1  0.97931842  0.75855398  0.97927728  1
  P  P30  1  0.48105512  0.04497575  0.76430865  1
  P  P31  1  0.98881331  0.04120994  0.26524953  1
  O  O32  1  0.02759466  0.83962508  0.24148088  1
  O  O33  1  0.45994175  0.91762022  0.13356249  1
  O  O34  1  0.40834736  0.92390065  0.30367733  1
  O  O35  1  0.01685932  0.67085771  0.47092227  1
  O  O36  1  0.29623738  0.92043018  0.46892463  1
  O  O37  1  0.35604368  0.64898970  0.12364976  1
  O  O38  1  0.23717160  0.44195568  0.14585708  1
  O  O39  1  0.27035994  0.54205820  0.34907588  1
  O  O40  1  0.20124066  0.79178347  0.72660451  1
  O  O41  1  0.71047870  0.79190190  0.22348110  1
  O  O42  1  0.20454122  0.10297234  0.03660615  1
  O  O43  1  0.15518551  0.33094453  0.36957444  1
  O  O44  1  0.09973846  0.06110104  0.19439942  1
  O  O45  1  0.00585259  0.29620654  0.53920858  1
  O  O46  1  0.12653942  0.81284469  0.99613188  1
  O  O47  1  0.42886900  0.69751366  0.55546886  1
  O  O48  1  0.50564075  0.29950371  0.03136548  1
  O  O49  1  0.02191260  0.42712064  0.70567504  1
  O  O50  1  0.04935591  0.61226865  0.88229206  1
  O  O51  1  0.62631583  0.80554012  0.49134949  1
  O  O52  1  0.93802917  0.69174402  0.05594911  1
  O  O53  1  0.03627691  0.08156399  0.36586112  1
  O  O54  1  0.53084564  0.41132129  0.19853885  1
  O  O55  1  0.54700903  0.60105922  0.38081376  1
  O  O56  1  0.51628983  0.84536001  0.73971891  1
  O  O57  1  0.49069458  0.14285330  0.26105721  1
  O  O58  1  0.44127248  0.41854051  0.61579937  1
  O  O59  1  0.94171109  0.41811464  0.11316975  1
  O  O60  1  0.95700330  0.90661501  0.63317083  1
  O  O61  1  0.47015723  0.58990992  0.80428463  1
  O  O62  1  0.07209595  0.30506574  0.93951418  1
  O  O63  1  0.37907600  0.19375959  0.50989470  1
  O  O64  1  0.97335925  0.57506305  0.30122384  1
  O  O65  1  0.56686602  0.30770687  0.44306888  1
  O  O66  1  0.88056513  0.19394120  0.00544101  1
  O  O67  1  0.89507564  0.93749983  0.80728822  1
  O  O68  1  0.51933198  0.67733642  0.97208625  1
  O  O69  1  0.79686908  0.92349360  0.97515538  1
  O  O70  1  0.84993145  0.65010411  0.62427799  1
  O  O71  1  0.28566412  0.18727206  0.76151361  1
  O  O72  1  0.79352725  0.18092119  0.26331718  1
  O  O73  1  0.73063041  0.44719129  0.65099233  1
  O  O74  1  0.77360384  0.54748644  0.85132175  1
  O  O75  1  0.70489407  0.10049659  0.53779198  1
  O  O76  1  0.65512933  0.33850380  0.86766862  1
  O  O77  1  0.59377145  0.06337010  0.69394926  1
  O  O78  1  0.52638031  0.08683923  0.86495009  1
  O  O79  1  0.98446597  0.14182788  0.75355853  1
