# generated using pymatgen
data_Li4V3P8O29
_symmetry_space_group_name_H-M   'P 1'
_cell_length_a   9.79711759
_cell_length_b   9.81862404
_cell_length_c   14.13674115
_cell_angle_alpha   90.22155129
_cell_angle_beta   90.14820463
_cell_angle_gamma   59.72760128
_symmetry_Int_Tables_number   1
_chemical_formula_structural   Li4V3P8O29
_chemical_formula_sum   'Li8 V6 P16 O58'
_cell_volume   1174.42932213
_cell_formula_units_Z   2
loop_
 _symmetry_equiv_pos_site_id
 _symmetry_equiv_pos_as_xyz
  1  'x, y, z'
loop_
 _atom_site_type_symbol
 _atom_site_label
 _atom_site_symmetry_multiplicity
 _atom_site_fract_x
 _atom_site_fract_y
 _atom_site_fract_z
 _atom_site_occupancy
  Li  Li0  1  0.77285050  0.90413497  0.55447757  1
  Li  Li1  1  0.91763011  0.30638035  0.55584028  1
  Li  Li2  1  0.77120728  0.31243882  0.06181385  1
  Li  Li3  1  0.32497489  0.90377226  0.06484484  1
  Li  Li4  1  0.68050560  0.22705920  0.43677324  1
  Li  Li5  1  0.30998818  0.77663535  0.55505894  1
  Li  Li6  1  0.22225512  0.68472370  0.94661437  1
  Li  Li7  1  0.08950245  0.22937230  0.94495347  1
  V  V8  1  0.56856378  0.43106898  0.24911265  1
  V  V9  1  0.43158628  0.56810147  0.75151495  1
  V  V10  1  0.56746774  0.00144137  0.75349074  1
  V  V11  1  0.43271815  0.00487550  0.25239584  1
  V  V12  1  0.99697196  0.57199375  0.24912704  1
  V  V13  1  0.99827482  0.43877915  0.74800152  1
  P  P14  1  0.91426929  0.77183061  0.84239752  1
  P  P15  1  0.77080925  0.91309007  0.33933283  1
  P  P16  1  0.91366500  0.31918670  0.34252931  1
  P  P17  1  0.66651308  0.66536035  0.12826390  1
  P  P18  1  0.66467946  0.67007058  0.62924881  1
  P  P19  1  0.77064582  0.32006122  0.84113243  1
  P  P20  1  0.67993549  0.23026443  0.66005970  1
  P  P21  1  0.31790860  0.91512099  0.84403867  1
  P  P22  1  0.68651485  0.08260513  0.15518734  1
  P  P23  1  0.32122183  0.77022905  0.34034301  1
  P  P24  1  0.22949492  0.68054701  0.16109213  1
  P  P25  1  0.33199777  0.33555462  0.37061629  1
  P  P26  1  0.32999959  0.33396153  0.86990695  1
  P  P27  1  0.08488811  0.68667347  0.65804771  1
  P  P28  1  0.22984782  0.08655314  0.66073624  1
  P  P29  1  0.08734182  0.23192858  0.16019486  1
  O  O30  1  0.99377944  0.76647067  0.57223459  1
  O  O31  1  0.91524337  0.74507639  0.33530739  1
  O  O32  1  0.76821225  0.99364897  0.06995289  1
  O  O33  1  0.74391124  0.91414336  0.83441839  1
  O  O34  1  0.90576998  0.61873115  0.82143290  1
  O  O35  1  0.81478194  0.66526011  0.17560805  1
  O  O36  1  0.90422359  0.47854606  0.32191272  1
  O  O37  1  0.99965018  0.23943392  0.07100529  1
  O  O38  1  0.91925299  0.33974821  0.83480327  1
  O  O39  1  0.67028413  0.81690270  0.67182735  1
  O  O40  1  0.61871555  0.90304051  0.32226881  1
  O  O41  1  0.81548191  0.51572062  0.67288666  1
  O  O42  1  0.66952272  0.66381657  0.02295987  1
  O  O43  1  0.67946876  0.66465275  0.52447984  1
  O  O44  1  0.67471090  0.51128270  0.16729596  1
  O  O45  1  0.47993813  0.90234796  0.82263450  1
  O  O46  1  0.51461935  0.81633096  0.16772298  1
  O  O47  1  0.74703803  0.33631506  0.33842005  1
  O  O48  1  0.79075017  0.21026416  0.75062951  1
  O  O49  1  0.75972453  0.23632640  0.57086912  1
  O  O50  1  0.76560111  0.24886019  0.93198331  1
  O  O51  1  0.61812299  0.48133637  0.82078734  1
  O  O52  1  0.51365477  0.67423151  0.66709680  1
  O  O53  1  0.66097219  0.25303660  0.16048285  1
  O  O54  1  0.48137690  0.61900952  0.32189782  1
  O  O55  1  0.34308992  0.91601795  0.32845437  1
  O  O56  1  0.78848906  0.00582515  0.25277741  1
  O  O57  1  0.75788621  0.99821649  0.43038136  1
  O  O58  1  0.23372458  0.99369070  0.57745001  1
  O  O59  1  0.66562777  0.07887660  0.66295267  1
  O  O60  1  0.51855616  0.37624050  0.67836409  1
  O  O61  1  0.33298927  0.75097981  0.84158731  1
  O  O62  1  0.48679673  0.32774838  0.33350673  1
  O  O63  1  0.37916452  0.51947771  0.17531831  1
  O  O64  1  0.23672516  0.76091388  0.07227994  1
  O  O65  1  0.24612615  0.76998418  0.43091250  1
  O  O66  1  0.20863408  0.79037293  0.25105659  1
  O  O67  1  0.25404293  0.66275387  0.66183151  1
  O  O68  1  0.47982438  0.18550682  0.82390940  1
  O  O69  1  0.52522100  0.09207833  0.17782372  1
  O  O70  1  0.32666237  0.48664091  0.83451885  1
  O  O71  1  0.32511572  0.32381400  0.97437213  1
  O  O72  1  0.33049511  0.32778726  0.47536099  1
  O  O73  1  0.18383391  0.47980721  0.32452959  1
  O  O74  1  0.38335017  0.09280833  0.67799973  1
  O  O75  1  0.33388766  0.18467171  0.32364993  1
  O  O76  1  0.08242207  0.66080720  0.16591120  1
  O  O77  1  0.00111966  0.79134646  0.75091438  1
  O  O78  1  0.00353506  0.76047840  0.92876629  1
  O  O79  1  0.09575737  0.52419601  0.67761652  1
  O  O80  1  0.18214517  0.33005859  0.82533808  1
  O  O81  1  0.09573358  0.38280298  0.17595518  1
  O  O82  1  0.25520138  0.08388495  0.15949405  1
  O  O83  1  0.24734796  0.00150958  0.93483428  1
  O  O84  1  0.20469832  0.01147282  0.75729048  1
  O  O85  1  0.08346539  0.25693181  0.66118738  1
  O  O86  1  0.99556070  0.24472072  0.43231814  1
  O  O87  1  0.00265477  0.20943271  0.25105463  1
