# generated using pymatgen
data_Li3Ni7O12
_symmetry_space_group_name_H-M   'P 1'
_cell_length_a   4.99812713
_cell_length_b   4.98017965
_cell_length_c   28.64871161
_cell_angle_alpha   90.16986241
_cell_angle_beta   90.23054402
_cell_angle_gamma   59.82229131
_symmetry_Int_Tables_number   1
_chemical_formula_structural   Li3Ni7O12
_chemical_formula_sum   'Li9 Ni21 O36'
_cell_volume   616.45840356
_cell_formula_units_Z   3
loop_
 _symmetry_equiv_pos_site_id
 _symmetry_equiv_pos_as_xyz
  1  'x, y, z'
loop_
 _atom_site_type_symbol
 _atom_site_label
 _atom_site_symmetry_multiplicity
 _atom_site_fract_x
 _atom_site_fract_y
 _atom_site_fract_z
 _atom_site_occupancy
  Li  Li0  1  0.83341738  0.83459622  0.00151782  1
  Li  Li1  1  0.84029486  0.81993723  0.49892077  1
  Li  Li2  1  0.83298588  0.50192736  0.33453294  1
  Li  Li3  1  0.83318883  0.49320191  0.83221650  1
  Li  Li4  1  0.82914828  0.16580273  0.16583356  1
  Li  Li5  1  0.16600031  0.83141045  0.08362912  1
  Li  Li6  1  0.16298990  0.50386749  0.66790228  1
  Li  Li7  1  0.16688670  0.49980035  0.41666905  1
  Li  Li8  1  0.16182377  0.16101460  0.74997518  1
  Ni  Ni9  1  0.84133343  0.83358681  0.75029937  1
  Ni  Ni10  1  0.83303386  0.83565052  0.24988042  1
  Ni  Ni11  1  0.84227269  0.49465525  0.08306815  1
  Ni  Ni12  1  0.82929434  0.49782306  0.58349243  1
  Ni  Ni13  1  0.84369351  0.16101608  0.41666238  1
  Ni  Ni14  1  0.83310908  0.16731407  0.91662794  1
  Ni  Ni15  1  0.49053353  0.83758721  0.91669064  1
  Ni  Ni16  1  0.49278853  0.83712435  0.41668854  1
  Ni  Ni17  1  0.48751791  0.84379013  0.66867669  1
  Ni  Ni18  1  0.49352379  0.83032648  0.16485300  1
  Ni  Ni19  1  0.49059402  0.50490017  0.25002687  1
  Ni  Ni20  1  0.50105198  0.49781423  0.75025154  1
  Ni  Ni21  1  0.49169141  0.51127102  0.00161960  1
  Ni  Ni22  1  0.49186998  0.50135692  0.49800883  1
  Ni  Ni23  1  0.49696530  0.16874674  0.58317606  1
  Ni  Ni24  1  0.49033552  0.17093560  0.08300542  1
  Ni  Ni25  1  0.49285702  0.17885447  0.33510423  1
  Ni  Ni26  1  0.16251181  0.84138249  0.58325885  1
  Ni  Ni27  1  0.49534216  0.16162829  0.83177473  1
  Ni  Ni28  1  0.16226853  0.50226974  0.91653255  1
  Ni  Ni29  1  0.16237856  0.17002844  0.24997274  1
  O  O30  1  0.80367664  0.82787574  0.62014635  1
  O  O31  1  0.79710334  0.83760360  0.11944161  1
  O  O32  1  0.80485916  0.82714040  0.87954884  1
  O  O33  1  0.79739248  0.86329950  0.38023048  1
  O  O34  1  0.79535221  0.53551408  0.95490292  1
  O  O35  1  0.79777820  0.50315157  0.45322097  1
  O  O36  1  0.80011696  0.49846916  0.21251952  1
  O  O37  1  0.80747797  0.53743104  0.71362209  1
  O  O38  1  0.53813563  0.80478343  0.04539403  1
  O  O39  1  0.54124869  0.82052736  0.78761566  1
  O  O40  1  0.53008309  0.79809916  0.54361374  1
  O  O41  1  0.51510730  0.85574083  0.28858643  1
  O  O42  1  0.79853583  0.20254151  0.28808672  1
  O  O43  1  0.80298220  0.17071193  0.78719870  1
  O  O44  1  0.81796845  0.16979448  0.54852240  1
  O  O45  1  0.79590766  0.19649290  0.04668057  1
  O  O46  1  0.53897659  0.47493774  0.37922909  1
  O  O47  1  0.54116832  0.48786742  0.12102538  1
  O  O48  1  0.52064833  0.46270652  0.87713816  1
  O  O49  1  0.46086315  0.54160470  0.62276577  1
  O  O50  1  0.16830121  0.82286515  0.95210011  1
  O  O51  1  0.17626643  0.83854506  0.45265786  1
  O  O52  1  0.52780500  0.14750391  0.71285944  1
  O  O53  1  0.16911997  0.84362638  0.21437748  1
  O  O54  1  0.54309448  0.15075304  0.45465085  1
  O  O55  1  0.51460626  0.13318066  0.21032277  1
  O  O56  1  0.18364781  0.80120595  0.71354604  1
  O  O57  1  0.50631404  0.19264398  0.95532576  1
  O  O58  1  0.17165336  0.48784635  0.28560512  1
  O  O59  1  0.17966505  0.50593016  0.78597373  1
  O  O60  1  0.18847454  0.50902143  0.54576885  1
  O  O61  1  0.17307591  0.48775601  0.04704670  1
  O  O62  1  0.17768491  0.16897251  0.61883885  1
  O  O63  1  0.17544514  0.17108567  0.11903245  1
  O  O64  1  0.17374450  0.17438003  0.88070530  1
  O  O65  1  0.17582330  0.15365123  0.38053109  1
