# generated using pymatgen
data_Li6MnV3(PO4)6
_symmetry_space_group_name_H-M   'P 1'
_cell_length_a   8.64378527
_cell_length_b   8.64378509
_cell_length_c   12.70958761
_cell_angle_alpha   74.00260894
_cell_angle_beta   105.99738667
_cell_angle_gamma   85.29351734
_symmetry_Int_Tables_number   1
_chemical_formula_structural   Li6MnV3(PO4)6
_chemical_formula_sum   'Li12 Mn2 V6 P12 O48'
_cell_volume   864.55073564
_cell_formula_units_Z   2
loop_
 _symmetry_equiv_pos_site_id
 _symmetry_equiv_pos_as_xyz
  1  'x, y, z'
loop_
 _atom_site_type_symbol
 _atom_site_label
 _atom_site_symmetry_multiplicity
 _atom_site_fract_x
 _atom_site_fract_y
 _atom_site_fract_z
 _atom_site_occupancy
  Li  Li0  1  0.99874773  0.99874773  0.87500000  1
  Li  Li1  1  0.00417120  0.00417120  0.37500000  1
  Li  Li2  1  0.28738719  0.29050487  0.62370145  1
  Li  Li3  1  0.50010089  0.50038762  0.74808716  1
  Li  Li4  1  0.29050487  0.28738719  0.12629855  1
  Li  Li5  1  0.50082969  0.49907936  0.49955753  1
  Li  Li6  1  0.71303542  0.71303542  0.87500000  1
  Li  Li7  1  0.49907936  0.50082969  0.25044247  1
  Li  Li8  1  0.50038762  0.50010089  0.00191284  1
  Li  Li9  1  0.71201412  0.71201412  0.37500000  1
  Li  Li10  1  0.99279107  0.00040333  0.62492842  1
  Li  Li11  1  0.00040333  0.99279107  0.12507158  1
  Mn  Mn12  1  0.37423711  0.94312066  0.06546670  1
  Mn  Mn13  1  0.94312066  0.37423711  0.68453330  1
  V  V14  1  0.05749547  0.62194778  0.82022416  1
  V  V15  1  0.05633912  0.62085263  0.32096151  1
  V  V16  1  0.38029095  0.94229327  0.56925212  1
  V  V17  1  0.62194778  0.05749547  0.92977584  1
  V  V18  1  0.62085263  0.05633912  0.42903849  1
  V  V19  1  0.94229327  0.38029095  0.18074788  1
  P  P20  1  0.28700359  0.28700359  0.87500000  1
  P  P21  1  0.13879820  0.66574349  0.56792609  1
  P  P22  1  0.33804131  0.86275016  0.81920674  1
  P  P23  1  0.28756730  0.28756730  0.37500000  1
  P  P24  1  0.13072284  0.66217222  0.06756521  1
  P  P25  1  0.33919374  0.86230704  0.31608511  1
  P  P26  1  0.66217222  0.13072284  0.68243479  1
  P  P27  1  0.86275016  0.33804131  0.93079326  1
  P  P28  1  0.71561474  0.71114004  0.62503866  1
  P  P29  1  0.66574349  0.13879820  0.18207391  1
  P  P30  1  0.86230704  0.33919374  0.43391489  1
  P  P31  1  0.71114004  0.71561474  0.12496134  1
  O  O32  1  0.00706955  0.65622313  0.95395868  1
  O  O33  1  0.05545527  0.61437891  0.66409850  1
  O  O34  1  0.26338271  0.17097494  0.98542522  1
  O  O35  1  0.01207952  0.66123820  0.45508080  1
  O  O36  1  0.17097494  0.26338271  0.76457478  1
  O  O37  1  0.15578499  0.84372303  0.80690980  1
  O  O38  1  0.26380951  0.46051991  0.88704497  1
  O  O39  1  0.15961393  0.84952154  0.54797749  1
  O  O40  1  0.04663608  0.59851855  0.16365695  1
  O  O41  1  0.26159490  0.17305188  0.48404900  1
  O  O42  1  0.17305188  0.26159490  0.26595100  1
  O  O43  1  0.15632161  0.84282762  0.30210346  1
  O  O44  1  0.29631383  0.54551537  0.60167330  1
  O  O45  1  0.39999603  0.95157584  0.91377425  1
  O  O46  1  0.33764462  0.98693170  0.70442397  1
  O  O47  1  0.46051991  0.26380951  0.86295503  1
  O  O48  1  0.26404233  0.46327178  0.38420953  1
  O  O49  1  0.45535477  0.70384059  0.85332636  1
  O  O50  1  0.14173332  0.84621423  0.05136326  1
  O  O51  1  0.29259659  0.54874936  0.10126993  1
  O  O52  1  0.39868244  0.95162012  0.40965812  1
  O  O53  1  0.54874936  0.29259659  0.64873007  1
  O  O54  1  0.33740978  0.98642980  0.19974493  1
  O  O55  1  0.46327178  0.26404233  0.36579047  1
  O  O56  1  0.53831833  0.73302228  0.63194828  1
  O  O57  1  0.65622313  0.00706955  0.79604132  1
  O  O58  1  0.45696911  0.70356476  0.35100366  1
  O  O59  1  0.59851855  0.04663608  0.58634305  1
  O  O60  1  0.70384059  0.45535477  0.89667364  1
  O  O61  1  0.84372303  0.15578499  0.94309020  1
  O  O62  1  0.54551537  0.29631383  0.14832670  1
  O  O63  1  0.74212586  0.53517748  0.61579062  1
  O  O64  1  0.53517748  0.74212586  0.13420938  1
  O  O65  1  0.66123820  0.01207952  0.29491920  1
  O  O66  1  0.61437891  0.05545527  0.08590150  1
  O  O67  1  0.70356476  0.45696911  0.39899634  1
  O  O68  1  0.84621423  0.14173332  0.69863674  1
  O  O69  1  0.82627630  0.73934904  0.73432102  1
  O  O70  1  0.74100922  0.82644917  0.51604466  1
  O  O71  1  0.95157584  0.39999603  0.83622575  1
  O  O72  1  0.84282762  0.15632161  0.44789654  1
  O  O73  1  0.73302228  0.53831833  0.11805172  1
  O  O74  1  0.84952154  0.15961393  0.20202251  1
  O  O75  1  0.82644917  0.74100922  0.23395534  1
  O  O76  1  0.98642980  0.33740978  0.55025507  1
  O  O77  1  0.73934904  0.82627630  0.01567898  1
  O  O78  1  0.95162012  0.39868244  0.34034188  1
  O  O79  1  0.98693170  0.33764462  0.04557603  1
