# generated using pymatgen
data_Li3V5(PO4)6
_symmetry_space_group_name_H-M   'P 1'
_cell_length_a   6.45779014
_cell_length_b   15.85182602
_cell_length_c   10.87414134
_cell_angle_alpha   89.71686287
_cell_angle_beta   91.39016325
_cell_angle_gamma   101.75295882
_symmetry_Int_Tables_number   1
_chemical_formula_structural   Li3V5(PO4)6
_chemical_formula_sum   'Li6 V10 P12 O48'
_cell_volume   1089.50330231
_cell_formula_units_Z   2
loop_
 _symmetry_equiv_pos_site_id
 _symmetry_equiv_pos_as_xyz
  1  'x, y, z'
loop_
 _atom_site_type_symbol
 _atom_site_label
 _atom_site_symmetry_multiplicity
 _atom_site_fract_x
 _atom_site_fract_y
 _atom_site_fract_z
 _atom_site_occupancy
  Li  Li0  1  0.19807624  0.73968859  0.42500279  1
  Li  Li1  1  0.02927594  0.05855187  0.25000000  1
  Li  Li2  1  0.54161236  0.73968859  0.07499721  1
  Li  Li3  1  0.45838764  0.26031141  0.92500279  1
  Li  Li4  1  0.97072406  0.94144813  0.75000000  1
  Li  Li5  1  0.80192376  0.26031141  0.57499721  1
  V  V6  1  0.20553895  0.89916523  0.07630725  1
  V  V7  1  0.00000000  0.50000000  0.00000000  1
  V  V8  1  0.19238831  0.38477561  0.75000000  1
  V  V9  1  0.18795003  0.37590105  0.25000000  1
  V  V10  1  0.30637372  0.10083477  0.57630725  1
  V  V11  1  0.50000000  0.50000000  0.50000000  1
  V  V12  1  0.69362628  0.89916523  0.42369275  1
  V  V13  1  0.81204997  0.62409895  0.75000000  1
  V  V14  1  0.80761169  0.61522439  0.25000000  1
  V  V15  1  0.79446105  0.10083477  0.92369275  1
  P  P16  1  0.20512339  0.94083008  0.37443641  1
  P  P17  1  0.00874021  0.29591078  0.99755389  1
  P  P18  1  0.28122488  0.56244976  0.75000000  1
  P  P19  1  0.28057906  0.56115712  0.25000000  1
  P  P20  1  0.28717057  0.29591078  0.50244611  1
  P  P21  1  0.26429231  0.05916992  0.87443641  1
  P  P22  1  0.73570769  0.94083008  0.12556359  1
  P  P23  1  0.71282943  0.70408922  0.49755389  1
  P  P24  1  0.71942094  0.43884288  0.75000000  1
  P  P25  1  0.71877512  0.43755024  0.25000000  1
  P  P26  1  0.99125979  0.70408922  0.00244611  1
  P  P27  1  0.79487661  0.05916992  0.62556359  1
  O  O28  1  0.00208676  0.88494309  0.42260035  1
  O  O29  1  0.19689753  0.95966514  0.23276018  1
  O  O30  1  0.20520732  0.96537193  0.92513133  1
  O  O31  1  0.18014976  0.77964903  0.03509678  1
  O  O32  1  0.09521472  0.62497720  0.99958744  1
  O  O33  1  0.11624152  0.61675182  0.72258034  1
  O  O34  1  0.12585393  0.62041436  0.27499262  1
  O  O35  1  0.37995318  0.89148069  0.40682492  1
  O  O36  1  0.21124989  0.49457988  0.85725043  1
  O  O37  1  0.21044675  0.49383033  0.14204847  1
  O  O38  1  0.11353818  0.28191493  0.12212645  1
  O  O39  1  0.17773296  0.30420041  0.89539939  1
  O  O40  1  0.12646745  0.30420041  0.60460061  1
  O  O41  1  0.16837575  0.28191493  0.37787355  1
  O  O42  1  0.28332999  0.49457988  0.64274957  1
  O  O43  1  0.28338358  0.49383033  0.35795153  1
  O  O44  1  0.51152851  0.89148069  0.09317508  1
  O  O45  1  0.11714367  0.11505691  0.92260035  1
  O  O46  1  0.50051030  0.61675182  0.77741966  1
  O  O47  1  0.49456143  0.62041436  0.22500738  1
  O  O48  1  0.52976148  0.62497720  0.50041256  1
  O  O49  1  0.23723239  0.04033486  0.73276018  1
  O  O50  1  0.59949927  0.77964903  0.46490322  1
  O  O51  1  0.23983540  0.03462807  0.42513133  1
  O  O52  1  0.76016460  0.96537193  0.57486867  1
  O  O53  1  0.40050073  0.22035097  0.53509678  1
  O  O54  1  0.76276761  0.95966514  0.26723982  1
  O  O55  1  0.47023852  0.37502280  0.49958744  1
  O  O56  1  0.50543857  0.37958564  0.77499262  1
  O  O57  1  0.49948970  0.38324818  0.22258034  1
  O  O58  1  0.88285633  0.88494309  0.07739965  1
  O  O59  1  0.48847149  0.10851931  0.90682492  1
  O  O60  1  0.71661642  0.50616967  0.64204847  1
  O  O61  1  0.71667001  0.50542012  0.35725043  1
  O  O62  1  0.83162425  0.71808507  0.62212645  1
  O  O63  1  0.87353255  0.69579959  0.39539939  1
  O  O64  1  0.82226704  0.69579959  0.10460061  1
  O  O65  1  0.88646182  0.71808507  0.87787355  1
  O  O66  1  0.78955325  0.50616967  0.85795153  1
  O  O67  1  0.78875011  0.50542012  0.14274957  1
  O  O68  1  0.62004682  0.10851931  0.59317508  1
  O  O69  1  0.87414607  0.37958564  0.72500738  1
  O  O70  1  0.88375848  0.38324818  0.27741966  1
  O  O71  1  0.90478528  0.37502280  0.00041256  1
  O  O72  1  0.81985024  0.22035097  0.96490322  1
  O  O73  1  0.79479268  0.03462807  0.07486867  1
  O  O74  1  0.80310247  0.04033486  0.76723982  1
  O  O75  1  -0.00208676  0.11505691  0.57739965  1
