# generated using pymatgen
data_Li5Mn3Cu(PO4)4
_symmetry_space_group_name_H-M   'P 1'
_cell_length_a   4.87203180
_cell_length_b   6.26808474
_cell_length_c   10.57843295
_cell_angle_alpha   87.61643689
_cell_angle_beta   91.08961974
_cell_angle_gamma   89.74872915
_symmetry_Int_Tables_number   1
_chemical_formula_structural   Li5Mn3Cu(PO4)4
_chemical_formula_sum   'Li5 Mn3 Cu1 P4 O16'
_cell_volume   322.70524769
_cell_formula_units_Z   1
loop_
 _symmetry_equiv_pos_site_id
 _symmetry_equiv_pos_as_xyz
  1  'x, y, z'
loop_
 _atom_site_type_symbol
 _atom_site_label
 _atom_site_symmetry_multiplicity
 _atom_site_fract_x
 _atom_site_fract_y
 _atom_site_fract_z
 _atom_site_occupancy
  Li  Li0  1  0.01431483  0.51412241  0.02054195  1
  Li  Li1  1  0.00680936  0.99098785  0.01200234  1
  Li  Li2  1  0.39409007  0.47531971  0.61589279  1
  Li  Li3  1  0.47344524  0.98081425  0.50333966  1
  Li  Li4  1  0.62827702  0.55377363  0.35702224  1
  Mn  Mn5  1  0.47169929  0.76641078  0.79671884  1
  Mn  Mn6  1  0.94466750  0.23279767  0.72301125  1
  Mn  Mn7  1  0.52270838  0.22467764  0.21188634  1
  Cu  Cu8  1  0.10570103  0.76801743  0.29159889  1
  P  P9  1  0.10168103  0.25962901  0.40671036  1
  P  P10  1  0.40255153  0.25151077  0.90276015  1
  P  P11  1  0.58866367  0.74442129  0.09326096  1
  P  P12  1  0.89162110  0.74774887  0.59706971  1
  O  O13  1  0.19619241  0.24316868  0.54951325  1
  O  O14  1  0.23717715  0.06273355  0.34339782  1
  O  O15  1  0.23960869  0.45836703  0.34032166  1
  O  O16  1  0.20820011  0.75109456  0.61014496  1
  O  O17  1  0.27296192  0.75301010  0.08077281  1
  O  O18  1  0.26431077  0.05376938  0.84015397  1
  O  O19  1  0.28937002  0.44667472  0.81895277  1
  O  O20  1  0.27949351  0.26210726  0.03707567  1
  O  O21  1  0.72508943  0.73644409  0.96002413  1
  O  O22  1  0.69544437  0.54123781  0.17022419  1
  O  O23  1  0.71296456  0.94426240  0.15594117  1
  O  O24  1  0.71736128  0.23754085  0.90271101  1
  O  O25  1  0.78720703  0.26430954  0.39271911  1
  O  O26  1  0.75671462  0.94077830  0.66578661  1
  O  O27  1  0.76853035  0.54386061  0.66626138  1
  O  O28  1  0.78310473  0.76328581  0.45949299  1
