# generated using pymatgen
data_Li4FeP6(H4O11)2
_symmetry_space_group_name_H-M   'P 1'
_cell_length_a   7.48706584
_cell_length_b   8.58943729
_cell_length_c   6.97712182
_cell_angle_alpha   103.65002867
_cell_angle_beta   93.96365977
_cell_angle_gamma   84.91559883
_symmetry_Int_Tables_number   1
_chemical_formula_structural   Li4FeP6(H4O11)2
_chemical_formula_sum   'Li4 Fe1 P6 H8 O22'
_cell_volume   433.76851594
_cell_formula_units_Z   1
loop_
 _symmetry_equiv_pos_site_id
 _symmetry_equiv_pos_as_xyz
  1  'x, y, z'
loop_
 _atom_site_type_symbol
 _atom_site_label
 _atom_site_symmetry_multiplicity
 _atom_site_fract_x
 _atom_site_fract_y
 _atom_site_fract_z
 _atom_site_occupancy
  Li  Li0  1  0.35161002  0.58124909  0.92743577  1
  Li  Li1  1  0.44626600  0.24123473  0.68371913  1
  Li  Li2  1  0.55373400  0.75876527  0.31628087  1
  Li  Li3  1  0.64838998  0.41875091  0.07256423  1
  Fe  Fe4  1  -0.00000000  0.00000000  0.00000000  1
  P  P5  1  0.02072131  0.30592740  0.77966387  1
  P  P6  1  0.21063012  0.83250688  0.55712201  1
  P  P7  1  0.29064251  0.50670380  0.34357948  1
  P  P8  1  0.70935749  0.49329620  0.65642052  1
  P  P9  1  0.78936988  0.16749312  0.44287799  1
  P  P10  1  0.97927869  0.69407260  0.22033613  1
  H  H11  1  0.23867059  0.18790488  0.26472158  1
  H  H12  1  0.26868301  0.00569102  0.27546664  1
  H  H13  1  0.38585718  0.87998872  0.97688575  1
  H  H14  1  0.41336230  0.18340412  0.03693347  1
  H  H15  1  0.58663770  0.81659588  0.96306653  1
  H  H16  1  0.61414282  0.12001128  0.02311425  1
  H  H17  1  0.73131699  0.99430898  0.72453336  1
  H  H18  1  0.76132941  0.81209512  0.73527842  1
  O  O19  1  0.01660641  0.81220085  0.43852234  1
  O  O20  1  0.08990333  0.52716425  0.24599177  1
  O  O21  1  0.21492037  0.33829086  0.80429722  1
  O  O22  1  0.06639534  0.75775913  0.06896829  1
  O  O23  1  0.17999802  0.91399065  0.76795689  1
  O  O24  1  0.22689807  0.07561631  0.18299098  1
  O  O25  1  0.27912087  0.64491437  0.54867899  1
  O  O26  1  0.31694959  0.34833045  0.39784669  1
  O  O27  1  0.34021583  0.90018292  0.44803204  1
  O  O28  1  0.52562752  0.19927039  0.98289077  1
  O  O29  1  0.42268495  0.54807176  0.21075732  1
  O  O30  1  0.57731505  0.45192824  0.78924268  1
  O  O31  1  0.47437248  0.80072961  0.01710923  1
  O  O32  1  0.65978417  0.09981708  0.55196796  1
  O  O33  1  0.68305041  0.65166955  0.60215331  1
  O  O34  1  0.72087913  0.35508563  0.45132101  1
  O  O35  1  0.77310193  0.92438369  0.81700902  1
  O  O36  1  0.82000198  0.08600935  0.23204311  1
  O  O37  1  0.93360466  0.24224087  0.93103171  1
  O  O38  1  0.78507963  0.66170914  0.19570278  1
  O  O39  1  0.91009667  0.47283575  0.75400823  1
  O  O40  1  0.98339359  0.18779915  0.56147766  1
