# generated using pymatgen
data_ZnTe(H2N)4
_symmetry_space_group_name_H-M   'P 1'
_cell_length_a   7.42831821
_cell_length_b   7.52708566
_cell_length_c   11.74467088
_cell_angle_alpha   90.00000000
_cell_angle_beta   90.00000000
_cell_angle_gamma   99.39553676
_symmetry_Int_Tables_number   1
_chemical_formula_structural   ZnTe(H2N)4
_chemical_formula_sum   'Zn4 Te4 H32 N16'
_cell_volume   647.87715323
_cell_formula_units_Z   4
loop_
 _symmetry_equiv_pos_site_id
 _symmetry_equiv_pos_as_xyz
  1  'x, y, z'
loop_
 _atom_site_type_symbol
 _atom_site_label
 _atom_site_symmetry_multiplicity
 _atom_site_fract_x
 _atom_site_fract_y
 _atom_site_fract_z
 _atom_site_occupancy
  Zn  Zn0  1  0.43507473  0.89042452  0.93218988  1
  Zn  Zn1  1  0.56492527  0.10957548  0.43218988  1
  Zn  Zn2  1  0.90394280  0.67164043  0.99840179  1
  Zn  Zn3  1  0.09605720  0.32835957  0.49840179  1
  Te  Te4  1  0.76181553  0.37451277  0.54334050  1
  Te  Te5  1  0.23818447  0.62548723  0.04334050  1
  Te  Te6  1  0.79512116  0.96075274  0.92488581  1
  Te  Te7  1  0.20487884  0.03924726  0.42488581  1
  H  H8  1  0.65663957  0.94780242  0.24572742  1
  H  H9  1  0.34336043  0.05219758  0.74572742  1
  H  H10  1  0.14776426  0.86324645  0.64729487  1
  H  H11  1  0.85223574  0.13675355  0.14729487  1
  H  H12  1  0.83960167  0.33669893  0.91338089  1
  H  H13  1  0.16039833  0.66330107  0.41338089  1
  H  H14  1  0.57205078  0.54857836  0.86233133  1
  H  H15  1  0.42794922  0.45142164  0.36233133  1
  H  H16  1  0.91767451  0.73343494  0.23506680  1
  H  H17  1  0.08232549  0.26656506  0.73506680  1
  H  H18  1  0.87689706  0.48116137  0.80697095  1
  H  H19  1  0.12310294  0.51883863  0.30697095  1
  H  H20  1  0.39227429  0.43294482  0.61847919  1
  H  H21  1  0.60772571  0.56705518  0.11847919  1
  H  H22  1  0.78112518  0.86084896  0.45063851  1
  H  H23  1  0.21887482  0.13915104  0.95063851  1
  H  H24  1  0.24071782  0.56542129  0.65802255  1
  H  H25  1  0.75928218  0.43457871  0.15802255  1
  H  H26  1  0.76971578  0.59495935  0.31081528  1
  H  H27  1  0.23028422  0.40504065  0.81081528  1
  H  H28  1  0.09311543  0.80980581  0.78113844  1
  H  H29  1  0.90688457  0.19019419  0.28113844  1
  H  H30  1  0.56448505  0.76176813  0.45938401  1
  H  H31  1  0.43551495  0.23823187  0.95938401  1
  H  H32  1  0.59323650  0.37501486  0.77947300  1
  H  H33  1  0.40676350  0.62498514  0.27947300  1
  H  H34  1  0.74732784  0.97843667  0.63707883  1
  H  H35  1  0.25267216  0.02156333  0.13707883  1
  H  H36  1  0.46106212  0.89101952  0.70776149  1
  H  H37  1  0.53893788  0.10898048  0.20776149  1
  H  H38  1  0.74001105  0.75687291  0.63093063  1
  H  H39  1  0.25998895  0.24312709  0.13093063  1
  N  N40  1  0.65759648  0.87046549  0.48779209  1
  N  N41  1  0.34240352  0.12953451  0.98779209  1
  N  N42  1  0.67070734  0.85984589  0.61010341  1
  N  N43  1  0.32929266  0.14015411  0.11010341  1
  N  N44  1  0.19050047  0.80454825  0.71961919  1
  N  N45  1  0.80949953  0.19545175  0.21961919  1
  N  N46  1  0.80737790  0.45603670  0.88265546  1
  N  N47  1  0.19262210  0.54396330  0.38265546  1
  N  N48  1  0.61319860  0.42480715  0.86103045  1
  N  N49  1  0.38680140  0.57519285  0.36103045  1
  N  N50  1  0.35529988  0.91905130  0.75920616  1
  N  N51  1  0.64470012  0.08094870  0.25920616  1
  N  N52  1  0.78222725  0.67757171  0.24027396  1
  N  N53  1  0.21777275  0.32242829  0.74027396  1
  N  N54  1  0.74195837  0.56618628  0.13962711  1
  N  N55  1  0.25804163  0.43381372  0.63962711  1
