# generated using pymatgen
data_Li4V3P8O29
_symmetry_space_group_name_H-M   'P 1'
_cell_length_a   9.80932577
_cell_length_b   9.79950826
_cell_length_c   14.01585252
_cell_angle_alpha   90.23686471
_cell_angle_beta   89.99576484
_cell_angle_gamma   59.99507604
_symmetry_Int_Tables_number   1
_chemical_formula_structural   Li4V3P8O29
_chemical_formula_sum   'Li8 V6 P16 O58'
_cell_volume   1166.72096583
_cell_formula_units_Z   2
loop_
 _symmetry_equiv_pos_site_id
 _symmetry_equiv_pos_as_xyz
  1  'x, y, z'
loop_
 _atom_site_type_symbol
 _atom_site_label
 _atom_site_symmetry_multiplicity
 _atom_site_fract_x
 _atom_site_fract_y
 _atom_site_fract_z
 _atom_site_occupancy
  Li  Li0  1  0.77074500  0.90849970  0.56311849  1
  Li  Li1  1  0.90750196  0.31672482  0.56160481  1
  Li  Li2  1  0.76955112  0.31744744  0.05812608  1
  Li  Li3  1  0.32284812  0.90584722  0.05777341  1
  Li  Li4  1  0.32510335  0.77319114  0.56214430  1
  Li  Li5  1  0.22328512  0.67846425  0.93771752  1
  Li  Li6  1  0.09318950  0.67912112  0.44224719  1
  Li  Li7  1  0.09426062  0.22973261  0.93574097  1
  V  V8  1  0.56622457  0.42830608  0.25489016  1
  V  V9  1  0.43487501  0.56577301  0.74979724  1
  V  V10  1  0.56830584  0.00331764  0.75381805  1
  V  V11  1  0.43617638  0.00334676  0.25368820  1
  V  V12  1  0.99312938  0.57024976  0.24396645  1
  V  V13  1  0.99855580  0.43343401  0.74918396  1
  P  P14  1  0.91331203  0.76971057  0.84147568  1
  P  P15  1  0.77177146  0.91324722  0.34266387  1
  P  P16  1  0.91280084  0.31906359  0.34246034  1
  P  P17  1  0.66221927  0.66474091  0.12834503  1
  P  P18  1  0.66573748  0.66935283  0.62677453  1
  P  P19  1  0.76789872  0.31901834  0.84360222  1
  P  P20  1  0.68377011  0.23013235  0.65897308  1
  P  P21  1  0.31856138  0.91367617  0.84195889  1
  P  P22  1  0.68696748  0.08380578  0.15642565  1
  P  P23  1  0.31888643  0.77126441  0.34068269  1
  P  P24  1  0.23207957  0.67975599  0.15906540  1
  P  P25  1  0.32783182  0.33809956  0.37179849  1
  P  P26  1  0.33091989  0.33399520  0.87332479  1
  P  P27  1  0.08807214  0.67994584  0.65786881  1
  P  P28  1  0.23230230  0.08520756  0.65807815  1
  P  P29  1  0.08921285  0.22842818  0.15928078  1
  O  O30  1  0.00233600  0.75674217  0.56702197  1
  O  O31  1  0.91785173  0.74375207  0.33531310  1
  O  O32  1  0.76569528  0.99843559  0.06919317  1
  O  O33  1  0.74350836  0.91422128  0.83423794  1
  O  O34  1  0.90367170  0.61876179  0.82526553  1
  O  O35  1  0.81354253  0.66473588  0.17380470  1
  O  O36  1  0.90648298  0.47806576  0.32059847  1
  O  O37  1  0.00143423  0.24106776  0.06962841  1
  O  O38  1  0.91675818  0.33730713  0.83798961  1
  O  O39  1  0.67003817  0.81804460  0.66970211  1
  O  O40  1  0.61910834  0.90290483  0.32203704  1
  O  O41  1  0.81229149  0.51516430  0.66640347  1
  O  O42  1  0.66781840  0.66165796  0.02279916  1
  O  O43  1  0.66708105  0.67315182  0.52011495  1
  O  O44  1  0.66790438  0.51317457  0.17001765  1
  O  O45  1  0.47941312  0.90323332  0.82359125  1
  O  O46  1  0.51383749  0.81627742  0.16934009  1
  O  O47  1  0.74349945  0.34492399  0.33202290  1
  O  O48  1  0.78691652  0.20746473  0.75454599  1
  O  O49  1  0.77165252  0.23158141  0.57345686  1
  O  O50  1  0.76054803  0.24866964  0.93538052  1
  O  O51  1  0.61797701  0.48057584  0.82309048  1
  O  O52  1  0.51221072  0.67615283  0.66649932  1
  O  O53  1  0.65917681  0.25577121  0.16380969  1
  O  O54  1  0.47855120  0.61758296  0.32272749  1
  O  O55  1  0.34380855  0.91409196  0.33396752  1
  O  O56  1  0.78863518  0.00438541  0.25335294  1
  O  O57  1  0.76249345  0.98976649  0.43508314  1
  O  O58  1  0.23991817  0.99228847  0.57263339  1
  O  O59  1  0.66268354  0.08173439  0.66210311  1
  O  O60  1  0.52197344  0.37831629  0.67491238  1
  O  O61  1  0.33629958  0.74821041  0.84167605  1
  O  O62  1  0.47871528  0.33612245  0.32586659  1
  O  O63  1  0.38403513  0.52155599  0.17752169  1
  O  O64  1  0.24136020  0.75687644  0.06966053  1
  O  O65  1  0.24307900  0.75956135  0.43012262  1
  O  O66  1  0.20871886  0.79168088  0.24999082  1
  O  O67  1  0.25393753  0.66371698  0.66013502  1
  O  O68  1  0.48099326  0.18446048  0.82607242  1
  O  O69  1  0.52528341  0.09185259  0.17898695  1
  O  O70  1  0.32817180  0.48526930  0.83393731  1
  O  O71  1  0.33561577  0.32763766  0.97950969  1
  O  O72  1  0.33377403  0.33756384  0.47698717  1
  O  O73  1  0.18054352  0.48740542  0.33064993  1
  O  O74  1  0.38408482  0.09261961  0.67763166  1
  O  O75  1  0.33378449  0.18615152  0.32612150  1
  O  O76  1  0.08823931  0.65529652  0.16527210  1
  O  O77  1  0.99559321  0.79273863  0.74622819  1
  O  O78  1  0.00318654  0.76728980  0.92669777  1
  O  O79  1  0.10075011  0.51943101  0.67519475  1
  O  O80  1  0.18576060  0.32505847  0.83358047  1
  O  O81  1  0.09822721  0.38089433  0.17708379  1
  O  O82  1  0.25637223  0.08212611  0.16115950  1
  O  O83  1  0.24459324  0.00076281  0.93346224  1
  O  O84  1  0.20701522  0.00533648  0.75393427  1
  O  O85  1  0.08609617  0.25318446  0.65920139  1
  O  O86  1  0.99072250  0.24780468  0.43313527  1
  O  O87  1  0.00200241  0.20821690  0.25072675  1
