# generated using pymatgen
data_Li4V3P8O29
_symmetry_space_group_name_H-M   'P 1'
_cell_length_a   9.78653179
_cell_length_b   9.78218797
_cell_length_c   14.08554883
_cell_angle_alpha   90.18922022
_cell_angle_beta   90.23480625
_cell_angle_gamma   60.02233821
_symmetry_Int_Tables_number   1
_chemical_formula_structural   Li4V3P8O29
_chemical_formula_sum   'Li8 V6 P16 O58'
_cell_volume   1168.05375707
_cell_formula_units_Z   2
loop_
 _symmetry_equiv_pos_site_id
 _symmetry_equiv_pos_as_xyz
  1  'x, y, z'
loop_
 _atom_site_type_symbol
 _atom_site_label
 _atom_site_symmetry_multiplicity
 _atom_site_fract_x
 _atom_site_fract_y
 _atom_site_fract_z
 _atom_site_occupancy
  Li  Li0  1  0.77280442  0.91009495  0.56275066  1
  Li  Li1  1  0.90958101  0.31899870  0.56148874  1
  Li  Li2  1  0.76876813  0.32184062  0.05795274  1
  Li  Li3  1  0.31878949  0.90437044  0.05432033  1
  Li  Li4  1  0.32653141  0.77236285  0.56291403  1
  Li  Li5  1  0.68241590  0.08696690  0.93640147  1
  Li  Li6  1  0.09244505  0.68081924  0.44291539  1
  Li  Li7  1  0.09694320  0.22568336  0.93567322  1
  V  V8  1  0.56408362  0.43155914  0.25461387  1
  V  V9  1  0.42904129  0.56744149  0.75335290  1
  V  V10  1  0.56938043  0.99785547  0.74674509  1
  V  V11  1  0.43366881  0.00217099  0.25438126  1
  V  V12  1  0.99515034  0.56990088  0.24273434  1
  V  V13  1  0.99986421  0.43434379  0.75233544  1
  P  P14  1  0.91595705  0.77094389  0.84259244  1
  P  P15  1  0.77283433  0.91139618  0.34121105  1
  P  P16  1  0.91255460  0.31989354  0.34194215  1
  P  P17  1  0.66170078  0.66610733  0.12915053  1
  P  P18  1  0.66548167  0.66352513  0.62755870  1
  P  P19  1  0.76733655  0.31874553  0.84256411  1
  P  P20  1  0.68358610  0.23180064  0.65819845  1
  P  P21  1  0.32090186  0.91176419  0.84139181  1
  P  P22  1  0.68126501  0.08841192  0.15799187  1
  P  P23  1  0.31742327  0.77051469  0.34197492  1
  P  P24  1  0.23004801  0.68390275  0.15868170  1
  P  P25  1  0.32863603  0.33733767  0.37061224  1
  P  P26  1  0.33750560  0.33011521  0.87278422  1
  P  P27  1  0.08781731  0.68043731  0.65874084  1
  P  P28  1  0.22921741  0.08695279  0.65994545  1
  P  P29  1  0.08885139  0.22785569  0.15968758  1
  O  O30  1  0.00434744  0.75885161  0.56755726  1
  O  O31  1  0.91959501  0.74267704  0.33525669  1
  O  O32  1  0.75200966  0.01015833  0.06701862  1
  O  O33  1  0.74501964  0.91613288  0.83558663  1
  O  O34  1  0.90533611  0.61818116  0.82204157  1
  O  O35  1  0.81340576  0.66656832  0.17379403  1
  O  O36  1  0.90606094  0.47876098  0.31942695  1
  O  O37  1  0.00069681  0.23936508  0.07022785  1
  O  O38  1  0.91637241  0.33469086  0.84285560  1
  O  O39  1  0.67424215  0.81191118  0.66511527  1
  O  O40  1  0.61951985  0.90144657  0.32132717  1
  O  O41  1  0.81216111  0.51129087  0.66689392  1
  O  O42  1  0.66649224  0.66359628  0.02399277  1
  O  O43  1  0.65628078  0.66650551  0.52136901  1
  O  O44  1  0.66740055  0.51413987  0.17018190  1
  O  O45  1  0.48080947  0.89872230  0.82499551  1
  O  O46  1  0.51343733  0.81719775  0.17049570  1
  O  O47  1  0.74314832  0.34480502  0.33073919  1
  O  O48  1  0.78663887  0.20673912  0.75489232  1
  O  O49  1  0.76912112  0.24090060  0.57424879  1
  O  O50  1  0.75339081  0.24566744  0.93322842  1
  O  O51  1  0.61766998  0.48100643  0.82353356  1
  O  O52  1  0.51197721  0.66993511  0.67098958  1
  O  O53  1  0.66007419  0.25718032  0.16403325  1
  O  O54  1  0.47907624  0.61836917  0.32335525  1
  O  O55  1  0.34171977  0.91469579  0.33391185  1
  O  O56  1  0.79034374  0.99979134  0.24970608  1
  O  O57  1  0.76437911  0.98990106  0.43250288  1
  O  O58  1  0.23576862  0.99385771  0.57507343  1
  O  O59  1  0.66344621  0.08460486  0.65737219  1
  O  O60  1  0.52285162  0.38343419  0.67750058  1
  O  O61  1  0.33893820  0.74479534  0.83393941  1
  O  O62  1  0.47942393  0.33522223  0.32476989  1
  O  O63  1  0.38306181  0.52381985  0.17751574  1
  O  O64  1  0.23575917  0.76974859  0.07459587  1
  O  O65  1  0.24506715  0.75918796  0.43243413  1
  O  O66  1  0.20498670  0.78847536  0.25453607  1
  O  O67  1  0.25489047  0.66455376  0.66122855  1
  O  O68  1  0.49017293  0.18545996  0.83293700  1
  O  O69  1  0.52108605  0.09613036  0.18003957  1
  O  O70  1  0.33467629  0.48099764  0.82458399  1
  O  O71  1  0.33913548  0.33718099  0.97848697  1
  O  O72  1  0.33487370  0.33642642  0.47544515  1
  O  O73  1  0.18097720  0.48696809  0.32957246  1
  O  O74  1  0.38086834  0.09715481  0.67702555  1
  O  O75  1  0.33296097  0.18537865  0.32565716  1
  O  O76  1  0.08744872  0.65545017  0.16514363  1
  O  O77  1  0.99519320  0.79348630  0.74612191  1
  O  O78  1  0.00090074  0.76690286  0.92950731  1
  O  O79  1  0.10317564  0.51934325  0.67545314  1
  O  O80  1  0.18782646  0.32584699  0.83506721  1
  O  O81  1  0.09909324  0.38017099  0.17632689  1
  O  O82  1  0.25650600  0.08113505  0.16098735  1
  O  O83  1  0.24212979  0.99555466  0.93210112  1
  O  O84  1  0.20490757  0.00837287  0.75525805  1
  O  O85  1  0.08305574  0.25562820  0.66222184  1
  O  O86  1  0.98974208  0.24841061  0.43280817  1
  O  O87  1  0.00315406  0.20767903  0.25119647  1
