# generated using pymatgen
data_Li12CrNi3P4(CO7)4
_symmetry_space_group_name_H-M   'P 1'
_cell_length_a   8.43585577
_cell_length_b   9.98064189
_cell_length_c   6.44218957
_cell_angle_alpha   90.00000000
_cell_angle_beta   90.00000000
_cell_angle_gamma   85.28104389
_symmetry_Int_Tables_number   1
_chemical_formula_structural   Li12CrNi3P4(CO7)4
_chemical_formula_sum   'Li12 Cr1 Ni3 P4 C4 O28'
_cell_volume   540.56317572
_cell_formula_units_Z   1
loop_
 _symmetry_equiv_pos_site_id
 _symmetry_equiv_pos_as_xyz
  1  'x, y, z'
loop_
 _atom_site_type_symbol
 _atom_site_label
 _atom_site_symmetry_multiplicity
 _atom_site_fract_x
 _atom_site_fract_y
 _atom_site_fract_z
 _atom_site_occupancy
  Li  Li0  1  0.10343206  0.38108301  0.25000000  1
  Li  Li1  1  0.09596691  0.88414878  0.25000000  1
  Li  Li2  1  0.27550898  0.12459740  0.02079176  1
  Li  Li3  1  0.27550898  0.12459740  0.47920824  1
  Li  Li4  1  0.27511108  0.62439702  0.02211899  1
  Li  Li5  1  0.27511108  0.62439702  0.47788101  1
  Li  Li6  1  0.72449378  0.37198795  0.51919129  1
  Li  Li7  1  0.72449378  0.37198795  0.98080871  1
  Li  Li8  1  0.72480202  0.87741618  0.52022448  1
  Li  Li9  1  0.72480202  0.87741618  0.97977552  1
  Li  Li10  1  0.90137947  0.11664308  0.75000000  1
  Li  Li11  1  0.90265146  0.61648108  0.75000000  1
  Cr  Cr12  1  0.66547593  0.60781816  0.25000000  1
  Ni  Ni13  1  0.33275860  0.39514980  0.75000000  1
  Ni  Ni14  1  0.33116816  0.89774517  0.75000000  1
  Ni  Ni15  1  0.66577926  0.10262375  0.25000000  1
  P  P16  1  0.41415222  0.35746430  0.25000000  1
  P  P17  1  0.40928298  0.86376504  0.25000000  1
  P  P18  1  0.58473980  0.13920667  0.75000000  1
  P  P19  1  0.58346607  0.64002015  0.75000000  1
  C  C20  1  0.03953197  0.35077158  0.75000000  1
  C  C21  1  0.03908549  0.85097487  0.75000000  1
  C  C22  1  0.95920214  0.14931222  0.25000000  1
  C  C23  1  0.97113062  0.64803757  0.25000000  1
  O  O24  1  0.07624693  0.47435486  0.75000000  1
  O  O25  1  0.10543413  0.17981232  0.25000000  1
  O  O26  1  0.07446742  0.97463746  0.75000000  1
  O  O27  1  0.15540286  0.25599165  0.75000000  1
  O  O28  1  0.11578663  0.68297200  0.25000000  1
  O  O29  1  0.15579849  0.75676779  0.75000000  1
  O  O30  1  0.31021269  0.40980509  0.06265091  1
  O  O31  1  0.31021269  0.40980509  0.43734909  1
  O  O32  1  0.30775702  0.91840336  0.06205815  1
  O  O33  1  0.30775702  0.91840336  0.43794185  1
  O  O34  1  0.41856778  0.08562767  0.75000000  1
  O  O35  1  0.43523502  0.20027467  0.25000000  1
  O  O36  1  0.41828738  0.58452051  0.75000000  1
  O  O37  1  0.42260397  0.70764585  0.25000000  1
  O  O38  1  0.56281975  0.29633265  0.75000000  1
  O  O39  1  0.58098428  0.41023093  0.25000000  1
  O  O40  1  0.56097179  0.79675690  0.75000000  1
  O  O41  1  0.58012968  0.91171544  0.25000000  1
  O  O42  1  0.68995328  0.08782563  0.93729090  1
  O  O43  1  0.68995328  0.08782563  0.56270910  1
  O  O44  1  0.68950964  0.58847722  0.56374879  1
  O  O45  1  0.68950964  0.58847722  0.93625121  1
  O  O46  1  0.84236668  0.24370585  0.25000000  1
  O  O47  1  0.89253418  0.32029536  0.75000000  1
  O  O48  1  0.85343079  0.74229941  0.25000000  1
  O  O49  1  0.92223918  0.02556534  0.25000000  1
  O  O50  1  0.89224421  0.81956682  0.75000000  1
  O  O51  1  0.94054872  0.52385959  0.25000000  1
