# generated using pymatgen
data_Li2TiCo2O5
_symmetry_space_group_name_H-M   'P 1'
_cell_length_a   5.25686924
_cell_length_b   7.75745952
_cell_length_c   5.23437356
_cell_angle_alpha   70.53341575
_cell_angle_beta   112.30883531
_cell_angle_gamma   97.57570764
_symmetry_Int_Tables_number   1
_chemical_formula_structural   Li2TiCo2O5
_chemical_formula_sum   'Li4 Ti2 Co4 O10'
_cell_volume   186.18820558
_cell_formula_units_Z   2
loop_
 _symmetry_equiv_pos_site_id
 _symmetry_equiv_pos_as_xyz
  1  'x, y, z'
loop_
 _atom_site_type_symbol
 _atom_site_label
 _atom_site_symmetry_multiplicity
 _atom_site_fract_x
 _atom_site_fract_y
 _atom_site_fract_z
 _atom_site_occupancy
  Li  Li0  1  0.50011746  0.20293762  0.89805013  1
  Li  Li1  1  0.00098802  0.40056497  0.80114636  1
  Li  Li2  1  0.49979624  0.00075161  0.50089378  1
  Li  Li3  1  0.99934376  0.59661513  0.20169259  1
  Ti  Ti4  1  0.50542405  0.39702486  0.30737266  1
  Ti  Ti5  1  0.00486037  0.00287144  0.99779277  1
  Co  Co6  1  0.49982021  0.59968666  0.70048384  1
  Co  Co7  1  0.99969712  0.79034822  0.60473518  1
  Co  Co8  1  0.49920671  0.80011753  0.09969121  1
  Co  Co9  1  0.99682172  0.20635600  0.39387428  1
  O  O10  1  0.75550665  0.81224946  0.85558737  1
  O  O11  1  0.26074611  0.59243180  0.96141291  1
  O  O12  1  0.74728990  0.20027507  0.65265330  1
  O  O13  1  0.74418838  0.58668998  0.45409948  1
  O  O14  1  0.24573129  0.81218128  0.33226627  1
  O  O15  1  0.22126858  0.00202366  0.76141598  1
  O  O16  1  0.27206881  0.40009517  0.52537999  1
  O  O17  1  0.77307763  0.99693063  0.23557584  1
  O  O18  1  0.72475093  0.40052216  0.07060010  1
  O  O19  1  0.24929706  0.19932574  0.14527797  1
