# generated using pymatgen
data_Li12Mn3CoP4(CO7)4
_symmetry_space_group_name_H-M   'P 1'
_cell_length_a   8.53246626
_cell_length_b   10.00481173
_cell_length_c   6.58780014
_cell_angle_alpha   90.00000000
_cell_angle_beta   90.00000000
_cell_angle_gamma   85.49412043
_symmetry_Int_Tables_number   1
_chemical_formula_structural   Li12Mn3CoP4(CO7)4
_chemical_formula_sum   'Li12 Mn3 Co1 P4 C4 O28'
_cell_volume   560.63415531
_cell_formula_units_Z   1
loop_
 _symmetry_equiv_pos_site_id
 _symmetry_equiv_pos_as_xyz
  1  'x, y, z'
loop_
 _atom_site_type_symbol
 _atom_site_label
 _atom_site_symmetry_multiplicity
 _atom_site_fract_x
 _atom_site_fract_y
 _atom_site_fract_z
 _atom_site_occupancy
  Li  Li0  1  0.09193281  0.38052119  0.25000000  1
  Li  Li1  1  0.09490466  0.88069095  0.25000000  1
  Li  Li2  1  0.27315143  0.12298977  0.02660564  1
  Li  Li3  1  0.27315143  0.12298977  0.47339436  1
  Li  Li4  1  0.27413869  0.62366339  0.02669066  1
  Li  Li5  1  0.27413869  0.62366339  0.47330934  1
  Li  Li6  1  0.72705049  0.37770365  0.52537056  1
  Li  Li7  1  0.72705049  0.37770365  0.97462944  1
  Li  Li8  1  0.72624186  0.87559125  0.52484571  1
  Li  Li9  1  0.72624186  0.87559125  0.97515429  1
  Li  Li10  1  0.90673705  0.11974049  0.75000000  1
  Li  Li11  1  0.90774947  0.62022959  0.75000000  1
  Mn  Mn12  1  0.34063781  0.38874511  0.75000000  1
  Mn  Mn13  1  0.34049841  0.88886194  0.75000000  1
  Mn  Mn14  1  0.65997286  0.11121686  0.25000000  1
  Co  Co15  1  0.66524362  0.60292917  0.25000000  1
  P  P16  1  0.40972326  0.36276763  0.25000000  1
  P  P17  1  0.41300125  0.85885242  0.25000000  1
  P  P18  1  0.59053463  0.13943511  0.75000000  1
  P  P19  1  0.58998520  0.64028277  0.75000000  1
  C  C20  1  0.03291393  0.35143470  0.75000000  1
  C  C21  1  0.03297104  0.85136488  0.75000000  1
  C  C22  1  0.96720294  0.14844345  0.25000000  1
  C  C23  1  0.96226548  0.64885759  0.25000000  1
  O  O24  1  0.06992520  0.47421140  0.75000000  1
  O  O25  1  0.11330552  0.17815661  0.25000000  1
  O  O26  1  0.07009498  0.97415856  0.75000000  1
  O  O27  1  0.14437781  0.25425292  0.75000000  1
  O  O28  1  0.10829472  0.67821855  0.25000000  1
  O  O29  1  0.14434366  0.75407650  0.75000000  1
  O  O30  1  0.30947984  0.41587249  0.06591057  1
  O  O31  1  0.30947984  0.41587249  0.43408943  1
  O  O32  1  0.31102347  0.91187880  0.06657443  1
  O  O33  1  0.31102347  0.91187880  0.43342557  1
  O  O34  1  0.42042278  0.09466291  0.75000000  1
  O  O35  1  0.42447454  0.20596650  0.25000000  1
  O  O36  1  0.42022100  0.59475140  0.75000000  1
  O  O37  1  0.43132798  0.70164759  0.25000000  1
  O  O38  1  0.57709586  0.29643761  0.75000000  1
  O  O39  1  0.57924298  0.40936139  0.25000000  1
  O  O40  1  0.57717197  0.79703606  0.75000000  1
  O  O41  1  0.57978878  0.90907158  0.25000000  1
  O  O42  1  0.69007258  0.08535166  0.93392422  1
  O  O43  1  0.69007258  0.08535166  0.56607578  1
  O  O44  1  0.68843873  0.58602048  0.56389677  1
  O  O45  1  0.68843873  0.58602048  0.93610323  1
  O  O46  1  0.85586179  0.24576736  0.25000000  1
  O  O47  1  0.88693625  0.32202247  0.75000000  1
  O  O48  1  0.84915001  0.74444974  0.25000000  1
  O  O49  1  0.93052056  0.02570003  0.25000000  1
  O  O50  1  0.88706228  0.82187670  0.75000000  1
  O  O51  1  0.92491272  0.52565827  0.25000000  1
