# generated using pymatgen
data_Li2Ni3WO8
_symmetry_space_group_name_H-M   'P 1'
_cell_length_a   8.25597506
_cell_length_b   8.80533226
_cell_length_c   8.27468128
_cell_angle_alpha   90.00625392
_cell_angle_beta   89.98136147
_cell_angle_gamma   90.02403867
_symmetry_Int_Tables_number   1
_chemical_formula_structural   Li2Ni3WO8
_chemical_formula_sum   'Li8 Ni12 W4 O32'
_cell_volume   601.54113576
_cell_formula_units_Z   4
loop_
 _symmetry_equiv_pos_site_id
 _symmetry_equiv_pos_as_xyz
  1  'x, y, z'
loop_
 _atom_site_type_symbol
 _atom_site_label
 _atom_site_symmetry_multiplicity
 _atom_site_fract_x
 _atom_site_fract_y
 _atom_site_fract_z
 _atom_site_occupancy
  Li  Li0  1  0.97710063  0.99383691  0.99888188  1
  Li  Li1  1  0.25692585  0.25616327  0.25461593  1
  Li  Li2  1  0.24286282  0.74412165  0.75419720  1
  Li  Li3  1  0.52295079  0.00594689  0.49889555  1
  Li  Li4  1  0.47773201  0.50394554  0.00224328  1
  Li  Li5  1  0.75791751  0.24440436  0.74610615  1
  Li  Li6  1  0.74220477  0.75614659  0.24580234  1
  Li  Li7  1  0.02262619  0.49558284  0.50208990  1
  Ni  Ni8  1  0.11568655  0.12898877  0.62655428  1
  Ni  Ni9  1  0.12740533  0.37957581  0.87638402  1
  Ni  Ni10  1  0.12889494  0.62743241  0.12749367  1
  Ni  Ni11  1  0.37118812  0.37263889  0.62738994  1
  Ni  Ni12  1  0.37282167  0.62070073  0.37666736  1
  Ni  Ni13  1  0.38417022  0.87121579  0.12697742  1
  Ni  Ni14  1  0.61630727  0.37087467  0.37320882  1
  Ni  Ni15  1  0.62747275  0.12166696  0.12269224  1
  Ni  Ni16  1  0.62850336  0.87313577  0.87244312  1
  Ni  Ni17  1  0.87152642  0.12698532  0.37214799  1
  Ni  Ni18  1  0.87238591  0.87880556  0.62309358  1
  Ni  Ni19  1  0.88375823  0.62913690  0.87349335  1
  W  W20  1  0.12993422  0.88703870  0.37174435  1
  W  W21  1  0.36954602  0.11264933  0.87174732  1
  W  W22  1  0.62925092  0.61273228  0.62874389  1
  W  W23  1  0.87114422  0.38699269  0.12879478  1
  O  O24  1  0.11147778  0.10637539  0.37365966  1
  O  O25  1  0.10695955  0.88098562  0.61014347  1
  O  O26  1  0.12410149  0.61152294  0.90050654  1
  O  O27  1  0.14068589  0.11716090  0.87930077  1
  O  O28  1  0.11080375  0.37834790  0.10992805  1
  O  O29  1  0.14223477  0.35829406  0.64740612  1
  O  O30  1  0.14032651  0.65095073  0.36405583  1
  O  O31  1  0.12056163  0.87040685  0.14285350  1
  O  O32  1  0.37930422  0.12939750  0.64280031  1
  O  O33  1  0.35940730  0.34898327  0.86388161  1
  O  O34  1  0.35796650  0.64176655  0.14768427  1
  O  O35  1  0.38950546  0.62178491  0.61004685  1
  O  O36  1  0.35882119  0.88238275  0.37991764  1
  O  O37  1  0.37604685  0.38876272  0.40047054  1
  O  O38  1  0.39223844  0.11931791  0.10990422  1
  O  O39  1  0.38854813  0.89341194  0.87389450  1
  O  O40  1  0.61138683  0.39345878  0.62646755  1
  O  O41  1  0.60690332  0.61822755  0.38981209  1
  O  O42  1  0.62429051  0.88982178  0.09950801  1
  O  O43  1  0.64209837  0.38045549  0.11976888  1
  O  O44  1  0.60984853  0.12208468  0.88961582  1
  O  O45  1  0.64279320  0.14166045  0.35170726  1
  O  O46  1  0.63944723  0.84887318  0.63601923  1
  O  O47  1  0.62011171  0.62903181  0.85765679  1
  O  O48  1  0.87998333  0.37089558  0.35754319  1
  O  O49  1  0.86115712  0.15113131  0.13569562  1
  O  O50  1  0.85720006  0.85828042  0.85212278  1
  O  O51  1  0.88981247  0.87795206  0.38980643  1
  O  O52  1  0.85825297  0.61856085  0.62012437  1
  O  O53  1  0.87545434  0.11075802  0.59917602  1
  O  O54  1  0.89361613  0.38202060  0.88963795  1
  O  O55  1  0.88833970  0.60635786  0.12661474  1
