# generated using pymatgen
data_Nd13Mg2Si4B8O43
_symmetry_space_group_name_H-M   'P 1'
_cell_length_a   9.32297741
_cell_length_b   11.92831619
_cell_length_c   16.09778339
_cell_angle_alpha   90.00000000
_cell_angle_beta   90.00000000
_cell_angle_gamma   106.20361246
_symmetry_Int_Tables_number   1
_chemical_formula_structural   Nd13Mg2Si4B8O43
_chemical_formula_sum   'Nd26 Mg4 Si8 B16 O86'
_cell_volume   1719.07953717
_cell_formula_units_Z   2
loop_
 _symmetry_equiv_pos_site_id
 _symmetry_equiv_pos_as_xyz
  1  'x, y, z'
loop_
 _atom_site_type_symbol
 _atom_site_label
 _atom_site_symmetry_multiplicity
 _atom_site_fract_x
 _atom_site_fract_y
 _atom_site_fract_z
 _atom_site_occupancy
  Nd  Nd0  1  0.32140974  0.36200564  0.12707341  1
  Nd  Nd1  1  0.67859026  0.63799436  0.62707341  1
  Nd  Nd2  1  0.67859026  0.63799436  0.87292659  1
  Nd  Nd3  1  0.32140974  0.36200564  0.37292659  1
  Nd  Nd4  1  0.82204796  0.35550621  0.86932764  1
  Nd  Nd5  1  0.17795204  0.64449379  0.36932764  1
  Nd  Nd6  1  0.17795204  0.64449379  0.13067236  1
  Nd  Nd7  1  0.82204796  0.35550621  0.63067236  1
  Nd  Nd8  1  0.05371669  0.63802658  0.75000000  1
  Nd  Nd9  1  0.94628331  0.36197342  0.25000000  1
  Nd  Nd10  1  0.46142301  0.34841439  0.75000000  1
  Nd  Nd11  1  0.53857699  0.65158561  0.25000000  1
  Nd  Nd12  1  0.14221891  0.19956287  0.92176636  1
  Nd  Nd13  1  0.85778109  0.80043713  0.42176636  1
  Nd  Nd14  1  0.85778109  0.80043713  0.07823364  1
  Nd  Nd15  1  0.14221891  0.19956287  0.57823364  1
  Nd  Nd16  1  0.35886772  0.78272652  0.91364812  1
  Nd  Nd17  1  0.64113228  0.21727348  0.41364812  1
  Nd  Nd18  1  0.64113228  0.21727348  0.08635188  1
  Nd  Nd19  1  0.35886772  0.78272652  0.58635188  1
  Nd  Nd20  1  0.73938669  0.99668385  0.89326145  1
  Nd  Nd21  1  0.26061331  0.00331615  0.39326145  1
  Nd  Nd22  1  0.26061331  0.00331615  0.10673855  1
  Nd  Nd23  1  0.73938669  0.99668385  0.60673855  1
  Nd  Nd24  1  0.27182956  0.98774018  0.75000000  1
  Nd  Nd25  1  0.72817044  0.01225982  0.25000000  1
  Mg  Mg26  1  0.24571885  0.49115760  0.91731070  1
  Mg  Mg27  1  0.75428115  0.50884240  0.41731070  1
  Mg  Mg28  1  0.75428115  0.50884240  0.08268930  1
  Mg  Mg29  1  0.24571885  0.49115760  0.58268930  1
  Si  Si30  1  0.04223318  0.88567501  0.90452736  1
  Si  Si31  1  0.95776682  0.11432499  0.40452736  1
  Si  Si32  1  0.95776682  0.11432499  0.09547264  1
  Si  Si33  1  0.04223318  0.88567501  0.59547264  1
  Si  Si34  1  0.46471098  0.12052876  0.91057207  1
  Si  Si35  1  0.53528902  0.87947124  0.41057207  1
  Si  Si36  1  0.53528902  0.87947124  0.08942793  1
  Si  Si37  1  0.46471098  0.12052876  0.58942793  1
  B  B38  1  0.99055308  0.38991580  0.03279093  1
  B  B39  1  0.00944692  0.61008420  0.53279093  1
  B  B40  1  0.00944692  0.61008420  0.96720907  1
  B  B41  1  0.99055308  0.38991580  0.46720907  1
  B  B42  1  0.49235570  0.38986159  0.96742890  1
  B  B43  1  0.50764430  0.61013841  0.46742890  1
  B  B44  1  0.50764430  0.61013841  0.03257110  1
  B  B45  1  0.49235570  0.38986159  0.53257110  1
  B  B46  1  0.14212830  0.37895205  0.75000000  1
  B  B47  1  0.85787170  0.62104795  0.25000000  1
  B  B48  1  0.87005473  0.14183858  0.75000000  1
  B  B49  1  0.12994527  0.85816142  0.25000000  1
  B  B50  1  0.52832529  0.81721759  0.75000000  1
  B  B51  1  0.47167471  0.18278241  0.25000000  1
  B  B52  1  0.35088620  0.59543537  0.75000000  1
  B  B53  1  0.64911380  0.40456463  0.25000000  1
  O  O54  1  0.86112121  0.82604591  0.91679651  1
  O  O55  1  0.13887879  0.17395409  0.41679651  1
  O  O56  1  0.13887879  0.17395409  0.08320349  1
  O  O57  1  0.86112121  0.82604591  0.58320349  1
  O  O58  1  0.16049663  0.61956470  0.97202496  1
  O  O59  1  0.83950337  0.38043530  0.47202496  1
  O  O60  1  0.83950337  0.38043530  0.02797504  1
  O  O61  1  0.16049663  0.61956470  0.52797504  1
  O  O62  1  0.92473439  0.57376110  0.89614659  1
  O  O63  1  0.07526561  0.42623890  0.39614659  1
  O  O64  1  0.07526561  0.42623890  0.10385341  1
  O  O65  1  0.92473439  0.57376110  0.60385341  1
  O  O66  1  0.64500449  0.17938302  0.92778721  1
  O  O67  1  0.35499551  0.82061698  0.42778721  1
  O  O68  1  0.35499551  0.82061698  0.07221279  1
  O  O69  1  0.64500449  0.17938302  0.57221279  1
  O  O70  1  0.91979540  0.18912124  0.82721556  1
  O  O71  1  0.08020460  0.81087876  0.32721556  1
  O  O72  1  0.08020460  0.81087876  0.17278444  1
  O  O73  1  0.91979540  0.18912124  0.67278444  1
  O  O74  1  0.33855281  0.37001020  0.97162167  1
  O  O75  1  0.66144719  0.62998980  0.47162167  1
  O  O76  1  0.66144719  0.62998980  0.02837833  1
  O  O77  1  0.33855281  0.37001020  0.52837833  1
  O  O78  1  0.42420120  0.57969411  0.10449949  1
  O  O79  1  0.57579880  0.42030589  0.60449949  1
  O  O80  1  0.57579880  0.42030589  0.89550051  1
  O  O81  1  0.42420120  0.57969411  0.39550051  1
  O  O82  1  0.44359869  0.61652818  0.95559719  1
  O  O83  1  0.55640131  0.38347182  0.45559719  1
  O  O84  1  0.55640131  0.38347182  0.04440281  1
  O  O85  1  0.44359869  0.61652818  0.54440281  1
  O  O86  1  0.01919739  0.42372821  0.75000000  1
  O  O87  1  0.98080261  0.57627179  0.25000000  1
  O  O88  1  0.05338013  0.36687083  0.95875772  1
  O  O89  1  0.94661987  0.63312917  0.45875772  1
  O  O90  1  0.94661987  0.63312917  0.04124228  1
  O  O91  1  0.05338013  0.36687083  0.54124228  1
  O  O92  1  0.13198505  0.81120203  0.84730064  1
  O  O93  1  0.86801495  0.18879797  0.34730064  1
  O  O94  1  0.86801495  0.18879797  0.15269936  1
  O  O95  1  0.13198505  0.81120203  0.65269936  1
  O  O96  1  0.21418275  0.36080348  0.82203362  1
  O  O97  1  0.78581725  0.63919652  0.32203362  1
  O  O98  1  0.78581725  0.63919652  0.17796638  1
  O  O99  1  0.21418275  0.36080348  0.67796638  1
  O  O100  1  0.40959619  0.19536356  0.17369327  1
  O  O101  1  0.59040381  0.80463644  0.67369327  1
  O  O102  1  0.59040381  0.80463644  0.82630673  1
  O  O103  1  0.40959619  0.19536356  0.32630673  1
  O  O104  1  0.37456739  0.17529676  0.83964084  1
  O  O105  1  0.62543261  0.82470324  0.33964084  1
  O  O106  1  0.62543261  0.82470324  0.16035916  1
  O  O107  1  0.37456739  0.17529676  0.66035916  1
  O  O108  1  0.48354461  0.56535705  0.75000000  1
  O  O109  1  0.51645539  0.43464295  0.25000000  1
  O  O110  1  0.27703775  0.61001886  0.82218463  1
  O  O111  1  0.72296225  0.38998114  0.32218463  1
  O  O112  1  0.72296225  0.38998114  0.17781537  1
  O  O113  1  0.27703775  0.61001886  0.67781537  1
  O  O114  1  0.45133420  0.98747579  0.87784195  1
  O  O115  1  0.54866580  0.01252421  0.37784195  1
  O  O116  1  0.54866580  0.01252421  0.12215805  1
  O  O117  1  0.45133420  0.98747579  0.62215805  1
  O  O118  1  0.38479733  0.12812431  0.99977794  1
  O  O119  1  0.61520267  0.87187569  0.49977794  1
  O  O120  1  0.61520267  0.87187569  0.00022206  1
  O  O121  1  0.38479733  0.12812431  0.50022206  1
  O  O122  1  0.10278883  0.90065404  0.00097812  1
  O  O123  1  0.89721117  0.09934596  0.50097812  1
  O  O124  1  0.89721117  0.09934596  0.99902188  1
  O  O125  1  0.10278883  0.90065404  0.49902188  1
  O  O126  1  0.82033290  0.67999996  0.75000000  1
  O  O127  1  0.17966710  0.32000004  0.25000000  1
  O  O128  1  0.68783269  0.31288713  0.75000000  1
  O  O129  1  0.31216731  0.68711287  0.25000000  1
  O  O130  1  0.38776223  0.83387360  0.75000000  1
  O  O131  1  0.61223777  0.16612640  0.25000000  1
  O  O132  1  0.07706084  0.01115600  0.85514997  1
  O  O133  1  0.92293916  0.98884400  0.35514997  1
  O  O134  1  0.92293916  0.98884400  0.14485003  1
  O  O135  1  0.07706084  0.01115600  0.64485003  1
  O  O136  1  0.75819745  0.03605589  0.75000000  1
  O  O137  1  0.24180255  0.96394411  0.25000000  1
  O  O138  1  0.22764707  0.45342562  0.25000000  1
  O  O139  1  0.77235293  0.54657438  0.75000000  1
