# generated using pymatgen
data_Li3(NiO2)4
_symmetry_space_group_name_H-M   'P 1'
_cell_length_a   5.61588369
_cell_length_b   5.70295130
_cell_length_c   5.76328259
_cell_angle_alpha   118.72619078
_cell_angle_beta   118.45697250
_cell_angle_gamma   91.28232833
_symmetry_Int_Tables_number   1
_chemical_formula_structural   Li3(NiO2)4
_chemical_formula_sum   'Li3 Ni4 O8'
_cell_volume   134.52900265
_cell_formula_units_Z   1
loop_
 _symmetry_equiv_pos_site_id
 _symmetry_equiv_pos_as_xyz
  1  'x, y, z'
loop_
 _atom_site_type_symbol
 _atom_site_label
 _atom_site_symmetry_multiplicity
 _atom_site_fract_x
 _atom_site_fract_y
 _atom_site_fract_z
 _atom_site_occupancy
  Li  Li0  1  0.00006106  0.50007616  0.00010903  1
  Li  Li1  1  0.50002201  0.00001359  0.00006496  1
  Li  Li2  1  0.50023352  0.00025065  0.50049943  1
  Ni  Ni3  1  0.50000593  0.50003009  0.00002711  1
  Ni  Ni4  1  0.49996924  0.49998565  0.50002925  1
  Ni  Ni5  1  0.00006036  0.00001440  0.00006428  1
  Ni  Ni6  1  0.00003942  0.49999307  0.50002169  1
  O  O7  1  0.76862169  0.27811781  0.04625278  1
  O  O8  1  0.75627535  0.72563070  0.50819267  1
  O  O9  1  0.28071439  0.28174072  0.05447427  1
  O  O10  1  0.25741763  0.72284532  0.49953885  1
  O  O11  1  0.74261492  0.27719870  0.50051548  1
  O  O12  1  0.71933405  0.71831586  0.94559396  1
  O  O13  1  0.24378642  0.27444041  0.49187037  1
  O  O14  1  0.23136099  0.72186985  0.95371987  1
