# generated using pymatgen
data_Gd2W2O9
_symmetry_space_group_name_H-M   'P 1'
_cell_length_a   9.85529612
_cell_length_b   9.85529612
_cell_length_c   7.25140670
_cell_angle_alpha   90.00000000
_cell_angle_beta   90.00000000
_cell_angle_gamma   74.28585781
_symmetry_Int_Tables_number   1
_chemical_formula_structural   Gd2W2O9
_chemical_formula_sum   'Gd8 W8 O36'
_cell_volume   677.98287132
_cell_formula_units_Z   4
loop_
 _symmetry_equiv_pos_site_id
 _symmetry_equiv_pos_as_xyz
  1  'x, y, z'
loop_
 _atom_site_type_symbol
 _atom_site_label
 _atom_site_symmetry_multiplicity
 _atom_site_fract_x
 _atom_site_fract_y
 _atom_site_fract_z
 _atom_site_occupancy
  Gd  Gd0  1  0.40936648  0.88005967  0.49647734  1
  Gd  Gd1  1  0.11994033  0.59063352  0.50352266  1
  Gd  Gd2  1  0.22946109  0.22946109  0.25000000  1
  Gd  Gd3  1  0.22536230  0.22536230  0.75000000  1
  Gd  Gd4  1  0.77463770  0.77463770  0.25000000  1
  Gd  Gd5  1  0.77053891  0.77053891  0.75000000  1
  Gd  Gd6  1  0.88005967  0.40936648  0.00352266  1
  Gd  Gd7  1  0.59063352  0.11994033  0.99647734  1
  W  W8  1  0.95503622  0.04496378  -0.00000000  1
  W  W9  1  0.39422105  0.85006486  0.99707076  1
  W  W10  1  0.14993514  0.60577895  0.00292924  1
  W  W11  1  0.50029468  0.50029468  0.25000000  1
  W  W12  1  0.49970532  0.49970532  0.75000000  1
  W  W13  1  0.85006486  0.39422105  0.50292924  1
  W  W14  1  0.60577895  0.14993514  0.49707076  1
  W  W15  1  0.04496378  0.95503622  0.50000000  1
  O  O16  1  0.03254520  0.67022540  0.20415664  1
  O  O17  1  0.32977460  0.96745480  0.79584336  1
  O  O18  1  0.19850178  0.80149822  0.50000000  1
  O  O19  1  0.03251890  0.66671077  0.80137327  1
  O  O20  1  0.33328923  0.96748110  0.19862673  1
  O  O21  1  0.22576752  0.77423248  -0.00000000  1
  O  O22  1  0.57739594  0.88634027  0.99640051  1
  O  O23  1  0.11365973  0.42260406  0.00359949  1
  O  O24  1  0.47555799  0.69523998  0.18742465  1
  O  O25  1  0.30476002  0.52444201  0.81257535  1
  O  O26  1  0.47719055  0.69629580  0.80803610  1
  O  O27  1  0.30370420  0.52280945  0.19196390  1
  O  O28  1  0.20932437  0.36954790  0.50357963  1
  O  O29  1  0.63045210  0.79067563  0.49642037  1
  O  O30  1  0.44184225  0.55815775  0.50000000  1
  O  O31  1  0.84913265  0.91068537  0.99131573  1
  O  O32  1  0.08931463  0.15086735  0.00868427  1
  O  O33  1  0.00495589  0.00495589  0.75000000  1
  O  O34  1  0.99504411  0.99504411  0.25000000  1
  O  O35  1  0.91068537  0.84913265  0.50868427  1
  O  O36  1  0.15086735  0.08931463  0.49131573  1
  O  O37  1  0.55815775  0.44184225  -0.00000000  1
  O  O38  1  0.79067563  0.63045210  0.00357963  1
  O  O39  1  0.36954790  0.20932437  0.99642037  1
  O  O40  1  0.69629580  0.47719055  0.69196390  1
  O  O41  1  0.52280945  0.30370420  0.30803610  1
  O  O42  1  0.69523998  0.47555799  0.31257535  1
  O  O43  1  0.52444201  0.30476002  0.68742465  1
  O  O44  1  0.42260406  0.11365973  0.49640051  1
  O  O45  1  0.88634027  0.57739594  0.50359949  1
  O  O46  1  0.77423248  0.22576752  0.50000000  1
  O  O47  1  0.66671077  0.03251890  0.69862673  1
  O  O48  1  0.96748110  0.33328923  0.30137327  1
  O  O49  1  0.80149822  0.19850178  -0.00000000  1
  O  O50  1  0.67022540  0.03254520  0.29584336  1
  O  O51  1  0.96745480  0.32977460  0.70415664  1
