# generated using pymatgen
data_Li(BiO2)2
_symmetry_space_group_name_H-M   'P 1'
_cell_length_a   5.51597565
_cell_length_b   6.12331384
_cell_length_c   11.59319527
_cell_angle_alpha   90.00000000
_cell_angle_beta   90.00000000
_cell_angle_gamma   90.00000000
_symmetry_Int_Tables_number   1
_chemical_formula_structural   Li(BiO2)2
_chemical_formula_sum   'Li4 Bi8 O16'
_cell_volume   391.57234355
_cell_formula_units_Z   4
loop_
 _symmetry_equiv_pos_site_id
 _symmetry_equiv_pos_as_xyz
  1  'x, y, z'
loop_
 _atom_site_type_symbol
 _atom_site_label
 _atom_site_symmetry_multiplicity
 _atom_site_fract_x
 _atom_site_fract_y
 _atom_site_fract_z
 _atom_site_occupancy
  Li  Li0  1  -0.00000000  0.00000000  0.00000000  1
  Li  Li1  1  -0.00000000  0.50000000  0.50000000  1
  Li  Li2  1  0.50000000  0.50000000  0.00000000  1
  Li  Li3  1  0.50000000  -0.00000000  0.50000000  1
  Bi  Bi4  1  0.00893380  0.59783990  0.13966274  1
  Bi  Bi5  1  0.00893380  0.90216010  0.63966274  1
  Bi  Bi6  1  0.49106620  0.40216010  0.63966274  1
  Bi  Bi7  1  0.49106620  0.09783990  0.13966274  1
  Bi  Bi8  1  0.50893380  0.90216010  0.86033726  1
  Bi  Bi9  1  0.50893380  0.59783990  0.36033726  1
  Bi  Bi10  1  0.99106620  0.09783990  0.36033726  1
  Bi  Bi11  1  0.99106620  0.40216010  0.86033726  1
  O  O12  1  0.17807173  0.32384720  0.03537983  1
  O  O13  1  0.17807173  0.17615280  0.53537983  1
  O  O14  1  0.15927079  0.05905615  0.81219149  1
  O  O15  1  0.15927079  0.44094385  0.31219149  1
  O  O16  1  0.34072921  0.55905615  0.81219149  1
  O  O17  1  0.34072921  0.94094385  0.31219149  1
  O  O18  1  0.32192827  0.82384720  0.03537983  1
  O  O19  1  0.32192827  0.67615280  0.53537983  1
  O  O20  1  0.67807173  0.32384720  0.46462017  1
  O  O21  1  0.67807173  0.17615280  0.96462017  1
  O  O22  1  0.65927079  0.44094385  0.18780851  1
  O  O23  1  0.65927079  0.05905615  0.68780851  1
  O  O24  1  0.84072921  0.94094385  0.18780851  1
  O  O25  1  0.84072921  0.55905615  0.68780851  1
  O  O26  1  0.82192827  0.82384720  0.46462017  1
  O  O27  1  0.82192827  0.67615280  0.96462017  1
