# generated using pymatgen
data_FeOF
_symmetry_space_group_name_H-M   'P 1'
_cell_length_a   9.77315797
_cell_length_b   3.07999540
_cell_length_c   5.01768718
_cell_angle_alpha   90.00000000
_cell_angle_beta   90.00000000
_cell_angle_gamma   90.00000000
_symmetry_Int_Tables_number   1
_chemical_formula_structural   FeOF
_chemical_formula_sum   'Fe4 O4 F4'
_cell_volume   151.03881474
_cell_formula_units_Z   4
loop_
 _symmetry_equiv_pos_site_id
 _symmetry_equiv_pos_as_xyz
  1  'x, y, z'
loop_
 _atom_site_type_symbol
 _atom_site_label
 _atom_site_symmetry_multiplicity
 _atom_site_fract_x
 _atom_site_fract_y
 _atom_site_fract_z
 _atom_site_occupancy
  Fe  Fe0  1  0.15458767  0.25000000  0.97833007  1
  Fe  Fe1  1  0.34541233  0.75000000  0.47833007  1
  Fe  Fe2  1  0.65458767  0.25000000  0.52166993  1
  Fe  Fe3  1  0.84541233  0.75000000  0.02166993  1
  O  O4  1  0.22744644  0.75000000  0.16675175  1
  O  O5  1  0.27255356  0.25000000  0.66675175  1
  O  O6  1  0.72744644  0.75000000  0.33324825  1
  O  O7  1  0.77255356  0.25000000  0.83324825  1
  F  F8  1  0.03205135  0.75000000  0.80739936  1
  F  F9  1  0.46794865  0.25000000  0.30739936  1
  F  F10  1  0.53205135  0.75000000  0.69260064  1
  F  F11  1  0.96794865  0.25000000  0.19260064  1
