# generated using pymatgen
data_Fe4OF7
_symmetry_space_group_name_H-M   'P 1'
_cell_length_a   5.80025989
_cell_length_b   10.12430694
_cell_length_c   5.80025989
_cell_angle_alpha   80.60993125
_cell_angle_beta   68.96094466
_cell_angle_gamma   101.77531678
_symmetry_Int_Tables_number   1
_chemical_formula_structural   Fe4OF7
_chemical_formula_sum   'Fe8 O2 F14'
_cell_volume   300.61675256
_cell_formula_units_Z   2
loop_
 _symmetry_equiv_pos_site_id
 _symmetry_equiv_pos_as_xyz
  1  'x, y, z'
loop_
 _atom_site_type_symbol
 _atom_site_label
 _atom_site_symmetry_multiplicity
 _atom_site_fract_x
 _atom_site_fract_y
 _atom_site_fract_z
 _atom_site_occupancy
  Fe  Fe0  1  0.61910331  0.24643029  0.87267302  1
  Fe  Fe1  1  0.87350864  0.75074611  0.62276253  1
  Fe  Fe2  1  0.24831004  0.49555721  0.74323149  1
  Fe  Fe3  1  0.73878770  0.49555721  0.25275283  1
  Fe  Fe4  1  0.50172458  0.99588776  0.48983324  1
  Fe  Fe5  1  0.39327190  0.76115681  0.13211509  1
  Fe  Fe6  1  0.14602611  0.26342763  0.38259748  1
  Fe  Fe7  1  0.98572100  0.99588776  0.00583683  1
  O  O8  1  0.35116516  0.39753077  0.45363439  1
  O  O9  1  0.59899229  0.89861233  0.20037996  1
  F  F10  1  0.84525720  0.39916107  0.94609513  1
  F  F11  1  0.93270771  0.15203751  0.75857181  1
  F  F12  1  0.56054276  0.84550989  0.74318985  1
  F  F13  1  0.31208742  0.34576332  0.99273746  1
  F  F14  1  0.83850078  0.34576332  0.46632411  1
  F  F15  1  0.91257304  0.10816735  0.30440669  1
  F  F16  1  0.65269478  0.59950267  0.55319311  1
  F  F17  1  0.39424735  0.09627867  0.79796868  1
  F  F18  1  0.09728878  0.89899517  0.69829362  1
  F  F19  1  0.66190700  0.65251787  0.02884497  1
  F  F20  1  0.18136384  0.65251787  0.50938913  1
  F  F21  1  0.41060933  0.15203751  0.28067020  1
  F  F22  1  0.08869974  0.84550989  0.21503287  1
  F  F23  1  0.15490854  0.60544203  0.04946751  1
