# generated using pymatgen
data_Sr(H8O5)2
_symmetry_space_group_name_H-M   'P 1'
_cell_length_a   6.36531193
_cell_length_b   6.36531193
_cell_length_c   6.79386653
_cell_angle_alpha   89.15342042
_cell_angle_beta   89.15342042
_cell_angle_gamma   91.59736260
_symmetry_Int_Tables_number   1
_chemical_formula_structural   Sr(H8O5)2
_chemical_formula_sum   'Sr1 H16 O10'
_cell_volume   275.09965405
_cell_formula_units_Z   1
loop_
 _symmetry_equiv_pos_site_id
 _symmetry_equiv_pos_as_xyz
  1  'x, y, z'
loop_
 _atom_site_type_symbol
 _atom_site_label
 _atom_site_symmetry_multiplicity
 _atom_site_fract_x
 _atom_site_fract_y
 _atom_site_fract_z
 _atom_site_occupancy
  Sr  Sr0  1  0.00998931  0.99001069  0.00000000  1
  H  H1  1  0.33088105  0.33545247  0.80041278  1
  H  H2  1  0.27280019  0.14929520  0.65126666  1
  H  H3  1  0.66467611  0.67454155  0.80568698  1
  H  H4  1  0.71353193  0.90518500  0.70782326  1
  H  H5  1  0.89765171  0.28627381  0.70752501  1
  H  H6  1  0.67574870  0.32853878  0.81576169  1
  H  H7  1  0.32359181  0.65935741  0.80378610  1
  H  H8  1  0.10645480  0.69829298  0.69402675  1
  H  H9  1  0.66454753  0.66911895  0.19958722  1
  H  H10  1  0.85070480  0.72719981  0.34873334  1
  H  H11  1  0.32545845  0.33532389  0.19431302  1
  H  H12  1  0.09481500  0.28646807  0.29217674  1
  H  H13  1  0.34064259  0.67640819  0.19621390  1
  H  H14  1  0.30170702  0.89354520  0.30597325  1
  H  H15  1  0.67146122  0.32425130  0.18423831  1
  H  H16  1  0.71372619  0.10234829  0.29247499  1
  O  O17  1  0.50407710  0.49619768  0.89006764  1
  O  O18  1  0.50380232  0.49592290  0.10993236  1
  O  O19  1  0.21096689  0.24437795  0.74618803  1
  O  O20  1  0.77975723  0.77557935  0.75140110  1
  O  O21  1  0.77208741  0.21565624  0.76470690  1
  O  O22  1  0.22502065  0.77026247  0.75573942  1
  O  O23  1  0.75562205  0.78903311  0.25381197  1
  O  O24  1  0.22442065  0.22024277  0.24859890  1
  O  O25  1  0.22973753  0.77497935  0.24426058  1
  O  O26  1  0.78434376  0.22791259  0.23529310  1
