# generated using pymatgen
data_KAlSi2
_symmetry_space_group_name_H-M   'P 1'
_cell_length_a   9.71678377
_cell_length_b   9.71678377
_cell_length_c   9.71678377
_cell_angle_alpha   109.64626943
_cell_angle_beta   109.64626943
_cell_angle_gamma   109.12168745
_symmetry_Int_Tables_number   1
_chemical_formula_structural   KAlSi2
_chemical_formula_sum   'K8 Al8 Si16'
_cell_volume   706.20958990
_cell_formula_units_Z   8
loop_
 _symmetry_equiv_pos_site_id
 _symmetry_equiv_pos_as_xyz
  1  'x, y, z'
loop_
 _atom_site_type_symbol
 _atom_site_label
 _atom_site_symmetry_multiplicity
 _atom_site_fract_x
 _atom_site_fract_y
 _atom_site_fract_z
 _atom_site_occupancy
  K  K0  1  0.87797297  0.62492174  0.50253253  1
  K  K1  1  0.12238921  0.37544044  0.49746747  1
  K  K2  1  0.62761079  0.87455956  0.00253253  1
  K  K3  1  0.87202703  0.62507826  0.99746747  1
  K  K4  1  0.37507826  0.87761079  0.25305123  1
  K  K5  1  0.62455956  0.12202703  0.74694877  1
  K  K6  1  0.12544044  0.12797297  0.75305123  1
  K  K7  1  0.37492174  0.37238921  0.24694877  1
  Al  Al8  1  0.66593498  0.83300007  0.49891790  1
  Al  Al9  1  0.33408217  0.16701709  0.50108210  1
  Al  Al10  1  0.41591783  0.08298291  0.99891790  1
  Al  Al11  1  0.08406502  0.41699993  0.00108210  1
  Al  Al12  1  0.16699993  0.66591783  0.83293491  1
  Al  Al13  1  0.83298291  0.33406502  0.16706509  1
  Al  Al14  1  0.91701709  0.91593498  0.33293491  1
  Al  Al15  1  0.58300007  0.58408217  0.66706509  1
  Si  Si16  1  0.84072383  0.87866027  0.79679428  1
  Si  Si17  1  0.08186600  0.04392955  0.20320572  1
  Si  Si18  1  0.66813400  0.20607045  0.29679428  1
  Si  Si19  1  0.90927617  0.37133973  0.70320572  1
  Si  Si20  1  0.12133973  0.91813400  0.96206355  1
  Si  Si21  1  0.95607045  0.15927617  0.03793645  1
  Si  Si22  1  0.79392955  0.09072383  0.46206355  1
  Si  Si23  1  0.62866027  0.33186600  0.53793645  1
  Si  Si24  1  0.34224198  0.54579695  0.96568323  1
  Si  Si25  1  0.58011373  0.37655875  0.03431677  1
  Si  Si26  1  0.16988627  0.87344125  0.46568323  1
  Si  Si27  1  0.40775802  0.70420305  0.53431677  1
  Si  Si28  1  0.45420305  0.41988627  0.79644502  1
  Si  Si29  1  0.62344125  0.65775802  0.20355498  1
  Si  Si30  1  0.12655875  0.59224198  0.29644502  1
  Si  Si31  1  0.29579695  0.83011373  0.70355498  1
