# generated using pymatgen
data_AlF3
_symmetry_space_group_name_H-M   'P 1'
_cell_length_a   9.28920509
_cell_length_b   3.62801775
_cell_length_c   5.85743742
_cell_angle_alpha   91.70754696
_cell_angle_beta   149.35986195
_cell_angle_gamma   87.54177062
_symmetry_Int_Tables_number   1
_chemical_formula_structural   AlF3
_chemical_formula_sum   'Al2 F6'
_cell_volume   100.50337316
_cell_formula_units_Z   2
loop_
 _symmetry_equiv_pos_site_id
 _symmetry_equiv_pos_as_xyz
  1  'x, y, z'
loop_
 _atom_site_type_symbol
 _atom_site_label
 _atom_site_symmetry_multiplicity
 _atom_site_fract_x
 _atom_site_fract_y
 _atom_site_fract_z
 _atom_site_occupancy
  Al  Al0  1  0.55278888  0.30592740  0.03514214  1
  Al  Al1  1  0.83255876  0.30566369  0.84701881  1
  F  F2  1  0.19335981  0.30533313  0.44028306  1
  F  F3  1  0.69479173  0.30572752  0.94489538  1
  F  F4  1  0.83762196  0.80537550  0.85688295  1
  F  F5  1  0.54668634  0.80623150  0.02406330  1
  F  F6  1  0.91370973  0.28707042  0.65246487  1
  F  F7  1  0.47134579  0.32439884  0.22924749  1
