# generated using pymatgen
data_YbMoClO4
_symmetry_space_group_name_H-M   'P 1'
_cell_length_a   6.76174103
_cell_length_b   6.76174096
_cell_length_c   6.97211085
_cell_angle_alpha   77.89491672
_cell_angle_beta   77.89491646
_cell_angle_gamma   62.26711827
_symmetry_Int_Tables_number   1
_chemical_formula_structural   YbMoClO4
_chemical_formula_sum   'Yb2 Mo2 Cl2 O8'
_cell_volume   273.55567776
_cell_formula_units_Z   2
loop_
 _symmetry_equiv_pos_site_id
 _symmetry_equiv_pos_as_xyz
  1  'x, y, z'
loop_
 _atom_site_type_symbol
 _atom_site_label
 _atom_site_symmetry_multiplicity
 _atom_site_fract_x
 _atom_site_fract_y
 _atom_site_fract_z
 _atom_site_occupancy
  Yb  Yb0  1  0.27725680  0.27725680  0.86028540  1
  Yb  Yb1  1  0.72274320  0.72274320  0.13971460  1
  Mo  Mo2  1  0.36207071  0.36207071  0.26759600  1
  Mo  Mo3  1  0.63792929  0.63792929  0.73240400  1
  Cl  Cl4  1  0.98157597  0.98157597  0.86757105  1
  Cl  Cl5  1  0.01842403  0.01842403  0.13242895  1
  O  O6  1  0.50463136  0.10799970  0.14890450  1
  O  O7  1  0.47866402  0.47866402  0.78451239  1
  O  O8  1  0.10799970  0.50463136  0.14890450  1
  O  O9  1  0.52133598  0.52133598  0.21548761  1
  O  O10  1  0.49536864  0.89200030  0.85109550  1
  O  O11  1  0.89200030  0.49536864  0.85109550  1
  O  O12  1  0.29976904  0.29976904  0.52705772  1
  O  O13  1  0.70023096  0.70023096  0.47294228  1
