# generated using pymatgen
data_K2NbO3F5
_symmetry_space_group_name_H-M   'P 1'
_cell_length_a   6.41012050
_cell_length_b   6.41012050
_cell_length_c   9.67650878
_cell_angle_alpha   86.76183394
_cell_angle_beta   86.76183394
_cell_angle_gamma   87.83896230
_symmetry_Int_Tables_number   1
_chemical_formula_structural   K2NbO3F5
_chemical_formula_sum   'K4 Nb2 O6 F10'
_cell_volume   396.09796451
_cell_formula_units_Z   2
loop_
 _symmetry_equiv_pos_site_id
 _symmetry_equiv_pos_as_xyz
  1  'x, y, z'
loop_
 _atom_site_type_symbol
 _atom_site_label
 _atom_site_symmetry_multiplicity
 _atom_site_fract_x
 _atom_site_fract_y
 _atom_site_fract_z
 _atom_site_occupancy
  K  K0  1  0.73621630  0.72360227  0.78400367  1
  K  K1  1  0.27639773  0.26378370  0.21599633  1
  K  K2  1  0.24480198  0.75519802  0.50000000  1
  K  K3  1  0.76225762  0.23774238  0.50000000  1
  Nb  Nb4  1  0.23040750  0.21756986  0.73047751  1
  Nb  Nb5  1  0.78243014  0.76959250  0.26952249  1
  O  O6  1  0.31388189  0.13778003  0.91976335  1
  O  O7  1  0.86221997  0.68611811  0.08023665  1
  O  O8  1  0.14201858  0.29505199  0.91926310  1
  O  O9  1  0.70494801  0.85798142  0.08073690  1
  O  O10  1  0.42471430  0.57528570  0.00000000  1
  O  O11  1  0.56503713  0.43496287  -0.00000000  1
  F  F12  1  0.43376075  0.44139398  0.68368498  1
  F  F13  1  0.55860602  0.56623925  0.31631502  1
  F  F14  1  0.03017480  0.98907501  0.72703261  1
  F  F15  1  0.01092499  0.96982520  0.27296739  1
  F  F16  1  0.21866671  0.20355866  0.51909790  1
  F  F17  1  0.79644134  0.78133329  0.48090210  1
  F  F18  1  0.46649895  0.00736950  0.68733615  1
  F  F19  1  0.99263050  0.53350105  0.31266385  1
  F  F20  1  0.99643889  0.43047410  0.68834893  1
  F  F21  1  0.56952590  0.00356111  0.31165107  1
