# generated using pymatgen
data_Ca2Fe2(SiO3)5
_symmetry_space_group_name_H-M   'P 1'
_cell_length_a   6.69466420
_cell_length_b   7.50116932
_cell_length_c   11.87358755
_cell_angle_alpha   103.47878094
_cell_angle_beta   93.13713909
_cell_angle_gamma   93.78977349
_symmetry_Int_Tables_number   1
_chemical_formula_structural   Ca2Fe2(SiO3)5
_chemical_formula_sum   'Ca4 Fe4 Si10 O30'
_cell_volume   577.06107177
_cell_formula_units_Z   2
loop_
 _symmetry_equiv_pos_site_id
 _symmetry_equiv_pos_as_xyz
  1  'x, y, z'
loop_
 _atom_site_type_symbol
 _atom_site_label
 _atom_site_symmetry_multiplicity
 _atom_site_fract_x
 _atom_site_fract_y
 _atom_site_fract_z
 _atom_site_occupancy
  Ca  Ca0  1  0.83865524  0.71678052  0.04445469  1
  Ca  Ca1  1  0.16270311  0.28256940  0.95554629  1
  Ca  Ca2  1  0.70280920  0.26994993  0.48246876  1
  Ca  Ca3  1  0.29775614  0.72875412  0.51767884  1
  Fe  Fe4  1  0.93335946  0.90891998  0.35004867  1
  Fe  Fe5  1  0.06761799  0.09000021  0.64993549  1
  Fe  Fe6  1  0.81470524  0.44909640  0.76935170  1
  Fe  Fe7  1  0.18663408  0.54993602  0.23061522  1
  Si  Si8  1  0.42289576  0.96480782  0.31302890  1
  Si  Si9  1  0.57820500  0.03378838  0.68687067  1
  Si  Si10  1  0.34615370  0.78629462  0.05344466  1
  Si  Si11  1  0.65529372  0.21237509  0.94636223  1
  Si  Si12  1  0.11758373  0.82007116  0.83590441  1
  Si  Si13  1  0.88390307  0.17884960  0.16403956  1
  Si  Si14  1  0.31658297  0.47845326  0.71149170  1
  Si  Si15  1  0.68462708  0.52026782  0.28838452  1
  Si  Si16  1  0.20940348  0.30582745  0.44272983  1
  Si  Si17  1  0.79151029  0.69284826  0.55711479  1
  O  O18  1  0.38196828  0.18297197  0.37642843  1
  O  O19  1  0.61882635  0.81558727  0.62335774  1
  O  O20  1  0.64409169  0.95299138  0.37771204  1
  O  O21  1  0.35698309  0.04584155  0.62229582  1
  O  O22  1  0.23519326  0.83471700  0.34667629  1
  O  O23  1  0.76593382  0.16387037  0.65323293  1
  O  O24  1  0.41970836  0.94342687  0.17512889  1
  O  O25  1  0.58195408  0.05496775  0.82476810  1
  O  O26  1  0.17207434  0.63998678  0.08520129  1
  O  O27  1  0.82927584  0.35874939  0.91459286  1
  O  O28  1  0.52822078  0.69793034  0.99089428  1
  O  O29  1  0.47316354  0.30074915  0.00876640  1
  O  O30  1  0.25936549  0.69551136  0.74013884  1
  O  O31  1  0.74193251  0.30325784  0.25970551  1
  O  O32  1  0.92340119  0.69046331  0.85302949  1
  O  O33  1  0.07806210  0.30847770  0.14695536  1
  O  O34  1  0.06582758  0.00016293  0.78819983  1
  O  O35  1  0.93558895  0.99872334  0.21175664  1
  O  O36  1  0.53043899  0.44129572  0.76109790  1
  O  O37  1  0.47086550  0.55739347  0.23864736  1
  O  O38  1  0.12717048  0.35098660  0.74345523  1
  O  O39  1  0.87399071  0.64790017  0.25650544  1
  O  O40  1  0.32872222  0.42808195  0.56640525  1
  O  O41  1  0.67235787  0.57042574  0.43345224  1
  O  O42  1  0.02948055  0.16384405  0.46948130  1
  O  O43  1  0.97134455  0.83497615  0.53041818  1
  O  O44  1  0.14780945  0.46788394  0.38274043  1
  O  O45  1  0.85335658  0.53092260  0.61716997  1
  O  O46  1  0.22227802  0.90094788  0.96834342  1
  O  O47  1  0.77931459  0.09796541  0.03157162  1
