# generated using pymatgen
data_Cr2O5
_symmetry_space_group_name_H-M   'P 1'
_cell_length_a   9.28535324
_cell_length_b   9.04749372
_cell_length_c   4.98766821
_cell_angle_alpha   90.00000000
_cell_angle_beta   90.00000000
_cell_angle_gamma   90.00000000
_symmetry_Int_Tables_number   1
_chemical_formula_structural   Cr2O5
_chemical_formula_sum   'Cr8 O20'
_cell_volume   419.00989213
_cell_formula_units_Z   4
loop_
 _symmetry_equiv_pos_site_id
 _symmetry_equiv_pos_as_xyz
  1  'x, y, z'
loop_
 _atom_site_type_symbol
 _atom_site_label
 _atom_site_symmetry_multiplicity
 _atom_site_fract_x
 _atom_site_fract_y
 _atom_site_fract_z
 _atom_site_occupancy
  Cr  Cr0  1  0.03227533  0.71922623  0.86485547  1
  Cr  Cr1  1  0.15715236  0.41020521  0.13312792  1
  Cr  Cr2  1  0.34284764  0.58979479  0.63312792  1
  Cr  Cr3  1  0.46772467  0.28077377  0.36485547  1
  Cr  Cr4  1  0.53227533  0.78077377  0.13514453  1
  Cr  Cr5  1  0.65715236  0.08979479  0.86687208  1
  Cr  Cr6  1  0.84284764  0.91020521  0.36687208  1
  Cr  Cr7  1  0.96772467  0.21922623  0.63514453  1
  O  O8  1  0.00950942  0.54526972  0.96932018  1
  O  O9  1  0.98954383  0.84131331  0.10170153  1
  O  O10  1  0.06957374  0.24664629  0.90474876  1
  O  O11  1  0.21905912  0.55706454  0.34375135  1
  O  O12  1  0.20722278  0.73592008  0.78949669  1
  O  O13  1  0.29277722  0.26407992  0.28949669  1
  O  O14  1  0.28094088  0.44293546  0.84375135  1
  O  O15  1  0.43042626  0.75335371  0.40474876  1
  O  O16  1  0.51045617  0.15868669  0.60170153  1
  O  O17  1  0.49049058  0.45473028  0.46932018  1
  O  O18  1  0.50950942  0.95473028  0.03067982  1
  O  O19  1  0.48954383  0.65868669  0.89829847  1
  O  O20  1  0.56957374  0.25335371  0.09525124  1
  O  O21  1  0.71905912  0.94293546  0.65624865  1
  O  O22  1  0.70722278  0.76407992  0.21050331  1
  O  O23  1  0.79277722  0.23592008  0.71050331  1
  O  O24  1  0.78094088  0.05706454  0.15624865  1
  O  O25  1  0.93042626  0.74664629  0.59525124  1
  O  O26  1  0.01045617  0.34131331  0.39829847  1
  O  O27  1  0.99049058  0.04526972  0.53067982  1
