# generated using pymatgen
data_TaSi2H36C12N4Cl
_symmetry_space_group_name_H-M   'P 1'
_cell_length_a   11.41446550
_cell_length_b   14.17990708
_cell_length_c   15.64595289
_cell_angle_alpha   100.02878100
_cell_angle_beta   90.00000000
_cell_angle_gamma   90.00000000
_symmetry_Int_Tables_number   1
_chemical_formula_structural   TaSi2H36C12N4Cl
_chemical_formula_sum   'Ta4 Si8 H144 C48 N16 Cl4'
_cell_volume   2493.69835373
_cell_formula_units_Z   4
loop_
 _symmetry_equiv_pos_site_id
 _symmetry_equiv_pos_as_xyz
  1  'x, y, z'
loop_
 _atom_site_type_symbol
 _atom_site_label
 _atom_site_symmetry_multiplicity
 _atom_site_fract_x
 _atom_site_fract_y
 _atom_site_fract_z
 _atom_site_occupancy
  Ta  Ta0  1  0.29386606  0.72909027  0.54902593  1
  Ta  Ta1  1  0.20613394  0.22909027  0.04902593  1
  Ta  Ta2  1  0.70613394  0.27090973  0.45097407  1
  Ta  Ta3  1  0.79386606  0.77090973  0.95097407  1
  Si  Si4  1  0.19851638  0.80382235  0.37003837  1
  Si  Si5  1  0.30148362  0.30382235  0.87003837  1
  Si  Si6  1  0.80148362  0.19617765  0.62996163  1
  Si  Si7  1  0.69851638  0.69617765  0.12996163  1
  Si  Si8  1  0.01927198  0.72135301  0.47982002  1
  Si  Si9  1  0.48072802  0.22135301  0.97982002  1
  Si  Si10  1  0.98072802  0.27864699  0.52017998  1
  Si  Si11  1  0.51927198  0.77864699  0.02017998  1
  H  H12  1  0.32403461  0.93892761  0.44665969  1
  H  H13  1  0.17596539  0.43892761  0.94665969  1
  H  H14  1  0.67596539  0.06107239  0.55334031  1
  H  H15  1  0.82403461  0.56107239  0.05334031  1
  H  H16  1  0.31592508  0.93590246  0.33295830  1
  H  H17  1  0.18407492  0.43590246  0.83295830  1
  H  H18  1  0.68407492  0.06409754  0.66704170  1
  H  H19  1  0.81592508  0.56409754  0.16704170  1
  H  H20  1  0.40968704  0.85469950  0.37495196  1
  H  H21  1  0.09031296  0.35469950  0.87495196  1
  H  H22  1  0.59031296  0.14530050  0.62504804  1
  H  H23  1  0.90968704  0.64530050  0.12504804  1
  H  H24  1  0.17329437  0.61294592  0.72839483  1
  H  H25  1  0.32670563  0.11294592  0.22839483  1
  H  H26  1  0.82670563  0.38705408  0.27160517  1
  H  H27  1  0.67329437  0.88705408  0.77160517  1
  H  H28  1  0.17213508  0.73992421  0.73410644  1
  H  H29  1  0.32786492  0.23992421  0.23410644  1
  H  H30  1  0.82786492  0.26007579  0.26589356  1
  H  H31  1  0.67213508  0.76007579  0.76589356  1
  H  H32  1  0.28160202  0.68485270  0.79055245  1
  H  H33  1  0.21839798  0.18485270  0.29055245  1
  H  H34  1  0.71839798  0.31514730  0.20944755  1
  H  H35  1  0.78160202  0.81514730  0.70944755  1
  H  H36  1  0.14603281  0.96315477  0.67222159  1
  H  H37  1  0.35396719  0.46315477  0.17222159  1
  H  H38  1  0.85396719  0.03684523  0.32777841  1
  H  H39  1  0.64603281  0.53684523  0.82777841  1
  H  H40  1  0.14919346  0.92249044  0.55682053  1
  H  H41  1  0.35080654  0.42249044  0.05682053  1
  H  H42  1  0.85080654  0.07750956  0.44317947  1
  H  H43  1  0.64919346  0.57750956  0.94317947  1
  H  H44  1  0.25966680  0.00197381  0.60962854  1
  H  H45  1  0.24033320  0.50197381  0.10962854  1
  H  H46  1  0.74033320  0.99802619  0.39037146  1
  H  H47  1  0.75966680  0.49802619  0.89037146  1
  H  H48  1  0.99371838  0.82956275  0.31468055  1
  H  H49  1  0.50628162  0.32956275  0.81468055  1
  H  H50  1  0.00628162  0.17043725  0.68531945  1
  H  H51  1  0.49371838  0.67043725  0.18531945  1
  H  H52  1  0.10323862  0.89704701  0.27203109  1
  H  H53  1  0.39676138  0.39704701  0.77203109  1
  H  H54  1  0.89676138  0.10295299  0.72796891  1
  H  H55  1  0.60323862  0.60295299  0.22796891  1
  H  H56  1  0.05013257  0.93605342  0.37899059  1
  H  H57  1  0.44986743  0.43605342  0.87899059  1
  H  H58  1  0.94986743  0.06394658  0.62100941  1
  H  H59  1  0.55013257  0.56394658  0.12100941  1
  H  H60  1  0.30602221  0.65729546  0.29737089  1
  H  H61  1  0.19397779  0.15729546  0.79737089  1
  H  H62  1  0.69397779  0.34270454  0.70262911  1
  H  H63  1  0.80602221  0.84270454  0.20262911  1
  H  H64  1  0.26618197  0.73348254  0.22243953  1
  H  H65  1  0.23381803  0.23348254  0.72243953  1
  H  H66  1  0.73381803  0.26651746  0.77756047  1
  H  H67  1  0.76618197  0.76651746  0.27756047  1
  H  H68  1  0.16018974  0.65703692  0.25815786  1
  H  H69  1  0.33981026  0.15703692  0.75815786  1
  H  H70  1  0.83981026  0.34296308  0.74184214  1
  H  H71  1  0.66018974  0.84296308  0.24184214  1
  H  H72  1  0.43981959  0.60873556  0.72344745  1
  H  H73  1  0.06018041  0.10873556  0.22344745  1
  H  H74  1  0.56018041  0.39126444  0.27655255  1
  H  H75  1  0.93981959  0.89126444  0.77655255  1
  H  H76  1  0.45583881  0.58405593  0.60798827  1
  H  H77  1  0.04416119  0.08405593  0.10798827  1
  H  H78  1  0.54416119  0.41594407  0.39201173  1
  H  H79  1  0.95583881  0.91594407  0.89201173  1
  H  H80  1  0.34849191  0.52203967  0.65889383  1
  H  H81  1  0.15150809  0.02203967  0.15889383  1
  H  H82  1  0.65150809  0.47796033  0.34110617  1
  H  H83  1  0.84849191  0.97796033  0.84110617  1
  H  H84  1  0.38631777  0.95066616  0.71134470  1
  H  H85  1  0.11368223  0.45066616  0.21134470  1
  H  H86  1  0.61368223  0.04933384  0.28865530  1
  H  H87  1  0.88631777  0.54933384  0.78865530  1
  H  H88  1  0.39315144  0.82809905  0.72456039  1
  H  H89  1  0.10684856  0.32809905  0.22456039  1
  H  H90  1  0.60684856  0.17190095  0.27543961  1
  H  H91  1  0.89315144  0.67190095  0.77543961  1
  H  H92  1  0.27079435  0.90211741  0.76521236  1
  H  H93  1  0.22920565  0.40211741  0.26521236  1
  H  H94  1  0.72920565  0.09788259  0.23478764  1
  H  H95  1  0.77079435  0.59788259  0.73478764  1
  H  H96  1  0.93399516  0.87316514  0.56318529  1
  H  H97  1  0.56600484  0.37316514  0.06318529  1
  H  H98  1  0.06600484  0.12683486  0.43681471  1
  H  H99  1  0.43399516  0.62683486  0.93681471  1
  H  H100  1  0.82446145  0.79147128  0.51589032  1
  H  H101  1  0.67553855  0.29147128  0.01589032  1
  H  H102  1  0.17553855  0.20852872  0.48410968  1
  H  H103  1  0.32446145  0.70852872  0.98410968  1
  H  H104  1  0.89973403  0.86289571  0.45096171  1
  H  H105  1  0.60026597  0.36289571  0.95096171  1
  H  H106  1  0.10026597  0.13710429  0.54903829  1
  H  H107  1  0.39973403  0.63710429  0.04903829  1
  H  H108  1  0.96245694  0.66722237  0.32248889  1
  H  H109  1  0.53754306  0.16722237  0.82248889  1
  H  H110  1  0.03754306  0.33277763  0.67751111  1
  H  H111  1  0.46245694  0.83277763  0.17751111  1
  H  H112  1  0.87630091  0.61299592  0.39517298  1
  H  H113  1  0.62369909  0.11299592  0.89517298  1
  H  H114  1  0.12369909  0.38700408  0.60482702  1
  H  H115  1  0.37630091  0.88700408  0.10482702  1
  H  H116  1  0.02083241  0.57091324  0.36892203  1
  H  H117  1  0.47916759  0.07091324  0.86892203  1
  H  H118  1  0.97916759  0.42908676  0.63107797  1
  H  H119  1  0.52083241  0.92908676  0.13107797  1
  H  H120  1  0.07290137  0.59652987  0.56953698  1
  H  H121  1  0.42709863  0.09652987  0.06953698  1
  H  H122  1  0.92709863  0.40347013  0.43046302  1
  H  H123  1  0.57290137  0.90347013  0.93046302  1
  H  H124  1  0.92121779  0.62438986  0.57296963  1
  H  H125  1  0.57878221  0.12438986  0.07296963  1
  H  H126  1  0.07878221  0.37561014  0.42703037  1
  H  H127  1  0.42121779  0.87561014  0.92703037  1
  H  H128  1  0.02038868  0.70375090  0.63645565  1
  H  H129  1  0.47961132  0.20375090  0.13645565  1
  H  H130  1  0.97961132  0.29624910  0.36354435  1
  H  H131  1  0.52038868  0.79624910  0.86354435  1
  H  H132  1  0.59501517  0.82947911  0.58695194  1
  H  H133  1  0.90498483  0.32947911  0.08695194  1
  H  H134  1  0.40498483  0.17052089  0.41304806  1
  H  H135  1  0.09501517  0.67052089  0.91304806  1
  H  H136  1  0.46917782  0.89958306  0.57097179  1
  H  H137  1  0.03082218  0.39958306  0.07097179  1
  H  H138  1  0.53082218  0.10041694  0.42902821  1
  H  H139  1  0.96917782  0.60041694  0.92902821  1
  H  H140  1  0.56818626  0.86109049  0.48373040  1
  H  H141  1  0.93181374  0.36109049  0.98373040  1
  H  H142  1  0.43181374  0.13890951  0.51626960  1
  H  H143  1  0.06818626  0.63890951  0.01626960  1
  H  H144  1  0.57735136  0.71109444  0.41150585  1
  H  H145  1  0.92264864  0.21109444  0.91150585  1
  H  H146  1  0.42264864  0.28890556  0.58849415  1
  H  H147  1  0.07735136  0.78890556  0.08849415  1
  H  H148  1  0.49390683  0.61427360  0.44004334  1
  H  H149  1  0.00609317  0.11427360  0.94004334  1
  H  H150  1  0.50609317  0.38572640  0.55995666  1
  H  H151  1  0.99390683  0.88572640  0.05995666  1
  H  H152  1  0.61118087  0.66567128  0.50789902  1
  H  H153  1  0.88881913  0.16567128  0.00789902  1
  H  H154  1  0.38881913  0.33432872  0.49210098  1
  H  H155  1  0.11118087  0.83432872  0.99210098  1
  C  C156  1  0.32454528  0.89101609  0.38350601  1
  C  C157  1  0.17545472  0.39101609  0.88350601  1
  C  C158  1  0.67545472  0.10898391  0.61649399  1
  C  C159  1  0.82454528  0.60898391  0.11649399  1
  C  C160  1  0.22916583  0.67701269  0.73027072  1
  C  C161  1  0.27083417  0.17701269  0.23027072  1
  C  C162  1  0.77083417  0.32298731  0.26972928  1
  C  C163  1  0.72916583  0.82298731  0.76972928  1
  C  C164  1  0.20302058  0.94007034  0.61535810  1
  C  C165  1  0.29697942  0.44007034  0.11535810  1
  C  C166  1  0.79697942  0.05992966  0.38464190  1
  C  C167  1  0.70302058  0.55992966  0.88464190  1
  C  C168  1  0.07317485  0.87231308  0.33132629  1
  C  C169  1  0.42682515  0.37231308  0.83132629  1
  C  C170  1  0.92682515  0.12768692  0.66867371  1
  C  C171  1  0.57317485  0.62768692  0.16867371  1
  C  C172  1  0.23613295  0.70299101  0.27883202  1
  C  C173  1  0.26386705  0.20299101  0.77883202  1
  C  C174  1  0.76386705  0.29700899  0.72116798  1
  C  C175  1  0.73613295  0.79700899  0.22116798  1
  C  C176  1  0.39193465  0.59220804  0.66119259  1
  C  C177  1  0.10806535  0.09220804  0.16119259  1
  C  C178  1  0.60806535  0.40779196  0.33880741  1
  C  C179  1  0.89193465  0.90779196  0.83880741  1
  C  C180  1  0.33425328  0.88496662  0.71146794  1
  C  C181  1  0.16574672  0.38496662  0.21146794  1
  C  C182  1  0.66574672  0.11503338  0.28853206  1
  C  C183  1  0.83425328  0.61503338  0.78853206  1
  C  C184  1  0.91027428  0.82255761  0.50422575  1
  C  C185  1  0.58972572  0.32255761  0.00422575  1
  C  C186  1  0.08972572  0.17744239  0.49577425  1
  C  C187  1  0.41027428  0.67744239  0.99577425  1
  C  C188  1  0.96590084  0.63548790  0.38161693  1
  C  C189  1  0.53409916  0.13548790  0.88161693  1
  C  C190  1  0.03409916  0.36451210  0.61838307  1
  C  C191  1  0.46590084  0.86451210  0.11838307  1
  C  C192  1  0.00980610  0.65560968  0.57394482  1
  C  C193  1  0.49019390  0.15560968  0.07394482  1
  C  C194  1  0.99019390  0.34439032  0.42605518  1
  C  C195  1  0.50980610  0.84439032  0.92605518  1
  C  C196  1  0.52502970  0.84035252  0.54079165  1
  C  C197  1  0.97497030  0.34035252  0.04079165  1
  C  C198  1  0.47497030  0.15964748  0.45920835  1
  C  C199  1  0.02502970  0.65964748  0.95920835  1
  C  C200  1  0.53851698  0.68136855  0.46581627  1
  C  C201  1  0.96148302  0.18136855  0.96581627  1
  C  C202  1  0.46148302  0.31863145  0.53418373  1
  C  C203  1  0.03851698  0.81863145  0.03418373  1
  N  N204  1  0.27344954  0.85771954  0.62826904  1
  N  N205  1  0.22655046  0.35771954  0.12826904  1
  N  N206  1  0.72655046  0.14228046  0.37173096  1
  N  N207  1  0.77344954  0.64228046  0.87173096  1
  N  N208  1  0.30642958  0.66722001  0.65560732  1
  N  N209  1  0.19357042  0.16722001  0.15560732  1
  N  N210  1  0.69357042  0.33277999  0.34439268  1
  N  N211  1  0.80642958  0.83277999  0.84439268  1
  N  N212  1  0.45821938  0.75213422  0.51404030  1
  N  N213  1  0.04178062  0.25213422  0.01404030  1
  N  N214  1  0.54178062  0.24786578  0.48595970  1
  N  N215  1  0.95821938  0.74786578  0.98595970  1
  N  N216  1  0.16450792  0.76211806  0.46792975  1
  N  N217  1  0.33549208  0.26211806  0.96792975  1
  N  N218  1  0.83549208  0.23788194  0.53207025  1
  N  N219  1  0.66450792  0.73788194  0.03207025  1
  Cl  Cl220  1  0.29242356  0.56311000  0.46383422  1
  Cl  Cl221  1  0.20757644  0.06311000  0.96383422  1
  Cl  Cl222  1  0.70757644  0.43689000  0.53616578  1
  Cl  Cl223  1  0.79242356  0.93689000  0.03616578  1
