# generated using pymatgen
data_Fe2OF3
_symmetry_space_group_name_H-M   'P 1'
_cell_length_a   4.83906038
_cell_length_b   24.03389994
_cell_length_c   3.14350876
_cell_angle_alpha   90.00000000
_cell_angle_beta   90.00000000
_cell_angle_gamma   89.01214558
_symmetry_Int_Tables_number   1
_chemical_formula_structural   Fe2OF3
_chemical_formula_sum   'Fe10 O5 F15'
_cell_volume   365.54042436
_cell_formula_units_Z   5
loop_
 _symmetry_equiv_pos_site_id
 _symmetry_equiv_pos_as_xyz
  1  'x, y, z'
loop_
 _atom_site_type_symbol
 _atom_site_label
 _atom_site_symmetry_multiplicity
 _atom_site_fract_x
 _atom_site_fract_y
 _atom_site_fract_z
 _atom_site_occupancy
  Fe  Fe0  1  0.03560882  0.99508268  0.00000000  1
  Fe  Fe1  1  0.98150210  0.19883425  0.00000000  1
  Fe  Fe2  1  0.01932883  0.39457933  -0.00000000  1
  Fe  Fe3  1  0.02518726  0.59438207  -0.00000000  1
  Fe  Fe4  1  0.02786206  0.79437890  -0.00000000  1
  Fe  Fe5  1  0.53108671  0.10610671  0.50000000  1
  Fe  Fe6  1  0.47698683  0.30224741  0.50000000  1
  Fe  Fe7  1  0.48607182  0.50187459  0.50000000  1
  Fe  Fe8  1  0.48923634  0.70183796  0.50000000  1
  Fe  Fe9  1  0.49463245  0.90204991  0.50000000  1
  O  O10  1  0.17953763  0.36186089  0.50000000  1
  O  O11  1  0.18723143  0.56202771  0.50000000  1
  O  O12  1  0.19882650  0.96344047  0.50000000  1
  O  O13  1  0.18994658  0.76231734  0.50000000  1
  O  O14  1  0.69376965  0.13617450  -0.00000000  1
  F  F15  1  0.20019296  0.15486955  0.50000000  1
  F  F16  1  0.30729603  0.06057659  -0.00000000  1
  F  F17  1  0.28567831  0.45844416  -0.00000000  1
  F  F18  1  0.28770857  0.65875449  -0.00000000  1
  F  F19  1  0.28914813  0.85953052  -0.00000000  1
  F  F20  1  0.29062059  0.25534262  -0.00000000  1
  F  F21  1  0.69539339  0.34412120  -0.00000000  1
  F  F22  1  0.70545065  0.74333952  -0.00000000  1
  F  F23  1  0.71525315  0.94294167  -0.00000000  1
  F  F24  1  0.70260577  0.54322900  -0.00000000  1
  F  F25  1  0.80607709  0.03820463  0.50000000  1
  F  F26  1  0.78591183  0.24237821  0.50000000  1
  F  F27  1  0.80207561  0.44068013  0.50000000  1
  F  F28  1  0.80415794  0.64020941  0.50000000  1
  F  F29  1  0.80561598  0.84018257  0.50000000  1
