# generated using pymatgen
data_SrO10
_symmetry_space_group_name_H-M   'P 1'
_cell_length_a   5.80181462
_cell_length_b   5.80181462
_cell_length_c   8.98387321
_cell_angle_alpha   90.00000000
_cell_angle_beta   90.00000000
_cell_angle_gamma   90.00000000
_symmetry_Int_Tables_number   1
_chemical_formula_structural   SrO10
_chemical_formula_sum   'Sr2 O20'
_cell_volume   302.40663123
_cell_formula_units_Z   2
loop_
 _symmetry_equiv_pos_site_id
 _symmetry_equiv_pos_as_xyz
  1  'x, y, z'
loop_
 _atom_site_type_symbol
 _atom_site_label
 _atom_site_symmetry_multiplicity
 _atom_site_fract_x
 _atom_site_fract_y
 _atom_site_fract_z
 _atom_site_occupancy
  Sr  Sr0  1  -0.00000000  0.00000000  0.25000000  1
  Sr  Sr1  1  -0.00000000  -0.00000000  0.75000000  1
  O  O2  1  0.50000000  0.50000000  0.31876315  1
  O  O3  1  0.50000000  0.50000000  0.81876315  1
  O  O4  1  0.50000000  0.50000000  0.68123685  1
  O  O5  1  0.50000000  0.50000000  0.18123685  1
  O  O6  1  0.10510090  0.34923574  0.42881716  1
  O  O7  1  0.89489910  0.65076426  0.42881716  1
  O  O8  1  0.65076426  0.10510090  0.42881716  1
  O  O9  1  0.34923574  0.89489910  0.42881716  1
  O  O10  1  0.89489910  0.34923574  0.92881716  1
  O  O11  1  0.10510090  0.65076426  0.92881716  1
  O  O12  1  0.34923574  0.10510090  0.92881716  1
  O  O13  1  0.65076426  0.89489910  0.92881716  1
  O  O14  1  0.89489910  0.65076426  0.57118284  1
  O  O15  1  0.10510090  0.34923574  0.57118284  1
  O  O16  1  0.34923574  0.89489910  0.57118284  1
  O  O17  1  0.65076426  0.10510090  0.57118284  1
  O  O18  1  0.10510090  0.65076426  0.07118284  1
  O  O19  1  0.89489910  0.34923574  0.07118284  1
  O  O20  1  0.65076426  0.89489910  0.07118284  1
  O  O21  1  0.34923574  0.10510090  0.07118284  1
