# generated using pymatgen
data_Ca2B5ClO10
_symmetry_space_group_name_H-M   'P 1'
_cell_length_a   6.54979431
_cell_length_b   6.67050627
_cell_length_c   6.26707475
_cell_angle_alpha   60.72225985
_cell_angle_beta   118.27743985
_cell_angle_gamma   106.25344761
_symmetry_Int_Tables_number   1
_chemical_formula_structural   Ca2B5ClO10
_chemical_formula_sum   'Ca2 B5 Cl1 O10'
_cell_volume   209.91830884
_cell_formula_units_Z   1
loop_
 _symmetry_equiv_pos_site_id
 _symmetry_equiv_pos_as_xyz
  1  'x, y, z'
loop_
 _atom_site_type_symbol
 _atom_site_label
 _atom_site_symmetry_multiplicity
 _atom_site_fract_x
 _atom_site_fract_y
 _atom_site_fract_z
 _atom_site_occupancy
  Ca  Ca0  1  0.99954469  0.04814566  0.96171231  1
  Ca  Ca1  1  0.52019411  0.45071297  0.87806850  1
  B  B2  1  0.51734374  0.12802682  0.52599241  1
  B  B3  1  0.66770953  0.91069769  0.39843826  1
  B  B4  1  0.44722127  0.96563808  0.93381922  1
  B  B5  1  0.11336134  0.98386981  0.52074637  1
  B  B6  1  0.56484763  0.57688319  0.29673827  1
  Cl  Cl7  1  0.06235087  0.50531299  0.34447065  1
  O  O8  1  0.12128884  0.42902068  0.66563861  1
  O  O9  1  0.54785875  0.35749081  0.32210168  1
  O  O10  1  0.27029128  0.04092331  0.40874431  1
  O  O11  1  0.56657122  0.14694171  0.76881420  1
  O  O12  1  0.68456593  0.97188628  0.59778298  1
  O  O13  1  0.88581603  0.96624066  0.35319598  1
  O  O14  1  0.61414511  0.64873888  0.48930116  1
  O  O15  1  0.48201642  0.02818970  0.14011077  1
  O  O16  1  0.18736868  0.95181431  0.78004514  1
  O  O17  1  0.53100457  0.73766644  0.03647917  1
