# generated using pymatgen
data_La3Cd
_symmetry_space_group_name_H-M   'P 1'
_cell_length_a   7.29524199
_cell_length_b   7.29524172
_cell_length_c   5.67500584
_cell_angle_alpha   90.00000000
_cell_angle_beta   90.00000000
_cell_angle_gamma   119.99999690
_symmetry_Int_Tables_number   1
_chemical_formula_structural   La3Cd
_chemical_formula_sum   'La6 Cd2'
_cell_volume   261.56302231
_cell_formula_units_Z   2
loop_
 _symmetry_equiv_pos_site_id
 _symmetry_equiv_pos_as_xyz
  1  'x, y, z'
loop_
 _atom_site_type_symbol
 _atom_site_label
 _atom_site_symmetry_multiplicity
 _atom_site_fract_x
 _atom_site_fract_y
 _atom_site_fract_z
 _atom_site_occupancy
  La  La0  1  0.17600990  0.35202079  0.25000000  1
  La  La1  1  0.64798121  0.82399110  0.25000000  1
  La  La2  1  0.17601090  0.82399110  0.25000000  1
  La  La3  1  0.82398910  0.64797921  0.74999900  1
  La  La4  1  0.35202079  0.17600990  0.74999900  1
  La  La5  1  0.82399110  0.17600990  0.74999900  1
  Cd  Cd6  1  0.33333400  0.66666700  0.74999900  1
  Cd  Cd7  1  0.66666600  0.33333300  0.25000000  1
