# generated using pymatgen
data_AcLa3
_symmetry_space_group_name_H-M   'P 1'
_cell_length_a   7.63804160
_cell_length_b   7.63804260
_cell_length_c   6.25778351
_cell_angle_alpha   90.00000000
_cell_angle_beta   90.00000000
_cell_angle_gamma   120.00000065
_symmetry_Int_Tables_number   1
_chemical_formula_structural   AcLa3
_chemical_formula_sum   'Ac2 La6'
_cell_volume   316.16606870
_cell_formula_units_Z   2
loop_
 _symmetry_equiv_pos_site_id
 _symmetry_equiv_pos_as_xyz
  1  'x, y, z'
loop_
 _atom_site_type_symbol
 _atom_site_label
 _atom_site_symmetry_multiplicity
 _atom_site_fract_x
 _atom_site_fract_y
 _atom_site_fract_z
 _atom_site_occupancy
  Ac  Ac0  1  0.33333400  0.66666800  0.75000200  1
  Ac  Ac1  1  0.66666700  0.33333200  0.24999900  1
  La  La2  1  0.16348968  0.32697937  0.24999900  1
  La  La3  1  0.67301963  0.83650932  0.24999900  1
  La  La4  1  0.16349068  0.83650932  0.24999900  1
  La  La5  1  0.83651132  0.67302063  0.75000200  1
  La  La6  1  0.32698037  0.16349068  0.75000200  1
  La  La7  1  0.83651032  0.16349068  0.75000200  1
