# generated using pymatgen
data_CuAs2H6C2IO2
_symmetry_space_group_name_H-M   'P 1'
_cell_length_a   8.28484265
_cell_length_b   13.61987136
_cell_length_c   18.43258770
_cell_angle_alpha   108.22346453
_cell_angle_beta   90.00000000
_cell_angle_gamma   107.70675553
_symmetry_Int_Tables_number   1
_chemical_formula_structural   CuAs2H6C2IO2
_chemical_formula_sum   'Cu8 As16 H48 C16 I8 O16'
_cell_volume   1871.56738180
_cell_formula_units_Z   8
loop_
 _symmetry_equiv_pos_site_id
 _symmetry_equiv_pos_as_xyz
  1  'x, y, z'
loop_
 _atom_site_type_symbol
 _atom_site_label
 _atom_site_symmetry_multiplicity
 _atom_site_fract_x
 _atom_site_fract_y
 _atom_site_fract_z
 _atom_site_occupancy
  Cu  Cu0  1  0.22185897  0.73703609  0.06601063  1
  Cu  Cu1  1  0.48482288  0.26296391  0.43398937  1
  Cu  Cu2  1  0.77814103  0.26296391  0.93398937  1
  Cu  Cu3  1  0.51517712  0.73703609  0.56601063  1
  Cu  Cu4  1  0.92601211  0.56978694  0.07285178  1
  Cu  Cu5  1  0.35622518  0.43021306  0.42714822  1
  Cu  Cu6  1  0.07398789  0.43021306  0.92714822  1
  Cu  Cu7  1  0.64377482  0.56978694  0.57285178  1
  As  As8  1  0.47204657  0.68439580  0.05415083  1
  As  As9  1  0.78765076  0.31560420  0.44584917  1
  As  As10  1  0.52795343  0.31560420  0.94584917  1
  As  As11  1  0.21234924  0.68439580  0.55415083  1
  As  As12  1  0.35990437  0.47813829  0.89966733  1
  As  As13  1  0.88176608  0.52186171  0.60033267  1
  As  As14  1  0.64009563  0.52186171  0.10033267  1
  As  As15  1  0.11823392  0.47813829  0.39966733  1
  As  As16  1  0.26942703  0.91873734  0.06485027  1
  As  As17  1  0.35068970  0.08126266  0.43514973  1
  As  As18  1  0.73057297  0.08126266  0.93514973  1
  As  As19  1  0.64931030  0.91873734  0.56485027  1
  As  As20  1  0.60818610  0.12923086  0.10083184  1
  As  As21  1  0.47895523  0.87076914  0.39916816  1
  As  As22  1  0.39181390  0.87076914  0.89916816  1
  As  As23  1  0.52104477  0.12923086  0.60083184  1
  H  H24  1  0.69249813  0.84999272  0.04237788  1
  H  H25  1  0.84250541  0.15000728  0.45762212  1
  H  H26  1  0.30750187  0.15000728  0.95762212  1
  H  H27  1  0.15749459  0.84999272  0.54237788  1
  H  H28  1  0.70941706  0.84367627  0.13767121  1
  H  H29  1  0.86574080  0.15632373  0.36232879  1
  H  H30  1  0.29058294  0.15632373  0.86232879  1
  H  H31  1  0.13425920  0.84367627  0.63767121  1
  H  H32  1  0.79399738  0.75895446  0.06205095  1
  H  H33  1  0.03504292  0.24104554  0.43794905  1
  H  H34  1  0.20600262  0.24104554  0.93794905  1
  H  H35  1  0.96495708  0.75895446  0.56205095  1
  H  H36  1  0.53932509  0.52163932  0.79660581  1
  H  H37  1  0.01768577  0.47836068  0.70339419  1
  H  H38  1  0.46067491  0.47836068  0.20339419  1
  H  H39  1  0.98231423  0.52163932  0.29660581  1
  H  H40  1  0.32519355  0.43801373  0.75569548  1
  H  H41  1  0.88717981  0.56198627  0.74430452  1
  H  H42  1  0.67480645  0.56198627  0.24430452  1
  H  H43  1  0.11282019  0.43801373  0.25569548  1
  H  H44  1  0.37044985  0.58087197  0.80688238  1
  H  H45  1  0.78957788  0.41912803  0.69311762  1
  H  H46  1  0.62955015  0.41912803  0.19311762  1
  H  H47  1  0.21042212  0.58087197  0.30688238  1
  H  H48  1  0.01161519  0.98140662  0.06584691  1
  H  H49  1  0.03020857  0.01859338  0.43415309  1
  H  H50  1  0.98838481  0.01859338  0.93415309  1
  H  H51  1  0.96979143  0.98140662  0.56584691  1
  H  H52  1  0.09888072  0.00886962  0.16227300  1
  H  H53  1  0.09001109  0.99113038  0.33772700  1
  H  H54  1  0.90111928  0.99113038  0.83772700  1
  H  H55  1  0.90998891  0.00886962  0.66227300  1
  H  H56  1  0.20044576  0.09567751  0.10842535  1
  H  H57  1  0.10476825  0.90432249  0.39157465  1
  H  H58  1  0.79955424  0.90432249  0.89157465  1
  H  H59  1  0.89523175  0.09567751  0.60842535  1
  H  H60  1  0.89562506  0.21714196  0.17982602  1
  H  H61  1  0.67848309  0.78285804  0.32017398  1
  H  H62  1  0.10437494  0.78285804  0.82017398  1
  H  H63  1  0.32151691  0.21714196  0.67982602  1
  H  H64  1  0.72638986  0.20434369  0.24058939  1
  H  H65  1  0.52204617  0.79565631  0.25941061  1
  H  H66  1  0.27361014  0.79565631  0.75941061  1
  H  H67  1  0.47795383  0.20434369  0.74058939  1
  H  H68  1  0.78905087  0.08686830  0.19123906  1
  H  H69  1  0.70218257  0.91313170  0.30876094  1
  H  H70  1  0.21094913  0.91313170  0.80876094  1
  H  H71  1  0.29781743  0.08686830  0.69123906  1
  C  C72  1  0.69377721  0.79714586  0.07643013  1
  C  C73  1  0.89663135  0.20285414  0.42356987  1
  C  C74  1  0.30622279  0.20285414  0.92356987  1
  C  C75  1  0.10336865  0.79714586  0.57643013  1
  C  C76  1  0.40351074  0.50759456  0.80332869  1
  C  C77  1  0.89591618  0.49240544  0.69667131  1
  C  C78  1  0.59648926  0.49240544  0.19667131  1
  C  C79  1  0.10408382  0.50759456  0.30332869  1
  C  C80  1  0.12835827  0.01179042  0.10501543  1
  C  C81  1  0.11656784  0.98820958  0.39498457  1
  C  C82  1  0.87164173  0.98820958  0.89498457  1
  C  C83  1  0.88343216  0.01179042  0.60501543  1
  C  C84  1  0.77426849  0.16287089  0.18829978  1
  C  C85  1  0.61139759  0.83712911  0.31170022  1
  C  C86  1  0.22573151  0.83712911  0.81170022  1
  C  C87  1  0.38860241  0.16287089  0.68829978  1
  I  I88  1  0.00056295  0.61189400  0.94158281  1
  I  I89  1  0.38866895  0.38810600  0.55841719  1
  I  I90  1  0.99943705  0.38810600  0.05841719  1
  I  I91  1  0.61133105  0.61189400  0.44158281  1
  I  I92  1  0.08929361  0.73265856  0.19480924  1
  I  I93  1  0.35663505  0.26734144  0.30519076  1
  I  I94  1  0.91070639  0.26734144  0.80519076  1
  I  I95  1  0.64336495  0.73265856  0.69480924  1
  O  O96  1  0.51400945  0.60712085  0.96038228  1
  O  O97  1  0.90688860  0.39287915  0.53961772  1
  O  O98  1  0.48599055  0.39287915  0.03961772  1
  O  O99  1  0.09311140  0.60712085  0.46038228  1
  O  O100  1  0.49930902  0.39345437  0.88576909  1
  O  O101  1  0.10585466  0.60654563  0.61423091  1
  O  O102  1  0.50069098  0.60654563  0.11423091  1
  O  O103  1  0.89414534  0.39345437  0.38576909  1
  O  O104  1  0.47406495  0.00550878  0.11778715  1
  O  O105  1  0.46855617  0.99449122  0.38221285  1
  O  O106  1  0.52593505  0.99449122  0.88221285  1
  O  O107  1  0.53144383  0.00550878  0.61778715  1
  O  O108  1  0.72326202  0.05740353  0.02714861  1
  O  O109  1  0.66585850  0.94259647  0.47285139  1
  O  O110  1  0.27673798  0.94259647  0.97285139  1
  O  O111  1  0.33414150  0.05740353  0.52714861  1
