# generated using pymatgen
data_Mg16Al12Ag
_symmetry_space_group_name_H-M   'P 1'
_cell_length_a   9.24616808
_cell_length_b   9.06219746
_cell_length_c   9.06219628
_cell_angle_alpha   109.05632445
_cell_angle_beta   109.88298940
_cell_angle_gamma   109.88298080
_symmetry_Int_Tables_number   1
_chemical_formula_structural   Mg16Al12Ag
_chemical_formula_sum   'Mg16 Al12 Ag1'
_cell_volume   581.53344765
_cell_formula_units_Z   1
loop_
 _symmetry_equiv_pos_site_id
 _symmetry_equiv_pos_as_xyz
  1  'x, y, z'
loop_
 _atom_site_type_symbol
 _atom_site_label
 _atom_site_symmetry_multiplicity
 _atom_site_fract_x
 _atom_site_fract_y
 _atom_site_fract_z
 _atom_site_occupancy
  Mg  Mg0  1  0.59060674  0.29352251  1.00000000  1
  Mg  Mg1  1  0.00230061  0.34767146  1.00000000  1
  Mg  Mg2  1  0.99713756  0.00000000  0.00000000  1
  Mg  Mg3  1  0.31677577  0.60151952  0.00000000  1
  Mg  Mg4  1  0.68257924  0.68048016  0.27917742  1
  Mg  Mg5  1  0.59060674  1.00000000  0.29352351  1
  Mg  Mg6  1  0.00209909  0.59869727  0.31951984  1
  Mg  Mg7  1  0.00230161  1.00000000  0.34767146  1
  Mg  Mg8  1  0.71525626  0.39848148  0.39848148  1
  Mg  Mg9  1  0.40340182  0.72082258  0.40130273  1
  Mg  Mg10  1  0.00209909  0.31951984  0.59869727  1
  Mg  Mg11  1  0.31677477  0.00000000  0.60151952  1
  Mg  Mg12  1  0.65462915  0.65232754  0.65232754  1
  Mg  Mg13  1  0.68257924  0.27917742  0.68048016  1
  Mg  Mg14  1  0.29708323  0.70647649  0.70647649  1
  Mg  Mg15  1  0.40340182  0.40130273  0.72082258  1
  Al  Al16  1  0.64309336  0.81243135  0.00000000  1
  Al  Al17  1  0.81524862  0.62466325  0.00000000  1
  Al  Al18  1  0.36708989  0.36824780  0.18379503  1
  Al  Al19  1  0.18329386  0.81620397  0.18445277  1
  Al  Al20  1  0.83066201  0.18756865  0.18756965  1
  Al  Al21  1  0.36708989  0.18379503  0.36824780  1
  Al  Al22  1  0.19058537  0.37533775  0.37533775  1
  Al  Al23  1  0.81524862  0.00000000  0.62466325  1
  Al  Al24  1  0.99884209  0.81554723  0.63175320  1
  Al  Al25  1  0.64309336  0.00000000  0.81243135  1
  Al  Al26  1  0.99884209  0.63175320  0.81554823  1
  Al  Al27  1  0.18329386  0.18445277  0.81620397  1
  Ag  Ag28  1  0.30398825  1.00000000  0.00000100  1
