# generated using pymatgen
data_Nd3Sc
_symmetry_space_group_name_H-M   'P 1'
_cell_length_a   7.21015561
_cell_length_b   7.21108987
_cell_length_c   5.81892116
_cell_angle_alpha   90.01219362
_cell_angle_beta   89.96802244
_cell_angle_gamma   120.02719108
_symmetry_Int_Tables_number   1
_chemical_formula_structural   Nd3Sc
_chemical_formula_sum   'Nd6 Sc2'
_cell_volume   261.93861160
_cell_formula_units_Z   2
loop_
 _symmetry_equiv_pos_site_id
 _symmetry_equiv_pos_as_xyz
  1  'x, y, z'
loop_
 _atom_site_type_symbol
 _atom_site_label
 _atom_site_symmetry_multiplicity
 _atom_site_fract_x
 _atom_site_fract_y
 _atom_site_fract_z
 _atom_site_occupancy
  Nd  Nd0  1  0.65916685  0.82956532  0.25006597  1
  Nd  Nd1  1  0.17045767  0.34085354  0.25003784  1
  Nd  Nd2  1  0.34108700  0.17053962  0.74989968  1
  Nd  Nd3  1  0.82943918  0.65888999  0.74991349  1
  Nd  Nd4  1  0.17046492  0.82954611  0.25003260  1
  Nd  Nd5  1  0.82940264  0.17057955  0.74993757  1
  Sc  Sc6  1  0.66662056  0.33335502  0.25033837  1
  Sc  Sc7  1  0.33335720  0.66666685  0.74976249  1
