# generated using pymatgen
data_BaU2I2O13
_symmetry_space_group_name_H-M   'P 1'
_cell_length_a   6.99587188
_cell_length_b   8.10172125
_cell_length_c   22.11053060
_cell_angle_alpha   97.28060696
_cell_angle_beta   90.00000000
_cell_angle_gamma   90.00000000
_symmetry_Int_Tables_number   1
_chemical_formula_structural   BaU2I2O13
_chemical_formula_sum   'Ba4 U8 I8 O52'
_cell_volume   1243.08999501
_cell_formula_units_Z   4
loop_
 _symmetry_equiv_pos_site_id
 _symmetry_equiv_pos_as_xyz
  1  'x, y, z'
loop_
 _atom_site_type_symbol
 _atom_site_label
 _atom_site_symmetry_multiplicity
 _atom_site_fract_x
 _atom_site_fract_y
 _atom_site_fract_z
 _atom_site_occupancy
  Ba  Ba0  1  0.62475851  0.13362156  0.63899351  1
  Ba  Ba1  1  0.12475851  0.86637844  0.86100649  1
  Ba  Ba2  1  0.37524149  0.86637844  0.36100649  1
  Ba  Ba3  1  0.87524149  0.13362156  0.13899351  1
  U  U4  1  0.82584625  0.60366946  0.62561769  1
  U  U5  1  0.32584625  0.39633054  0.87438231  1
  U  U6  1  0.17415375  0.39633054  0.37438231  1
  U  U7  1  0.67415375  0.60366946  0.12561769  1
  U  U8  1  0.80460334  0.47498683  0.78132728  1
  U  U9  1  0.30460334  0.52501317  0.71867272  1
  U  U10  1  0.19539666  0.52501317  0.21867272  1
  U  U11  1  0.69539666  0.47498683  0.28132728  1
  I  I12  1  0.82728258  0.83965552  0.47431287  1
  I  I13  1  0.32728258  0.16034448  0.02568713  1
  I  I14  1  0.17271742  0.16034448  0.52568713  1
  I  I15  1  0.67271742  0.83965552  0.97431287  1
  I  I16  1  0.32705896  0.69940638  0.55211069  1
  I  I17  1  0.82705896  0.30059362  0.94788931  1
  I  I18  1  0.67294104  0.30059362  0.44788931  1
  I  I19  1  0.17294104  0.69940638  0.05211069  1
  O  O20  1  0.92178811  0.69577308  0.52576682  1
  O  O21  1  0.42178811  0.30422692  0.97423318  1
  O  O22  1  0.07821189  0.30422692  0.47423318  1
  O  O23  1  0.57821189  0.69577308  0.02576682  1
  O  O24  1  0.57478271  0.78045157  0.46851398  1
  O  O25  1  0.07478271  0.21954843  0.03148602  1
  O  O26  1  0.42521729  0.21954843  0.53148602  1
  O  O27  1  0.92521729  0.78045157  0.96851398  1
  O  O28  1  0.81853445  0.02986273  0.52938257  1
  O  O29  1  0.31853445  0.97013727  0.97061743  1
  O  O30  1  0.18146555  0.97013727  0.47061743  1
  O  O31  1  0.68146555  0.02986273  0.02938257  1
  O  O32  1  0.19055080  0.61123860  0.61273457  1
  O  O33  1  0.69055080  0.38876140  0.88726543  1
  O  O34  1  0.80944920  0.38876140  0.38726543  1
  O  O35  1  0.30944920  0.61123860  0.11273457  1
  O  O36  1  0.54816844  0.59167125  0.56895690  1
  O  O37  1  0.04816844  0.40832875  0.93104310  1
  O  O38  1  0.45183156  0.40832875  0.43104310  1
  O  O39  1  0.95183156  0.59167125  0.06895690  1
  O  O40  1  0.35586160  0.90744016  0.59164864  1
  O  O41  1  0.85586160  0.09255984  0.90835136  1
  O  O42  1  0.64413840  0.09255984  0.40835136  1
  O  O43  1  0.14413840  0.90744016  0.09164864  1
  O  O44  1  0.85373279  0.38032242  0.59434193  1
  O  O45  1  0.35373279  0.61967758  0.90565807  1
  O  O46  1  0.14626721  0.61967758  0.40565807  1
  O  O47  1  0.64626721  0.38032242  0.09434193  1
  O  O48  1  0.78610419  0.82758865  0.65152348  1
  O  O49  1  0.28610419  0.17241135  0.84847652  1
  O  O50  1  0.21389581  0.17241135  0.34847652  1
  O  O51  1  0.71389581  0.82758865  0.15152348  1
  O  O52  1  0.61775227  0.52598191  0.69260136  1
  O  O53  1  0.11775227  0.47401809  0.80739864  1
  O  O54  1  0.38224773  0.47401809  0.30739864  1
  O  O55  1  0.88224773  0.52598191  0.19260136  1
  O  O56  1  0.81967220  0.25383875  0.74569323  1
  O  O57  1  0.31967220  0.74616125  0.75430677  1
  O  O58  1  0.18032780  0.74616125  0.25430677  1
  O  O59  1  0.68032780  0.25383875  0.24569323  1
  O  O60  1  0.79203228  0.69023560  0.82139882  1
  O  O61  1  0.29203228  0.30976440  0.67860118  1
  O  O62  1  0.20796772  0.30976440  0.17860118  1
  O  O63  1  0.70796772  0.69023560  0.32139882  1
  O  O64  1  0.48656512  0.43806279  0.79286831  1
  O  O65  1  0.98656512  0.56193721  0.70713169  1
  O  O66  1  0.51343488  0.56193721  0.20713169  1
  O  O67  1  0.01343488  0.43806279  0.29286831  1
  O  O68  1  0.51435043  0.00606845  0.75271664  1
  O  O69  1  0.01435043  0.99393155  0.74728336  1
  O  O70  1  0.48564957  0.99393155  0.24728336  1
  O  O71  1  0.98564957  0.00606845  0.25271664  1
