# generated using pymatgen
data_Mg5Pd
_symmetry_space_group_name_H-M   'P 1'
_cell_length_a   4.81626796
_cell_length_b   5.34307403
_cell_length_c   5.34307575
_cell_angle_alpha   60.00000726
_cell_angle_beta   90.00000000
_cell_angle_gamma   90.00000000
_symmetry_Int_Tables_number   1
_chemical_formula_structural   Mg5Pd
_chemical_formula_sum   'Mg5 Pd1'
_cell_volume   119.07588763
_cell_formula_units_Z   1
loop_
 _symmetry_equiv_pos_site_id
 _symmetry_equiv_pos_as_xyz
  1  'x, y, z'
loop_
 _atom_site_type_symbol
 _atom_site_label
 _atom_site_symmetry_multiplicity
 _atom_site_fract_x
 _atom_site_fract_y
 _atom_site_fract_z
 _atom_site_occupancy
  Mg  Mg0  1  0.00000000  0.98167324  0.01832676  1
  Mg  Mg1  1  0.00000000  0.35165976  0.33333200  1
  Mg  Mg2  1  0.00000000  0.66666600  0.64834024  1
  Mg  Mg3  1  0.49999900  0.99999900  0.66666700  1
  Mg  Mg4  1  0.49999900  0.33333400  0.99999900  1
  Pd  Pd5  1  0.49999900  0.66666600  0.33333300  1
