# generated using pymatgen
data_Tm3Th
_symmetry_space_group_name_H-M   'P 1'
_cell_length_a   7.08468363
_cell_length_b   7.08468402
_cell_length_c   5.72777621
_cell_angle_alpha   90.00000000
_cell_angle_beta   90.00000000
_cell_angle_gamma   119.99999815
_symmetry_Int_Tables_number   1
_chemical_formula_structural   Tm3Th
_chemical_formula_sum   'Tm6 Th2'
_cell_volume   248.97608150
_cell_formula_units_Z   2
loop_
 _symmetry_equiv_pos_site_id
 _symmetry_equiv_pos_as_xyz
  1  'x, y, z'
loop_
 _atom_site_type_symbol
 _atom_site_label
 _atom_site_symmetry_multiplicity
 _atom_site_fract_x
 _atom_site_fract_y
 _atom_site_fract_z
 _atom_site_occupancy
  Tm  Tm0  1  0.16637530  0.33275160  0.25000000  1
  Tm  Tm1  1  0.66725040  0.83362370  0.25000000  1
  Tm  Tm2  1  0.16637430  0.83362370  0.25000000  1
  Tm  Tm3  1  0.83362570  0.66725040  0.75000100  1
  Tm  Tm4  1  0.33275160  0.16637530  0.75000100  1
  Tm  Tm5  1  0.83362470  0.16637530  0.75000100  1
  Th  Th6  1  0.33333400  0.66666700  0.75000100  1
  Th  Th7  1  0.66666700  0.33333300  0.25000000  1
