# generated using pymatgen
data_UP2H2CO7
_symmetry_space_group_name_H-M   'P 1'
_cell_length_a   8.47572482
_cell_length_b   11.39486797
_cell_length_c   13.99815293
_cell_angle_alpha   90.00000000
_cell_angle_beta   90.00000000
_cell_angle_gamma   90.00000000
_symmetry_Int_Tables_number   1
_chemical_formula_structural   UP2H2CO7
_chemical_formula_sum   'U8 P16 H16 C8 O56'
_cell_volume   1351.93832425
_cell_formula_units_Z   8
loop_
 _symmetry_equiv_pos_site_id
 _symmetry_equiv_pos_as_xyz
  1  'x, y, z'
loop_
 _atom_site_type_symbol
 _atom_site_label
 _atom_site_symmetry_multiplicity
 _atom_site_fract_x
 _atom_site_fract_y
 _atom_site_fract_z
 _atom_site_occupancy
  U  U0  1  0.66711184  0.77339239  0.14545299  1
  U  U1  1  0.16711184  0.72660761  0.85454701  1
  U  U2  1  0.33288816  0.27339239  0.35454701  1
  U  U3  1  0.83288816  0.22660761  0.64545299  1
  U  U4  1  0.33288816  0.22660761  0.85454701  1
  U  U5  1  0.83288816  0.27339239  0.14545299  1
  U  U6  1  0.66711184  0.72660761  0.64545299  1
  U  U7  1  0.16711184  0.77339239  0.35454701  1
  P  P8  1  0.50426507  0.97620118  0.32545967  1
  P  P9  1  0.00426507  0.52379882  0.67454033  1
  P  P10  1  0.49573493  0.47620118  0.17454033  1
  P  P11  1  0.99573493  0.02379882  0.82545967  1
  P  P12  1  0.49573493  0.02379882  0.67454033  1
  P  P13  1  0.99573493  0.47620118  0.32545967  1
  P  P14  1  0.50426507  0.52379882  0.82545967  1
  P  P15  1  0.00426507  0.97620118  0.17454033  1
  P  P16  1  0.75296526  0.80707361  0.40067760  1
  P  P17  1  0.25296526  0.69292639  0.59932240  1
  P  P18  1  0.24703474  0.30707361  0.09932240  1
  P  P19  1  0.74703474  0.19292639  0.90067760  1
  P  P20  1  0.24703474  0.19292639  0.59932240  1
  P  P21  1  0.74703474  0.30707361  0.40067760  1
  P  P22  1  0.75296526  0.69292639  0.90067760  1
  P  P23  1  0.25296526  0.80707361  0.09932240  1
  H  H24  1  0.76237269  0.01665279  0.38130198  1
  H  H25  1  0.26237269  0.48334721  0.61869802  1
  H  H26  1  0.23762731  0.51665279  0.11869802  1
  H  H27  1  0.73762731  0.98334721  0.88130198  1
  H  H28  1  0.23762731  0.98334721  0.61869802  1
  H  H29  1  0.73762731  0.51665279  0.38130198  1
  H  H30  1  0.76237269  0.48334721  0.88130198  1
  H  H31  1  0.26237269  0.01665279  0.11869802  1
  H  H32  1  0.64045446  0.97585637  0.47842314  1
  H  H33  1  0.14045446  0.52414363  0.52157686  1
  H  H34  1  0.35954554  0.47585637  0.02157686  1
  H  H35  1  0.85954554  0.02414363  0.97842314  1
  H  H36  1  0.35954554  0.02414363  0.52157686  1
  H  H37  1  0.85954554  0.47585637  0.47842314  1
  H  H38  1  0.64045446  0.52414363  0.97842314  1
  H  H39  1  0.14045446  0.97585637  0.02157686  1
  C  C40  1  0.67138170  0.95415847  0.40459609  1
  C  C41  1  0.17138170  0.54584153  0.59540391  1
  C  C42  1  0.32861830  0.45415847  0.09540391  1
  C  C43  1  0.82861830  0.04584153  0.90459609  1
  C  C44  1  0.32861830  0.04584153  0.59540391  1
  C  C45  1  0.82861830  0.45415847  0.40459609  1
  C  C46  1  0.67138170  0.54584153  0.90459609  1
  C  C47  1  0.17138170  0.95415847  0.09540391  1
  O  O48  1  0.55320597  0.93563943  0.22548074  1
  O  O49  1  0.05320597  0.56436057  0.77451926  1
  O  O50  1  0.44679403  0.43563943  0.27451926  1
  O  O51  1  0.94679403  0.06436057  0.72548074  1
  O  O52  1  0.44679403  0.06436057  0.77451926  1
  O  O53  1  0.94679403  0.43563943  0.22548074  1
  O  O54  1  0.55320597  0.56436057  0.72548074  1
  O  O55  1  0.05320597  0.93563943  0.27451926  1
  O  O56  1  0.93439653  0.81694121  0.41336664  1
  O  O57  1  0.43439653  0.68305879  0.58663336  1
  O  O58  1  0.06560347  0.31694121  0.08663336  1
  O  O59  1  0.56560347  0.18305879  0.91336664  1
  O  O60  1  0.06560347  0.18305879  0.58663336  1
  O  O61  1  0.56560347  0.31694121  0.41336664  1
  O  O62  1  0.93439653  0.68305879  0.91336664  1
  O  O63  1  0.43439653  0.81694121  0.08663336  1
  O  O64  1  0.71373425  0.75355718  0.30239317  1
  O  O65  1  0.21373425  0.74644282  0.69760683  1
  O  O66  1  0.28626575  0.25355718  0.19760683  1
  O  O67  1  0.78626575  0.24644282  0.80239317  1
  O  O68  1  0.28626575  0.24644282  0.69760683  1
  O  O69  1  0.78626575  0.25355718  0.30239317  1
  O  O70  1  0.71373425  0.74644282  0.80239317  1
  O  O71  1  0.21373425  0.75355718  0.19760683  1
  O  O72  1  0.35811337  0.90936953  0.36392759  1
  O  O73  1  0.85811337  0.59063047  0.63607241  1
  O  O74  1  0.64188663  0.40936953  0.13607241  1
  O  O75  1  0.14188663  0.09063047  0.86392759  1
  O  O76  1  0.64188663  0.09063047  0.63607241  1
  O  O77  1  0.14188663  0.40936953  0.36392759  1
  O  O78  1  0.35811337  0.59063047  0.86392759  1
  O  O79  1  0.85811337  0.90936953  0.13607241  1
  O  O80  1  0.83266941  0.67283274  0.13225937  1
  O  O81  1  0.33266941  0.82716726  0.86774063  1
  O  O82  1  0.16733059  0.17283274  0.36774063  1
  O  O83  1  0.66733059  0.32716726  0.63225937  1
  O  O84  1  0.16733059  0.32716726  0.86774063  1
  O  O85  1  0.66733059  0.17283274  0.13225937  1
  O  O86  1  0.83266941  0.82716726  0.63225937  1
  O  O87  1  0.33266941  0.67283274  0.36774063  1
  O  O88  1  0.46970970  0.10972263  0.33023792  1
  O  O89  1  0.96970970  0.39027737  0.66976208  1
  O  O90  1  0.53029030  0.60972263  0.16976208  1
  O  O91  1  0.03029030  0.89027737  0.83023792  1
  O  O92  1  0.53029030  0.89027737  0.66976208  1
  O  O93  1  0.03029030  0.60972263  0.33023792  1
  O  O94  1  0.46970970  0.39027737  0.83023792  1
  O  O95  1  0.96970970  0.10972263  0.16976208  1
  O  O96  1  0.68064014  0.73360157  0.48165467  1
  O  O97  1  0.18064014  0.76639843  0.51834533  1
  O  O98  1  0.31935986  0.23360157  0.01834533  1
  O  O99  1  0.81935986  0.26639843  0.98165467  1
  O  O100  1  0.31935986  0.26639843  0.51834533  1
  O  O101  1  0.81935986  0.23360157  0.48165467  1
  O  O102  1  0.68064014  0.76639843  0.98165467  1
  O  O103  1  0.18064014  0.73360157  0.01834533  1
