# generated using pymatgen
data_Ca2SiO4
_symmetry_space_group_name_H-M   'P 1'
_cell_length_a   5.62531381
_cell_length_b   5.62544576
_cell_length_c   6.80806386
_cell_angle_alpha   89.99994689
_cell_angle_beta   90.00250309
_cell_angle_gamma   120.00077613
_symmetry_Int_Tables_number   1
_chemical_formula_structural   Ca2SiO4
_chemical_formula_sum   'Ca4 Si2 O8'
_cell_volume   186.57547329
_cell_formula_units_Z   2
loop_
 _symmetry_equiv_pos_site_id
 _symmetry_equiv_pos_as_xyz
  1  'x, y, z'
loop_
 _atom_site_type_symbol
 _atom_site_label
 _atom_site_symmetry_multiplicity
 _atom_site_fract_x
 _atom_site_fract_y
 _atom_site_fract_z
 _atom_site_occupancy
  Ca  Ca0  1  0.66663580  0.33332007  0.34389108  1
  Ca  Ca1  1  0.33336420  0.66667993  0.65610892  1
  Ca  Ca2  1  -0.00000000  -0.00000000  0.50000000  1
  Ca  Ca3  1  -0.00000000  -0.00000000  0.00000000  1
  Si  Si4  1  0.66664591  0.33332241  0.80231213  1
  Si  Si5  1  0.33335409  0.66667759  0.19768787  1
  O  O6  1  0.66666742  0.33333336  0.03773106  1
  O  O7  1  0.33333258  0.66666664  0.96226894  1
  O  O8  1  0.35447121  0.17723508  0.70777343  1
  O  O9  1  0.82278115  0.64556459  0.70778268  1
  O  O10  1  0.82278138  0.17721574  0.70778289  1
  O  O11  1  0.64552879  0.82276492  0.29222657  1
  O  O12  1  0.17721885  0.35443541  0.29221732  1
  O  O13  1  0.17721862  0.82278426  0.29221711  1
