# generated using pymatgen
data_Y3AlCoS7
_symmetry_space_group_name_H-M   'P 1'
_cell_length_a   6.14725252
_cell_length_b   9.58521256
_cell_length_c   9.58050414
_cell_angle_alpha   120.00751669
_cell_angle_beta   90.00000000
_cell_angle_gamma   90.00000000
_symmetry_Int_Tables_number   1
_chemical_formula_structural   Y3AlCoS7
_chemical_formula_sum   'Y6 Al2 Co2 S14'
_cell_volume   488.84243251
_cell_formula_units_Z   2
loop_
 _symmetry_equiv_pos_site_id
 _symmetry_equiv_pos_as_xyz
  1  'x, y, z'
loop_
 _atom_site_type_symbol
 _atom_site_label
 _atom_site_symmetry_multiplicity
 _atom_site_fract_x
 _atom_site_fract_y
 _atom_site_fract_z
 _atom_site_occupancy
  Y  Y0  1  0.27508799  0.22303078  0.37380170  1
  Y  Y1  1  0.27504251  0.62624541  0.84936897  1
  Y  Y2  1  0.27512891  0.15069532  0.77685292  1
  Y  Y3  1  0.77508799  0.77696922  0.62619830  1
  Y  Y4  1  0.77504251  0.37375459  0.15063103  1
  Y  Y5  1  0.77512891  0.84930468  0.22314708  1
  Al  Al6  1  0.85062037  0.33313485  0.66651606  1
  Al  Al7  1  0.35062037  0.66686515  0.33348394  1
  Co  Co8  1  0.43183818  0.00018958  0.00029635  1
  Co  Co9  1  0.93183818  0.99981042  0.99970365  1
  S  S10  1  0.67689415  0.12851051  0.22216599  1
  S  S11  1  0.67643476  0.77873551  0.90675940  1
  S  S12  1  0.67650332  0.09330416  0.87198051  1
  S  S13  1  0.17689415  0.87148949  0.77783401  1
  S  S14  1  0.17643476  0.22126449  0.09324060  1
  S  S15  1  0.17650332  0.90669584  0.12801949  1
  S  S16  1  0.00419650  0.08963459  0.51752228  1
  S  S17  1  0.00419345  0.48259547  0.57236693  1
  S  S18  1  0.00416065  0.42764637  0.91032399  1
  S  S19  1  0.50419650  0.91036541  0.48247772  1
  S  S20  1  0.50419345  0.51740453  0.42763307  1
  S  S21  1  0.50416065  0.57235363  0.08967601  1
  S  S22  1  0.48589920  0.33342058  0.66675958  1
  S  S23  1  0.98589920  0.66657942  0.33324042  1
