# generated using pymatgen
data_Ta3Al4O14
_symmetry_space_group_name_H-M   'P 1'
_cell_length_a   4.60267076
_cell_length_b   7.45224228
_cell_length_c   7.45312149
_cell_angle_alpha   119.99952111
_cell_angle_beta   90.00127907
_cell_angle_gamma   90.00147639
_symmetry_Int_Tables_number   1
_chemical_formula_structural   Ta3Al4O14
_chemical_formula_sum   'Ta3 Al4 O14'
_cell_volume   221.39499733
_cell_formula_units_Z   1
loop_
 _symmetry_equiv_pos_site_id
 _symmetry_equiv_pos_as_xyz
  1  'x, y, z'
loop_
 _atom_site_type_symbol
 _atom_site_label
 _atom_site_symmetry_multiplicity
 _atom_site_fract_x
 _atom_site_fract_y
 _atom_site_fract_z
 _atom_site_occupancy
  Ta  Ta0  1  0.99753280  0.72054545  0.60991314  1
  Ta  Ta1  1  0.99746105  0.39013734  0.11042157  1
  Ta  Ta2  1  0.99752559  0.88937869  0.27953930  1
  Al  Al3  1  0.50009519  0.12411228  0.69742631  1
  Al  Al4  1  0.50017556  0.30257254  0.42667430  1
  Al  Al5  1  0.50004112  0.57329088  0.87596356  1
  Al  Al6  1  0.50429922  0.99999822  0.99999430  1
  O  O7  1  0.27334386  0.17736200  0.94068267  1
  O  O8  1  0.27346048  0.05934269  0.23673959  1
  O  O9  1  0.27337755  0.76324988  0.82261923  1
  O  O10  1  0.22551358  0.91444115  0.52959642  1
  O  O11  1  0.22552218  0.47043807  0.38490455  1
  O  O12  1  0.22551931  0.61513530  0.08561602  1
  O  O13  1  0.72242960  0.95329583  0.76326367  1
  O  O14  1  0.72241640  0.23681305  0.19004159  1
  O  O15  1  0.72243254  0.80997855  0.04673794  1
  O  O16  1  0.73128478  0.37682562  0.90277241  1
  O  O17  1  0.73134014  0.09718050  0.47405192  1
  O  O18  1  0.73137034  0.52590414  0.62307366  1
  O  O19  1  0.81194765  0.66666718  0.33333803  1
  O  O20  1  0.32291107  0.33333065  0.66662982  1
