# generated using pymatgen
data_Ta6Ga5
_symmetry_space_group_name_H-M   'P 1'
_cell_length_a   5.47129111
_cell_length_b   8.94152137
_cell_length_c   8.94152137
_cell_angle_alpha   120.01598582
_cell_angle_beta   90.00000000
_cell_angle_gamma   90.00000000
_symmetry_Int_Tables_number   1
_chemical_formula_structural   Ta6Ga5
_chemical_formula_sum   'Ta12 Ga10'
_cell_volume   378.76802692
_cell_formula_units_Z   2
loop_
 _symmetry_equiv_pos_site_id
 _symmetry_equiv_pos_as_xyz
  1  'x, y, z'
loop_
 _atom_site_type_symbol
 _atom_site_label
 _atom_site_symmetry_multiplicity
 _atom_site_fract_x
 _atom_site_fract_y
 _atom_site_fract_z
 _atom_site_occupancy
  Ta  Ta0  1  0.50000000  0.50000000  -0.00000000  1
  Ta  Ta1  1  0.50000000  0.50000000  0.50000000  1
  Ta  Ta2  1  0.50000000  -0.00000000  0.50000000  1
  Ta  Ta3  1  0.00000000  0.50000000  -0.00000000  1
  Ta  Ta4  1  0.00000000  0.50000000  0.50000000  1
  Ta  Ta5  1  -0.00000000  -0.00000000  0.50000000  1
  Ta  Ta6  1  0.75000000  0.84680523  0.69367047  1
  Ta  Ta7  1  0.75000000  0.84683131  0.15316869  1
  Ta  Ta8  1  0.75000000  0.30632953  0.15319477  1
  Ta  Ta9  1  0.25000000  0.15319477  0.30632953  1
  Ta  Ta10  1  0.25000000  0.15316869  0.84683131  1
  Ta  Ta11  1  0.25000000  0.69367047  0.84680523  1
  Ga  Ga12  1  0.50000000  -0.00000000  -0.00000000  1
  Ga  Ga13  1  0.00000000  -0.00000000  -0.00000000  1
  Ga  Ga14  1  0.75000000  0.66666353  0.33333647  1
  Ga  Ga15  1  0.25000000  0.33333647  0.66666353  1
  Ga  Ga16  1  0.75000000  0.20557197  0.41116779  1
  Ga  Ga17  1  0.75000000  0.20559857  0.79440143  1
  Ga  Ga18  1  0.75000000  0.58883221  0.79442803  1
  Ga  Ga19  1  0.25000000  0.79442803  0.58883221  1
  Ga  Ga20  1  0.25000000  0.79440143  0.20559857  1
  Ga  Ga21  1  0.25000000  0.41116779  0.20557197  1
