# generated using pymatgen
data_VH17C4S4(O5F3)4
_symmetry_space_group_name_H-M   'P 1'
_cell_length_a   8.93438991
_cell_length_b   9.17518562
_cell_length_c   9.06092224
_cell_angle_alpha   109.51385143
_cell_angle_beta   95.15411984
_cell_angle_gamma   76.48675371
_symmetry_Int_Tables_number   1
_chemical_formula_structural   VH17C4S4(O5F3)4
_chemical_formula_sum   'V1 H17 C4 S4 O20 F12'
_cell_volume   680.66439520
_cell_formula_units_Z   1
loop_
 _symmetry_equiv_pos_site_id
 _symmetry_equiv_pos_as_xyz
  1  'x, y, z'
loop_
 _atom_site_type_symbol
 _atom_site_label
 _atom_site_symmetry_multiplicity
 _atom_site_fract_x
 _atom_site_fract_y
 _atom_site_fract_z
 _atom_site_occupancy
  V  V0  1  -0.00000000  0.00000000  0.00000000  1
  H  H1  1  0.17206551  0.81619543  0.74977088  1
  H  H2  1  0.82793449  0.18380457  0.25022912  1
  H  H3  1  0.99343132  0.84682367  0.68345202  1
  H  H4  1  0.00656868  0.15317633  0.31654798  1
  H  H5  1  0.82181897  0.85018400  0.09789081  1
  H  H6  1  0.17818103  0.14981600  0.90210919  1
  H  H7  1  0.76435926  0.84454633  0.91970677  1
  H  H8  1  0.23564074  0.15545367  0.08029323  1
  H  H9  1  0.14258513  0.82675180  0.17965541  1
  H  H10  1  0.85741487  0.17324820  0.82034459  1
  H  H11  1  0.27729570  0.83101337  0.06590860  1
  H  H12  1  0.72270430  0.16898663  0.93409140  1
  H  H13  1  0.50000000  0.00000000  0.50000000  1
  H  H14  1  0.41528862  0.09693715  0.68907727  1
  H  H15  1  0.58471138  0.90306285  0.31092273  1
  H  H16  1  0.56072443  0.95235881  0.68145530  1
  H  H17  1  0.43927557  0.04764119  0.31854470  1
  C  C18  1  0.42250134  0.47193064  0.21814214  1
  C  C19  1  0.57749866  0.52806936  0.78185786  1
  C  C20  1  0.93200101  0.55282811  0.29143238  1
  C  C21  1  0.06799899  0.44717189  0.70856762  1
  S  S22  1  0.50573307  0.25470061  0.17357539  1
  S  S23  1  0.49426693  0.74529939  0.82642461  1
  S  S24  1  0.90916672  0.77299323  0.36126903  1
  S  S25  1  0.09083328  0.22700677  0.63873097  1
  O  O26  1  0.06150706  0.86078579  0.77851530  1
  O  O27  1  0.93849294  0.13921421  0.22148470  1
  O  O28  1  0.84519038  0.87102696  0.00187619  1
  O  O29  1  0.15480962  0.12897304  0.99812381  1
  O  O30  1  0.16643039  0.86213191  0.09378272  1
  O  O31  1  0.83356961  0.13786809  0.90621728  1
  O  O32  1  0.63779214  0.24471850  0.27923312  1
  O  O33  1  0.36220786  0.75528150  0.72076688  1
  O  O34  1  0.54042361  0.19911615  0.00657489  1
  O  O35  1  0.45957639  0.80088385  0.99342511  1
  O  O36  1  0.37967252  0.19371975  0.21132465  1
  O  O37  1  0.62032748  0.80628025  0.78867535  1
  O  O38  1  0.05561067  0.79847099  0.32835345  1
  O  O39  1  0.94438933  0.20152901  0.67164655  1
  O  O40  1  0.87079248  0.82213154  0.52636391  1
  O  O41  1  0.12920752  0.17786846  0.47363609  1
  O  O42  1  0.77924942  0.82489008  0.26331486  1
  O  O43  1  0.22075058  0.17510992  0.73668514  1
  O  O44  1  0.51812023  0.04218163  0.64112270  1
  O  O45  1  0.48187977  0.95781837  0.35887730  1
  F  F46  1  0.29306451  0.49289538  0.13039725  1
  F  F47  1  0.70693549  0.50710462  0.86960275  1
  F  F48  1  0.38784268  0.54215778  0.37066715  1
  F  F49  1  0.61215732  0.45784222  0.62933285  1
  F  F50  1  0.52498503  0.54131447  0.18091763  1
  F  F51  1  0.47501497  0.45868553  0.81908237  1
  F  F52  1  0.06244736  0.48488933  0.35221353  1
  F  F53  1  0.93755264  0.51511067  0.64778647  1
  F  F54  1  0.94005576  0.49625197  0.13349946  1
  F  F55  1  0.05994424  0.50374803  0.86650054  1
  F  F56  1  0.81092684  0.51357682  0.33627613  1
  F  F57  1  0.18907316  0.48642318  0.66372387  1
