# generated using pymatgen
data_Pr2Mn3Cu9As7
_symmetry_space_group_name_H-M   'P 1'
_cell_length_a   4.00743997
_cell_length_b   9.92771772
_cell_length_c   9.92689435
_cell_angle_alpha   120.00265595
_cell_angle_beta   90.00000000
_cell_angle_gamma   90.00000000
_symmetry_Int_Tables_number   1
_chemical_formula_structural   Pr2Mn3Cu9As7
_chemical_formula_sum   'Pr2 Mn3 Cu9 As7'
_cell_volume   342.01791381
_cell_formula_units_Z   1
loop_
 _symmetry_equiv_pos_site_id
 _symmetry_equiv_pos_as_xyz
  1  'x, y, z'
loop_
 _atom_site_type_symbol
 _atom_site_label
 _atom_site_symmetry_multiplicity
 _atom_site_fract_x
 _atom_site_fract_y
 _atom_site_fract_z
 _atom_site_occupancy
  Pr  Pr0  1  0.00000000  0.66660791  0.33327770  1
  Pr  Pr1  1  0.50000000  0.33339416  0.66671778  1
  Mn  Mn2  1  0.50000000  0.12373511  0.90295405  1
  Mn  Mn3  1  0.50000000  0.09724964  0.22084290  1
  Mn  Mn4  1  0.50000000  0.77910766  0.87626739  1
  Cu  Cu5  1  -0.00000000  0.37540861  0.95249266  1
  Cu  Cu6  1  -0.00000000  0.04750269  0.42292387  1
  Cu  Cu7  1  -0.00000000  0.57709612  0.62458905  1
  Cu  Cu8  1  -0.00000000  0.87953206  0.71720107  1
  Cu  Cu9  1  0.00000000  0.28278773  0.16231662  1
  Cu  Cu10  1  0.00000000  0.83768038  0.12047616  1
  Cu  Cu11  1  0.50000000  0.95651386  0.57572087  1
  Cu  Cu12  1  0.50000000  0.42431356  0.38082914  1
  Cu  Cu13  1  0.50000000  0.61918809  0.04350148  1
  As  As14  1  0.00000000  0.12227567  0.70553439  1
  As  As15  1  0.00000000  0.29443102  0.41674404  1
  As  As16  1  0.00000000  0.58324891  0.87771755  1
  As  As17  1  0.50000000  0.70615693  0.58681020  1
  As  As18  1  0.50000000  0.41308808  0.11928752  1
  As  As19  1  0.50000000  0.88066457  0.29383462  1
  As  As20  1  0.00000000  0.00001721  0.99996095  1
