# generated using pymatgen
data_TePIr
_symmetry_space_group_name_H-M   'P 1'
_cell_length_a   6.10610609
_cell_length_b   6.11006409
_cell_length_c   12.37218743
_cell_angle_alpha   90.00000000
_cell_angle_beta   90.00000000
_cell_angle_gamma   90.00000000
_symmetry_Int_Tables_number   1
_chemical_formula_structural   TePIr
_chemical_formula_sum   'Te8 P8 Ir8'
_cell_volume   461.59022361
_cell_formula_units_Z   8
loop_
 _symmetry_equiv_pos_site_id
 _symmetry_equiv_pos_as_xyz
  1  'x, y, z'
loop_
 _atom_site_type_symbol
 _atom_site_label
 _atom_site_symmetry_multiplicity
 _atom_site_fract_x
 _atom_site_fract_y
 _atom_site_fract_z
 _atom_site_occupancy
  Te  Te0  1  0.37802372  0.29362674  0.42698775  1
  Te  Te1  1  0.87802372  0.20637326  0.57301225  1
  Te  Te2  1  0.62197628  0.79362674  0.07301225  1
  Te  Te3  1  0.12197628  0.70637326  0.92698775  1
  Te  Te4  1  0.62197628  0.70637326  0.57301225  1
  Te  Te5  1  0.12197628  0.79362674  0.42698775  1
  Te  Te6  1  0.37802372  0.20637326  0.92698775  1
  Te  Te7  1  0.87802372  0.29362674  0.07301225  1
  P  P8  1  0.62372391  0.04955753  0.30973020  1
  P  P9  1  0.12372391  0.45044247  0.69026980  1
  P  P10  1  0.37627609  0.54955753  0.19026980  1
  P  P11  1  0.87627609  0.95044247  0.80973020  1
  P  P12  1  0.37627609  0.95044247  0.69026980  1
  P  P13  1  0.87627609  0.54955753  0.30973020  1
  P  P14  1  0.62372391  0.45044247  0.80973020  1
  P  P15  1  0.12372391  0.04955753  0.19026980  1
  Ir  Ir16  1  0.47799889  0.18014631  0.14117586  1
  Ir  Ir17  1  0.97799889  0.31985369  0.85882414  1
  Ir  Ir18  1  0.52200111  0.68014631  0.35882414  1
  Ir  Ir19  1  0.02200111  0.81985369  0.64117586  1
  Ir  Ir20  1  0.52200111  0.81985369  0.85882414  1
  Ir  Ir21  1  0.02200111  0.68014631  0.14117586  1
  Ir  Ir22  1  0.47799889  0.31985369  0.64117586  1
  Ir  Ir23  1  0.97799889  0.18014631  0.35882414  1
