# generated using pymatgen
data_UTlB5O11F
_symmetry_space_group_name_H-M   'P 1'
_cell_length_a   6.43998614
_cell_length_b   6.51220626
_cell_length_c   7.52378657
_cell_angle_alpha   104.58739075
_cell_angle_beta   91.97674071
_cell_angle_gamma   120.41474800
_symmetry_Int_Tables_number   1
_chemical_formula_structural   UTlB5O11F
_chemical_formula_sum   'U1 Tl1 B5 O11 F1'
_cell_volume   258.33312541
_cell_formula_units_Z   1
loop_
 _symmetry_equiv_pos_site_id
 _symmetry_equiv_pos_as_xyz
  1  'x, y, z'
loop_
 _atom_site_type_symbol
 _atom_site_label
 _atom_site_symmetry_multiplicity
 _atom_site_fract_x
 _atom_site_fract_y
 _atom_site_fract_z
 _atom_site_occupancy
  U  U0  1  0.80161991  0.37458045  0.11783476  1
  Tl  Tl1  1  0.87205852  0.03037268  0.58488681  1
  B  B2  1  0.38331605  0.48514789  0.72947366  1
  B  B3  1  0.13531391  0.03054491  0.11010811  1
  B  B4  1  0.67424229  0.82166461  0.00913489  1
  B  B5  1  0.34438115  0.81729752  0.19699051  1
  B  B6  1  0.36521870  0.43572046  0.04746300  1
  O  O7  1  0.35609209  0.23570448  0.11101214  1
  O  O8  1  0.12548406  0.83329181  0.15233531  1
  O  O9  1  0.92831618  0.03230622  0.06237954  1
  O  O10  1  0.76364214  0.28607225  0.86481732  1
  O  O11  1  0.23425085  0.54474362  0.14802313  1
  O  O12  1  0.53382992  0.93575002  0.09012678  1
  O  O13  1  0.83820917  0.46362780  0.36795046  1
  O  O14  1  0.26544011  0.38748125  0.54666047  1
  O  O15  1  0.60020373  0.71774076  0.80082436  1
  O  O16  1  0.27038954  0.34343265  0.84622645  1
  O  O17  1  0.63086176  0.62481164  0.09036235  1
  F  F18  1  0.44102993  0.93359896  0.39273995  1
