# generated using pymatgen
data_Cu3(P2O7)2
_symmetry_space_group_name_H-M   'P 1'
_cell_length_a   4.84664874
_cell_length_b   7.03693601
_cell_length_c   8.48234640
_cell_angle_alpha   67.96966082
_cell_angle_beta   75.66438948
_cell_angle_gamma   72.09462815
_symmetry_Int_Tables_number   1
_chemical_formula_structural   Cu3(P2O7)2
_chemical_formula_sum   'Cu3 P4 O14'
_cell_volume   252.29794210
_cell_formula_units_Z   1
loop_
 _symmetry_equiv_pos_site_id
 _symmetry_equiv_pos_as_xyz
  1  'x, y, z'
loop_
 _atom_site_type_symbol
 _atom_site_label
 _atom_site_symmetry_multiplicity
 _atom_site_fract_x
 _atom_site_fract_y
 _atom_site_fract_z
 _atom_site_occupancy
  Cu  Cu0  1  0.03587483  0.16909585  0.55921518  1
  Cu  Cu1  1  0.96412517  0.83090415  0.44078482  1
  Cu  Cu2  1  -0.00000000  0.00000000  0.00000000  1
  P  P3  1  0.37676101  0.48688985  0.29718577  1
  P  P4  1  0.62323899  0.51311015  0.70281423  1
  P  P5  1  0.35049838  0.15756101  0.18392572  1
  P  P6  1  0.64950162  0.84243899  0.81607428  1
  O  O7  1  0.30760854  0.33114489  0.48087280  1
  O  O8  1  0.69239146  0.66885511  0.51912720  1
  O  O9  1  0.18344872  0.05238210  0.37100911  1
  O  O10  1  0.81655128  0.94761790  0.62899089  1
  O  O11  1  0.69710583  0.47877912  0.26679628  1
  O  O12  1  0.30289417  0.52122088  0.73320372  1
  O  O13  1  0.29637859  0.40161178  0.16451980  1
  O  O14  1  0.70362141  0.59838822  0.83548020  1
  O  O15  1  0.21732997  0.15731663  0.04122811  1
  O  O16  1  0.78267003  0.84268337  0.95877189  1
  O  O17  1  0.82613908  0.28669307  0.73382627  1
  O  O18  1  0.17386092  0.71330693  0.26617373  1
  O  O19  1  0.67945846  0.05538008  0.18504271  1
  O  O20  1  0.32054154  0.94461992  0.81495729  1
