# generated using pymatgen
data_Pr2Al2Fe15
_symmetry_space_group_name_H-M   'P 1'
_cell_length_a   6.48915754
_cell_length_b   6.48915754
_cell_length_c   6.48915741
_cell_angle_alpha   82.26606714
_cell_angle_beta   82.26606714
_cell_angle_gamma   82.26606950
_symmetry_Int_Tables_number   1
_chemical_formula_structural   Pr2Al2Fe15
_chemical_formula_sum   'Pr2 Al2 Fe15'
_cell_volume   266.41039689
_cell_formula_units_Z   1
loop_
 _symmetry_equiv_pos_site_id
 _symmetry_equiv_pos_as_xyz
  1  'x, y, z'
loop_
 _atom_site_type_symbol
 _atom_site_label
 _atom_site_symmetry_multiplicity
 _atom_site_fract_x
 _atom_site_fract_y
 _atom_site_fract_z
 _atom_site_occupancy
  Pr  Pr0  1  0.65176103  0.65176103  0.65176103  1
  Pr  Pr1  1  0.34823897  0.34823897  0.34823897  1
  Al  Al2  1  0.89832264  0.89832264  0.89832264  1
  Al  Al3  1  0.10167736  0.10167736  0.10167736  1
  Fe  Fe4  1  -0.00000000  -0.00000000  0.50000000  1
  Fe  Fe5  1  -0.00000000  0.50000000  0.00000000  1
  Fe  Fe6  1  0.50000000  -0.00000000  0.00000000  1
  Fe  Fe7  1  0.28745977  0.71254023  -0.00000000  1
  Fe  Fe8  1  0.71254023  0.00000000  0.28745977  1
  Fe  Fe9  1  1.00000000  0.28745977  0.71254023  1
  Fe  Fe10  1  0.28745977  1.00000000  0.71254023  1
  Fe  Fe11  1  0.00000000  0.71254023  0.28745977  1
  Fe  Fe12  1  0.71254023  0.28745977  0.00000000  1
  Fe  Fe13  1  0.33995018  0.33995018  0.84460836  1
  Fe  Fe14  1  0.33995018  0.84460836  0.33995018  1
  Fe  Fe15  1  0.84460836  0.33995018  0.33995018  1
  Fe  Fe16  1  0.66004982  0.66004982  0.15539164  1
  Fe  Fe17  1  0.66004982  0.15539164  0.66004982  1
  Fe  Fe18  1  0.15539164  0.66004982  0.66004982  1
