# generated using pymatgen
data_KZn2(PO4)2
_symmetry_space_group_name_H-M   'P 1'
_cell_length_a   5.25154345
_cell_length_b   9.01899104
_cell_length_c   9.59793027
_cell_angle_alpha   97.33454280
_cell_angle_beta   101.56748838
_cell_angle_gamma   106.83671370
_symmetry_Int_Tables_number   1
_chemical_formula_structural   KZn2(PO4)2
_chemical_formula_sum   'K2 Zn4 P4 O16'
_cell_volume   417.82230833
_cell_formula_units_Z   2
loop_
 _symmetry_equiv_pos_site_id
 _symmetry_equiv_pos_as_xyz
  1  'x, y, z'
loop_
 _atom_site_type_symbol
 _atom_site_label
 _atom_site_symmetry_multiplicity
 _atom_site_fract_x
 _atom_site_fract_y
 _atom_site_fract_z
 _atom_site_occupancy
  K  K0  1  0.41153469  0.70640334  0.67838972  1
  K  K1  1  0.58846531  0.29359666  0.32161028  1
  Zn  Zn2  1  0.68989739  0.89122150  0.11197763  1
  Zn  Zn3  1  0.31010261  0.10877850  0.88802237  1
  Zn  Zn4  1  0.22038347  0.61489956  0.23484866  1
  Zn  Zn5  1  0.77961653  0.38510044  0.76515134  1
  P  P6  1  0.15380193  0.24972218  0.60172903  1
  P  P7  1  0.84619807  0.75027782  0.39827097  1
  P  P8  1  0.91201549  0.24518347  0.05225835  1
  P  P9  1  0.08798451  0.75481653  0.94774165  1
  O  O10  1  0.28652501  0.76152080  0.09925742  1
  O  O11  1  0.71347499  0.23847920  0.90074258  1
  O  O12  1  0.90036215  0.30517635  0.59908290  1
  O  O13  1  0.09963785  0.69482365  0.40091710  1
  O  O14  1  0.96859313  0.40352972  0.15413755  1
  O  O15  1  0.03140687  0.59647028  0.84586245  1
  O  O16  1  0.16740144  0.19759880  0.44443408  1
  O  O17  1  0.83259856  0.80240120  0.55556592  1
  O  O18  1  0.18185387  0.22195644  0.03141992  1
  O  O19  1  0.81814613  0.77804356  0.96858008  1
  O  O20  1  0.58171096  0.60293614  0.33279528  1
  O  O21  1  0.41828904  0.39706386  0.66720472  1
  O  O22  1  0.84848260  0.88265419  0.31254542  1
  O  O23  1  0.15151740  0.11734581  0.68745458  1
  O  O24  1  0.73843877  0.11358446  0.11621011  1
  O  O25  1  0.26156123  0.88641554  0.88378989  1
