# generated using pymatgen
data_Zr6Ga16Pt7
_symmetry_space_group_name_H-M   'P 1'
_cell_length_a   8.85717822
_cell_length_b   8.85717822
_cell_length_c   8.85717822
_cell_angle_alpha   60.00000000
_cell_angle_beta   60.00000000
_cell_angle_gamma   60.00000000
_symmetry_Int_Tables_number   1
_chemical_formula_structural   Zr6Ga16Pt7
_chemical_formula_sum   'Zr6 Ga16 Pt7'
_cell_volume   491.32758997
_cell_formula_units_Z   1
loop_
 _symmetry_equiv_pos_site_id
 _symmetry_equiv_pos_as_xyz
  1  'x, y, z'
loop_
 _atom_site_type_symbol
 _atom_site_label
 _atom_site_symmetry_multiplicity
 _atom_site_fract_x
 _atom_site_fract_y
 _atom_site_fract_z
 _atom_site_occupancy
  Zr  Zr0  1  0.68880221  0.31119779  0.31119779  1
  Zr  Zr1  1  0.68880221  0.31119779  0.68880221  1
  Zr  Zr2  1  0.68880221  0.68880221  0.31119779  1
  Zr  Zr3  1  0.31119779  0.68880221  0.68880221  1
  Zr  Zr4  1  0.31119779  0.68880221  0.31119779  1
  Zr  Zr5  1  0.31119779  0.31119779  0.68880221  1
  Ga  Ga6  1  0.63886408  0.12037864  0.12037864  1
  Ga  Ga7  1  0.12037864  0.63886408  0.12037864  1
  Ga  Ga8  1  0.12037864  0.12037864  0.63886408  1
  Ga  Ga9  1  0.12037864  0.12037864  0.12037864  1
  Ga  Ga10  1  0.36113592  0.87962136  0.87962136  1
  Ga  Ga11  1  0.87962136  0.36113592  0.87962136  1
  Ga  Ga12  1  0.87962136  0.87962136  0.36113592  1
  Ga  Ga13  1  0.87962136  0.87962136  0.87962136  1
  Ga  Ga14  1  0.98294378  0.33901874  0.33901874  1
  Ga  Ga15  1  0.33901874  0.98294378  0.33901874  1
  Ga  Ga16  1  0.33901874  0.33901874  0.98294378  1
  Ga  Ga17  1  0.33901874  0.33901874  0.33901874  1
  Ga  Ga18  1  0.01705622  0.66098126  0.66098126  1
  Ga  Ga19  1  0.66098126  0.01705622  0.66098126  1
  Ga  Ga20  1  0.66098126  0.66098126  0.01705622  1
  Ga  Ga21  1  0.66098126  0.66098126  0.66098126  1
  Pt  Pt22  1  0.00000000  0.00000000  -0.00000000  1
  Pt  Pt23  1  0.50000000  0.00000000  -0.00000000  1
  Pt  Pt24  1  0.50000000  0.00000000  0.50000000  1
  Pt  Pt25  1  0.50000000  0.50000000  -0.00000000  1
  Pt  Pt26  1  0.00000000  0.50000000  0.50000000  1
  Pt  Pt27  1  0.00000000  0.50000000  -0.00000000  1
  Pt  Pt28  1  0.00000000  0.00000000  0.50000000  1
