# generated using pymatgen
data_PuB4ClO8
_symmetry_space_group_name_H-M   'P 1'
_cell_length_a   6.52901489
_cell_length_b   6.52901489
_cell_length_c   9.27921250
_cell_angle_alpha   97.57152821
_cell_angle_beta   97.57152821
_cell_angle_gamma   120.27250322
_symmetry_Int_Tables_number   1
_chemical_formula_structural   PuB4ClO8
_chemical_formula_sum   'Pu2 B8 Cl2 O16'
_cell_volume   329.43831627
_cell_formula_units_Z   2
loop_
 _symmetry_equiv_pos_site_id
 _symmetry_equiv_pos_as_xyz
  1  'x, y, z'
loop_
 _atom_site_type_symbol
 _atom_site_label
 _atom_site_symmetry_multiplicity
 _atom_site_fract_x
 _atom_site_fract_y
 _atom_site_fract_z
 _atom_site_occupancy
  Pu  Pu0  1  0.61465629  0.22497674  0.60133122  1
  Pu  Pu1  1  0.22497674  0.61465629  0.10133122  1
  B  B2  1  0.96648608  0.89532385  0.68746226  1
  B  B3  1  0.89532385  0.96648608  0.18746226  1
  B  B4  1  0.14537199  0.33947645  0.75452122  1
  B  B5  1  0.33947645  0.14537199  0.25452122  1
  B  B6  1  0.24564602  0.75454490  0.77321690  1
  B  B7  1  0.75454490  0.24564602  0.27321690  1
  B  B8  1  0.53286052  0.64025671  0.70681313  1
  B  B9  1  0.64025671  0.53286052  0.20681313  1
  Cl  Cl10  1  0.36833542  0.73658203  0.42631925  1
  Cl  Cl11  1  0.73658203  0.36833542  0.92631925  1
  O  O12  1  0.06422078  0.49643813  0.70940575  1
  O  O13  1  0.49643813  0.06422078  0.20940575  1
  O  O14  1  0.94679512  0.09268438  0.68662260  1
  O  O15  1  0.09268438  0.94679512  0.18662260  1
  O  O16  1  0.74660559  0.67096593  0.66715462  1
  O  O17  1  0.67096593  0.74660559  0.16715462  1
  O  O18  1  0.19756580  0.38307006  0.92103781  1
  O  O19  1  0.38307006  0.19756580  0.42103781  1
  O  O20  1  0.18593626  0.91329964  0.70771078  1
  O  O21  1  0.91329964  0.18593626  0.20771078  1
  O  O22  1  0.26057804  0.79179020  0.93618061  1
  O  O23  1  0.79179020  0.26057804  0.43618061  1
  O  O24  1  0.49192838  0.82034938  0.75081841  1
  O  O25  1  0.82034938  0.49192838  0.25081841  1
  O  O26  1  0.37337453  0.40031879  0.70461544  1
  O  O27  1  0.40031879  0.37337453  0.20461544  1
