# generated using pymatgen
data_Sm(BH4)2
_symmetry_space_group_name_H-M   'P 1'
_cell_length_a   7.23037620
_cell_length_b   6.88801924
_cell_length_c   7.66881266
_cell_angle_alpha   90.00000000
_cell_angle_beta   90.00000000
_cell_angle_gamma   90.00000000
_symmetry_Int_Tables_number   1
_chemical_formula_structural   Sm(BH4)2
_chemical_formula_sum   'Sm4 B8 H32'
_cell_volume   381.92964974
_cell_formula_units_Z   4
loop_
 _symmetry_equiv_pos_site_id
 _symmetry_equiv_pos_as_xyz
  1  'x, y, z'
loop_
 _atom_site_type_symbol
 _atom_site_label
 _atom_site_symmetry_multiplicity
 _atom_site_fract_x
 _atom_site_fract_y
 _atom_site_fract_z
 _atom_site_occupancy
  Sm  Sm0  1  -0.00000000  0.25000000  0.11421729  1
  Sm  Sm1  1  0.50000000  0.75000000  0.38578271  1
  Sm  Sm2  1  -0.00000000  0.75000000  0.88578271  1
  Sm  Sm3  1  0.50000000  0.25000000  0.61421729  1
  B  B4  1  0.74591140  0.09451387  0.36772301  1
  B  B5  1  0.75408860  0.59451387  0.13227699  1
  B  B6  1  0.24591140  0.90548613  0.13227699  1
  B  B7  1  0.25408860  0.40548613  0.36772301  1
  B  B8  1  0.25408860  0.90548613  0.63227699  1
  B  B9  1  0.24591140  0.40548613  0.86772301  1
  B  B10  1  0.75408860  0.09451387  0.86772301  1
  B  B11  1  0.74591140  0.59451387  0.63227699  1
  H  H12  1  0.61344929  0.15006040  0.28153318  1
  H  H13  1  0.88655071  0.65006040  0.21846682  1
  H  H14  1  0.11344929  0.84993960  0.21846682  1
  H  H15  1  0.38655071  0.34993960  0.28153318  1
  H  H16  1  0.38655071  0.84993960  0.71846682  1
  H  H17  1  0.11344929  0.34993960  0.78153318  1
  H  H18  1  0.88655071  0.15006040  0.78153318  1
  H  H19  1  0.61344929  0.65006040  0.71846682  1
  H  H20  1  0.84080439  0.97764993  0.28726548  1
  H  H21  1  0.65919561  0.47764993  0.21273452  1
  H  H22  1  0.34080439  0.02235007  0.21273452  1
  H  H23  1  0.15919561  0.52235007  0.28726548  1
  H  H24  1  0.15919561  0.02235007  0.71273452  1
  H  H25  1  0.34080439  0.52235007  0.78726548  1
  H  H26  1  0.65919561  0.97764993  0.78726548  1
  H  H27  1  0.84080439  0.47764993  0.71273452  1
  H  H28  1  0.83752146  0.22930611  0.42350756  1
  H  H29  1  0.66247854  0.72930611  0.07649244  1
  H  H30  1  0.33752146  0.77069389  0.07649244  1
  H  H31  1  0.16247854  0.27069389  0.42350756  1
  H  H32  1  0.16247854  0.77069389  0.57649244  1
  H  H33  1  0.33752146  0.27069389  0.92350756  1
  H  H34  1  0.66247854  0.22930611  0.92350756  1
  H  H35  1  0.83752146  0.72930611  0.57649244  1
  H  H36  1  0.68923871  0.00152779  0.49789760  1
  H  H37  1  0.81076129  0.50152779  0.00210240  1
  H  H38  1  0.18923871  0.99847221  0.00210240  1
  H  H39  1  0.31076129  0.49847221  0.49789760  1
  H  H40  1  0.31076129  0.99847221  0.50210240  1
  H  H41  1  0.18923871  0.49847221  0.99789760  1
  H  H42  1  0.81076129  0.00152779  0.99789760  1
  H  H43  1  0.68923871  0.50152779  0.50210240  1
