# generated using pymatgen
data_Cr5(Bi3Se8)2
_symmetry_space_group_name_H-M   'P 1'
_cell_length_a   6.23078943
_cell_length_b   9.62152432
_cell_length_c   11.56887071
_cell_angle_alpha   88.38868185
_cell_angle_beta   85.01801690
_cell_angle_gamma   71.10745279
_symmetry_Int_Tables_number   1
_chemical_formula_structural   Cr5(Bi3Se8)2
_chemical_formula_sum   'Cr5 Bi6 Se16'
_cell_volume   653.70790228
_cell_formula_units_Z   1
loop_
 _symmetry_equiv_pos_site_id
 _symmetry_equiv_pos_as_xyz
  1  'x, y, z'
loop_
 _atom_site_type_symbol
 _atom_site_label
 _atom_site_symmetry_multiplicity
 _atom_site_fract_x
 _atom_site_fract_y
 _atom_site_fract_z
 _atom_site_occupancy
  Cr  Cr0  1  0.38642085  0.79939847  0.51331602  1
  Cr  Cr1  1  0.18581932  0.20060153  0.51331602  1
  Cr  Cr2  1  0.99298067  0.60326185  0.51618429  1
  Cr  Cr3  1  0.59624252  0.39673815  0.51618429  1
  Cr  Cr4  1  0.78307464  0.00000000  0.50864135  1
  Bi  Bi5  1  0.88960882  0.66634047  0.16288722  1
  Bi  Bi6  1  0.55594929  0.33365953  0.16288722  1
  Bi  Bi7  1  0.19999909  0.00000000  0.16651039  1
  Bi  Bi8  1  0.18314040  0.33106296  0.86432331  1
  Bi  Bi9  1  0.51420336  0.66893704  0.86432331  1
  Bi  Bi10  1  0.80664571  1.00000000  0.85857099  1
  Se  Se11  1  0.06962066  0.80437472  0.38716328  1
  Se  Se12  1  0.87399538  0.19562528  0.38716328  1
  Se  Se13  1  0.46324138  0.00000000  0.39070315  1
  Se  Se14  1  0.68046384  0.60020237  0.39563624  1
  Se  Se15  1  0.28066621  0.39979763  0.39563624  1
  Se  Se16  1  0.76462506  1.00000000  0.11082256  1
  Se  Se17  1  0.96181926  0.66721142  0.91106119  1
  Se  Se18  1  0.62903068  0.33278858  0.91106119  1
  Se  Se19  1  0.31446326  0.59645549  0.63694051  1
  Se  Se20  1  0.91091875  0.40354451  0.63694051  1
  Se  Se21  1  0.09425516  1.00000000  0.63167863  1
  Se  Se22  1  0.70113625  0.79938660  0.63706901  1
  Se  Se23  1  0.50052285  0.20061340  0.63706901  1
  Se  Se24  1  0.10383908  0.33498650  0.11657077  1
  Se  Se25  1  0.43882557  0.66501350  0.11657077  1
  Se  Se26  1  0.29589196  0.00000000  0.91276924  1
