# generated using pymatgen
data_Na2Sb5C2S2N2(OF3)3
_symmetry_space_group_name_H-M   'P 1'
_cell_length_a   7.15035069
_cell_length_b   9.55283937
_cell_length_c   13.66604979
_cell_angle_alpha   74.09554890
_cell_angle_beta   77.39551842
_cell_angle_gamma   82.85713288
_symmetry_Int_Tables_number   1
_chemical_formula_structural   Na2Sb5C2S2N2(OF3)3
_chemical_formula_sum   'Na4 Sb10 C4 S4 N4 O6 F18'
_cell_volume   874.03181235
_cell_formula_units_Z   2
loop_
 _symmetry_equiv_pos_site_id
 _symmetry_equiv_pos_as_xyz
  1  'x, y, z'
loop_
 _atom_site_type_symbol
 _atom_site_label
 _atom_site_symmetry_multiplicity
 _atom_site_fract_x
 _atom_site_fract_y
 _atom_site_fract_z
 _atom_site_occupancy
  Na  Na0  1  0.87833912  0.70429148  0.45964812  1
  Na  Na1  1  0.12166088  0.29570852  0.54035188  1
  Na  Na2  1  0.33544679  0.85710639  0.58567760  1
  Na  Na3  1  0.66455321  0.14289361  0.41432240  1
  Sb  Sb4  1  0.56143401  0.35686921  0.61442807  1
  Sb  Sb5  1  0.43856599  0.64313079  0.38557193  1
  Sb  Sb6  1  0.23604240  0.08009393  0.79824715  1
  Sb  Sb7  1  0.76395760  0.91990607  0.20175285  1
  Sb  Sb8  1  0.70412722  0.95728076  0.72485647  1
  Sb  Sb9  1  0.29587278  0.04271924  0.27514353  1
  Sb  Sb10  1  0.45193552  0.65838651  0.85796007  1
  Sb  Sb11  1  0.54806448  0.34161349  0.14203993  1
  Sb  Sb12  1  0.95930864  0.57252041  0.73635265  1
  Sb  Sb13  1  0.04069136  0.42747959  0.26364735  1
  C  C14  1  0.74337771  0.26542381  0.87191768  1
  C  C15  1  0.25662229  0.73457619  0.12808232  1
  C  C16  1  0.95800710  0.71111431  0.95575165  1
  C  C17  1  0.04199290  0.28888569  0.04424835  1
  S  S18  1  0.75359279  0.09193340  0.92258917  1
  S  S19  1  0.24640721  0.90806660  0.07741083  1
  S  S20  1  0.75218745  0.70208924  0.03469545  1
  S  S21  1  0.24781255  0.29791076  0.96530455  1
  N  N22  1  0.73199381  0.39470528  0.83527313  1
  N  N23  1  0.26800619  0.60529472  0.16472687  1
  N  N24  1  0.10489505  0.72038320  0.89367353  1
  N  N25  1  0.89510495  0.27961680  0.10632647  1
  O  O26  1  0.50111525  0.14177238  0.72614272  1
  O  O27  1  0.49888475  0.85822762  0.27385728  1
  O  O28  1  0.44581829  0.87904167  0.80794211  1
  O  O29  1  0.55418171  0.12095833  0.19205789  1
  O  O30  1  0.72774091  0.70459112  0.77097661  1
  O  O31  1  0.27225909  0.29540888  0.22902339  1
  F  F32  1  0.46269678  0.25913741  0.52531001  1
  F  F33  1  0.53730322  0.74086259  0.47468999  1
  F  F34  1  0.81059532  0.23067338  0.59749060  1
  F  F35  1  0.18940468  0.76932662  0.40250940  1
  F  F36  1  0.69613610  0.47401125  0.46649192  1
  F  F37  1  0.30386390  0.52598875  0.53350808  1
  F  F38  1  0.18145618  0.02745999  0.67463020  1
  F  F39  1  0.81854382  0.97254001  0.32536980  1
  F  F40  1  0.16113181  0.28770034  0.71261571  1
  F  F41  1  0.83886819  0.71229966  0.28738429  1
  F  F42  1  0.64010935  0.94940737  0.58979912  1
  F  F43  1  0.35989065  0.05059263  0.41020088  1
  F  F44  1  0.38789227  0.64284363  0.72749944  1
  F  F45  1  0.61210773  0.35715637  0.27250056  1
  F  F46  1  0.86982013  0.52904649  0.61916164  1
  F  F47  1  0.13017987  0.47095351  0.38083836  1
  F  F48  1  0.04072682  0.76018761  0.62586739  1
  F  F49  1  0.95927318  0.23981239  0.37413261  1
