# generated using pymatgen
data_DyMnCu4P3
_symmetry_space_group_name_H-M   'P 1'
_cell_length_a   3.76264209
_cell_length_b   10.76347765
_cell_length_c   12.49213247
_cell_angle_alpha   90.00000000
_cell_angle_beta   90.00000000
_cell_angle_gamma   90.00000000
_symmetry_Int_Tables_number   1
_chemical_formula_structural   DyMnCu4P3
_chemical_formula_sum   'Dy4 Mn4 Cu16 P12'
_cell_volume   505.92029751
_cell_formula_units_Z   4
loop_
 _symmetry_equiv_pos_site_id
 _symmetry_equiv_pos_as_xyz
  1  'x, y, z'
loop_
 _atom_site_type_symbol
 _atom_site_label
 _atom_site_symmetry_multiplicity
 _atom_site_fract_x
 _atom_site_fract_y
 _atom_site_fract_z
 _atom_site_occupancy
  Dy  Dy0  1  0.25000000  0.59189542  0.79297838  1
  Dy  Dy1  1  0.25000000  0.90810458  0.29297838  1
  Dy  Dy2  1  0.75000000  0.40810458  0.20702162  1
  Dy  Dy3  1  0.75000000  0.09189542  0.70702162  1
  Mn  Mn4  1  0.25000000  0.71721814  0.52617883  1
  Mn  Mn5  1  0.25000000  0.78278186  0.02617883  1
  Mn  Mn6  1  0.75000000  0.28278186  0.47382117  1
  Mn  Mn7  1  0.75000000  0.21721814  0.97382117  1
  Cu  Cu8  1  0.25000000  0.08774338  0.50265401  1
  Cu  Cu9  1  0.25000000  0.41225662  0.00265401  1
  Cu  Cu10  1  0.75000000  0.91225662  0.49734599  1
  Cu  Cu11  1  0.75000000  0.58774338  0.99734599  1
  Cu  Cu12  1  0.25000000  0.46742757  0.56342884  1
  Cu  Cu13  1  0.25000000  0.03257243  0.06342884  1
  Cu  Cu14  1  0.75000000  0.53257243  0.43657116  1
  Cu  Cu15  1  0.75000000  0.96742757  0.93657116  1
  Cu  Cu16  1  0.25000000  0.88369697  0.81135518  1
  Cu  Cu17  1  0.25000000  0.61630303  0.31135518  1
  Cu  Cu18  1  0.75000000  0.11630303  0.18864482  1
  Cu  Cu19  1  0.75000000  0.38369697  0.68864482  1
  Cu  Cu20  1  0.25000000  0.29483072  0.81426014  1
  Cu  Cu21  1  0.25000000  0.20516928  0.31426014  1
  Cu  Cu22  1  0.75000000  0.70516928  0.18573986  1
  Cu  Cu23  1  0.75000000  0.79483072  0.68573986  1
  P  P24  1  0.25000000  0.91140079  0.61945464  1
  P  P25  1  0.25000000  0.58859921  0.11945464  1
  P  P26  1  0.75000000  0.08859921  0.38054536  1
  P  P27  1  0.75000000  0.41140079  0.88054536  1
  P  P28  1  0.25000000  0.26196148  0.62158847  1
  P  P29  1  0.25000000  0.23803852  0.12158847  1
  P  P30  1  0.75000000  0.73803852  0.37841153  1
  P  P31  1  0.75000000  0.76196148  0.87841153  1
  P  P32  1  0.25000000  0.09242731  0.88025009  1
  P  P33  1  0.25000000  0.40757269  0.38025009  1
  P  P34  1  0.75000000  0.90757269  0.11974991  1
  P  P35  1  0.75000000  0.59242731  0.61974991  1
