# generated using pymatgen
data_La3(IO3)13
_symmetry_space_group_name_H-M   'P 1'
_cell_length_a   13.76525955
_cell_length_b   13.76525955
_cell_length_c   13.76525982
_cell_angle_alpha   109.29745669
_cell_angle_beta   109.29745669
_cell_angle_gamma   109.29745990
_symmetry_Int_Tables_number   1
_chemical_formula_structural   La3(IO3)13
_chemical_formula_sum   'La6 I26 O78'
_cell_volume   2020.66438321
_cell_formula_units_Z   2
loop_
 _symmetry_equiv_pos_site_id
 _symmetry_equiv_pos_as_xyz
  1  'x, y, z'
loop_
 _atom_site_type_symbol
 _atom_site_label
 _atom_site_symmetry_multiplicity
 _atom_site_fract_x
 _atom_site_fract_y
 _atom_site_fract_z
 _atom_site_occupancy
  La  La0  1  0.86474972  0.09383309  0.73855943  1
  La  La1  1  0.09383309  0.73855943  0.86474972  1
  La  La2  1  0.73855943  0.86474972  0.09383309  1
  La  La3  1  0.36474972  0.23855943  0.59383309  1
  La  La4  1  0.23855943  0.59383309  0.36474972  1
  La  La5  1  0.59383309  0.36474972  0.23855943  1
  I  I6  1  0.91691642  0.91691642  0.91691642  1
  I  I7  1  0.41691642  0.41691642  0.41691642  1
  I  I8  1  0.97905886  0.87107653  0.63841870  1
  I  I9  1  0.87107653  0.63841870  0.97905886  1
  I  I10  1  0.63841870  0.97905886  0.87107653  1
  I  I11  1  0.47905886  0.13841870  0.37107653  1
  I  I12  1  0.13841870  0.37107653  0.47905886  1
  I  I13  1  0.37107653  0.47905886  0.13841870  1
  I  I14  1  0.20296216  0.25577380  0.79840748  1
  I  I15  1  0.25577380  0.79840748  0.20296216  1
  I  I16  1  0.79840748  0.20296216  0.25577380  1
  I  I17  1  0.70296216  0.29840748  0.75577380  1
  I  I18  1  0.29840748  0.75577380  0.70296216  1
  I  I19  1  0.75577380  0.70296216  0.29840748  1
  I  I20  1  0.70478231  0.99453249  0.39174990  1
  I  I21  1  0.99453249  0.39174990  0.70478231  1
  I  I22  1  0.39174990  0.70478231  0.99453249  1
  I  I23  1  0.20478231  0.89174990  0.49453249  1
  I  I24  1  0.89174990  0.49453249  0.20478231  1
  I  I25  1  0.49453249  0.20478231  0.89174990  1
  I  I26  1  0.51073656  0.91148458  0.53443283  1
  I  I27  1  0.91148458  0.53443283  0.51073656  1
  I  I28  1  0.53443283  0.51073656  0.91148458  1
  I  I29  1  0.01073656  0.03443283  0.41148458  1
  I  I30  1  0.03443283  0.41148458  0.01073656  1
  I  I31  1  0.41148458  0.01073656  0.03443283  1
  O  O32  1  0.98403820  0.04621902  0.90131440  1
  O  O33  1  0.04621902  0.90131440  0.98403820  1
  O  O34  1  0.90131440  0.98403820  0.04621902  1
  O  O35  1  0.48403820  0.40131440  0.54621902  1
  O  O36  1  0.40131440  0.54621902  0.48403820  1
  O  O37  1  0.54621902  0.48403820  0.40131440  1
  O  O38  1  0.86260451  0.90310730  0.64673763  1
  O  O39  1  0.90310730  0.64673763  0.86260451  1
  O  O40  1  0.64673763  0.86260451  0.90310730  1
  O  O41  1  0.36260451  0.14673763  0.40310730  1
  O  O42  1  0.14673763  0.40310730  0.36260451  1
  O  O43  1  0.40310730  0.36260451  0.14673763  1
  O  O44  1  0.00423434  0.82568600  0.75123825  1
  O  O45  1  0.82568600  0.75123825  0.00423434  1
  O  O46  1  0.75123825  0.00423434  0.82568600  1
  O  O47  1  0.50423434  0.25123825  0.32568600  1
  O  O48  1  0.25123825  0.32568600  0.50423434  1
  O  O49  1  0.32568600  0.50423434  0.25123825  1
  O  O50  1  0.88484277  0.72097750  0.50799845  1
  O  O51  1  0.72097750  0.50799845  0.88484277  1
  O  O52  1  0.50799845  0.88484277  0.72097750  1
  O  O53  1  0.38484277  0.00799845  0.22097750  1
  O  O54  1  0.00799845  0.22097750  0.38484277  1
  O  O55  1  0.22097750  0.38484277  0.00799845  1
  O  O56  1  0.05782097  0.13027544  0.74141332  1
  O  O57  1  0.13027544  0.74141332  0.05782097  1
  O  O58  1  0.74141332  0.05782097  0.13027544  1
  O  O59  1  0.55782097  0.24141332  0.63027544  1
  O  O60  1  0.24141332  0.63027544  0.55782097  1
  O  O61  1  0.63027544  0.55782097  0.24141332  1
  O  O62  1  0.21234811  0.20527838  0.66168072  1
  O  O63  1  0.20527838  0.66168072  0.21234811  1
  O  O64  1  0.66168072  0.21234811  0.20527838  1
  O  O65  1  0.71234811  0.16168072  0.70527838  1
  O  O66  1  0.16168072  0.70527838  0.71234811  1
  O  O67  1  0.70527838  0.71234811  0.16168072  1
  O  O68  1  0.29750991  0.21132488  0.87895362  1
  O  O69  1  0.21132488  0.87895362  0.29750991  1
  O  O70  1  0.87895362  0.29750991  0.21132488  1
  O  O71  1  0.79750991  0.37895362  0.71132488  1
  O  O72  1  0.37895362  0.71132488  0.79750991  1
  O  O73  1  0.71132488  0.79750991  0.37895362  1
  O  O74  1  0.83323687  0.09399833  0.54036621  1
  O  O75  1  0.09399833  0.54036621  0.83323687  1
  O  O76  1  0.54036621  0.83323687  0.09399833  1
  O  O77  1  0.33323687  0.04036621  0.59399833  1
  O  O78  1  0.04036621  0.59399833  0.33323687  1
  O  O79  1  0.59399833  0.33323687  0.04036621  1
  O  O80  1  0.66990451  0.10234485  0.35988865  1
  O  O81  1  0.10234485  0.35988865  0.66990451  1
  O  O82  1  0.35988865  0.66990451  0.10234485  1
  O  O83  1  0.16990451  0.85988865  0.60234485  1
  O  O84  1  0.85988865  0.60234485  0.16990451  1
  O  O85  1  0.60234485  0.16990451  0.85988865  1
  O  O86  1  0.78792595  0.98323253  0.31093419  1
  O  O87  1  0.98323253  0.31093419  0.78792595  1
  O  O88  1  0.31093419  0.78792595  0.98323253  1
  O  O89  1  0.28792595  0.81093419  0.48323253  1
  O  O90  1  0.81093419  0.48323253  0.28792595  1
  O  O91  1  0.48323253  0.28792595  0.81093419  1
  O  O92  1  0.66060570  0.93816916  0.56708660  1
  O  O93  1  0.93816916  0.56708660  0.66060570  1
  O  O94  1  0.56708660  0.66060570  0.93816916  1
  O  O95  1  0.16060570  0.06708660  0.43816916  1
  O  O96  1  0.06708660  0.43816916  0.16060570  1
  O  O97  1  0.43816916  0.16060570  0.06708660  1
  O  O98  1  0.44344336  0.75094644  0.45099836  1
  O  O99  1  0.75094644  0.45099836  0.44344336  1
  O  O100  1  0.45099836  0.44344336  0.75094644  1
  O  O101  1  0.94344336  0.95099836  0.25094644  1
  O  O102  1  0.95099836  0.25094644  0.94344336  1
  O  O103  1  0.25094644  0.94344336  0.95099836  1
  O  O104  1  0.47723918  0.94240467  0.40941586  1
  O  O105  1  0.94240467  0.40941586  0.47723918  1
  O  O106  1  0.40941586  0.47723918  0.94240467  1
  O  O107  1  0.97723918  0.90941586  0.44240467  1
  O  O108  1  0.90941586  0.44240467  0.97723918  1
  O  O109  1  0.44240467  0.97723918  0.90941586  1
