# generated using pymatgen
data_Na3P3O10
_symmetry_space_group_name_H-M   'P 1'
_cell_length_a   7.82928591
_cell_length_b   8.23035379
_cell_length_c   13.54538217
_cell_angle_alpha   90.00000000
_cell_angle_beta   90.00000000
_cell_angle_gamma   90.00000000
_symmetry_Int_Tables_number   1
_chemical_formula_structural   Na3P3O10
_chemical_formula_sum   'Na12 P12 O40'
_cell_volume   872.83453187
_cell_formula_units_Z   4
loop_
 _symmetry_equiv_pos_site_id
 _symmetry_equiv_pos_as_xyz
  1  'x, y, z'
loop_
 _atom_site_type_symbol
 _atom_site_label
 _atom_site_symmetry_multiplicity
 _atom_site_fract_x
 _atom_site_fract_y
 _atom_site_fract_z
 _atom_site_occupancy
  Na  Na0  1  0.53999561  0.75000000  0.26999169  1
  Na  Na1  1  0.03999561  0.75000000  0.23000831  1
  Na  Na2  1  0.46000439  0.25000000  0.73000831  1
  Na  Na3  1  0.96000439  0.25000000  0.76999169  1
  Na  Na4  1  0.82241313  0.49176293  0.42136503  1
  Na  Na5  1  0.32241313  0.00823707  0.07863497  1
  Na  Na6  1  0.17758687  0.99176293  0.57863497  1
  Na  Na7  1  0.67758687  0.50823707  0.92136503  1
  Na  Na8  1  0.17758687  0.50823707  0.57863497  1
  Na  Na9  1  0.67758687  0.99176293  0.92136503  1
  Na  Na10  1  0.82241313  0.00823707  0.42136503  1
  Na  Na11  1  0.32241313  0.49176293  0.07863497  1
  P  P12  1  0.48891607  0.25000000  0.46827013  1
  P  P13  1  0.98891607  0.25000000  0.03172987  1
  P  P14  1  0.51108393  0.75000000  0.53172987  1
  P  P15  1  0.01108393  0.75000000  0.96827013  1
  P  P16  1  0.26108718  0.07187925  0.33544290  1
  P  P17  1  0.76108718  0.42812075  0.16455710  1
  P  P18  1  0.73891282  0.57187925  0.66455710  1
  P  P19  1  0.23891282  0.92812075  0.83544290  1
  P  P20  1  0.73891282  0.92812075  0.66455710  1
  P  P21  1  0.23891282  0.57187925  0.83544290  1
  P  P22  1  0.26108718  0.42812075  0.33544290  1
  P  P23  1  0.76108718  0.07187925  0.16455710  1
  O  O24  1  0.67961441  0.25000000  0.47406724  1
  O  O25  1  0.17961441  0.25000000  0.02593276  1
  O  O26  1  0.32038559  0.75000000  0.52593276  1
  O  O27  1  0.82038559  0.75000000  0.97406724  1
  O  O28  1  0.62034097  0.75000000  0.44058050  1
  O  O29  1  0.12034097  0.75000000  0.05941950  1
  O  O30  1  0.37965903  0.25000000  0.55941950  1
  O  O31  1  0.87965903  0.25000000  0.94058050  1
  O  O32  1  0.23876834  0.25000000  0.28396012  1
  O  O33  1  0.73876834  0.25000000  0.21603988  1
  O  O34  1  0.76123166  0.75000000  0.71603988  1
  O  O35  1  0.26123166  0.75000000  0.78396012  1
  O  O36  1  0.43770095  0.09689889  0.39721849  1
  O  O37  1  0.93770095  0.40310111  0.10278151  1
  O  O38  1  0.56229905  0.59689889  0.60278151  1
  O  O39  1  0.06229905  0.90310111  0.89721849  1
  O  O40  1  0.56229905  0.90310111  0.60278151  1
  O  O41  1  0.06229905  0.59689889  0.89721849  1
  O  O42  1  0.43770095  0.40310111  0.39721849  1
  O  O43  1  0.93770095  0.09689889  0.10278151  1
  O  O44  1  0.11687662  0.04275620  0.40647021  1
  O  O45  1  0.61687662  0.45724380  0.09352979  1
  O  O46  1  0.88312338  0.54275620  0.59352979  1
  O  O47  1  0.38312338  0.95724380  0.90647021  1
  O  O48  1  0.88312338  0.95724380  0.59352979  1
  O  O49  1  0.38312338  0.54275620  0.90647021  1
  O  O50  1  0.11687662  0.45724380  0.40647021  1
  O  O51  1  0.61687662  0.04275620  0.09352979  1
  O  O52  1  0.29718186  0.95173511  0.25496281  1
  O  O53  1  0.79718186  0.54826489  0.24503719  1
  O  O54  1  0.70281814  0.45173511  0.74503719  1
  O  O55  1  0.20281814  0.04826489  0.75496281  1
  O  O56  1  0.70281814  0.04826489  0.74503719  1
  O  O57  1  0.20281814  0.45173511  0.75496281  1
  O  O58  1  0.29718186  0.54826489  0.25496281  1
  O  O59  1  0.79718186  0.95173511  0.24503719  1
  O  O60  1  0.01955705  0.75000000  0.40510327  1
  O  O61  1  0.51955705  0.75000000  0.09489673  1
  O  O62  1  0.98044295  0.25000000  0.59489673  1
  O  O63  1  0.48044295  0.25000000  0.90510327  1
