# generated using pymatgen
data_Dy2Nb2Fe15
_symmetry_space_group_name_H-M   'P 1'
_cell_length_a   8.49471210
_cell_length_b   8.51265081
_cell_length_c   8.51265081
_cell_angle_alpha   120.00895979
_cell_angle_beta   90.00000000
_cell_angle_gamma   90.00000000
_symmetry_Int_Tables_number   1
_chemical_formula_structural   Dy2Nb2Fe15
_chemical_formula_sum   'Dy4 Nb4 Fe30'
_cell_volume   533.05217143
_cell_formula_units_Z   2
loop_
 _symmetry_equiv_pos_site_id
 _symmetry_equiv_pos_as_xyz
  1  'x, y, z'
loop_
 _atom_site_type_symbol
 _atom_site_label
 _atom_site_symmetry_multiplicity
 _atom_site_fract_x
 _atom_site_fract_y
 _atom_site_fract_z
 _atom_site_occupancy
  Dy  Dy0  1  0.75000000  -0.00000384  0.00000384  1
  Dy  Dy1  1  0.25000000  0.00000384  -0.00000384  1
  Dy  Dy2  1  0.25000000  0.66667808  0.33332192  1
  Dy  Dy3  1  0.75000000  0.33332192  0.66667808  1
  Nb  Nb4  1  0.59843327  0.66672580  0.33327420  1
  Nb  Nb5  1  0.40156673  0.33327420  0.66672580  1
  Nb  Nb6  1  0.09843327  0.33327420  0.66672580  1
  Nb  Nb7  1  0.90156673  0.66672580  0.33327420  1
  Fe  Fe8  1  0.50000000  0.50000000  0.00000000  1
  Fe  Fe9  1  0.50000000  0.50000000  0.50000000  1
  Fe  Fe10  1  0.50000000  -0.00000000  0.50000000  1
  Fe  Fe11  1  0.00000000  0.50000000  0.00000000  1
  Fe  Fe12  1  0.00000000  0.50000000  0.50000000  1
  Fe  Fe13  1  0.00000000  -0.00000000  0.50000000  1
  Fe  Fe14  1  0.75000000  0.67074161  0.02906530  1
  Fe  Fe15  1  0.75000000  0.35839910  0.32929839  1
  Fe  Fe16  1  0.75000000  0.97080243  0.64150491  1
  Fe  Fe17  1  0.75000000  0.35849509  0.02919757  1
  Fe  Fe18  1  0.75000000  0.97093470  0.32925839  1
  Fe  Fe19  1  0.75000000  0.67070161  0.64160090  1
  Fe  Fe20  1  0.25000000  0.32925839  0.97093470  1
  Fe  Fe21  1  0.25000000  0.64160090  0.67070161  1
  Fe  Fe22  1  0.25000000  0.02919757  0.35849509  1
  Fe  Fe23  1  0.25000000  0.64150491  0.97080243  1
  Fe  Fe24  1  0.25000000  0.02906530  0.67074161  1
  Fe  Fe25  1  0.25000000  0.32929839  0.35839910  1
  Fe  Fe26  1  0.48685639  0.83727149  0.67451146  1
  Fe  Fe27  1  0.48683349  0.83726735  0.16273265  1
  Fe  Fe28  1  0.48685639  0.32548854  0.16272851  1
  Fe  Fe29  1  0.51314361  0.16272851  0.32548854  1
  Fe  Fe30  1  0.51316651  0.16273265  0.83726735  1
  Fe  Fe31  1  0.51314361  0.67451146  0.83727149  1
  Fe  Fe32  1  0.98685639  0.16272851  0.32548854  1
  Fe  Fe33  1  0.98683349  0.16273265  0.83726735  1
  Fe  Fe34  1  0.98685639  0.67451146  0.83727149  1
  Fe  Fe35  1  0.01314361  0.83727149  0.67451146  1
  Fe  Fe36  1  0.01316651  0.83726735  0.16273265  1
  Fe  Fe37  1  0.01314361  0.32548854  0.16272851  1
