# generated using pymatgen
data_LuAlB14
_symmetry_space_group_name_H-M   'P 1'
_cell_length_a   5.90436834
_cell_length_b   7.26098490
_cell_length_c   7.26098490
_cell_angle_alpha   68.71541281
_cell_angle_beta   66.00971229
_cell_angle_gamma   66.00971229
_symmetry_Int_Tables_number   1
_chemical_formula_structural   LuAlB14
_chemical_formula_sum   'Lu2 Al2 B28'
_cell_volume   252.43784756
_cell_formula_units_Z   2
loop_
 _symmetry_equiv_pos_site_id
 _symmetry_equiv_pos_as_xyz
  1  'x, y, z'
loop_
 _atom_site_type_symbol
 _atom_site_label
 _atom_site_symmetry_multiplicity
 _atom_site_fract_x
 _atom_site_fract_y
 _atom_site_fract_z
 _atom_site_occupancy
  Lu  Lu0  1  0.75000000  0.59660269  0.90339731  1
  Lu  Lu1  1  0.25000000  0.40339731  0.09660269  1
  Al  Al2  1  0.50000000  -0.00000000  0.50000000  1
  Al  Al3  1  0.00000000  -0.00000000  0.50000000  1
  B  B4  1  0.16762086  0.79844110  0.86631718  1
  B  B5  1  0.83237914  0.20155890  0.13368282  1
  B  B6  1  0.66762086  0.36631718  0.29844110  1
  B  B7  1  0.33237914  0.63368282  0.70155890  1
  B  B8  1  0.64486810  0.97878951  0.73147428  1
  B  B9  1  0.35513190  0.02121049  0.26852572  1
  B  B10  1  0.14486810  0.23147428  0.47878951  1
  B  B11  1  0.85513190  0.76852572  0.52121049  1
  B  B12  1  0.59037228  0.24179864  0.57745681  1
  B  B13  1  0.40962772  0.75820136  0.42254319  1
  B  B14  1  0.09037228  0.07745681  0.74179864  1
  B  B15  1  0.90962772  0.92254319  0.25820136  1
  B  B16  1  0.89953232  0.77565920  0.10110993  1
  B  B17  1  0.77630145  0.22434080  0.89889007  1
  B  B18  1  0.39953232  0.60110993  0.27565920  1
  B  B19  1  0.27630145  0.39889007  0.72434080  1
  B  B20  1  0.10046768  0.22434080  0.89889007  1
  B  B21  1  0.22369855  0.77565920  0.10110993  1
  B  B22  1  0.60046768  0.39889007  0.72434080  1
  B  B23  1  0.72369855  0.60110993  0.27565920  1
  B  B24  1  0.33270299  0.37188506  0.46780439  1
  B  B25  1  0.17239244  0.62811494  0.53219561  1
  B  B26  1  0.83270299  0.96780439  0.87188506  1
  B  B27  1  0.67239244  0.03219561  0.12811494  1
  B  B28  1  0.66729701  0.62811494  0.53219561  1
  B  B29  1  0.82760756  0.37188506  0.46780439  1
  B  B30  1  0.16729701  0.03219561  0.12811494  1
  B  B31  1  0.32760756  0.96780439  0.87188506  1
