# generated using pymatgen
data_V2P2H2O11
_symmetry_space_group_name_H-M   'P 1'
_cell_length_a   5.86135194
_cell_length_b   7.41537064
_cell_length_c   9.44514307
_cell_angle_alpha   90.00000000
_cell_angle_beta   90.00000000
_cell_angle_gamma   90.00000000
_symmetry_Int_Tables_number   1
_chemical_formula_structural   V2P2H2O11
_chemical_formula_sum   'V4 P4 H4 O22'
_cell_volume   410.52461539
_cell_formula_units_Z   2
loop_
 _symmetry_equiv_pos_site_id
 _symmetry_equiv_pos_as_xyz
  1  'x, y, z'
loop_
 _atom_site_type_symbol
 _atom_site_label
 _atom_site_symmetry_multiplicity
 _atom_site_fract_x
 _atom_site_fract_y
 _atom_site_fract_z
 _atom_site_occupancy
  V  V0  1  0.01542011  0.54012347  0.75000000  1
  V  V1  1  0.01542011  0.95987653  0.75000000  1
  V  V2  1  -0.01542011  0.45987653  0.25000000  1
  V  V3  1  -0.01542011  0.04012347  0.25000000  1
  P  P4  1  0.76348855  0.75000000  0.01902731  1
  P  P5  1  0.76348855  0.75000000  0.48097269  1
  P  P6  1  0.23651145  0.25000000  0.98097269  1
  P  P7  1  0.23651145  0.25000000  0.51902731  1
  H  H8  1  0.39306558  0.75000000  0.65979215  1
  H  H9  1  0.39306558  0.75000000  0.84020785  1
  H  H10  1  0.60693442  0.25000000  0.34020785  1
  H  H11  1  0.60693442  0.25000000  0.15979215  1
  O  O12  1  0.51864010  0.75000000  0.97967772  1
  O  O13  1  0.51864010  0.75000000  0.52032228  1
  O  O14  1  0.48135990  0.25000000  0.02032228  1
  O  O15  1  0.48135990  0.25000000  0.47967772  1
  O  O16  1  0.83351774  0.57909760  0.10567868  1
  O  O17  1  0.83351774  0.92090240  0.10567868  1
  O  O18  1  0.83351774  0.57909760  0.39432132  1
  O  O19  1  0.83351774  0.92090240  0.39432132  1
  O  O20  1  0.16648226  0.42090240  0.89432132  1
  O  O21  1  0.16648226  0.07909760  0.89432132  1
  O  O22  1  0.16648226  0.42090240  0.60567868  1
  O  O23  1  0.16648226  0.07909760  0.60567868  1
  O  O24  1  0.93173146  0.75000000  0.88568870  1
  O  O25  1  0.93173146  0.75000000  0.61431130  1
  O  O26  1  0.06826854  0.25000000  0.11431130  1
  O  O27  1  0.06826854  0.25000000  0.38568870  1
  O  O28  1  0.76515114  0.45220193  0.75000000  1
  O  O29  1  0.76515114  0.04779807  0.75000000  1
  O  O30  1  0.23484886  0.54779807  0.25000000  1
  O  O31  1  0.23484886  0.95220193  0.25000000  1
  O  O32  1  0.29342407  0.75000000  0.75000000  1
  O  O33  1  0.70657593  0.25000000  0.25000000  1
