# generated using pymatgen
data_Ba2V2CuBrO8
_symmetry_space_group_name_H-M   'P 1'
_cell_length_a   6.24943542
_cell_length_b   9.79876668
_cell_length_c   15.18054956
_cell_angle_alpha   90.00000000
_cell_angle_beta   90.00000000
_cell_angle_gamma   90.00000000
_symmetry_Int_Tables_number   1
_chemical_formula_structural   Ba2V2CuBrO8
_chemical_formula_sum   'Ba8 V8 Cu4 Br4 O32'
_cell_volume   929.60766343
_cell_formula_units_Z   4
loop_
 _symmetry_equiv_pos_site_id
 _symmetry_equiv_pos_as_xyz
  1  'x, y, z'
loop_
 _atom_site_type_symbol
 _atom_site_label
 _atom_site_symmetry_multiplicity
 _atom_site_fract_x
 _atom_site_fract_y
 _atom_site_fract_z
 _atom_site_occupancy
  Ba  Ba0  1  0.75000000  0.14191104  0.53225024  1
  Ba  Ba1  1  0.75000000  0.35808896  0.03225024  1
  Ba  Ba2  1  0.25000000  0.85808896  0.46774976  1
  Ba  Ba3  1  0.25000000  0.64191104  0.96774976  1
  Ba  Ba4  1  0.75000000  0.46231056  0.75263799  1
  Ba  Ba5  1  0.75000000  0.03768944  0.25263799  1
  Ba  Ba6  1  0.25000000  0.53768944  0.24736201  1
  Ba  Ba7  1  0.25000000  0.96231056  0.74736201  1
  V  V8  1  0.25000000  0.28899172  0.63121788  1
  V  V9  1  0.25000000  0.21100828  0.13121788  1
  V  V10  1  0.75000000  0.71100828  0.36878212  1
  V  V11  1  0.75000000  0.78899172  0.86878212  1
  V  V12  1  0.25000000  0.29253255  0.86849374  1
  V  V13  1  0.25000000  0.20746745  0.36849374  1
  V  V14  1  0.75000000  0.70746745  0.13150626  1
  V  V15  1  0.75000000  0.79253255  0.63150626  1
  Cu  Cu16  1  -0.00000000  0.50000000  0.50000000  1
  Cu  Cu17  1  0.50000000  0.00000000  0.00000000  1
  Cu  Cu18  1  0.50000000  0.50000000  0.50000000  1
  Cu  Cu19  1  -0.00000000  -0.00000000  0.00000000  1
  Br  Br20  1  0.25000000  0.61877024  0.75013968  1
  Br  Br21  1  0.25000000  0.88122976  0.25013968  1
  Br  Br22  1  0.75000000  0.38122976  0.24986032  1
  Br  Br23  1  0.75000000  0.11877024  0.74986032  1
  O  O24  1  0.25000000  0.12955921  0.58925953  1
  O  O25  1  0.25000000  0.37044079  0.08925953  1
  O  O26  1  0.75000000  0.87044079  0.41074047  1
  O  O27  1  0.75000000  0.62955921  0.91074047  1
  O  O28  1  0.01237568  0.36937522  0.59856646  1
  O  O29  1  0.48762432  0.13062478  0.09856646  1
  O  O30  1  0.51237568  0.63062478  0.40143354  1
  O  O31  1  0.98762432  0.86937522  0.90143354  1
  O  O32  1  0.98762432  0.63062478  0.40143354  1
  O  O33  1  0.51237568  0.86937522  0.90143354  1
  O  O34  1  0.48762432  0.36937522  0.59856646  1
  O  O35  1  0.01237568  0.13062478  0.09856646  1
  O  O36  1  0.47356667  0.38367688  0.89829467  1
  O  O37  1  0.02643333  0.11632312  0.39829467  1
  O  O38  1  0.97356667  0.61632312  0.10170533  1
  O  O39  1  0.52643333  0.88367688  0.60170533  1
  O  O40  1  0.52643333  0.61632312  0.10170533  1
  O  O41  1  0.97356667  0.88367688  0.60170533  1
  O  O42  1  0.02643333  0.38367688  0.89829467  1
  O  O43  1  0.47356667  0.11632312  0.39829467  1
  O  O44  1  0.25000000  0.26166440  0.74834227  1
  O  O45  1  0.25000000  0.23833560  0.24834227  1
  O  O46  1  0.75000000  0.73833560  0.25165773  1
  O  O47  1  0.75000000  0.76166440  0.75165773  1
  O  O48  1  0.75000000  0.63287376  0.58689495  1
  O  O49  1  0.75000000  0.86712624  0.08689495  1
  O  O50  1  0.25000000  0.36712624  0.41310505  1
  O  O51  1  0.25000000  0.13287376  0.91310505  1
  O  O52  1  0.25000000  0.58260478  0.53401714  1
  O  O53  1  0.25000000  0.91739522  0.03401714  1
  O  O54  1  0.75000000  0.41739522  0.46598286  1
  O  O55  1  0.75000000  0.08260478  0.96598286  1
