# generated using pymatgen
data_K3YSi3O10
_symmetry_space_group_name_H-M   'P 1'
_cell_length_a   5.99228850
_cell_length_b   13.33130891
_cell_length_c   13.04430156
_cell_angle_alpha   90.00000000
_cell_angle_beta   90.00000000
_cell_angle_gamma   90.00000000
_symmetry_Int_Tables_number   1
_chemical_formula_structural   K3YSi3O10
_chemical_formula_sum   'K12 Y4 Si12 O40'
_cell_volume   1042.04467022
_cell_formula_units_Z   4
loop_
 _symmetry_equiv_pos_site_id
 _symmetry_equiv_pos_as_xyz
  1  'x, y, z'
loop_
 _atom_site_type_symbol
 _atom_site_label
 _atom_site_symmetry_multiplicity
 _atom_site_fract_x
 _atom_site_fract_y
 _atom_site_fract_z
 _atom_site_occupancy
  K  K0  1  0.94691170  0.36722785  0.75000000  1
  K  K1  1  0.55308830  0.86722785  0.75000000  1
  K  K2  1  0.05308830  0.63277215  0.25000000  1
  K  K3  1  0.44691170  0.13277215  0.25000000  1
  K  K4  1  0.57750485  0.36352751  0.52255336  1
  K  K5  1  0.92249515  0.86352751  0.97744664  1
  K  K6  1  0.42249515  0.63647249  0.02255336  1
  K  K7  1  0.07750485  0.13647249  0.47744664  1
  K  K8  1  0.42249515  0.63647249  0.47744664  1
  K  K9  1  0.07750485  0.13647249  0.02255336  1
  K  K10  1  0.57750485  0.36352751  0.97744664  1
  K  K11  1  0.92249515  0.86352751  0.52255336  1
  Y  Y12  1  0.57400381  0.46799035  0.25000000  1
  Y  Y13  1  0.92599619  0.96799035  0.25000000  1
  Y  Y14  1  0.42599619  0.53200965  0.75000000  1
  Y  Y15  1  0.07400381  0.03200965  0.75000000  1
  Si  Si16  1  0.58567308  0.08876862  0.59136551  1
  Si  Si17  1  0.91432692  0.58876862  0.90863449  1
  Si  Si18  1  0.41432692  0.91123138  0.09136551  1
  Si  Si19  1  0.08567308  0.41123138  0.40863449  1
  Si  Si20  1  0.41432692  0.91123138  0.40863449  1
  Si  Si21  1  0.08567308  0.41123138  0.09136551  1
  Si  Si22  1  0.58567308  0.08876862  0.90863449  1
  Si  Si23  1  0.91432692  0.58876862  0.59136551  1
  Si  Si24  1  0.92198461  0.25771087  0.25000000  1
  Si  Si25  1  0.57801539  0.75771087  0.25000000  1
  Si  Si26  1  0.07801539  0.74228913  0.75000000  1
  Si  Si27  1  0.42198461  0.24228913  0.75000000  1
  O  O28  1  0.85949417  0.47408113  0.12558835  1
  O  O29  1  0.64050583  0.97408113  0.37441165  1
  O  O30  1  0.14050583  0.52591887  0.62558835  1
  O  O31  1  0.35949417  0.02591887  0.87441165  1
  O  O32  1  0.14050583  0.52591887  0.87441165  1
  O  O33  1  0.35949417  0.02591887  0.62558835  1
  O  O34  1  0.85949417  0.47408113  0.37441165  1
  O  O35  1  0.64050583  0.97408113  0.12558835  1
  O  O36  1  0.31825663  0.46363871  0.12416592  1
  O  O37  1  0.18174337  0.96363871  0.37583408  1
  O  O38  1  0.68174337  0.53636129  0.62416592  1
  O  O39  1  0.81825663  0.03636129  0.87583408  1
  O  O40  1  0.68174337  0.53636129  0.87583408  1
  O  O41  1  0.81825663  0.03636129  0.62416592  1
  O  O42  1  0.31825663  0.46363871  0.37583408  1
  O  O43  1  0.18174337  0.96363871  0.12416592  1
  O  O44  1  0.07531374  0.37721491  0.96874726  1
  O  O45  1  0.42468626  0.87721491  0.53125274  1
  O  O46  1  0.92468626  0.62278509  0.46874726  1
  O  O47  1  0.57531374  0.12278509  0.03125274  1
  O  O48  1  0.92468626  0.62278509  0.03125274  1
  O  O49  1  0.57531374  0.12278509  0.46874726  1
  O  O50  1  0.07531374  0.37721491  0.53125274  1
  O  O51  1  0.42468626  0.87721491  0.96874726  1
  O  O52  1  0.06654391  0.29886799  0.14807036  1
  O  O53  1  0.43345609  0.79886799  0.35192964  1
  O  O54  1  0.93345609  0.70113201  0.64807036  1
  O  O55  1  0.56654391  0.20113201  0.85192964  1
  O  O56  1  0.93345609  0.70113201  0.85192964  1
  O  O57  1  0.56654391  0.20113201  0.64807036  1
  O  O58  1  0.06654391  0.29886799  0.35192964  1
  O  O59  1  0.43345609  0.79886799  0.14807036  1
  O  O60  1  0.67423713  0.30554459  0.25000000  1
  O  O61  1  0.82576287  0.80554459  0.25000000  1
  O  O62  1  0.32576287  0.69445541  0.75000000  1
  O  O63  1  0.17423713  0.19445541  0.75000000  1
  O  O64  1  0.94064276  0.13693563  0.25000000  1
  O  O65  1  0.55935724  0.63693563  0.25000000  1
  O  O66  1  0.05935724  0.86306437  0.75000000  1
  O  O67  1  0.44064276  0.36306437  0.75000000  1
