# generated using pymatgen
data_Ba3Co2(NO2)12
_symmetry_space_group_name_H-M   'P 1'
_cell_length_a   10.91483501
_cell_length_b   10.91483501
_cell_length_c   10.91483501
_cell_angle_alpha   90.00000000
_cell_angle_beta   90.00000000
_cell_angle_gamma   90.00000000
_symmetry_Int_Tables_number   1
_chemical_formula_structural   Ba3Co2(NO2)12
_chemical_formula_sum   'Ba6 Co4 N24 O48'
_cell_volume   1300.32384241
_cell_formula_units_Z   2
loop_
 _symmetry_equiv_pos_site_id
 _symmetry_equiv_pos_as_xyz
  1  'x, y, z'
loop_
 _atom_site_type_symbol
 _atom_site_label
 _atom_site_symmetry_multiplicity
 _atom_site_fract_x
 _atom_site_fract_y
 _atom_site_fract_z
 _atom_site_occupancy
  Ba  Ba0  1  0.50000000  -0.00000000  0.50000000  1
  Ba  Ba1  1  0.50000000  0.50000000  -0.00000000  1
  Ba  Ba2  1  -0.00000000  0.50000000  0.50000000  1
  Ba  Ba3  1  -0.00000000  0.50000000  -0.00000000  1
  Ba  Ba4  1  -0.00000000  -0.00000000  0.50000000  1
  Ba  Ba5  1  0.50000000  -0.00000000  -0.00000000  1
  Co  Co6  1  0.75000000  0.75000000  0.25000000  1
  Co  Co7  1  0.75000000  0.25000000  0.75000000  1
  Co  Co8  1  0.25000000  0.75000000  0.75000000  1
  Co  Co9  1  0.25000000  0.25000000  0.25000000  1
  N  N10  1  0.75321750  0.56637415  0.24678250  1
  N  N11  1  0.75321750  0.75321750  0.43362585  1
  N  N12  1  0.56637415  0.75321750  0.24678250  1
  N  N13  1  0.75321750  0.43362585  0.75321750  1
  N  N14  1  0.75321750  0.24678250  0.56637415  1
  N  N15  1  0.56637415  0.24678250  0.75321750  1
  N  N16  1  0.24678250  0.56637415  0.75321750  1
  N  N17  1  0.24678250  0.75321750  0.56637415  1
  N  N18  1  0.43362585  0.75321750  0.75321750  1
  N  N19  1  0.24678250  0.43362585  0.24678250  1
  N  N20  1  0.24678250  0.24678250  0.43362585  1
  N  N21  1  0.43362585  0.24678250  0.24678250  1
  N  N22  1  0.74678250  0.93362585  0.25321750  1
  N  N23  1  0.74678250  0.74678250  0.06637415  1
  N  N24  1  0.93362585  0.74678250  0.25321750  1
  N  N25  1  0.74678250  0.06637415  0.74678250  1
  N  N26  1  0.74678250  0.25321750  0.93362585  1
  N  N27  1  0.93362585  0.25321750  0.74678250  1
  N  N28  1  0.25321750  0.93362585  0.74678250  1
  N  N29  1  0.25321750  0.74678250  0.93362585  1
  N  N30  1  0.06637415  0.74678250  0.74678250  1
  N  N31  1  0.25321750  0.06637415  0.25321750  1
  N  N32  1  0.25321750  0.25321750  0.06637415  1
  N  N33  1  0.06637415  0.25321750  0.25321750  1
  O  O34  1  0.82653751  0.50831436  0.31210279  1
  O  O35  1  0.68789721  0.50831436  0.17346249  1
  O  O36  1  0.68789721  0.82653751  0.49168564  1
  O  O37  1  0.82653751  0.68789721  0.49168564  1
  O  O38  1  0.50831436  0.68789721  0.17346249  1
  O  O39  1  0.50831436  0.82653751  0.31210279  1
  O  O40  1  0.82653751  0.49168564  0.68789721  1
  O  O41  1  0.68789721  0.49168564  0.82653751  1
  O  O42  1  0.68789721  0.17346249  0.50831436  1
  O  O43  1  0.82653751  0.31210279  0.50831436  1
  O  O44  1  0.50831436  0.31210279  0.82653751  1
  O  O45  1  0.50831436  0.17346249  0.68789721  1
  O  O46  1  0.17346249  0.50831436  0.68789721  1
  O  O47  1  0.31210279  0.50831436  0.82653751  1
  O  O48  1  0.31210279  0.82653751  0.50831436  1
  O  O49  1  0.17346249  0.68789721  0.50831436  1
  O  O50  1  0.49168564  0.68789721  0.82653751  1
  O  O51  1  0.49168564  0.82653751  0.68789721  1
  O  O52  1  0.17346249  0.49168564  0.31210279  1
  O  O53  1  0.31210279  0.49168564  0.17346249  1
  O  O54  1  0.31210279  0.17346249  0.49168564  1
  O  O55  1  0.17346249  0.31210279  0.49168564  1
  O  O56  1  0.49168564  0.31210279  0.17346249  1
  O  O57  1  0.49168564  0.17346249  0.31210279  1
  O  O58  1  0.67346249  0.99168564  0.18789721  1
  O  O59  1  0.81210279  0.99168564  0.32653751  1
  O  O60  1  0.81210279  0.67346249  0.00831436  1
  O  O61  1  0.67346249  0.81210279  0.00831436  1
  O  O62  1  0.99168564  0.81210279  0.32653751  1
  O  O63  1  0.99168564  0.67346249  0.18789721  1
  O  O64  1  0.67346249  0.00831436  0.81210279  1
  O  O65  1  0.81210279  0.00831436  0.67346249  1
  O  O66  1  0.81210279  0.32653751  0.99168564  1
  O  O67  1  0.67346249  0.18789721  0.99168564  1
  O  O68  1  0.99168564  0.18789721  0.67346249  1
  O  O69  1  0.99168564  0.32653751  0.81210279  1
  O  O70  1  0.32653751  0.99168564  0.81210279  1
  O  O71  1  0.18789721  0.99168564  0.67346249  1
  O  O72  1  0.18789721  0.67346249  0.99168564  1
  O  O73  1  0.32653751  0.81210279  0.99168564  1
  O  O74  1  0.00831436  0.81210279  0.67346249  1
  O  O75  1  0.00831436  0.67346249  0.81210279  1
  O  O76  1  0.32653751  0.00831436  0.18789721  1
  O  O77  1  0.18789721  0.00831436  0.32653751  1
  O  O78  1  0.18789721  0.32653751  0.00831436  1
  O  O79  1  0.32653751  0.18789721  0.00831436  1
  O  O80  1  0.00831436  0.18789721  0.32653751  1
  O  O81  1  0.00831436  0.32653751  0.18789721  1
