# generated using pymatgen
data_AsPHCl3OF6
_symmetry_space_group_name_H-M   'P 1'
_cell_length_a   8.65786457
_cell_length_b   8.81983340
_cell_length_c   13.13737765
_cell_angle_alpha   90.00000000
_cell_angle_beta   90.00000000
_cell_angle_gamma   90.00000000
_symmetry_Int_Tables_number   1
_chemical_formula_structural   AsPHCl3OF6
_chemical_formula_sum   'As4 P4 H4 Cl12 O4 F24'
_cell_volume   1003.18228456
_cell_formula_units_Z   4
loop_
 _symmetry_equiv_pos_site_id
 _symmetry_equiv_pos_as_xyz
  1  'x, y, z'
loop_
 _atom_site_type_symbol
 _atom_site_label
 _atom_site_symmetry_multiplicity
 _atom_site_fract_x
 _atom_site_fract_y
 _atom_site_fract_z
 _atom_site_occupancy
  As  As0  1  0.69782656  0.75000000  0.05966026  1
  As  As1  1  0.80217344  0.75000000  0.55966026  1
  As  As2  1  0.30217344  0.25000000  0.94033974  1
  As  As3  1  0.19782656  0.25000000  0.44033974  1
  P  P4  1  0.22522683  0.75000000  0.27563725  1
  P  P5  1  0.27477317  0.75000000  0.77563725  1
  P  P6  1  0.77477317  0.25000000  0.72436275  1
  P  P7  1  0.72522683  0.25000000  0.22436275  1
  H  H8  1  0.04089094  0.75000000  0.40423861  1
  H  H9  1  0.45910906  0.75000000  0.90423861  1
  H  H10  1  0.95910906  0.25000000  0.59576139  1
  H  H11  1  0.54089094  0.25000000  0.09576139  1
  Cl  Cl12  1  0.39890850  0.75000000  0.37192359  1
  Cl  Cl13  1  0.10109150  0.75000000  0.87192359  1
  Cl  Cl14  1  0.60109150  0.25000000  0.62807641  1
  Cl  Cl15  1  0.89890850  0.25000000  0.12807641  1
  Cl  Cl16  1  0.24444045  0.92837876  0.18684344  1
  Cl  Cl17  1  0.25555955  0.57162124  0.68684344  1
  Cl  Cl18  1  0.75555955  0.42837876  0.81315656  1
  Cl  Cl19  1  0.74444045  0.07162124  0.31315656  1
  Cl  Cl20  1  0.75555955  0.07162124  0.81315656  1
  Cl  Cl21  1  0.74444045  0.42837876  0.31315656  1
  Cl  Cl22  1  0.24444045  0.57162124  0.18684344  1
  Cl  Cl23  1  0.25555955  0.92837876  0.68684344  1
  O  O24  1  0.06696054  0.75000000  0.32627343  1
  O  O25  1  0.43303946  0.75000000  0.82627343  1
  O  O26  1  0.93303946  0.25000000  0.67372657  1
  O  O27  1  0.56696054  0.25000000  0.17372657  1
  F  F28  1  0.76285620  0.75000000  0.93166821  1
  F  F29  1  0.73714380  0.75000000  0.43166821  1
  F  F30  1  0.23714380  0.25000000  0.06833179  1
  F  F31  1  0.26285620  0.25000000  0.56833179  1
  F  F32  1  0.49871236  0.75000000  0.00793173  1
  F  F33  1  0.00128764  0.75000000  0.50793173  1
  F  F34  1  0.50128764  0.25000000  0.99206827  1
  F  F35  1  0.99871236  0.25000000  0.49206827  1
  F  F36  1  0.88902505  0.75000000  0.10441279  1
  F  F37  1  0.61097495  0.75000000  0.60441279  1
  F  F38  1  0.11097495  0.25000000  0.89558721  1
  F  F39  1  0.38902505  0.25000000  0.39558721  1
  F  F40  1  0.61839851  0.75000000  0.18281275  1
  F  F41  1  0.88160149  0.75000000  0.68281275  1
  F  F42  1  0.38160149  0.25000000  0.81718725  1
  F  F43  1  0.11839851  0.25000000  0.31718725  1
  F  F44  1  0.69134267  0.95017213  0.05840707  1
  F  F45  1  0.80865733  0.54982787  0.55840707  1
  F  F46  1  0.30865733  0.45017213  0.94159293  1
  F  F47  1  0.19134267  0.04982787  0.44159293  1
  F  F48  1  0.30865733  0.04982787  0.94159293  1
  F  F49  1  0.19134267  0.45017213  0.44159293  1
  F  F50  1  0.69134267  0.54982787  0.05840707  1
  F  F51  1  0.80865733  0.95017213  0.55840707  1
