# generated using pymatgen
data_H5(C2N3)6
_symmetry_space_group_name_H-M   'P 1'
_cell_length_a   5.25189111
_cell_length_b   11.11776819
_cell_length_c   17.22243959
_cell_angle_alpha   90.06997523
_cell_angle_beta   90.16358392
_cell_angle_gamma   107.74489747
_symmetry_Int_Tables_number   1
_chemical_formula_structural   H5(C2N3)6
_chemical_formula_sum   'H10 C24 N36'
_cell_volume   957.75632877
_cell_formula_units_Z   2
loop_
 _symmetry_equiv_pos_site_id
 _symmetry_equiv_pos_as_xyz
  1  'x, y, z'
loop_
 _atom_site_type_symbol
 _atom_site_label
 _atom_site_symmetry_multiplicity
 _atom_site_fract_x
 _atom_site_fract_y
 _atom_site_fract_z
 _atom_site_occupancy
  H  H0  1  0.10624354  0.05392160  0.57642222  1
  H  H1  1  0.35959322  0.17955151  0.62182219  1
  H  H2  1  0.88014739  0.93927650  0.42565677  1
  H  H3  1  0.62857640  0.81450964  0.37885564  1
  H  H4  1  0.77409859  0.38647058  0.62073169  1
  H  H5  1  0.20746181  0.60434131  0.37926778  1
  H  H6  1  0.11303032  0.55763310  0.92212972  1
  H  H7  1  0.36988864  0.68545679  0.87974319  1
  H  H8  1  0.87848417  0.43817155  0.07491253  1
  H  H9  1  0.62620989  0.31243601  0.12088160  1
  C  C10  1  0.05861073  0.02818436  0.83530980  1
  C  C11  1  0.34175206  0.17065868  0.92289514  1
  C  C12  1  0.39503945  0.19756828  0.78291988  1
  C  C13  1  0.69631102  0.34693714  0.86987535  1
  C  C14  1  0.73381544  0.36657250  0.73837480  1
  C  C15  1  0.07140714  0.53570801  0.66380961  1
  C  C16  1  0.34009479  0.67039763  0.57587373  1
  C  C17  1  0.73856887  0.86869336  0.76419993  1
  C  C18  1  0.69652289  0.84762270  0.63000797  1
  C  C19  1  0.63322712  0.81635102  0.49866760  1
  C  C20  1  0.35074033  0.17568144  0.50214893  1
  C  C21  1  0.28629932  0.14385346  0.37087337  1
  C  C22  1  0.24363876  0.12250962  0.23683101  1
  C  C23  1  0.64315574  0.32118902  0.42450033  1
  C  C24  1  0.58442499  0.29227635  0.28417646  1
  C  C25  1  0.91072496  0.45527325  0.33630642  1
  C  C26  1  0.24776735  0.62425364  0.26171039  1
  C  C27  1  0.28645470  0.64450997  0.13027011  1
  C  C28  1  0.58711454  0.79341692  0.21789625  1
  C  C29  1  0.64208260  0.82113786  0.07827921  1
  C  C30  1  0.92298390  0.96260702  0.16610191  1
  C  C31  1  0.63390673  0.31598056  0.00111723  1
  C  C32  1  0.39780409  0.69875649  0.71636317  1
  C  C33  1  0.35161079  0.67684960  0.99909127  1
  N  N34  1  0.18760649  0.09540860  0.77307099  1
  N  N35  1  0.12975380  0.07001869  0.90958700  1
  N  N36  1  0.48006044  0.23808448  0.85821451  1
  N  N37  1  0.52366077  0.26318441  0.72214644  1
  N  N38  1  0.77234331  0.38619379  0.94082463  1
  N  N39  1  0.82418031  0.41101237  0.80823824  1
  N  N40  1  0.85494392  0.42759735  0.67212625  1
  N  N41  1  0.19096266  0.59512976  0.72751770  1
  N  N42  1  0.13333333  0.56719557  0.58915327  1
  N  N43  1  0.41903826  0.71001051  0.50453680  1
  N  N44  1  0.47764327  0.73874112  0.64063378  1
  N  N45  1  0.52659385  0.76261835  0.77688588  1
  N  N46  1  0.84959460  0.92438881  0.83076405  1
  N  N47  1  0.82174430  0.91136979  0.69208882  1
  N  N48  1  0.77383992  0.88597086  0.55887874  1
  N  N49  1  0.71846825  0.85936908  0.42836652  1
  N  N50  1  0.26766438  0.13370172  0.57269640  1
  N  N51  1  0.20951929  0.10574864  0.44212108  1
  N  N52  1  0.16057066  0.07989145  0.30897349  1
  N  N53  1  0.13204810  0.06671450  0.17041420  1
  N  N54  1  0.56487677  0.28194841  0.49593680  1
  N  N55  1  0.50496595  0.25259508  0.35996489  1
  N  N56  1  0.45544594  0.22826785  0.22369995  1
  N  N57  1  0.84967357  0.42418320  0.41101395  1
  N  N58  1  0.79088033  0.39571137  0.27267533  1
  N  N59  1  0.12668912  0.56327329  0.32785053  1
  N  N60  1  0.15778574  0.58005030  0.19163365  1
  N  N61  1  0.21169472  0.60599532  0.05895180  1
  N  N62  1  0.45747719  0.72740062  0.27836681  1
  N  N63  1  0.50255563  0.75326410  0.14247285  1
  N  N64  1  0.79437699  0.89533651  0.22827044  1
  N  N65  1  0.85374772  0.92171817  0.09162379  1
  N  N66  1  0.56663683  0.78258868  0.00685861  1
  N  N67  1  0.71639698  0.35843547  0.07162597  1
  N  N68  1  0.41896595  0.21004846  0.99410465  1
  N  N69  1  0.27446837  0.63707586  0.92788800  1
