# generated using pymatgen
data_ZrTiCuO5
_symmetry_space_group_name_H-M   'P 1'
_cell_length_a   3.61945743
_cell_length_b   6.79750358
_cell_length_c   14.82989337
_cell_angle_alpha   90.00000000
_cell_angle_beta   90.00000000
_cell_angle_gamma   90.00000000
_symmetry_Int_Tables_number   1
_chemical_formula_structural   ZrTiCuO5
_chemical_formula_sum   'Zr4 Ti4 Cu4 O20'
_cell_volume   364.86394240
_cell_formula_units_Z   4
loop_
 _symmetry_equiv_pos_site_id
 _symmetry_equiv_pos_as_xyz
  1  'x, y, z'
loop_
 _atom_site_type_symbol
 _atom_site_label
 _atom_site_symmetry_multiplicity
 _atom_site_fract_x
 _atom_site_fract_y
 _atom_site_fract_z
 _atom_site_occupancy
  Zr  Zr0  1  0.92432062  0.83769490  0.90420514  1
  Zr  Zr1  1  0.57567938  0.16230510  0.40420514  1
  Zr  Zr2  1  0.42432062  0.66230510  0.09579486  1
  Zr  Zr3  1  0.07567938  0.33769490  0.59579486  1
  Ti  Ti4  1  0.40849834  0.14583484  0.07509613  1
  Ti  Ti5  1  0.09150166  0.85416516  0.57509613  1
  Ti  Ti6  1  0.90849834  0.35416516  0.92490387  1
  Ti  Ti7  1  0.59150166  0.64583484  0.42490387  1
  Cu  Cu8  1  0.50084884  0.09917788  0.75412813  1
  Cu  Cu9  1  0.99915116  0.90082212  0.25412813  1
  Cu  Cu10  1  0.00084884  0.40082212  0.24587187  1
  Cu  Cu11  1  0.49915116  0.59917788  0.74587187  1
  O  O12  1  0.42992156  0.84481251  0.80912808  1
  O  O13  1  0.07007844  0.15518749  0.30912808  1
  O  O14  1  0.92992156  0.65518749  0.19087192  1
  O  O15  1  0.57007844  0.34481251  0.69087192  1
  O  O16  1  0.88898860  0.13521940  0.85085705  1
  O  O17  1  0.61101140  0.86478060  0.35085705  1
  O  O18  1  0.38898860  0.36478060  0.14914295  1
  O  O19  1  0.11101140  0.63521940  0.64914295  1
  O  O20  1  0.42261684  0.88202694  0.98293960  1
  O  O21  1  0.07738316  0.11797306  0.48293960  1
  O  O22  1  0.92261684  0.61797306  0.01706040  1
  O  O23  1  0.57738316  0.38202694  0.51706040  1
  O  O24  1  0.90891780  0.14764541  0.03644413  1
  O  O25  1  0.59108220  0.85235459  0.53644413  1
  O  O26  1  0.40891780  0.35235459  0.96355587  1
  O  O27  1  0.09108220  0.64764541  0.46355587  1
  O  O28  1  0.39110030  0.93991102  0.15875895  1
  O  O29  1  0.10889970  0.06008898  0.65875895  1
  O  O30  1  0.89110030  0.56008898  0.84124105  1
  O  O31  1  0.60889970  0.43991102  0.34124105  1
