# generated using pymatgen
data_Ca2Al3Si3O13
_symmetry_space_group_name_H-M   'P 1'
_cell_length_a   5.77860232
_cell_length_b   10.69988660
_cell_length_c   15.71811869
_cell_angle_alpha   90.00000000
_cell_angle_beta   90.00000000
_cell_angle_gamma   90.00000000
_symmetry_Int_Tables_number   1
_chemical_formula_structural   Ca2Al3Si3O13
_chemical_formula_sum   'Ca8 Al12 Si12 O52'
_cell_volume   971.85740129
_cell_formula_units_Z   4
loop_
 _symmetry_equiv_pos_site_id
 _symmetry_equiv_pos_as_xyz
  1  'x, y, z'
loop_
 _atom_site_type_symbol
 _atom_site_label
 _atom_site_symmetry_multiplicity
 _atom_site_fract_x
 _atom_site_fract_y
 _atom_site_fract_z
 _atom_site_occupancy
  Ca  Ca0  1  0.25000000  0.06293743  0.86613844  1
  Ca  Ca1  1  0.25000000  0.43706257  0.36613844  1
  Ca  Ca2  1  0.75000000  0.93706257  0.13386156  1
  Ca  Ca3  1  0.75000000  0.56293743  0.63386156  1
  Ca  Ca4  1  0.25000000  0.36124664  0.95570136  1
  Ca  Ca5  1  0.25000000  0.13875336  0.45570136  1
  Ca  Ca6  1  0.75000000  0.63875336  0.04429864  1
  Ca  Ca7  1  0.75000000  0.86124664  0.54429864  1
  Al  Al8  1  0.99641677  0.31156935  0.74728731  1
  Al  Al9  1  0.50358323  0.18843065  0.24728731  1
  Al  Al10  1  0.49641677  0.68843065  0.25271269  1
  Al  Al11  1  0.00358323  0.81156935  0.75271269  1
  Al  Al12  1  0.00358323  0.68843065  0.25271269  1
  Al  Al13  1  0.49641677  0.81156935  0.75271269  1
  Al  Al14  1  0.50358323  0.31156935  0.74728731  1
  Al  Al15  1  0.99641677  0.18843065  0.24728731  1
  Al  Al16  1  0.75000000  0.14716921  0.60519968  1
  Al  Al17  1  0.75000000  0.35283079  0.10519968  1
  Al  Al18  1  0.25000000  0.85283079  0.39480032  1
  Al  Al19  1  0.25000000  0.64716921  0.89480032  1
  Si  Si20  1  0.75000000  0.21420834  0.91512185  1
  Si  Si21  1  0.75000000  0.28579166  0.41512185  1
  Si  Si22  1  0.25000000  0.78579166  0.08487815  1
  Si  Si23  1  0.25000000  0.71420834  0.58487815  1
  Si  Si24  1  0.25000000  0.41724327  0.58543051  1
  Si  Si25  1  0.25000000  0.08275673  0.08543051  1
  Si  Si26  1  0.75000000  0.58275673  0.41456949  1
  Si  Si27  1  0.75000000  0.91724327  0.91456949  1
  Si  Si28  1  0.25000000  0.05753672  0.65823086  1
  Si  Si29  1  0.25000000  0.44246328  0.15823086  1
  Si  Si30  1  0.75000000  0.94246328  0.34176914  1
  Si  Si31  1  0.75000000  0.55753672  0.84176914  1
  O  O32  1  0.01852225  0.39585855  0.64370942  1
  O  O33  1  0.48147775  0.10414145  0.14370942  1
  O  O34  1  0.51852225  0.60414145  0.35629058  1
  O  O35  1  0.98147775  0.89585855  0.85629058  1
  O  O36  1  0.98147775  0.60414145  0.35629058  1
  O  O37  1  0.51852225  0.89585855  0.85629058  1
  O  O38  1  0.48147775  0.39585855  0.64370942  1
  O  O39  1  0.01852225  0.10414145  0.14370942  1
  O  O40  1  0.01944645  0.05928493  0.59536655  1
  O  O41  1  0.48055355  0.44071507  0.09536655  1
  O  O42  1  0.51944645  0.94071507  0.40463345  1
  O  O43  1  0.98055355  0.55928493  0.90463345  1
  O  O44  1  0.98055355  0.94071507  0.40463345  1
  O  O45  1  0.51944645  0.55928493  0.90463345  1
  O  O46  1  0.48055355  0.05928493  0.59536655  1
  O  O47  1  0.01944645  0.44071507  0.09536655  1
  O  O48  1  0.98458192  0.24352498  0.85859828  1
  O  O49  1  0.51541808  0.25647502  0.35859828  1
  O  O50  1  0.48458192  0.75647502  0.14140172  1
  O  O51  1  0.01541808  0.74352498  0.64140172  1
  O  O52  1  0.01541808  0.75647502  0.14140172  1
  O  O53  1  0.48458192  0.74352498  0.64140172  1
  O  O54  1  0.51541808  0.24352498  0.85859828  1
  O  O55  1  0.98458192  0.25647502  0.35859828  1
  O  O56  1  0.75000000  0.21637051  0.70658361  1
  O  O57  1  0.75000000  0.28362949  0.20658361  1
  O  O58  1  0.25000000  0.78362949  0.29341639  1
  O  O59  1  0.25000000  0.71637051  0.79341639  1
  O  O60  1  0.25000000  0.18419303  0.71942174  1
  O  O61  1  0.25000000  0.31580697  0.21942174  1
  O  O62  1  0.75000000  0.81580697  0.28057826  1
  O  O63  1  0.75000000  0.68419303  0.78057826  1
  O  O64  1  0.75000000  0.43413757  0.77930750  1
  O  O65  1  0.75000000  0.06586243  0.27930750  1
  O  O66  1  0.25000000  0.56586243  0.22069250  1
  O  O67  1  0.25000000  0.93413757  0.72069250  1
  O  O68  1  0.25000000  0.33747341  0.49906449  1
  O  O69  1  0.25000000  0.16252659  0.99906449  1
  O  O70  1  0.75000000  0.66252659  0.50093551  1
  O  O71  1  0.75000000  0.83747341  0.00093551  1
  O  O72  1  0.75000000  0.20225254  0.50015258  1
  O  O73  1  0.75000000  0.29774746  0.00015258  1
  O  O74  1  0.25000000  0.79774746  0.49984742  1
  O  O75  1  0.25000000  0.70225254  0.99984742  1
  O  O76  1  0.75000000  0.06649566  0.94210869  1
  O  O77  1  0.75000000  0.43350434  0.44210869  1
  O  O78  1  0.25000000  0.93350434  0.05789131  1
  O  O79  1  0.25000000  0.56649566  0.55789131  1
  O  O80  1  0.25000000  0.40460001  0.78494081  1
  O  O81  1  0.25000000  0.09539999  0.28494081  1
  O  O82  1  0.75000000  0.59539999  0.21505919  1
  O  O83  1  0.75000000  0.90460001  0.71505919  1
