# generated using pymatgen
data_U(SO4)2
_symmetry_space_group_name_H-M   'P 1'
_cell_length_a   9.06640376
_cell_length_b   9.52562248
_cell_length_c   13.66665515
_cell_angle_alpha   90.00000000
_cell_angle_beta   90.00000000
_cell_angle_gamma   90.00000000
_symmetry_Int_Tables_number   1
_chemical_formula_structural   U(SO4)2
_chemical_formula_sum   'U8 S16 O64'
_cell_volume   1180.29524479
_cell_formula_units_Z   8
loop_
 _symmetry_equiv_pos_site_id
 _symmetry_equiv_pos_as_xyz
  1  'x, y, z'
loop_
 _atom_site_type_symbol
 _atom_site_label
 _atom_site_symmetry_multiplicity
 _atom_site_fract_x
 _atom_site_fract_y
 _atom_site_fract_z
 _atom_site_occupancy
  U  U0  1  0.78078242  0.03546909  0.89601717  1
  U  U1  1  0.71921758  0.53546909  0.10398283  1
  U  U2  1  0.28078242  0.96453091  0.60398283  1
  U  U3  1  0.21921758  0.46453091  0.39601717  1
  U  U4  1  0.21921758  0.96453091  0.10398283  1
  U  U5  1  0.28078242  0.46453091  0.89601717  1
  U  U6  1  0.71921758  0.03546909  0.39601717  1
  U  U7  1  0.78078242  0.53546909  0.60398283  1
  S  S8  1  0.99644154  0.72288759  0.94270984  1
  S  S9  1  0.50355846  0.22288759  0.05729016  1
  S  S10  1  0.49644154  0.27711241  0.55729016  1
  S  S11  1  0.00355846  0.77711241  0.44270984  1
  S  S12  1  0.00355846  0.27711241  0.05729016  1
  S  S13  1  0.49644154  0.77711241  0.94270984  1
  S  S14  1  0.50355846  0.72288759  0.44270984  1
  S  S15  1  0.99644154  0.22288759  0.55729016  1
  S  S16  1  0.82028950  0.89569260  0.15550927  1
  S  S17  1  0.67971050  0.39569260  0.84449073  1
  S  S18  1  0.32028950  0.10430740  0.34449073  1
  S  S19  1  0.17971050  0.60430740  0.65550927  1
  S  S20  1  0.17971050  0.10430740  0.84449073  1
  S  S21  1  0.32028950  0.60430740  0.15550927  1
  S  S22  1  0.67971050  0.89569260  0.65550927  1
  S  S23  1  0.82028950  0.39569260  0.34449073  1
  O  O24  1  0.89363705  0.80507851  0.88065290  1
  O  O25  1  0.60636295  0.30507851  0.11934710  1
  O  O26  1  0.39363705  0.19492149  0.61934710  1
  O  O27  1  0.10636295  0.69492149  0.38065290  1
  O  O28  1  0.10636295  0.19492149  0.11934710  1
  O  O29  1  0.39363705  0.69492149  0.88065290  1
  O  O30  1  0.60636295  0.80507851  0.38065290  1
  O  O31  1  0.89363705  0.30507851  0.61934710  1
  O  O32  1  0.91645537  0.64273677  0.01884188  1
  O  O33  1  0.58354463  0.14273677  0.98115812  1
  O  O34  1  0.41645537  0.35726323  0.48115812  1
  O  O35  1  0.08354463  0.85726323  0.51884188  1
  O  O36  1  0.08354463  0.35726323  0.98115812  1
  O  O37  1  0.41645537  0.85726323  0.01884188  1
  O  O38  1  0.58354463  0.64273677  0.51884188  1
  O  O39  1  0.91645537  0.14273677  0.48115812  1
  O  O40  1  0.08134097  0.62270902  0.88114499  1
  O  O41  1  0.41865903  0.12270902  0.11885501  1
  O  O42  1  0.58134097  0.37729098  0.61885501  1
  O  O43  1  0.91865903  0.87729098  0.38114499  1
  O  O44  1  0.91865903  0.37729098  0.11885501  1
  O  O45  1  0.58134097  0.87729098  0.88114499  1
  O  O46  1  0.41865903  0.62270902  0.38114499  1
  O  O47  1  0.08134097  0.12270902  0.61885501  1
  O  O48  1  0.10059949  0.82280176  0.99043385  1
  O  O49  1  0.39940051  0.32280176  0.00956615  1
  O  O50  1  0.60059949  0.17719824  0.50956615  1
  O  O51  1  0.89940051  0.67719824  0.49043385  1
  O  O52  1  0.89940051  0.17719824  0.00956615  1
  O  O53  1  0.60059949  0.67719824  0.99043385  1
  O  O54  1  0.39940051  0.82280176  0.49043385  1
  O  O55  1  0.10059949  0.32280176  0.50956615  1
  O  O56  1  0.77116008  0.92703446  0.05471434  1
  O  O57  1  0.72883992  0.42703446  0.94528566  1
  O  O58  1  0.27116008  0.07296554  0.44528566  1
  O  O59  1  0.22883992  0.57296554  0.55471434  1
  O  O60  1  0.22883992  0.07296554  0.94528566  1
  O  O61  1  0.27116008  0.57296554  0.05471434  1
  O  O62  1  0.72883992  0.92703446  0.55471434  1
  O  O63  1  0.77116008  0.42703446  0.44528566  1
  O  O64  1  0.74634040  0.99040411  0.22655971  1
  O  O65  1  0.75365960  0.49040411  0.77344029  1
  O  O66  1  0.24634040  0.00959589  0.27344029  1
  O  O67  1  0.25365960  0.50959589  0.72655971  1
  O  O68  1  0.25365960  0.00959589  0.77344029  1
  O  O69  1  0.24634040  0.50959589  0.22655971  1
  O  O70  1  0.75365960  0.99040411  0.72655971  1
  O  O71  1  0.74634040  0.49040411  0.27344029  1
  O  O72  1  0.77905461  0.74784744  0.17974092  1
  O  O73  1  0.72094539  0.24784744  0.82025908  1
  O  O74  1  0.27905461  0.25215256  0.32025908  1
  O  O75  1  0.22094539  0.75215256  0.67974092  1
  O  O76  1  0.22094539  0.25215256  0.82025908  1
  O  O77  1  0.27905461  0.75215256  0.17974092  1
  O  O78  1  0.72094539  0.74784744  0.67974092  1
  O  O79  1  0.77905461  0.24784744  0.32025908  1
  O  O80  1  0.98247627  0.91452568  0.16419248  1
  O  O81  1  0.51752373  0.41452568  0.83580752  1
  O  O82  1  0.48247627  0.08547432  0.33580752  1
  O  O83  1  0.01752373  0.58547432  0.66419248  1
  O  O84  1  0.01752373  0.08547432  0.83580752  1
  O  O85  1  0.48247627  0.58547432  0.16419248  1
  O  O86  1  0.51752373  0.91452568  0.66419248  1
  O  O87  1  0.98247627  0.41452568  0.33580752  1
