# generated using pymatgen
data_H5(C2N3)6
_symmetry_space_group_name_H-M   'P 1'
_cell_length_a   8.79685560
_cell_length_b   10.67959876
_cell_length_c   10.98366558
_cell_angle_alpha   106.86003709
_cell_angle_beta   100.45704048
_cell_angle_gamma   95.05858329
_symmetry_Int_Tables_number   1
_chemical_formula_structural   H5(C2N3)6
_chemical_formula_sum   'H10 C24 N36'
_cell_volume   960.19326135
_cell_formula_units_Z   2
loop_
 _symmetry_equiv_pos_site_id
 _symmetry_equiv_pos_as_xyz
  1  'x, y, z'
loop_
 _atom_site_type_symbol
 _atom_site_label
 _atom_site_symmetry_multiplicity
 _atom_site_fract_x
 _atom_site_fract_y
 _atom_site_fract_z
 _atom_site_occupancy
  H  H0  1  0.62996781  0.42242185  0.47580271  1
  H  H1  1  0.80080333  0.37795443  0.55803867  1
  H  H2  1  0.36511552  0.57563195  0.51462074  1
  H  H3  1  0.19271664  0.62065527  0.43448330  1
  H  H4  1  0.00660790  0.38018842  0.76809852  1
  H  H5  1  0.98546269  0.61942078  0.22306051  1
  H  H6  1  0.47763126  0.07857319  0.63549360  1
  H  H7  1  0.56634928  0.12066578  0.80483791  1
  H  H8  1  0.51407919  0.92317939  0.36125366  1
  H  H9  1  0.43149441  0.88030157  0.19041968  1
  C  C10  1  0.86435077  0.16541200  0.19379509  1
  C  C11  1  0.09348297  0.07786129  0.24913836  1
  C  C12  1  0.97934089  0.21854901  0.41556635  1
  C  C13  1  0.21686436  0.13131079  0.47842747  1
  C  C14  1  0.10333223  0.26244619  0.62931641  1
  C  C15  1  0.19933348  0.33642545  0.87243634  1
  C  C16  1  0.24656450  0.42397124  0.09476462  1
  C  C17  1  0.63385462  0.23474404  0.10372333  1
  C  C18  1  0.47809140  0.36922664  0.21752498  1
  C  C19  1  0.31615425  0.50127899  0.31822241  1
  C  C20  1  0.67697364  0.49885330  0.67265310  1
  C  C21  1  0.51416150  0.63009501  0.77317918  1
  C  C22  1  0.35950431  0.76571760  0.88785370  1
  C  C23  1  0.74588664  0.57560854  0.89609855  1
  C  C24  1  0.57707640  0.71619091  0.00870409  1
  C  C25  1  0.79273327  0.66265587  0.11836345  1
  C  C26  1  0.88830729  0.73714932  0.36157357  1
  C  C27  1  0.77529893  0.86955851  0.51239143  1
  C  C28  1  0.01212165  0.78120859  0.57526457  1
  C  C29  1  0.89810896  0.92068703  0.74150138  1
  C  C30  1  0.13029830  0.83575013  0.79842636  1
  C  C31  1  0.31839693  0.00051219  0.31615249  1
  C  C32  1  0.41590766  0.28375512  0.98214327  1
  C  C33  1  0.67544368  0.00101748  0.67573246  1
  N  N34  1  0.86767198  0.22841811  0.32188074  1
  N  N35  1  0.97360839  0.08602586  0.15970992  1
  N  N36  1  0.09743604  0.14414491  0.38179316  1
  N  N37  1  0.98222767  0.27801038  0.54143435  1
  N  N38  1  0.32538794  0.05863768  0.44622739  1
  N  N39  1  0.21787611  0.19212068  0.60397189  1
  N  N40  1  0.09852083  0.32826873  0.75648282  1
  N  N41  1  0.32301702  0.27278719  0.86788687  1
  N  N42  1  0.15772421  0.41246218  0.97860750  1
  N  N43  1  0.21459239  0.49462593  0.20594153  1
  N  N44  1  0.37968488  0.35877472  0.09810462  1
  N  N45  1  0.54232895  0.22523700  0.98528700  1
  N  N46  1  0.75598778  0.16856507  0.09361402  1
  N  N47  1  0.60087010  0.30395524  0.21798269  1
  N  N48  1  0.44653648  0.44093051  0.32746435  1
  N  N49  1  0.28753404  0.57108637  0.43096356  1
  N  N50  1  0.70655193  0.42820230  0.56017050  1
  N  N51  1  0.54675522  0.55948919  0.66313030  1
  N  N52  1  0.38668176  0.68962871  0.77391081  1
  N  N53  1  0.23942918  0.83412384  0.89767213  1
  N  N54  1  0.77724772  0.50415100  0.78496348  1
  N  N55  1  0.61317035  0.64122291  0.89263224  1
  N  N56  1  0.45312621  0.77758292  0.00578153  1
  N  N57  1  0.83544685  0.58783071  0.01218502  1
  N  N58  1  0.66853764  0.72534481  0.12301814  1
  N  N59  1  0.89338775  0.67109350  0.23452875  1
  N  N60  1  0.77341974  0.80725730  0.38697744  1
  N  N61  1  0.66476634  0.93991650  0.54536241  1
  N  N62  1  0.00848839  0.72021120  0.44976859  1
  N  N63  1  0.89610875  0.85808973  0.60862686  1
  N  N64  1  0.12283528  0.77035233  0.66950156  1
  N  N65  1  0.01095460  0.90327147  0.83062730  1
  N  N66  1  0.78799982  0.99162910  0.77431629  1
  N  N67  1  0.43008018  0.92928256  0.28595823  1
  N  N68  1  0.20440681  0.00738084  0.21698232  1
  N  N69  1  0.56498401  0.07271067  0.70827141  1
