# generated using pymatgen
data_Mo15Pb2Se19
_symmetry_space_group_name_H-M   'P 1'
_cell_length_a   9.84314570
_cell_length_b   9.84314570
_cell_length_c   20.03204249
_cell_angle_alpha   75.77768030
_cell_angle_beta   75.77768030
_cell_angle_gamma   60.00000307
_symmetry_Int_Tables_number   1
_chemical_formula_structural   Mo15Pb2Se19
_chemical_formula_sum   'Mo30 Pb4 Se38'
_cell_volume   1611.77323501
_cell_formula_units_Z   2
loop_
 _symmetry_equiv_pos_site_id
 _symmetry_equiv_pos_as_xyz
  1  'x, y, z'
loop_
 _atom_site_type_symbol
 _atom_site_label
 _atom_site_symmetry_multiplicity
 _atom_site_fract_x
 _atom_site_fract_y
 _atom_site_fract_z
 _atom_site_occupancy
  Mo  Mo0  1  0.49984088  0.68614980  0.44066598  1
  Mo  Mo1  1  0.68614980  0.37334333  0.44066598  1
  Mo  Mo2  1  0.37334333  0.49984088  0.44066598  1
  Mo  Mo3  1  -0.00015912  0.87334333  0.94066598  1
  Mo  Mo4  1  0.87334333  0.18614980  0.94066598  1
  Mo  Mo5  1  0.18614980  -0.00015912  0.94066598  1
  Mo  Mo6  1  0.50015912  0.31385020  0.55933402  1
  Mo  Mo7  1  0.31385020  0.62665667  0.55933402  1
  Mo  Mo8  1  0.62665667  0.50015912  0.55933402  1
  Mo  Mo9  1  0.00015912  0.12665667  0.05933402  1
  Mo  Mo10  1  0.12665667  0.81385020  0.05933402  1
  Mo  Mo11  1  0.81385020  0.00015912  0.05933402  1
  Mo  Mo12  1  0.72273733  0.85955155  0.86806855  1
  Mo  Mo13  1  0.85955155  0.54964257  0.86806855  1
  Mo  Mo14  1  0.54964257  0.72273733  0.86806855  1
  Mo  Mo15  1  0.22273733  0.04964257  0.36806855  1
  Mo  Mo16  1  0.04964257  0.35955155  0.36806855  1
  Mo  Mo17  1  0.35955155  0.22273733  0.36806855  1
  Mo  Mo18  1  0.27726267  0.14044845  0.13193145  1
  Mo  Mo19  1  0.14044845  0.45035743  0.13193145  1
  Mo  Mo20  1  0.45035743  0.27726267  0.13193145  1
  Mo  Mo21  1  0.77726267  0.95035743  0.63193145  1
  Mo  Mo22  1  0.95035743  0.64044845  0.63193145  1
  Mo  Mo23  1  0.64044845  0.77726267  0.63193145  1
  Mo  Mo24  1  0.59116917  0.90883083  0.75000000  1
  Mo  Mo25  1  0.90883083  0.75000000  0.75000000  1
  Mo  Mo26  1  0.75000000  0.59116917  0.75000000  1
  Mo  Mo27  1  0.09116917  0.25000000  0.25000000  1
  Mo  Mo28  1  0.25000000  0.40883083  0.25000000  1
  Mo  Mo29  1  0.40883083  0.09116917  0.25000000  1
  Pb  Pb30  1  0.61629511  0.61629511  0.15111466  1
  Pb  Pb31  1  0.11629511  0.11629511  0.65111466  1
  Pb  Pb32  1  0.38370489  0.38370489  0.84888534  1
  Pb  Pb33  1  0.88370489  0.88370489  0.34888534  1
  Se  Se34  1  0.80084060  0.55752937  0.44931520  1
  Se  Se35  1  0.55752937  0.19231483  0.44931520  1
  Se  Se36  1  0.19231483  0.80084060  0.44931520  1
  Se  Se37  1  0.30084060  0.69231483  0.94931520  1
  Se  Se38  1  0.69231483  0.05752937  0.94931520  1
  Se  Se39  1  0.05752937  0.30084060  0.94931520  1
  Se  Se40  1  0.19915940  0.44247063  0.55068480  1
  Se  Se41  1  0.44247063  0.80768517  0.55068480  1
  Se  Se42  1  0.80768517  0.19915940  0.55068480  1
  Se  Se43  1  0.69915940  0.30768517  0.05068480  1
  Se  Se44  1  0.30768517  0.94247063  0.05068480  1
  Se  Se45  1  0.94247063  0.69915940  0.05068480  1
  Se  Se46  1  0.42165324  0.04359984  0.85769403  1
  Se  Se47  1  0.04359984  0.67705290  0.85769403  1
  Se  Se48  1  0.67705290  0.42165324  0.85769403  1
  Se  Se49  1  0.92165324  0.17705290  0.35769403  1
  Se  Se50  1  0.17705290  0.54359984  0.35769403  1
  Se  Se51  1  0.54359984  0.92165324  0.35769403  1
  Se  Se52  1  0.57834676  0.95640016  0.14230597  1
  Se  Se53  1  0.95640016  0.32294710  0.14230597  1
  Se  Se54  1  0.32294710  0.57834676  0.14230597  1
  Se  Se55  1  0.07834676  0.82294710  0.64230597  1
  Se  Se56  1  0.82294710  0.45640016  0.64230597  1
  Se  Se57  1  0.45640016  0.07834676  0.64230597  1
  Se  Se58  1  0.05688467  0.44311533  0.75000000  1
  Se  Se59  1  0.44311533  0.75000000  0.75000000  1
  Se  Se60  1  0.75000000  0.05688467  0.75000000  1
  Se  Se61  1  0.55688467  0.25000000  0.25000000  1
  Se  Se62  1  0.25000000  0.94311533  0.25000000  1
  Se  Se63  1  0.94311533  0.55688467  0.25000000  1
  Se  Se64  1  0.55541972  0.55541972  0.33374084  1
  Se  Se65  1  0.05541972  0.05541972  0.83374084  1
  Se  Se66  1  0.44458028  0.44458028  0.66625916  1
  Se  Se67  1  0.94458028  0.94458028  0.16625916  1
  Se  Se68  1  0.67503779  0.67503779  0.97488663  1
  Se  Se69  1  0.17503779  0.17503779  0.47488663  1
  Se  Se70  1  0.32496221  0.32496221  0.02511337  1
  Se  Se71  1  0.82496221  0.82496221  0.52511337  1
