# generated using pymatgen
data_Ba(C2N3)2
_symmetry_space_group_name_H-M   'P 1'
_cell_length_a   4.41831213
_cell_length_b   12.83180742
_cell_length_c   13.69195317
_cell_angle_alpha   90.00000000
_cell_angle_beta   90.00000000
_cell_angle_gamma   90.00000000
_symmetry_Int_Tables_number   1
_chemical_formula_structural   Ba(C2N3)2
_chemical_formula_sum   'Ba4 C16 N24'
_cell_volume   776.26433165
_cell_formula_units_Z   4
loop_
 _symmetry_equiv_pos_site_id
 _symmetry_equiv_pos_as_xyz
  1  'x, y, z'
loop_
 _atom_site_type_symbol
 _atom_site_label
 _atom_site_symmetry_multiplicity
 _atom_site_fract_x
 _atom_site_fract_y
 _atom_site_fract_z
 _atom_site_occupancy
  Ba  Ba0  1  0.25000000  0.12459806  0.71291852  1
  Ba  Ba1  1  0.25000000  0.37540194  0.21291852  1
  Ba  Ba2  1  0.75000000  0.87540194  0.28708148  1
  Ba  Ba3  1  0.75000000  0.62459806  0.78708148  1
  C  C4  1  0.25000000  0.89012998  0.51627287  1
  C  C5  1  0.25000000  0.60987002  0.01627287  1
  C  C6  1  0.75000000  0.10987002  0.48372713  1
  C  C7  1  0.75000000  0.39012998  0.98372713  1
  C  C8  1  0.25000000  0.82394490  0.67040278  1
  C  C9  1  0.25000000  0.67605510  0.17040278  1
  C  C10  1  0.75000000  0.17605510  0.32959722  1
  C  C11  1  0.75000000  0.32394490  0.82959722  1
  C  C12  1  0.25000000  0.42595734  0.65885472  1
  C  C13  1  0.25000000  0.07404266  0.15885472  1
  C  C14  1  0.75000000  0.57404266  0.34114528  1
  C  C15  1  0.75000000  0.92595734  0.84114528  1
  C  C16  1  0.25000000  0.35079264  0.50819827  1
  C  C17  1  0.25000000  0.14920736  0.00819827  1
  C  C18  1  0.75000000  0.64920736  0.49180173  1
  C  C19  1  0.75000000  0.85079264  0.99180173  1
  N  N20  1  0.25000000  0.90233109  0.61033758  1
  N  N21  1  0.25000000  0.59766891  0.11033758  1
  N  N22  1  0.75000000  0.09766891  0.38966242  1
  N  N23  1  0.75000000  0.40233109  0.88966242  1
  N  N24  1  0.25000000  0.34380119  0.60374808  1
  N  N25  1  0.25000000  0.15619881  0.10374808  1
  N  N26  1  0.75000000  0.65619881  0.39625192  1
  N  N27  1  0.75000000  0.84380119  0.89625192  1
  N  N28  1  0.25000000  0.88845070  0.42981428  1
  N  N29  1  0.25000000  0.61154930  0.92981428  1
  N  N30  1  0.75000000  0.11154930  0.57018572  1
  N  N31  1  0.75000000  0.38845070  0.07018572  1
  N  N32  1  0.25000000  0.75919143  0.73175657  1
  N  N33  1  0.25000000  0.74080857  0.23175657  1
  N  N34  1  0.75000000  0.24080857  0.26824343  1
  N  N35  1  0.75000000  0.25919143  0.76824343  1
  N  N36  1  0.25000000  0.49568979  0.71562271  1
  N  N37  1  0.25000000  0.00431021  0.21562271  1
  N  N38  1  0.75000000  0.50431021  0.28437729  1
  N  N39  1  0.75000000  0.99568979  0.78437729  1
  N  N40  1  0.25000000  0.34814044  0.42215475  1
  N  N41  1  0.25000000  0.15185956  0.92215475  1
  N  N42  1  0.75000000  0.65185956  0.57784525  1
  N  N43  1  0.75000000  0.84814044  0.07784525  1
