# generated using pymatgen
data_HoH8C2O8F
_symmetry_space_group_name_H-M   'P 1'
_cell_length_a   8.10327643
_cell_length_b   8.19149526
_cell_length_c   8.19149526
_cell_angle_alpha   85.56791101
_cell_angle_beta   64.39313007
_cell_angle_gamma   64.39313007
_symmetry_Int_Tables_number   1
_chemical_formula_structural   HoH8C2O8F
_chemical_formula_sum   'Ho2 H16 C4 O16 F2'
_cell_volume   438.14173205
_cell_formula_units_Z   2
loop_
 _symmetry_equiv_pos_site_id
 _symmetry_equiv_pos_as_xyz
  1  'x, y, z'
loop_
 _atom_site_type_symbol
 _atom_site_label
 _atom_site_symmetry_multiplicity
 _atom_site_fract_x
 _atom_site_fract_y
 _atom_site_fract_z
 _atom_site_occupancy
  Ho  Ho0  1  0.75000000  0.92907450  0.07092550  1
  Ho  Ho1  1  0.25000000  0.07092550  0.92907450  1
  H  H2  1  0.92958116  0.83941617  0.65593755  1
  H  H3  1  0.57041884  0.34406245  0.16058383  1
  H  H4  1  0.07041884  0.16058383  0.34406245  1
  H  H5  1  0.42958116  0.65593755  0.83941617  1
  H  H6  1  0.43393894  0.30082688  0.09060882  1
  H  H7  1  0.06606106  0.90939118  0.69917312  1
  H  H8  1  0.56606106  0.69917312  0.90939118  1
  H  H9  1  0.93393894  0.09060882  0.30082688  1
  H  H10  1  0.00847740  0.68238039  0.34365712  1
  H  H11  1  0.49152260  0.65634288  0.31761961  1
  H  H12  1  0.99152260  0.31761961  0.65634288  1
  H  H13  1  0.50847740  0.34365712  0.68238039  1
  H  H14  1  0.13549296  0.68391527  0.44273905  1
  H  H15  1  0.36450704  0.55726095  0.31608473  1
  H  H16  1  0.86450704  0.31608473  0.55726095  1
  H  H17  1  0.63549296  0.44273905  0.68391527  1
  C  C18  1  0.55733893  0.05283494  0.50657747  1
  C  C19  1  0.94266107  0.49342253  0.94716506  1
  C  C20  1  0.44266107  0.94716506  0.49342253  1
  C  C21  1  0.05733893  0.50657747  0.05283494  1
  O  O22  1  0.70302132  0.05152257  0.35955313  1
  O  O23  1  0.79697868  0.64044687  0.94847743  1
  O  O24  1  0.29697868  0.94847743  0.64044687  1
  O  O25  1  0.20302132  0.35955313  0.05152257  1
  O  O26  1  0.99453955  0.66397245  0.13135363  1
  O  O27  1  0.50546045  0.86864637  0.33602755  1
  O  O28  1  0.00546045  0.33602755  0.86864637  1
  O  O29  1  0.49453955  0.13135363  0.66397245  1
  O  O30  1  0.56380420  0.24849633  0.10040292  1
  O  O31  1  0.93619580  0.89959708  0.75150367  1
  O  O32  1  0.43619580  0.75150367  0.89959708  1
  O  O33  1  0.06380420  0.10040292  0.24849633  1
  O  O34  1  0.00604986  0.68710948  0.46548047  1
  O  O35  1  0.49395014  0.53451953  0.31289052  1
  O  O36  1  0.99395014  0.31289052  0.53451953  1
  O  O37  1  0.50604986  0.46548047  0.68710948  1
  F  F38  1  0.50000000  0.00000000  -0.00000000  1
  F  F39  1  -0.00000000  0.00000000  -0.00000000  1
