# generated using pymatgen
data_Y3In5
_symmetry_space_group_name_H-M   'P 1'
_cell_length_a   6.80407266
_cell_length_b   10.97281667
_cell_length_c   12.71443829
_cell_angle_alpha   90.00000000
_cell_angle_beta   90.00000000
_cell_angle_gamma   90.00000000
_symmetry_Int_Tables_number   1
_chemical_formula_structural   Y3In5
_chemical_formula_sum   'Y12 In20'
_cell_volume   949.25795267
_cell_formula_units_Z   4
loop_
 _symmetry_equiv_pos_site_id
 _symmetry_equiv_pos_as_xyz
  1  'x, y, z'
loop_
 _atom_site_type_symbol
 _atom_site_label
 _atom_site_symmetry_multiplicity
 _atom_site_fract_x
 _atom_site_fract_y
 _atom_site_fract_z
 _atom_site_occupancy
  Y  Y0  1  0.15272933  0.75000000  0.44406053  1
  Y  Y1  1  0.34727067  0.75000000  0.94406053  1
  Y  Y2  1  0.84727067  0.25000000  0.55593947  1
  Y  Y3  1  0.65272933  0.25000000  0.05593947  1
  Y  Y4  1  0.60800057  0.00278802  0.35651906  1
  Y  Y5  1  0.89199943  0.49721198  0.85651906  1
  Y  Y6  1  0.39199943  0.50278802  0.64348094  1
  Y  Y7  1  0.10800057  0.99721198  0.14348094  1
  Y  Y8  1  0.39199943  0.99721198  0.64348094  1
  Y  Y9  1  0.10800057  0.50278802  0.14348094  1
  Y  Y10  1  0.60800057  0.49721198  0.35651906  1
  Y  Y11  1  0.89199943  0.00278802  0.85651906  1
  In  In12  1  0.87969159  0.75000000  0.99738865  1
  In  In13  1  0.62030841  0.75000000  0.49738865  1
  In  In14  1  0.12030841  0.25000000  0.00261135  1
  In  In15  1  0.37969159  0.25000000  0.50261135  1
  In  In16  1  0.84872145  0.75000000  0.25065346  1
  In  In17  1  0.65127855  0.75000000  0.75065346  1
  In  In18  1  0.15127855  0.25000000  0.74934654  1
  In  In19  1  0.34872145  0.25000000  0.24934654  1
  In  In20  1  0.37396173  0.75000000  0.21234158  1
  In  In21  1  0.12603827  0.75000000  0.71234158  1
  In  In22  1  0.62603827  0.25000000  0.78765842  1
  In  In23  1  0.87396173  0.25000000  0.28765842  1
  In  In24  1  0.62422262  0.95542161  0.09676794  1
  In  In25  1  0.87577738  0.54457839  0.59676794  1
  In  In26  1  0.37577738  0.45542161  0.90323206  1
  In  In27  1  0.12422262  0.04457839  0.40323206  1
  In  In28  1  0.37577738  0.04457839  0.90323206  1
  In  In29  1  0.12422262  0.45542161  0.40323206  1
  In  In30  1  0.62422262  0.54457839  0.09676794  1
  In  In31  1  0.87577738  0.95542161  0.59676794  1
