# generated using pymatgen
data_Al3Co(W3C)3
_symmetry_space_group_name_H-M   'P 1'
_cell_length_a   7.85413770
_cell_length_b   7.94736929
_cell_length_c   7.94736929
_cell_angle_alpha   119.99999575
_cell_angle_beta   90.00000000
_cell_angle_gamma   90.00000000
_symmetry_Int_Tables_number   1
_chemical_formula_structural   Al3Co(W3C)3
_chemical_formula_sum   'Al6 Co2 W18 C6'
_cell_volume   429.61155022
_cell_formula_units_Z   2
loop_
 _symmetry_equiv_pos_site_id
 _symmetry_equiv_pos_as_xyz
  1  'x, y, z'
loop_
 _atom_site_type_symbol
 _atom_site_label
 _atom_site_symmetry_multiplicity
 _atom_site_fract_x
 _atom_site_fract_y
 _atom_site_fract_z
 _atom_site_occupancy
  Al  Al0  1  0.75000000  0.88970518  0.77940863  1
  Al  Al1  1  0.75000000  0.88970345  0.11029482  1
  Al  Al2  1  0.75000000  0.22059137  0.11029655  1
  Al  Al3  1  0.25000000  0.11029482  0.22059137  1
  Al  Al4  1  0.25000000  0.11029655  0.88970518  1
  Al  Al5  1  0.25000000  0.77940863  0.88970345  1
  Co  Co6  1  0.50000000  0.00000000  -0.00000000  1
  Co  Co7  1  -0.00000000  0.00000000  -0.00000000  1
  W  W8  1  0.57122730  0.20320854  0.40641958  1
  W  W9  1  0.57122730  0.20321104  0.79679146  1
  W  W10  1  0.57122730  0.59358042  0.79678896  1
  W  W11  1  0.42877270  0.79679146  0.59358042  1
  W  W12  1  0.42877270  0.79678896  0.20320854  1
  W  W13  1  0.42877270  0.40641958  0.20321104  1
  W  W14  1  0.07122730  0.79679146  0.59358042  1
  W  W15  1  0.07122730  0.79678896  0.20320854  1
  W  W16  1  0.07122730  0.40641958  0.20321104  1
  W  W17  1  0.92877270  0.20320854  0.40641958  1
  W  W18  1  0.92877270  0.20321104  0.79679146  1
  W  W19  1  0.92877270  0.59358042  0.79678896  1
  W  W20  1  0.25000000  0.44864215  0.89728396  1
  W  W21  1  0.25000000  0.44864181  0.55135785  1
  W  W22  1  0.25000000  0.10271604  0.55135819  1
  W  W23  1  0.75000000  0.55135785  0.10271604  1
  W  W24  1  0.75000000  0.55135819  0.44864215  1
  W  W25  1  0.75000000  0.89728396  0.44864181  1
  C  C26  1  0.50000000  0.00000000  0.50000000  1
  C  C27  1  0.50000000  0.50000000  -0.00000000  1
  C  C28  1  0.50000000  0.50000000  0.50000000  1
  C  C29  1  -0.00000000  0.00000000  0.50000000  1
  C  C30  1  -0.00000000  0.50000000  -0.00000000  1
  C  C31  1  -0.00000000  0.50000000  0.50000000  1
