# generated using pymatgen
data_Hf2TiNi3
_symmetry_space_group_name_H-M   'P 1'
_cell_length_a   7.71666543
_cell_length_b   7.71666543
_cell_length_c   13.79498543
_cell_angle_alpha   100.54548538
_cell_angle_beta   100.54548538
_cell_angle_gamma   110.22142146
_symmetry_Int_Tables_number   1
_chemical_formula_structural   Hf2TiNi3
_chemical_formula_sum   'Hf16 Ti8 Ni24'
_cell_volume   730.29633563
_cell_formula_units_Z   8
loop_
 _symmetry_equiv_pos_site_id
 _symmetry_equiv_pos_as_xyz
  1  'x, y, z'
loop_
 _atom_site_type_symbol
 _atom_site_label
 _atom_site_symmetry_multiplicity
 _atom_site_fract_x
 _atom_site_fract_y
 _atom_site_fract_z
 _atom_site_occupancy
  Hf  Hf0  1  0.65974635  0.65974635  0.31949270  1
  Hf  Hf1  1  0.34025365  0.34025365  0.68050730  1
  Hf  Hf2  1  0.09025365  0.59025365  0.18050730  1
  Hf  Hf3  1  0.40974635  0.90974635  0.81949270  1
  Hf  Hf4  1  0.96923328  0.03076672  0.50000000  1
  Hf  Hf5  1  0.53076672  0.46923328  0.50000000  1
  Hf  Hf6  1  0.78076672  0.21923328  -0.00000000  1
  Hf  Hf7  1  0.21923328  0.78076672  -0.00000000  1
  Hf  Hf8  1  0.91178706  0.41071162  0.35030730  1
  Hf  Hf9  1  0.06040433  0.56147976  0.64969270  1
  Hf  Hf10  1  0.83821294  0.83928838  0.14969270  1
  Hf  Hf11  1  0.68959567  0.68852024  0.85030730  1
  Hf  Hf12  1  0.58928838  0.08821294  0.64969270  1
  Hf  Hf13  1  0.43852024  0.93959567  0.35030730  1
  Hf  Hf14  1  0.16071162  0.16178706  0.85030730  1
  Hf  Hf15  1  0.31147976  0.31040433  0.14969270  1
  Ti  Ti16  1  0.75000000  0.25000000  0.50000000  1
  Ti  Ti17  1  0.00000000  0.00000000  -0.00000000  1
  Ti  Ti18  1  0.25000000  0.75000000  0.50000000  1
  Ti  Ti19  1  0.50000000  0.50000000  -0.00000000  1
  Ti  Ti20  1  0.16710616  0.16710616  0.33421232  1
  Ti  Ti21  1  0.83289384  0.83289384  0.66578768  1
  Ti  Ti22  1  0.58289384  0.08289384  0.16578768  1
  Ti  Ti23  1  0.91710616  0.41710616  0.83421232  1
  Ni  Ni24  1  0.78389796  0.02222404  0.30979718  1
  Ni  Ni25  1  0.71242687  0.47410078  0.69020282  1
  Ni  Ni26  1  0.96610204  0.22777596  0.19020282  1
  Ni  Ni27  1  0.03757313  0.77589922  0.80979718  1
  Ni  Ni28  1  0.97777596  0.21610204  0.69020282  1
  Ni  Ni29  1  0.52589922  0.28757313  0.30979718  1
  Ni  Ni30  1  0.77222404  0.03389796  0.80979718  1
  Ni  Ni31  1  0.22410078  0.96242687  0.19020282  1
  Ni  Ni32  1  0.29639409  0.52413855  0.34097170  1
  Ni  Ni33  1  0.18316684  0.95542238  0.65902830  1
  Ni  Ni34  1  0.45360591  0.72586145  0.15902830  1
  Ni  Ni35  1  0.56683316  0.29457762  0.84097170  1
  Ni  Ni36  1  0.47586145  0.70360591  0.65902830  1
  Ni  Ni37  1  0.04457762  0.81683316  0.34097170  1
  Ni  Ni38  1  0.27413855  0.54639409  0.84097170  1
  Ni  Ni39  1  0.70542238  0.43316684  0.15902830  1
  Ni  Ni40  1  0.18314314  0.39837541  0.50332079  1
  Ni  Ni41  1  0.89505461  0.67982235  0.49667921  1
  Ni  Ni42  1  0.56685686  0.85162459  0.99667921  1
  Ni  Ni43  1  0.85494539  0.57017765  0.00332079  1
  Ni  Ni44  1  0.60162459  0.81685686  0.49667921  1
  Ni  Ni45  1  0.32017765  0.10494539  0.50332079  1
  Ni  Ni46  1  0.14837541  0.43314314  0.00332079  1
  Ni  Ni47  1  0.42982235  0.14505461  0.99667921  1
