# generated using pymatgen
data_TiH16C4(NCl3)2
_symmetry_space_group_name_H-M   'P 1'
_cell_length_a   7.11216246
_cell_length_b   7.75802051
_cell_length_c   14.55314250
_cell_angle_alpha   90.00000000
_cell_angle_beta   90.00000000
_cell_angle_gamma   90.00000000
_symmetry_Int_Tables_number   1
_chemical_formula_structural   TiH16C4(NCl3)2
_chemical_formula_sum   'Ti2 H32 C8 N4 Cl12'
_cell_volume   802.98858905
_cell_formula_units_Z   2
loop_
 _symmetry_equiv_pos_site_id
 _symmetry_equiv_pos_as_xyz
  1  'x, y, z'
loop_
 _atom_site_type_symbol
 _atom_site_label
 _atom_site_symmetry_multiplicity
 _atom_site_fract_x
 _atom_site_fract_y
 _atom_site_fract_z
 _atom_site_occupancy
  Ti  Ti0  1  0.00000000  0.00000000  -0.00000000  1
  Ti  Ti1  1  0.50000000  0.50000000  0.50000000  1
  H  H2  1  0.61642118  0.14455251  0.09284601  1
  H  H3  1  0.61642118  0.85544749  0.90715399  1
  H  H4  1  0.88357882  0.64455251  0.40715399  1
  H  H5  1  0.88357882  0.35544749  0.59284601  1
  H  H6  1  0.38357882  0.85544749  0.90715399  1
  H  H7  1  0.38357882  0.14455251  0.09284601  1
  H  H8  1  0.11642118  0.35544749  0.59284601  1
  H  H9  1  0.11642118  0.64455251  0.40715399  1
  H  H10  1  0.62638127  0.41365985  0.17493845  1
  H  H11  1  0.62638127  0.58634015  0.82506155  1
  H  H12  1  0.87361873  0.91365985  0.32506155  1
  H  H13  1  0.87361873  0.08634015  0.67493845  1
  H  H14  1  0.37361873  0.58634015  0.82506155  1
  H  H15  1  0.37361873  0.41365985  0.17493845  1
  H  H16  1  0.12638127  0.08634015  0.67493845  1
  H  H17  1  0.12638127  0.91365985  0.32506155  1
  H  H18  1  0.50000000  0.43232753  0.06857393  1
  H  H19  1  0.50000000  0.56767247  0.93142607  1
  H  H20  1  0.00000000  0.93232753  0.43142607  1
  H  H21  1  -0.00000000  0.06767247  0.56857393  1
  H  H22  1  0.50000000  0.96159592  0.21557933  1
  H  H23  1  0.50000000  0.03840408  0.78442067  1
  H  H24  1  -0.00000000  0.46159592  0.28442067  1
  H  H25  1  -0.00000000  0.53840408  0.71557933  1
  H  H26  1  0.62560177  0.14604384  0.25957623  1
  H  H27  1  0.62560177  0.85395616  0.74042377  1
  H  H28  1  0.87439823  0.64604384  0.24042377  1
  H  H29  1  0.87439823  0.35395616  0.75957623  1
  H  H30  1  0.37439823  0.85395616  0.74042377  1
  H  H31  1  0.37439823  0.14604384  0.25957623  1
  H  H32  1  0.12560177  0.35395616  0.75957623  1
  H  H33  1  0.12560177  0.64604384  0.24042377  1
  C  C34  1  0.50000000  0.37554369  0.13723086  1
  C  C35  1  0.50000000  0.62445631  0.86276914  1
  C  C36  1  -0.00000000  0.87554369  0.36276914  1
  C  C37  1  -0.00000000  0.12445631  0.63723086  1
  C  C38  1  0.50000000  0.10235046  0.22305461  1
  C  C39  1  0.50000000  0.89764954  0.77694539  1
  C  C40  1  -0.00000000  0.60235046  0.27694539  1
  C  C41  1  0.00000000  0.39764954  0.72305461  1
  N  N42  1  0.50000000  0.18381248  0.13029515  1
  N  N43  1  0.50000000  0.81618752  0.86970485  1
  N  N44  1  0.00000000  0.68381248  0.36970485  1
  N  N45  1  -0.00000000  0.31618752  0.63029515  1
  Cl  Cl46  1  0.23401073  0.18275825  0.93883843  1
  Cl  Cl47  1  0.23401073  0.81724175  0.06116157  1
  Cl  Cl48  1  0.26598927  0.68275825  0.56116157  1
  Cl  Cl49  1  0.26598927  0.31724175  0.43883843  1
  Cl  Cl50  1  0.76598927  0.81724175  0.06116157  1
  Cl  Cl51  1  0.76598927  0.18275825  0.93883843  1
  Cl  Cl52  1  0.73401073  0.31724175  0.43883843  1
  Cl  Cl53  1  0.73401073  0.68275825  0.56116157  1
  Cl  Cl54  1  -0.00000000  0.83549762  0.86280729  1
  Cl  Cl55  1  -0.00000000  0.16450238  0.13719271  1
  Cl  Cl56  1  0.50000000  0.33549762  0.63719271  1
  Cl  Cl57  1  0.50000000  0.66450238  0.36280729  1
