# generated using pymatgen
data_KZrN3O11
_symmetry_space_group_name_H-M   'P 1'
_cell_length_a   5.96831652
_cell_length_b   9.94777291
_cell_length_c   17.22006973
_cell_angle_alpha   90.05211618
_cell_angle_beta   90.00000000
_cell_angle_gamma   90.00000000
_symmetry_Int_Tables_number   1
_chemical_formula_structural   KZrN3O11
_chemical_formula_sum   'K4 Zr4 N12 O44'
_cell_volume   1022.38021305
_cell_formula_units_Z   4
loop_
 _symmetry_equiv_pos_site_id
 _symmetry_equiv_pos_as_xyz
  1  'x, y, z'
loop_
 _atom_site_type_symbol
 _atom_site_label
 _atom_site_symmetry_multiplicity
 _atom_site_fract_x
 _atom_site_fract_y
 _atom_site_fract_z
 _atom_site_occupancy
  K  K0  1  0.73934906  0.49955040  0.17662625  1
  K  K1  1  0.76065094  0.99955040  0.67662625  1
  K  K2  1  0.26065094  0.50044960  0.82337375  1
  K  K3  1  0.23934906  0.00044960  0.32337375  1
  Zr  Zr4  1  0.75152857  0.99436311  0.06130271  1
  Zr  Zr5  1  0.74847143  0.49436311  0.56130271  1
  Zr  Zr6  1  0.24847143  0.00563689  0.93869729  1
  Zr  Zr7  1  0.25152857  0.50563689  0.43869729  1
  N  N8  1  0.75777219  0.57307808  0.92324698  1
  N  N9  1  0.74222781  0.07307808  0.42324698  1
  N  N10  1  0.24222781  0.42692192  0.07675302  1
  N  N11  1  0.25777219  0.92692192  0.57675302  1
  N  N12  1  0.92494775  0.82527937  0.17532113  1
  N  N13  1  0.57505225  0.32527937  0.67532113  1
  N  N14  1  0.07505225  0.17472063  0.82467887  1
  N  N15  1  0.42494775  0.67472063  0.32467887  1
  N  N16  1  0.56467402  0.14437014  0.18164752  1
  N  N17  1  0.93532598  0.64437014  0.68164752  1
  N  N18  1  0.43532598  0.85562986  0.81835248  1
  N  N19  1  0.06467402  0.35562986  0.31835248  1
  O  O20  1  0.01511383  0.10420098  0.01111029  1
  O  O21  1  0.48488617  0.60420098  0.51111029  1
  O  O22  1  0.98488617  0.89579902  0.98888971  1
  O  O23  1  0.51511383  0.39579902  0.48888971  1
  O  O24  1  0.48425787  0.89565632  0.00538168  1
  O  O25  1  0.01574213  0.39565632  0.50538168  1
  O  O26  1  0.51574213  0.10434368  0.99461832  1
  O  O27  1  0.98425787  0.60434368  0.49461832  1
  O  O28  1  0.77780246  0.78655330  0.12507383  1
  O  O29  1  0.72219754  0.28655330  0.62507383  1
  O  O30  1  0.22219754  0.21344670  0.87492617  1
  O  O31  1  0.27780246  0.71344670  0.37492617  1
  O  O32  1  0.71437375  0.19149596  0.13513985  1
  O  O33  1  0.78562625  0.69149596  0.63513985  1
  O  O34  1  0.28562625  0.80850404  0.86486015  1
  O  O35  1  0.21437375  0.30850404  0.36486015  1
  O  O36  1  0.98447461  0.94977744  0.16979490  1
  O  O37  1  0.51552539  0.44977744  0.66979490  1
  O  O38  1  0.01552539  0.05022256  0.83020510  1
  O  O39  1  0.48447461  0.55022256  0.33020510  1
  O  O40  1  0.51598872  0.01896005  0.17161174  1
  O  O41  1  0.98401128  0.51896005  0.67161174  1
  O  O42  1  0.48401128  0.98103995  0.82838826  1
  O  O43  1  0.01598872  0.48103995  0.32838826  1
  O  O44  1  0.00161247  0.74924789  0.22482700  1
  O  O45  1  0.49838753  0.24924789  0.72482700  1
  O  O46  1  0.99838753  0.25075211  0.77517300  1
  O  O47  1  0.50161247  0.75075211  0.27517300  1
  O  O48  1  0.47411706  0.21345321  0.23182759  1
  O  O49  1  0.02588294  0.71345321  0.73182759  1
  O  O50  1  0.52588294  0.78654679  0.76817241  1
  O  O51  1  0.97411706  0.28654679  0.26817241  1
  O  O52  1  0.72636592  0.48870359  0.86933573  1
  O  O53  1  0.77363408  0.98870359  0.36933573  1
  O  O54  1  0.27363408  0.51129641  0.13066427  1
  O  O55  1  0.22636592  0.01129641  0.63066427  1
  O  O56  1  0.95345780  0.60657251  0.94136744  1
  O  O57  1  0.54654220  0.10657251  0.44136744  1
  O  O58  1  0.04654220  0.39342749  0.05863256  1
  O  O59  1  0.45345780  0.89342749  0.55863256  1
  O  O60  1  0.59260212  0.62311539  0.95782150  1
  O  O61  1  0.90739788  0.12311539  0.45782150  1
  O  O62  1  0.40739788  0.37688461  0.04217850  1
  O  O63  1  0.09260212  0.87688461  0.54217850  1
