# generated using pymatgen
data_K2P4H6PtO11
_symmetry_space_group_name_H-M   'P 1'
_cell_length_a   8.17869441
_cell_length_b   13.44036652
_cell_length_c   13.44036652
_cell_angle_alpha   90.00000000
_cell_angle_beta   90.00000000
_cell_angle_gamma   90.00000000
_symmetry_Int_Tables_number   1
_chemical_formula_structural   K2P4H6PtO11
_chemical_formula_sum   'K8 P16 H24 Pt4 O44'
_cell_volume   1477.42759265
_cell_formula_units_Z   4
loop_
 _symmetry_equiv_pos_site_id
 _symmetry_equiv_pos_as_xyz
  1  'x, y, z'
loop_
 _atom_site_type_symbol
 _atom_site_label
 _atom_site_symmetry_multiplicity
 _atom_site_fract_x
 _atom_site_fract_y
 _atom_site_fract_z
 _atom_site_occupancy
  K  K0  1  -0.00000000  0.77482773  0.72517227  1
  K  K1  1  -0.00000000  0.22517227  0.27482773  1
  K  K2  1  -0.00000000  0.72517227  0.22517227  1
  K  K3  1  -0.00000000  0.27482773  0.77482773  1
  K  K4  1  0.50000000  0.88136728  0.61863272  1
  K  K5  1  0.50000000  0.11863272  0.38136728  1
  K  K6  1  0.50000000  0.61863272  0.11863272  1
  K  K7  1  0.50000000  0.38136728  0.88136728  1
  P  P8  1  0.68502621  0.63011021  0.61558814  1
  P  P9  1  0.68502621  0.36988979  0.38441186  1
  P  P10  1  0.68502621  0.86988979  0.11558814  1
  P  P11  1  0.68502621  0.13011021  0.88441186  1
  P  P12  1  0.68502621  0.61558814  0.36988979  1
  P  P13  1  0.68502621  0.38441186  0.63011021  1
  P  P14  1  0.68502621  0.11558814  0.13011021  1
  P  P15  1  0.68502621  0.88441186  0.86988979  1
  P  P16  1  0.31497379  0.36988979  0.38441186  1
  P  P17  1  0.31497379  0.63011021  0.61558814  1
  P  P18  1  0.31497379  0.13011021  0.88441186  1
  P  P19  1  0.31497379  0.86988979  0.11558814  1
  P  P20  1  0.31497379  0.38441186  0.63011021  1
  P  P21  1  0.31497379  0.61558814  0.36988979  1
  P  P22  1  0.31497379  0.88441186  0.86988979  1
  P  P23  1  0.31497379  0.11558814  0.13011021  1
  H  H24  1  0.77782897  0.53020493  0.72985923  1
  H  H25  1  0.77782897  0.46979507  0.27014077  1
  H  H26  1  0.77782897  0.96979507  0.22985923  1
  H  H27  1  0.77782897  0.03020493  0.77014077  1
  H  H28  1  0.77782897  0.72985923  0.46979507  1
  H  H29  1  0.77782897  0.27014077  0.53020493  1
  H  H30  1  0.77782897  0.22985923  0.03020493  1
  H  H31  1  0.77782897  0.77014077  0.96979507  1
  H  H32  1  0.22217103  0.46979507  0.27014077  1
  H  H33  1  0.22217103  0.53020493  0.72985923  1
  H  H34  1  0.22217103  0.03020493  0.77014077  1
  H  H35  1  0.22217103  0.96979507  0.22985923  1
  H  H36  1  0.22217103  0.27014077  0.53020493  1
  H  H37  1  0.22217103  0.72985923  0.46979507  1
  H  H38  1  0.22217103  0.77014077  0.96979507  1
  H  H39  1  0.22217103  0.22985923  0.03020493  1
  H  H40  1  0.40687388  0.87229255  0.37229255  1
  H  H41  1  0.40687388  0.12770745  0.62770745  1
  H  H42  1  0.40687388  0.62770745  0.87229255  1
  H  H43  1  0.40687388  0.37229255  0.12770745  1
  H  H44  1  0.59312612  0.12770745  0.62770745  1
  H  H45  1  0.59312612  0.87229255  0.37229255  1
  H  H46  1  0.59312612  0.37229255  0.12770745  1
  H  H47  1  0.59312612  0.62770745  0.87229255  1
  Pt  Pt48  1  0.68146631  0.50000000  0.50000000  1
  Pt  Pt49  1  0.68146631  0.00000000  0.00000000  1
  Pt  Pt50  1  0.31853369  0.50000000  0.50000000  1
  Pt  Pt51  1  0.31853369  -0.00000000  0.00000000  1
  O  O52  1  0.50000000  0.64677904  0.66235773  1
  O  O53  1  0.50000000  0.35322096  0.33764227  1
  O  O54  1  0.50000000  0.85322096  0.16235773  1
  O  O55  1  0.50000000  0.14677904  0.83764227  1
  O  O56  1  0.50000000  0.66235773  0.35322096  1
  O  O57  1  0.50000000  0.33764227  0.64677904  1
  O  O58  1  0.50000000  0.16235773  0.14677904  1
  O  O59  1  0.50000000  0.83764227  0.85322096  1
  O  O60  1  0.78419584  0.60580554  0.71527367  1
  O  O61  1  0.78419584  0.39419446  0.28472633  1
  O  O62  1  0.78419584  0.89419446  0.21527367  1
  O  O63  1  0.78419584  0.10580554  0.78472633  1
  O  O64  1  0.78419584  0.71527367  0.39419446  1
  O  O65  1  0.78419584  0.28472633  0.60580554  1
  O  O66  1  0.78419584  0.21527367  0.10580554  1
  O  O67  1  0.78419584  0.78472633  0.89419446  1
  O  O68  1  0.21580416  0.39419446  0.28472633  1
  O  O69  1  0.21580416  0.60580554  0.71527367  1
  O  O70  1  0.21580416  0.10580554  0.78472633  1
  O  O71  1  0.21580416  0.89419446  0.21527367  1
  O  O72  1  0.21580416  0.28472633  0.60580554  1
  O  O73  1  0.21580416  0.71527367  0.39419446  1
  O  O74  1  0.21580416  0.78472633  0.89419446  1
  O  O75  1  0.21580416  0.21527367  0.10580554  1
  O  O76  1  0.74353282  0.73300806  0.58185667  1
  O  O77  1  0.74353282  0.26699194  0.41814333  1
  O  O78  1  0.74353282  0.76699194  0.08185667  1
  O  O79  1  0.74353282  0.23300806  0.91814333  1
  O  O80  1  0.74353282  0.58185667  0.26699194  1
  O  O81  1  0.74353282  0.41814333  0.73300806  1
  O  O82  1  0.74353282  0.08185667  0.23300806  1
  O  O83  1  0.74353282  0.91814333  0.76699194  1
  O  O84  1  0.25646718  0.26699194  0.41814333  1
  O  O85  1  0.25646718  0.73300806  0.58185667  1
  O  O86  1  0.25646718  0.23300806  0.91814333  1
  O  O87  1  0.25646718  0.76699194  0.08185667  1
  O  O88  1  0.25646718  0.41814333  0.73300806  1
  O  O89  1  0.25646718  0.58185667  0.26699194  1
  O  O90  1  0.25646718  0.91814333  0.76699194  1
  O  O91  1  0.25646718  0.08185667  0.23300806  1
  O  O92  1  0.50000000  0.90451564  0.40451564  1
  O  O93  1  0.50000000  0.09548436  0.59548436  1
  O  O94  1  0.50000000  0.59548436  0.90451564  1
  O  O95  1  0.50000000  0.40451564  0.09548436  1
