# generated using pymatgen
data_Yb2Mn3Si5
_symmetry_space_group_name_H-M   'P 1'
_cell_length_a   5.45659507
_cell_length_b   10.55931905
_cell_length_c   10.55931905
_cell_angle_alpha   90.00000000
_cell_angle_beta   90.00000000
_cell_angle_gamma   90.00000000
_symmetry_Int_Tables_number   1
_chemical_formula_structural   Yb2Mn3Si5
_chemical_formula_sum   'Yb8 Mn12 Si20'
_cell_volume   608.40608761
_cell_formula_units_Z   4
loop_
 _symmetry_equiv_pos_site_id
 _symmetry_equiv_pos_as_xyz
  1  'x, y, z'
loop_
 _atom_site_type_symbol
 _atom_site_label
 _atom_site_symmetry_multiplicity
 _atom_site_fract_x
 _atom_site_fract_y
 _atom_site_fract_z
 _atom_site_occupancy
  Yb  Yb0  1  0.50000000  0.73525081  0.57493496  1
  Yb  Yb1  1  0.50000000  0.26474919  0.42506504  1
  Yb  Yb2  1  0.00000000  0.76474919  0.07493496  1
  Yb  Yb3  1  0.00000000  0.23525081  0.92506504  1
  Yb  Yb4  1  0.50000000  0.57493496  0.26474919  1
  Yb  Yb5  1  0.50000000  0.42506504  0.73525081  1
  Yb  Yb6  1  0.00000000  0.07493496  0.23525081  1
  Yb  Yb7  1  0.00000000  0.92506504  0.76474919  1
  Mn  Mn8  1  0.50000000  0.85832043  0.88283679  1
  Mn  Mn9  1  0.50000000  0.14167957  0.11716321  1
  Mn  Mn10  1  0.00000000  0.64167957  0.38283679  1
  Mn  Mn11  1  0.00000000  0.35832043  0.61716321  1
  Mn  Mn12  1  0.50000000  0.88283679  0.14167957  1
  Mn  Mn13  1  0.50000000  0.11716321  0.85832043  1
  Mn  Mn14  1  0.00000000  0.38283679  0.35832043  1
  Mn  Mn15  1  0.00000000  0.61716321  0.64167957  1
  Mn  Mn16  1  0.25000000  -0.00000000  0.50000000  1
  Mn  Mn17  1  0.75000000  0.50000000  -0.00000000  1
  Mn  Mn18  1  0.25000000  0.50000000  -0.00000000  1
  Mn  Mn19  1  0.75000000  -0.00000000  0.50000000  1
  Si  Si20  1  0.25000000  0.17320824  0.67320824  1
  Si  Si21  1  0.25000000  0.82679176  0.32679176  1
  Si  Si22  1  0.75000000  0.32679176  0.17320824  1
  Si  Si23  1  0.75000000  0.67320824  0.82679176  1
  Si  Si24  1  0.25000000  0.67320824  0.82679176  1
  Si  Si25  1  0.25000000  0.32679176  0.17320824  1
  Si  Si26  1  0.75000000  0.17320824  0.67320824  1
  Si  Si27  1  0.75000000  0.82679176  0.32679176  1
  Si  Si28  1  0.25156803  0.50000000  0.50000000  1
  Si  Si29  1  0.75156803  -0.00000000  -0.00000000  1
  Si  Si30  1  0.74843197  0.50000000  0.50000000  1
  Si  Si31  1  0.24843197  -0.00000000  -0.00000000  1
  Si  Si32  1  0.50000000  0.97526886  0.68161033  1
  Si  Si33  1  0.50000000  0.02473114  0.31838967  1
  Si  Si34  1  0.00000000  0.52473114  0.18161033  1
  Si  Si35  1  0.00000000  0.47526886  0.81838967  1
  Si  Si36  1  0.50000000  0.68161033  0.02473114  1
  Si  Si37  1  0.50000000  0.31838967  0.97526886  1
  Si  Si38  1  0.00000000  0.18161033  0.47526886  1
  Si  Si39  1  0.00000000  0.81838967  0.52473114  1
