# generated using pymatgen
data_AlB6H6(CCl3)2
_symmetry_space_group_name_H-M   'P 1'
_cell_length_a   9.30490646
_cell_length_b   10.88039254
_cell_length_c   14.65827997
_cell_angle_alpha   90.00000000
_cell_angle_beta   96.19526124
_cell_angle_gamma   90.00000000
_symmetry_Int_Tables_number   1
_chemical_formula_structural   AlB6H6(CCl3)2
_chemical_formula_sum   'Al4 B24 H24 C8 Cl24'
_cell_volume   1475.35260096
_cell_formula_units_Z   4
loop_
 _symmetry_equiv_pos_site_id
 _symmetry_equiv_pos_as_xyz
  1  'x, y, z'
loop_
 _atom_site_type_symbol
 _atom_site_label
 _atom_site_symmetry_multiplicity
 _atom_site_fract_x
 _atom_site_fract_y
 _atom_site_fract_z
 _atom_site_occupancy
  Al  Al0  1  0.84364166  0.78032765  0.65679329  1
  Al  Al1  1  0.15635834  0.28032765  0.84320671  1
  Al  Al2  1  0.15635834  0.21967235  0.34320671  1
  Al  Al3  1  0.84364166  0.71967235  0.15679329  1
  B  B4  1  0.67118251  0.54803160  0.51767416  1
  B  B5  1  0.32881749  0.04803160  0.98232584  1
  B  B6  1  0.32881749  0.45196840  0.48232584  1
  B  B7  1  0.67118251  0.95196840  0.01767416  1
  B  B8  1  0.53382213  0.61576939  0.57365217  1
  B  B9  1  0.46617787  0.11576939  0.92634783  1
  B  B10  1  0.46617787  0.38423061  0.42634783  1
  B  B11  1  0.53382213  0.88423061  0.07365217  1
  B  B12  1  0.59175654  0.46312759  0.60433315  1
  B  B13  1  0.40824346  0.96312759  0.89566685  1
  B  B14  1  0.40824346  0.53687241  0.39566685  1
  B  B15  1  0.59175654  0.03687241  0.10433315  1
  B  B16  1  0.36840769  0.61101786  0.50018584  1
  B  B17  1  0.63159231  0.11101786  0.99981416  1
  B  B18  1  0.63159231  0.38898214  0.49981416  1
  B  B19  1  0.36840769  0.88898214  0.00018584  1
  B  B20  1  0.40251915  0.50197613  0.59355012  1
  B  B21  1  0.59748085  0.00197613  0.90644988  1
  B  B22  1  0.59748085  0.49802387  0.40644988  1
  B  B23  1  0.40251915  0.99802387  0.09355012  1
  B  B24  1  0.53656270  0.63970094  0.45302492  1
  B  B25  1  0.46343730  0.13970094  0.04697508  1
  B  B26  1  0.46343730  0.36029906  0.54697508  1
  B  B27  1  0.53656270  0.86029906  0.95302492  1
  H  H28  1  0.98419047  0.96045228  0.59695607  1
  H  H29  1  0.01580953  0.46045228  0.90304393  1
  H  H30  1  0.01580953  0.03954772  0.40304393  1
  H  H31  1  0.98419047  0.53954772  0.09695607  1
  H  H32  1  0.84398944  0.91221338  0.51265458  1
  H  H33  1  0.15601056  0.41221338  0.98734542  1
  H  H34  1  0.15601056  0.08778662  0.48734542  1
  H  H35  1  0.84398944  0.58778662  0.01265458  1
  H  H36  1  0.80282487  0.00464798  0.60587512  1
  H  H37  1  0.19717513  0.50464798  0.89412488  1
  H  H38  1  0.19717513  0.99535202  0.39412488  1
  H  H39  1  0.80282487  0.49535202  0.10587512  1
  H  H40  1  0.95708549  0.79019161  0.82381352  1
  H  H41  1  0.04291451  0.29019161  0.67618648  1
  H  H42  1  0.04291451  0.20980839  0.17618648  1
  H  H43  1  0.95708549  0.70980839  0.32381352  1
  H  H44  1  0.87835987  0.64334394  0.79953710  1
  H  H45  1  0.12164013  0.14334394  0.70046290  1
  H  H46  1  0.12164013  0.35665606  0.20046290  1
  H  H47  1  0.87835987  0.85665606  0.29953710  1
  H  H48  1  0.04793279  0.68123846  0.76096917  1
  H  H49  1  0.95206721  0.18123846  0.73903083  1
  H  H50  1  0.95206721  0.31876154  0.23903083  1
  H  H51  1  0.04793279  0.81876154  0.26096917  1
  C  C52  1  0.87111954  0.92857859  0.58620258  1
  C  C53  1  0.12888046  0.42857859  0.91379742  1
  C  C54  1  0.12888046  0.07142141  0.41379742  1
  C  C55  1  0.87111954  0.57142141  0.08620258  1
  C  C56  1  0.94030313  0.71732243  0.77162647  1
  C  C57  1  0.05969687  0.21732243  0.72837353  1
  C  C58  1  0.05969687  0.28267757  0.22837353  1
  C  C59  1  0.94030313  0.78267757  0.27162647  1
  Cl  Cl60  1  0.85462327  0.60832397  0.54284570  1
  Cl  Cl61  1  0.14537673  0.10832397  0.95715430  1
  Cl  Cl62  1  0.14537673  0.39167603  0.45715430  1
  Cl  Cl63  1  0.85462327  0.89167603  0.04284570  1
  Cl  Cl64  1  0.58151244  0.74363620  0.65237501  1
  Cl  Cl65  1  0.41848756  0.24363620  0.84762499  1
  Cl  Cl66  1  0.41848756  0.25636380  0.34762499  1
  Cl  Cl67  1  0.58151244  0.75636380  0.15237501  1
  Cl  Cl68  1  0.68885330  0.42917321  0.71262229  1
  Cl  Cl69  1  0.31114670  0.92917321  0.78737771  1
  Cl  Cl70  1  0.31114670  0.57082679  0.28737771  1
  Cl  Cl71  1  0.68885330  0.07082679  0.21262229  1
  Cl  Cl72  1  0.23319822  0.72637501  0.50245486  1
  Cl  Cl73  1  0.76680178  0.22637501  0.99754514  1
  Cl  Cl74  1  0.76680178  0.27362499  0.49754514  1
  Cl  Cl75  1  0.23319822  0.77362499  0.00245486  1
  Cl  Cl76  1  0.30025504  0.50844490  0.68992640  1
  Cl  Cl77  1  0.69974496  0.00844490  0.81007360  1
  Cl  Cl78  1  0.69974496  0.49155510  0.31007360  1
  Cl  Cl79  1  0.30025504  0.99155510  0.18992640  1
  Cl  Cl80  1  0.57646283  0.78622953  0.40837840  1
  Cl  Cl81  1  0.42353717  0.28622953  0.09162160  1
  Cl  Cl82  1  0.42353717  0.21377047  0.59162160  1
  Cl  Cl83  1  0.57646283  0.71377047  0.90837840  1
