# generated using pymatgen
data_Ba(SO4)5
_symmetry_space_group_name_H-M   'P 1'
_cell_length_a   5.01629253
_cell_length_b   11.67402230
_cell_length_c   29.52512721
_cell_angle_alpha   90.00000000
_cell_angle_beta   90.00000000
_cell_angle_gamma   90.00000000
_symmetry_Int_Tables_number   1
_chemical_formula_structural   Ba(SO4)5
_chemical_formula_sum   'Ba4 S20 O80'
_cell_volume   1729.00062756
_cell_formula_units_Z   4
loop_
 _symmetry_equiv_pos_site_id
 _symmetry_equiv_pos_as_xyz
  1  'x, y, z'
loop_
 _atom_site_type_symbol
 _atom_site_label
 _atom_site_symmetry_multiplicity
 _atom_site_fract_x
 _atom_site_fract_y
 _atom_site_fract_z
 _atom_site_occupancy
  Ba  Ba0  1  0.55190686  0.09983376  0.59621337  1
  Ba  Ba1  1  0.94809314  0.90016624  0.09621337  1
  Ba  Ba2  1  0.05190686  0.40016624  0.40378663  1
  Ba  Ba3  1  0.44809314  0.59983376  0.90378663  1
  S  S4  1  -0.00098212  0.89336740  0.53341146  1
  S  S5  1  0.50098212  0.10663260  0.03341146  1
  S  S6  1  0.49901788  0.60663260  0.46658854  1
  S  S7  1  0.00098212  0.39336740  0.96658854  1
  S  S8  1  0.44087363  0.38821452  0.67753213  1
  S  S9  1  0.05912637  0.61178548  0.17753213  1
  S  S10  1  0.94087363  0.11178548  0.32246787  1
  S  S11  1  0.55912637  0.88821452  0.82246787  1
  S  S12  1  0.97483433  0.07416287  0.69929689  1
  S  S13  1  0.52516567  0.92583713  0.19929689  1
  S  S14  1  0.47483433  0.42583713  0.30070311  1
  S  S15  1  0.02516567  0.57416287  0.80070311  1
  S  S16  1  0.56807875  0.75934871  0.64465577  1
  S  S17  1  0.93192125  0.24065129  0.14465577  1
  S  S18  1  0.06807875  0.74065129  0.35534423  1
  S  S19  1  0.43192125  0.25934871  0.85534423  1
  S  S20  1  0.01225458  0.34919332  0.54557427  1
  S  S21  1  0.48774542  0.65080668  0.04557427  1
  S  S22  1  0.51225458  0.15080668  0.45442573  1
  S  S23  1  0.98774542  0.84919332  0.95442573  1
  O  O24  1  0.46246150  0.68342726  0.60836868  1
  O  O25  1  0.03753850  0.31657274  0.10836868  1
  O  O26  1  0.96246150  0.81657274  0.39163132  1
  O  O27  1  0.53753850  0.18342726  0.89163132  1
  O  O28  1  0.09743432  0.98108123  0.56570744  1
  O  O29  1  0.40256568  0.01891877  0.06570744  1
  O  O30  1  0.59743432  0.51891877  0.43429256  1
  O  O31  1  0.90256568  0.48108123  0.93429256  1
  O  O32  1  0.08549094  0.10156062  0.65412674  1
  O  O33  1  0.41450906  0.89843938  0.15412674  1
  O  O34  1  0.58549094  0.39843938  0.34587326  1
  O  O35  1  0.91450906  0.60156062  0.84587326  1
  O  O36  1  0.55364149  0.29905165  0.64800306  1
  O  O37  1  0.94635851  0.70094835  0.14800306  1
  O  O38  1  0.05364149  0.20094835  0.35199694  1
  O  O39  1  0.44635851  0.79905165  0.85199694  1
  O  O40  1  0.42262420  0.73094100  0.68709119  1
  O  O41  1  0.07737580  0.26905900  0.18709119  1
  O  O42  1  0.92262420  0.76905900  0.31290881  1
  O  O43  1  0.57737580  0.23094100  0.81290881  1
  O  O44  1  0.12142165  0.90849126  0.48804325  1
  O  O45  1  0.37857835  0.09150874  0.98804325  1
  O  O46  1  0.62142165  0.59150874  0.51195675  1
  O  O47  1  0.87857835  0.40849126  0.01195675  1
  O  O48  1  0.62902821  0.48466536  0.68351363  1
  O  O49  1  0.87097179  0.51533464  0.18351363  1
  O  O50  1  0.12902821  0.01533464  0.31648637  1
  O  O51  1  0.37097179  0.98466536  0.81648637  1
  O  O52  1  0.53027716  0.88002302  0.63164297  1
  O  O53  1  0.96972284  0.11997698  0.13164297  1
  O  O54  1  0.03027716  0.61997698  0.36835703  1
  O  O55  1  0.46972284  0.38002302  0.86835703  1
  O  O56  1  0.59896116  0.14327175  0.50200366  1
  O  O57  1  0.90103884  0.85672825  0.00200366  1
  O  O58  1  0.09896116  0.35672825  0.49799634  1
  O  O59  1  0.40103884  0.64327175  0.99799634  1
  O  O60  1  0.10374890  0.24235543  0.56701419  1
  O  O61  1  0.39625110  0.75764457  0.06701419  1
  O  O62  1  0.60374890  0.25764457  0.43298581  1
  O  O63  1  0.89625110  0.74235543  0.93298581  1
  O  O64  1  0.71650667  0.36037304  0.54961444  1
  O  O65  1  0.78349333  0.63962696  0.04961444  1
  O  O66  1  0.21650667  0.13962696  0.45038556  1
  O  O67  1  0.28349333  0.86037304  0.95038556  1
  O  O68  1  0.70550916  0.89667058  0.53152259  1
  O  O69  1  0.79449084  0.10332942  0.03152259  1
  O  O70  1  0.20550916  0.60332942  0.46847741  1
  O  O71  1  0.29449084  0.39667058  0.96847741  1
  O  O72  1  0.18647345  0.43339313  0.65812926  1
  O  O73  1  0.31352655  0.56660687  0.15812926  1
  O  O74  1  0.68647345  0.06660687  0.34187074  1
  O  O75  1  0.81352655  0.93339313  0.84187074  1
  O  O76  1  0.10175675  0.97173984  0.71986640  1
  O  O77  1  0.39824325  0.02826016  0.21986640  1
  O  O78  1  0.60175675  0.52826016  0.28013360  1
  O  O79  1  0.89824325  0.47173984  0.78013360  1
  O  O80  1  0.37128011  0.34153961  0.72293639  1
  O  O81  1  0.12871989  0.65846039  0.22293639  1
  O  O82  1  0.87128011  0.15846039  0.27706361  1
  O  O83  1  0.62871989  0.84153961  0.77706361  1
  O  O84  1  0.68265642  0.06099318  0.69599615  1
  O  O85  1  0.81734358  0.93900682  0.19599615  1
  O  O86  1  0.18265642  0.43900682  0.30400385  1
  O  O87  1  0.31734358  0.56099318  0.80400385  1
  O  O88  1  0.11246314  0.45257889  0.57043081  1
  O  O89  1  0.38753686  0.54742111  0.07043081  1
  O  O90  1  0.61246314  0.04742111  0.42956919  1
  O  O91  1  0.88753686  0.95257889  0.92956919  1
  O  O92  1  0.08690880  0.77628331  0.54720143  1
  O  O93  1  0.41309120  0.22371669  0.04720143  1
  O  O94  1  0.58690880  0.72371669  0.45279857  1
  O  O95  1  0.91309120  0.27628331  0.95279857  1
  O  O96  1  0.85239119  0.73284963  0.65276005  1
  O  O97  1  0.64760881  0.26715037  0.15276005  1
  O  O98  1  0.35239119  0.76715037  0.34723995  1
  O  O99  1  0.14760881  0.23284963  0.84723995  1
  O  O100  1  0.03617981  0.16726155  0.73261831  1
  O  O101  1  0.46382019  0.83273845  0.23261831  1
  O  O102  1  0.53617981  0.33273845  0.26738169  1
  O  O103  1  0.96382019  0.66726155  0.76738169  1
