# generated using pymatgen
data_NaGe4(PbO4)3
_symmetry_space_group_name_H-M   'P 1'
_cell_length_a   7.55713393
_cell_length_b   10.42843448
_cell_length_c   15.70893780
_cell_angle_alpha   90.00000000
_cell_angle_beta   90.00000000
_cell_angle_gamma   90.00000000
_symmetry_Int_Tables_number   1
_chemical_formula_structural   NaGe4(PbO4)3
_chemical_formula_sum   'Na4 Ge16 Pb12 O48'
_cell_volume   1238.00687368
_cell_formula_units_Z   4
loop_
 _symmetry_equiv_pos_site_id
 _symmetry_equiv_pos_as_xyz
  1  'x, y, z'
loop_
 _atom_site_type_symbol
 _atom_site_label
 _atom_site_symmetry_multiplicity
 _atom_site_fract_x
 _atom_site_fract_y
 _atom_site_fract_z
 _atom_site_occupancy
  Na  Na0  1  0.50000000  -0.00000000  0.50000000  1
  Na  Na1  1  0.00000000  0.50000000  0.00000000  1
  Na  Na2  1  0.50000000  0.50000000  0.00000000  1
  Na  Na3  1  0.00000000  -0.00000000  0.50000000  1
  Ge  Ge4  1  0.79583079  0.70598872  0.12282519  1
  Ge  Ge5  1  0.20416921  0.70598872  0.87717481  1
  Ge  Ge6  1  0.29583079  0.79401128  0.37717481  1
  Ge  Ge7  1  0.70416921  0.79401128  0.62282519  1
  Ge  Ge8  1  0.20416921  0.29401128  0.87717481  1
  Ge  Ge9  1  0.79583079  0.29401128  0.12282519  1
  Ge  Ge10  1  0.70416921  0.20598872  0.62282519  1
  Ge  Ge11  1  0.29583079  0.20598872  0.37717481  1
  Ge  Ge12  1  0.87199889  -0.00000000  0.07251648  1
  Ge  Ge13  1  0.12800111  0.00000000  0.92748352  1
  Ge  Ge14  1  0.37199889  0.50000000  0.42748352  1
  Ge  Ge15  1  0.62800111  0.50000000  0.57251648  1
  Ge  Ge16  1  0.55301592  0.50000000  0.23562867  1
  Ge  Ge17  1  0.44698408  0.50000000  0.76437133  1
  Ge  Ge18  1  0.05301592  -0.00000000  0.26437133  1
  Ge  Ge19  1  0.94698408  0.00000000  0.73562867  1
  Pb  Pb20  1  0.75382415  0.70670900  0.41001141  1
  Pb  Pb21  1  0.24617585  0.70670900  0.58998859  1
  Pb  Pb22  1  0.25382415  0.79329100  0.08998859  1
  Pb  Pb23  1  0.74617585  0.79329100  0.91001141  1
  Pb  Pb24  1  0.24617585  0.29329100  0.58998859  1
  Pb  Pb25  1  0.75382415  0.29329100  0.41001141  1
  Pb  Pb26  1  0.74617585  0.20670900  0.91001141  1
  Pb  Pb27  1  0.25382415  0.20670900  0.08998859  1
  Pb  Pb28  1  0.58570659  -0.00000000  0.25699525  1
  Pb  Pb29  1  0.41429341  0.00000000  0.74300475  1
  Pb  Pb30  1  0.08570659  0.50000000  0.24300475  1
  Pb  Pb31  1  0.91429341  0.50000000  0.75699525  1
  O  O32  1  0.57242450  0.50000000  0.34924493  1
  O  O33  1  0.42757550  0.50000000  0.65075507  1
  O  O34  1  0.07242450  -0.00000000  0.15075507  1
  O  O35  1  0.92757550  -0.00000000  0.84924493  1
  O  O36  1  0.69072471  0.00000000  0.98957022  1
  O  O37  1  0.30927529  0.00000000  0.01042978  1
  O  O38  1  0.19072471  0.50000000  0.51042978  1
  O  O39  1  0.80927529  0.50000000  0.48957022  1
  O  O40  1  0.76494984  0.87249245  0.14047297  1
  O  O41  1  0.23505016  0.87249245  0.85952703  1
  O  O42  1  0.26494984  0.62750755  0.35952703  1
  O  O43  1  0.73505016  0.62750755  0.64047297  1
  O  O44  1  0.23505016  0.12750755  0.85952703  1
  O  O45  1  0.76494984  0.12750755  0.14047297  1
  O  O46  1  0.73505016  0.37249245  0.64047297  1
  O  O47  1  0.26494984  0.37249245  0.35952703  1
  O  O48  1  0.50000000  0.62321603  0.50000000  1
  O  O49  1  0.00000000  0.87678397  0.00000000  1
  O  O50  1  0.50000000  0.37678397  0.50000000  1
  O  O51  1  -0.00000000  0.12321603  -0.00000000  1
  O  O52  1  0.68022593  0.64085766  0.21272294  1
  O  O53  1  0.31977407  0.64085766  0.78727706  1
  O  O54  1  0.18022593  0.85914234  0.28727706  1
  O  O55  1  0.81977407  0.85914234  0.71272294  1
  O  O56  1  0.31977407  0.35914234  0.78727706  1
  O  O57  1  0.68022593  0.35914234  0.21272294  1
  O  O58  1  0.81977407  0.14085766  0.71272294  1
  O  O59  1  0.18022593  0.14085766  0.28727706  1
  O  O60  1  0.85583980  0.00000000  0.32109985  1
  O  O61  1  0.14416020  -0.00000000  0.67890015  1
  O  O62  1  0.35583980  0.50000000  0.17890015  1
  O  O63  1  0.64416020  0.50000000  0.82109985  1
  O  O64  1  0.51936880  0.84487581  0.36810606  1
  O  O65  1  0.48063120  0.84487581  0.63189394  1
  O  O66  1  0.01936880  0.65512419  0.13189394  1
  O  O67  1  0.98063120  0.65512419  0.86810606  1
  O  O68  1  0.48063120  0.15512419  0.63189394  1
  O  O69  1  0.51936880  0.15512419  0.36810606  1
  O  O70  1  0.98063120  0.34487581  0.86810606  1
  O  O71  1  0.01936880  0.34487581  0.13189394  1
  O  O72  1  0.71341818  0.65532652  0.02489418  1
  O  O73  1  0.28658182  0.65532652  0.97510582  1
  O  O74  1  0.21341818  0.84467348  0.47510582  1
  O  O75  1  0.78658182  0.84467348  0.52489418  1
  O  O76  1  0.28658182  0.34467348  0.97510582  1
  O  O77  1  0.71341818  0.34467348  0.02489418  1
  O  O78  1  0.78658182  0.15532652  0.52489418  1
  O  O79  1  0.21341818  0.15532652  0.47510582  1
