# generated using pymatgen
data_Ho2CrS4
_symmetry_space_group_name_H-M   'P 1'
_cell_length_a   7.51114017
_cell_length_b   12.56375306
_cell_length_c   12.55513315
_cell_angle_alpha   90.00000000
_cell_angle_beta   90.00000000
_cell_angle_gamma   90.00000000
_symmetry_Int_Tables_number   1
_chemical_formula_structural   Ho2CrS4
_chemical_formula_sum   'Ho16 Cr8 S32'
_cell_volume   1184.80418987
_cell_formula_units_Z   8
loop_
 _symmetry_equiv_pos_site_id
 _symmetry_equiv_pos_as_xyz
  1  'x, y, z'
loop_
 _atom_site_type_symbol
 _atom_site_label
 _atom_site_symmetry_multiplicity
 _atom_site_fract_x
 _atom_site_fract_y
 _atom_site_fract_z
 _atom_site_occupancy
  Ho  Ho0  1  0.63450237  0.42083033  0.86543284  1
  Ho  Ho1  1  0.36549763  0.92083033  0.13456716  1
  Ho  Ho2  1  0.63450237  0.92083033  0.63456716  1
  Ho  Ho3  1  0.36549763  0.42083033  0.36543284  1
  Ho  Ho4  1  0.86513208  0.42589347  0.36519858  1
  Ho  Ho5  1  0.13486792  0.92589347  0.63480142  1
  Ho  Ho6  1  0.86513208  0.92589347  0.13480142  1
  Ho  Ho7  1  0.13486792  0.42589347  0.86519858  1
  Ho  Ho8  1  0.88520510  0.25454431  0.62476880  1
  Ho  Ho9  1  0.11479490  0.75454431  0.37523120  1
  Ho  Ho10  1  0.88520510  0.75454431  0.87523120  1
  Ho  Ho11  1  0.11479490  0.25454431  0.12476880  1
  Ho  Ho12  1  0.38768951  0.11498859  0.88982493  1
  Ho  Ho13  1  0.61231049  0.61498859  0.11017507  1
  Ho  Ho14  1  0.38768951  0.61498859  0.61017507  1
  Ho  Ho15  1  0.61231049  0.11498859  0.38982493  1
  Cr  Cr16  1  0.89441873  0.12439587  0.88108750  1
  Cr  Cr17  1  0.10558127  0.62439587  0.11891250  1
  Cr  Cr18  1  0.89441873  0.62439587  0.61891250  1
  Cr  Cr19  1  0.10558127  0.12439587  0.38108750  1
  Cr  Cr20  1  0.38570460  0.25077692  0.62427165  1
  Cr  Cr21  1  0.61429540  0.75077692  0.37572835  1
  Cr  Cr22  1  0.38570460  0.75077692  0.87572835  1
  Cr  Cr23  1  0.61429540  0.25077692  0.12427165  1
  S  S24  1  0.88455241  0.45208347  0.71111876  1
  S  S25  1  0.11544759  0.95208347  0.28888124  1
  S  S26  1  0.88455241  0.95208347  0.78888124  1
  S  S27  1  0.11544759  0.45208347  0.21111876  1
  S  S28  1  0.88599555  0.05903692  0.52459323  1
  S  S29  1  0.11400445  0.55903692  0.47540677  1
  S  S30  1  0.88599555  0.55903692  0.97540677  1
  S  S31  1  0.11400445  0.05903692  0.02459323  1
  S  S32  1  0.38324123  0.06873253  0.54973314  1
  S  S33  1  0.61675877  0.56873253  0.45026686  1
  S  S34  1  0.38324123  0.56873253  0.95026686  1
  S  S35  1  0.61675877  0.06873253  0.04973314  1
  S  S36  1  0.38325345  0.30823365  0.98823088  1
  S  S37  1  0.61674655  0.80823365  0.01176912  1
  S  S38  1  0.38325345  0.80823365  0.51176912  1
  S  S39  1  0.61674655  0.30823365  0.48823088  1
  S  S40  1  0.85265668  0.20314794  0.25716988  1
  S  S41  1  0.14734332  0.70314794  0.74283012  1
  S  S42  1  0.85265668  0.70314794  0.24283012  1
  S  S43  1  0.14734332  0.20314794  0.75716988  1
  S  S44  1  0.64176495  0.20113256  0.76853916  1
  S  S45  1  0.35823505  0.70113256  0.23146084  1
  S  S46  1  0.64176495  0.70113256  0.73146084  1
  S  S47  1  0.35823505  0.20113256  0.26853916  1
  S  S48  1  0.88106696  0.29613549  0.96856895  1
  S  S49  1  0.11893304  0.79613549  0.03143105  1
  S  S50  1  0.88106696  0.79613549  0.53143105  1
  S  S51  1  0.11893304  0.29613549  0.46856895  1
  S  S52  1  0.38522812  0.42506794  0.70812704  1
  S  S53  1  0.61477188  0.92506794  0.29187296  1
  S  S54  1  0.38522812  0.92506794  0.79187296  1
  S  S55  1  0.61477188  0.42506794  0.20812704  1
