# generated using pymatgen
data_KZnSi3(H11C4)3
_symmetry_space_group_name_H-M   'P 1'
_cell_length_a   11.73361754
_cell_length_b   11.86887407
_cell_length_c   19.81537445
_cell_angle_alpha   90.00000000
_cell_angle_beta   90.00000000
_cell_angle_gamma   113.89410477
_symmetry_Int_Tables_number   1
_chemical_formula_structural   KZnSi3(H11C4)3
_chemical_formula_sum   'K4 Zn4 Si12 H132 C48'
_cell_volume   2523.07627940
_cell_formula_units_Z   4
loop_
 _symmetry_equiv_pos_site_id
 _symmetry_equiv_pos_as_xyz
  1  'x, y, z'
loop_
 _atom_site_type_symbol
 _atom_site_label
 _atom_site_symmetry_multiplicity
 _atom_site_fract_x
 _atom_site_fract_y
 _atom_site_fract_z
 _atom_site_occupancy
  K  K0  1  0.56528883  0.79553684  0.12589301  1
  K  K1  1  0.43471117  0.70446316  0.62589301  1
  K  K2  1  0.43471117  0.20446316  0.87410699  1
  K  K3  1  0.56528883  0.29553684  0.37410699  1
  Zn  Zn4  1  0.58024811  0.64714944  0.87449442  1
  Zn  Zn5  1  0.41975189  0.85285056  0.37449442  1
  Zn  Zn6  1  0.41975189  0.35285056  0.12550558  1
  Zn  Zn7  1  0.58024811  0.14714944  0.62550558  1
  Si  Si8  1  0.70712524  0.93325986  0.93807254  1
  Si  Si9  1  0.29287476  0.56674014  0.43807254  1
  Si  Si10  1  0.29287476  0.06674014  0.06192746  1
  Si  Si11  1  0.70712524  0.43325986  0.56192746  1
  Si  Si12  1  0.80386661  0.53520999  0.87770204  1
  Si  Si13  1  0.19613339  0.96479001  0.37770204  1
  Si  Si14  1  0.19613339  0.46479001  0.12229796  1
  Si  Si15  1  0.80386661  0.03520999  0.62229796  1
  Si  Si16  1  0.30422890  0.56405557  0.80583742  1
  Si  Si17  1  0.69577110  0.93594443  0.30583742  1
  Si  Si18  1  0.69577110  0.43594443  0.19416258  1
  Si  Si19  1  0.30422890  0.06405557  0.69416258  1
  H  H20  1  0.66252563  0.72984500  0.99208618  1
  H  H21  1  0.33747437  0.77015500  0.49208618  1
  H  H22  1  0.33747437  0.27015500  0.00791382  1
  H  H23  1  0.66252563  0.22984500  0.50791382  1
  H  H24  1  0.52167739  0.75052186  0.97415800  1
  H  H25  1  0.47832261  0.74947814  0.47415800  1
  H  H26  1  0.47832261  0.24947814  0.02584200  1
  H  H27  1  0.52167739  0.25052186  0.52584200  1
  H  H28  1  0.81778502  0.00665685  0.05035695  1
  H  H29  1  0.18221498  0.49334315  0.55035695  1
  H  H30  1  0.18221498  0.99334315  0.94964305  1
  H  H31  1  0.81778502  0.50665685  0.44964305  1
  H  H32  1  0.82560697  0.13026714  0.99849577  1
  H  H33  1  0.17439303  0.36973286  0.49849577  1
  H  H34  1  0.17439303  0.86973286  0.00150423  1
  H  H35  1  0.82560697  0.63026714  0.50150423  1
  H  H36  1  0.68743205  0.04776654  0.04366095  1
  H  H37  1  0.31256795  0.45223346  0.54366095  1
  H  H38  1  0.31256795  0.95223346  0.95633905  1
  H  H39  1  0.68743205  0.54776654  0.45633905  1
  H  H40  1  0.83243539  0.91096499  0.84022973  1
  H  H41  1  0.16756461  0.58903501  0.34022973  1
  H  H42  1  0.16756461  0.08903501  0.15977027  1
  H  H43  1  0.83243539  0.41096499  0.65977027  1
  H  H44  1  0.90376781  0.06011614  0.87660615  1
  H  H45  1  0.09623219  0.43988386  0.37660615  1
  H  H46  1  0.09623219  0.93988386  0.12339385  1
  H  H47  1  0.90376781  0.56011614  0.62339385  1
  H  H48  1  0.91732408  0.93228304  0.91657579  1
  H  H49  1  0.08267592  0.56771696  0.41657579  1
  H  H50  1  0.08267592  0.06771696  0.08342421  1
  H  H51  1  0.91732408  0.43228304  0.58342421  1
  H  H52  1  0.59035463  0.44563247  0.83247431  1
  H  H53  1  0.40964537  0.05436753  0.33247431  1
  H  H54  1  0.40964537  0.55436753  0.16752569  1
  H  H55  1  0.59035463  0.94563247  0.66752569  1
  H  H56  1  0.59118941  0.45054925  0.92368384  1
  H  H57  1  0.40881059  0.04945075  0.42368384  1
  H  H58  1  0.40881059  0.54945075  0.07631616  1
  H  H59  1  0.59118941  0.95054925  0.57631616  1
  H  H60  1  0.88101996  0.72814454  0.80793999  1
  H  H61  1  0.11898004  0.77185546  0.30793999  1
  H  H62  1  0.11898004  0.27185546  0.19206001  1
  H  H63  1  0.88101996  0.22814454  0.69206001  1
  H  H64  1  0.98595720  0.65462814  0.80372386  1
  H  H65  1  0.01404280  0.84537186  0.30372386  1
  H  H66  1  0.01404280  0.34537186  0.19627614  1
  H  H67  1  0.98595720  0.15462814  0.69627614  1
  H  H68  1  0.84584311  0.59606984  0.75617576  1
  H  H69  1  0.15415689  0.90393016  0.25617576  1
  H  H70  1  0.15415689  0.40393016  0.24382424  1
  H  H71  1  0.84584311  0.09606984  0.74382424  1
  H  H72  1  0.79778296  0.33921015  0.82391159  1
  H  H73  1  0.20221704  0.16078985  0.32391159  1
  H  H74  1  0.20221704  0.66078985  0.17608841  1
  H  H75  1  0.79778296  0.83921015  0.67608841  1
  H  H76  1  0.93949434  0.41906166  0.86780642  1
  H  H77  1  0.06050566  0.08093834  0.36780642  1
  H  H78  1  0.06050566  0.58093834  0.13219358  1
  H  H79  1  0.93949434  0.91906166  0.63219358  1
  H  H80  1  0.80290241  0.33069347  0.91359944  1
  H  H81  1  0.19709759  0.16930653  0.41359944  1
  H  H82  1  0.19709759  0.66930653  0.08640056  1
  H  H83  1  0.80290241  0.83069347  0.58640056  1
  H  H84  1  0.83940357  0.55181792  0.00264644  1
  H  H85  1  0.16059643  0.94818208  0.50264644  1
  H  H86  1  0.16059643  0.44818208  0.99735356  1
  H  H87  1  0.83940357  0.05181792  0.49735356  1
  H  H88  1  0.98053650  0.63160247  0.95826806  1
  H  H89  1  0.01946350  0.86839753  0.45826806  1
  H  H90  1  0.01946350  0.36839753  0.04173194  1
  H  H91  1  0.98053650  0.13160247  0.54173194  1
  H  H92  1  0.87103394  0.69916958  0.96740803  1
  H  H93  1  0.12896606  0.80083042  0.46740803  1
  H  H94  1  0.12896606  0.30083042  0.03259197  1
  H  H95  1  0.87103394  0.19916958  0.53259197  1
  H  H96  1  0.51041728  0.60606250  0.75127062  1
  H  H97  1  0.48958272  0.89393750  0.25127062  1
  H  H98  1  0.48958272  0.39393750  0.24872938  1
  H  H99  1  0.51041728  0.10606250  0.74872938  1
  H  H100  1  0.49838693  0.74644800  0.77804050  1
  H  H101  1  0.50161307  0.75355200  0.27804050  1
  H  H102  1  0.50161307  0.25355200  0.22195950  1
  H  H103  1  0.49838693  0.24644800  0.72195950  1
  H  H104  1  0.26216943  0.74325555  0.84623500  1
  H  H105  1  0.73783057  0.75674445  0.34623500  1
  H  H106  1  0.73783057  0.25674445  0.15376500  1
  H  H107  1  0.26216943  0.24325555  0.65376500  1
  H  H108  1  0.15126589  0.60435775  0.88071869  1
  H  H109  1  0.84873411  0.89564225  0.38071869  1
  H  H110  1  0.84873411  0.39564225  0.11928131  1
  H  H111  1  0.15126589  0.10435775  0.61928131  1
  H  H112  1  0.30516703  0.67145773  0.91416820  1
  H  H113  1  0.69483297  0.82854227  0.41416820  1
  H  H114  1  0.69483297  0.32854227  0.08583180  1
  H  H115  1  0.30516703  0.17145773  0.58583180  1
  H  H116  1  0.66239289  0.09573424  0.87716940  1
  H  H117  1  0.33760711  0.40426576  0.37716940  1
  H  H118  1  0.33760711  0.90426576  0.12283060  1
  H  H119  1  0.66239289  0.59573424  0.62283060  1
  H  H120  1  0.57344165  0.94779946  0.84181088  1
  H  H121  1  0.42655835  0.55220054  0.34181088  1
  H  H122  1  0.42655835  0.05220054  0.15818912  1
  H  H123  1  0.57344165  0.44779946  0.65818912  1
  H  H124  1  0.52640758  0.98957629  0.91988589  1
  H  H125  1  0.47359242  0.51042371  0.41988589  1
  H  H126  1  0.47359242  0.01042371  0.08011411  1
  H  H127  1  0.52640758  0.48957629  0.58011411  1
  H  H128  1  0.09895710  0.47694347  0.74853304  1
  H  H129  1  0.90104290  0.02305653  0.24853304  1
  H  H130  1  0.90104290  0.52305653  0.25146696  1
  H  H131  1  0.09895710  0.97694347  0.75146696  1
  H  H132  1  0.19287985  0.61250026  0.70577187  1
  H  H133  1  0.80712015  0.88749974  0.20577187  1
  H  H134  1  0.80712015  0.38749974  0.29422813  1
  H  H135  1  0.19287985  0.11250026  0.79422813  1
  H  H136  1  0.21208575  0.47197989  0.69169745  1
  H  H137  1  0.78791425  0.02802011  0.19169745  1
  H  H138  1  0.78791425  0.52802011  0.30830255  1
  H  H139  1  0.21208575  0.97197989  0.80830255  1
  H  H140  1  0.31827544  0.41251552  0.89025384  1
  H  H141  1  0.68172456  0.08748448  0.39025384  1
  H  H142  1  0.68172456  0.58748448  0.10974616  1
  H  H143  1  0.31827544  0.91251552  0.60974616  1
  H  H144  1  0.30161266  0.35327526  0.80589070  1
  H  H145  1  0.69838734  0.14672474  0.30589070  1
  H  H146  1  0.69838734  0.64672474  0.19410930  1
  H  H147  1  0.30161266  0.85327526  0.69410930  1
  H  H148  1  0.16957424  0.35253382  0.85018366  1
  H  H149  1  0.83042576  0.14746618  0.35018366  1
  H  H150  1  0.83042576  0.64746618  0.14981634  1
  H  H151  1  0.16957424  0.85253382  0.64981634  1
  C  C152  1  0.61583071  0.76701783  0.95549574  1
  C  C153  1  0.38416929  0.73298217  0.45549574  1
  C  C154  1  0.38416929  0.23298217  0.04450426  1
  C  C155  1  0.61583071  0.26701783  0.54450426  1
  C  C156  1  0.60789627  0.99789144  0.88925760  1
  C  C157  1  0.39210373  0.50210856  0.38925760  1
  C  C158  1  0.39210373  0.00210856  0.11074240  1
  C  C159  1  0.60789627  0.49789144  0.61074240  1
  C  C160  1  0.76313163  0.03711586  0.01522730  1
  C  C161  1  0.23686837  0.46288414  0.51522730  1
  C  C162  1  0.23686837  0.96288414  0.98477270  1
  C  C163  1  0.76313163  0.53711586  0.48477270  1
  C  C164  1  0.85336760  0.96158494  0.88824337  1
  C  C165  1  0.14663240  0.53841506  0.38824337  1
  C  C166  1  0.14663240  0.03841506  0.11175663  1
  C  C167  1  0.85336760  0.46158494  0.61175663  1
  C  C168  1  0.63442971  0.50200617  0.87728244  1
  C  C169  1  0.36557029  0.99799383  0.37728244  1
  C  C170  1  0.36557029  0.49799383  0.12271756  1
  C  C171  1  0.63442971  0.00200617  0.62271756  1
  C  C172  1  0.88662419  0.63812671  0.80468125  1
  C  C173  1  0.11337581  0.86187329  0.30468125  1
  C  C174  1  0.11337581  0.36187329  0.19531875  1
  C  C175  1  0.88662419  0.13812671  0.69531875  1
  C  C176  1  0.83803411  0.39235021  0.86991386  1
  C  C177  1  0.16196589  0.10764979  0.36991386  1
  C  C178  1  0.16196589  0.60764979  0.13008614  1
  C  C179  1  0.83803411  0.89235021  0.63008614  1
  C  C180  1  0.88037318  0.61184438  0.95901684  1
  C  C181  1  0.11962682  0.88815562  0.45901684  1
  C  C182  1  0.11962682  0.38815562  0.04098316  1
  C  C183  1  0.88037318  0.11184438  0.54098316  1
  C  C184  1  0.47381914  0.64858135  0.79035276  1
  C  C185  1  0.52618086  0.85141865  0.29035276  1
  C  C186  1  0.52618086  0.35141865  0.20964724  1
  C  C187  1  0.47381914  0.14858135  0.70964724  1
  C  C188  1  0.25032791  0.65369427  0.86736211  1
  C  C189  1  0.74967209  0.84630573  0.36736211  1
  C  C190  1  0.74967209  0.34630573  0.13263789  1
  C  C191  1  0.25032791  0.15369427  0.63263789  1
  C  C192  1  0.19470062  0.52997007  0.73025485  1
  C  C193  1  0.80529938  0.97002993  0.23025485  1
  C  C194  1  0.80529938  0.47002993  0.26974515  1
  C  C195  1  0.19470062  0.02997007  0.76974515  1
  C  C196  1  0.27009533  0.40537800  0.84184642  1
  C  C197  1  0.72990467  0.09462200  0.34184642  1
  C  C198  1  0.72990467  0.59462200  0.15815358  1
  C  C199  1  0.27009533  0.90537800  0.65815358  1
