# generated using pymatgen
data_Th(WO4)2
_symmetry_space_group_name_H-M   'P 1'
_cell_length_a   9.93870727
_cell_length_b   10.52709655
_cell_length_c   14.82005742
_cell_angle_alpha   90.00000000
_cell_angle_beta   90.00000000
_cell_angle_gamma   90.00000000
_symmetry_Int_Tables_number   1
_chemical_formula_structural   Th(WO4)2
_chemical_formula_sum   'Th8 W16 O64'
_cell_volume   1550.55934123
_cell_formula_units_Z   8
loop_
 _symmetry_equiv_pos_site_id
 _symmetry_equiv_pos_as_xyz
  1  'x, y, z'
loop_
 _atom_site_type_symbol
 _atom_site_label
 _atom_site_symmetry_multiplicity
 _atom_site_fract_x
 _atom_site_fract_y
 _atom_site_fract_z
 _atom_site_occupancy
  Th  Th0  1  0.72425126  0.53440178  0.89079947  1
  Th  Th1  1  0.27574874  0.46559822  0.10920053  1
  Th  Th2  1  0.77574874  0.03440178  0.10920053  1
  Th  Th3  1  0.27574874  0.96559822  0.39079947  1
  Th  Th4  1  0.22425126  0.96559822  0.89079947  1
  Th  Th5  1  0.72425126  0.03440178  0.60920053  1
  Th  Th6  1  0.22425126  0.46559822  0.60920053  1
  Th  Th7  1  0.77574874  0.53440178  0.39079947  1
  W  W8  1  0.99882731  0.77598914  0.55964681  1
  W  W9  1  0.00117269  0.22401086  0.44035319  1
  W  W10  1  0.50117269  0.27598914  0.44035319  1
  W  W11  1  0.00117269  0.72401086  0.05964681  1
  W  W12  1  0.49882731  0.72401086  0.55964681  1
  W  W13  1  0.99882731  0.27598914  0.94035319  1
  W  W14  1  0.49882731  0.22401086  0.94035319  1
  W  W15  1  0.50117269  0.77598914  0.05964681  1
  W  W16  1  0.81836672  0.89517154  0.84816293  1
  W  W17  1  0.18163328  0.10482846  0.15183707  1
  W  W18  1  0.68163328  0.39517154  0.15183707  1
  W  W19  1  0.18163328  0.60482846  0.34816293  1
  W  W20  1  0.31836672  0.60482846  0.84816293  1
  W  W21  1  0.81836672  0.39517154  0.65183707  1
  W  W22  1  0.31836672  0.10482846  0.65183707  1
  W  W23  1  0.68163328  0.89517154  0.34816293  1
  O  O24  1  0.61100237  0.82545486  0.62384206  1
  O  O25  1  0.38899763  0.17454514  0.37615794  1
  O  O26  1  0.88899763  0.32545486  0.37615794  1
  O  O27  1  0.38899763  0.67454514  0.12384206  1
  O  O28  1  0.11100237  0.67454514  0.62384206  1
  O  O29  1  0.61100237  0.32545486  0.87615794  1
  O  O30  1  0.11100237  0.17454514  0.87615794  1
  O  O31  1  0.88899763  0.82545486  0.12384206  1
  O  O32  1  0.76341502  0.92894770  0.96242557  1
  O  O33  1  0.23658498  0.07105230  0.03757443  1
  O  O34  1  0.73658498  0.42894770  0.03757443  1
  O  O35  1  0.23658498  0.57105230  0.46242557  1
  O  O36  1  0.26341502  0.57105230  0.96242557  1
  O  O37  1  0.76341502  0.42894770  0.53757443  1
  O  O38  1  0.26341502  0.07105230  0.53757443  1
  O  O39  1  0.73658498  0.92894770  0.46242557  1
  O  O40  1  0.88229444  0.66968913  0.50379721  1
  O  O41  1  0.11770556  0.33031087  0.49620279  1
  O  O42  1  0.61770556  0.16968913  0.49620279  1
  O  O43  1  0.11770556  0.83031087  0.00379721  1
  O  O44  1  0.38229444  0.83031087  0.50379721  1
  O  O45  1  0.88229444  0.16968913  0.99620279  1
  O  O46  1  0.38229444  0.33031087  0.99620279  1
  O  O47  1  0.61770556  0.66968913  0.00379721  1
  O  O48  1  0.77111220  0.73291140  0.82218981  1
  O  O49  1  0.22888780  0.26708860  0.17781019  1
  O  O50  1  0.72888780  0.23291140  0.17781019  1
  O  O51  1  0.22888780  0.76708860  0.32218981  1
  O  O52  1  0.27111220  0.76708860  0.82218981  1
  O  O53  1  0.77111220  0.23291140  0.67781019  1
  O  O54  1  0.27111220  0.26708860  0.67781019  1
  O  O55  1  0.72888780  0.73291140  0.32218981  1
  O  O56  1  0.90743821  0.88964509  0.63050108  1
  O  O57  1  0.09256179  0.11035491  0.36949892  1
  O  O58  1  0.59256179  0.38964509  0.36949892  1
  O  O59  1  0.09256179  0.61035491  0.13050108  1
  O  O60  1  0.40743821  0.61035491  0.63050108  1
  O  O61  1  0.90743821  0.38964509  0.86949892  1
  O  O62  1  0.40743821  0.11035491  0.86949892  1
  O  O63  1  0.59256179  0.88964509  0.13050108  1
  O  O64  1  0.73663686  0.50165913  0.73050152  1
  O  O65  1  0.26336314  0.49834087  0.26949848  1
  O  O66  1  0.76336314  0.00165913  0.26949848  1
  O  O67  1  0.26336314  0.99834087  0.23050152  1
  O  O68  1  0.23663686  0.99834087  0.73050152  1
  O  O69  1  0.73663686  0.00165913  0.76949848  1
  O  O70  1  0.23663686  0.49834087  0.76949848  1
  O  O71  1  0.76336314  0.50165913  0.23050152  1
  O  O72  1  0.90744105  0.63881514  0.97400601  1
  O  O73  1  0.09255895  0.36118486  0.02599399  1
  O  O74  1  0.59255895  0.13881514  0.02599399  1
  O  O75  1  0.09255895  0.86118486  0.47400601  1
  O  O76  1  0.40744105  0.86118486  0.97400601  1
  O  O77  1  0.90744105  0.13881514  0.52599399  1
  O  O78  1  0.40744105  0.36118486  0.52599399  1
  O  O79  1  0.59255895  0.63881514  0.47400601  1
  O  O80  1  0.99904969  0.91783808  0.84420209  1
  O  O81  1  0.00095031  0.08216192  0.15579791  1
  O  O82  1  0.50095031  0.41783808  0.15579791  1
  O  O83  1  0.00095031  0.58216192  0.34420209  1
  O  O84  1  0.49904969  0.58216192  0.84420209  1
  O  O85  1  0.99904969  0.41783808  0.65579791  1
  O  O86  1  0.49904969  0.08216192  0.65579791  1
  O  O87  1  0.50095031  0.91783808  0.34420209  1
