# generated using pymatgen
data_Sr2YbCu2(BiO4)2
_symmetry_space_group_name_H-M   'P 1'
_cell_length_a   3.72877389
_cell_length_b   3.72877389
_cell_length_c   15.91360664
_cell_angle_alpha   96.72804061
_cell_angle_beta   96.72804061
_cell_angle_gamma   90.00000000
_symmetry_Int_Tables_number   1
_chemical_formula_structural   Sr2YbCu2(BiO4)2
_chemical_formula_sum   'Sr2 Yb1 Cu2 Bi2 O8'
_cell_volume   218.20081478
_cell_formula_units_Z   1
loop_
 _symmetry_equiv_pos_site_id
 _symmetry_equiv_pos_as_xyz
  1  'x, y, z'
loop_
 _atom_site_type_symbol
 _atom_site_label
 _atom_site_symmetry_multiplicity
 _atom_site_fract_x
 _atom_site_fract_y
 _atom_site_fract_z
 _atom_site_occupancy
  Sr  Sr0  1  0.10831489  0.10831489  0.21662978  1
  Sr  Sr1  1  0.89168511  0.89168511  0.78337022  1
  Yb  Yb2  1  0.00000000  0.00000000  0.00000000  1
  Cu  Cu3  1  0.45480871  0.45480871  0.90961742  1
  Cu  Cu4  1  0.54519129  0.54519129  0.09038258  1
  Bi  Bi5  1  0.30023790  0.30023790  0.60047580  1
  Bi  Bi6  1  0.69976210  0.69976210  0.39952420  1
  O  O7  1  0.04948098  0.54948098  0.09896197  1
  O  O8  1  0.95051902  0.45051902  0.90103803  1
  O  O9  1  0.54948098  0.04948098  0.09896197  1
  O  O10  1  0.45051902  0.95051902  0.90103803  1
  O  O11  1  0.19916802  0.19916802  0.39833604  1
  O  O12  1  0.80083198  0.80083198  0.60166396  1
  O  O13  1  0.36594307  0.36594307  0.73188614  1
  O  O14  1  0.63405693  0.63405693  0.26811386  1
