# generated using pymatgen
data_ZnH6
_symmetry_space_group_name_H-M   'P 1'
_cell_length_a   5.75903344
_cell_length_b   11.85307919
_cell_length_c   8.19701382
_cell_angle_alpha   90.00000000
_cell_angle_beta   90.00000000
_cell_angle_gamma   90.00000000
_symmetry_Int_Tables_number   1
_chemical_formula_structural   ZnH6
_chemical_formula_sum   'Zn4 H24'
_cell_volume   559.54684781
_cell_formula_units_Z   4
loop_
 _symmetry_equiv_pos_site_id
 _symmetry_equiv_pos_as_xyz
  1  'x, y, z'
loop_
 _atom_site_type_symbol
 _atom_site_label
 _atom_site_symmetry_multiplicity
 _atom_site_fract_x
 _atom_site_fract_y
 _atom_site_fract_z
 _atom_site_occupancy
  Zn  Zn0  1  0.86199468  0.85012357  0.75072907  1
  Zn  Zn1  1  0.13800532  0.14987643  0.25072907  1
  Zn  Zn2  1  0.13800532  0.35012357  0.75072907  1
  Zn  Zn3  1  0.86199468  0.64987643  0.25072907  1
  H  H4  1  0.82638458  0.91473821  0.59028368  1
  H  H5  1  0.17361542  0.08526179  0.09028368  1
  H  H6  1  0.17361542  0.41473821  0.59028368  1
  H  H7  1  0.82638458  0.58526179  0.09028368  1
  H  H8  1  0.43646781  0.87474509  0.74657369  1
  H  H9  1  0.56353219  0.12525491  0.24657369  1
  H  H10  1  0.56353219  0.37474509  0.74657369  1
  H  H11  1  0.43646781  0.62525491  0.24657369  1
  H  H12  1  0.90244908  0.78486650  0.91052352  1
  H  H13  1  0.09755092  0.21513350  0.41052352  1
  H  H14  1  0.09755092  0.28486650  0.91052352  1
  H  H15  1  0.90244908  0.71513350  0.41052352  1
  H  H16  1  0.25613954  0.54854341  0.89909893  1
  H  H17  1  0.74386046  0.45145659  0.39909893  1
  H  H18  1  0.74386046  0.04854341  0.89909893  1
  H  H19  1  0.25613954  0.95145659  0.39909893  1
  H  H20  1  0.82959375  0.01408608  0.94872995  1
  H  H21  1  0.17040625  0.98591392  0.44872995  1
  H  H22  1  0.17040625  0.51408608  0.94872995  1
  H  H23  1  0.82959375  0.48591392  0.44872995  1
  H  H24  1  0.40596365  0.83804776  0.81906116  1
  H  H25  1  0.59403635  0.16195224  0.31906116  1
  H  H26  1  0.59403635  0.33804776  0.81906116  1
  H  H27  1  0.40596365  0.66195224  0.31906116  1
