# generated using pymatgen
data_Sr3Fe2Ag2S2O5
_symmetry_space_group_name_H-M   'P 1'
_cell_length_a   4.02193013
_cell_length_b   4.02193013
_cell_length_c   14.17649038
_cell_angle_alpha   98.15503580
_cell_angle_beta   98.15503580
_cell_angle_gamma   90.00000000
_symmetry_Int_Tables_number   1
_chemical_formula_structural   Sr3Fe2Ag2S2O5
_chemical_formula_sum   'Sr3 Fe2 Ag2 S2 O5'
_cell_volume   224.65607927
_cell_formula_units_Z   1
loop_
 _symmetry_equiv_pos_site_id
 _symmetry_equiv_pos_as_xyz
  1  'x, y, z'
loop_
 _atom_site_type_symbol
 _atom_site_label
 _atom_site_symmetry_multiplicity
 _atom_site_fract_x
 _atom_site_fract_y
 _atom_site_fract_z
 _atom_site_occupancy
  Sr  Sr0  1  0.36477994  0.36477994  0.72955987  1
  Sr  Sr1  1  0.63522006  0.63522006  0.27044013  1
  Sr  Sr2  1  0.50000000  0.50000000  -0.00000000  1
  Fe  Fe3  1  0.06899887  0.06899887  0.13799773  1
  Fe  Fe4  1  0.93100113  0.93100113  0.86200227  1
  Ag  Ag5  1  0.25000000  0.75000000  0.50000000  1
  Ag  Ag6  1  0.75000000  0.25000000  0.50000000  1
  S  S7  1  0.18514545  0.18514545  0.37029089  1
  S  S8  1  0.81485455  0.81485455  0.62970911  1
  O  O9  1  -0.00000000  -0.00000000  -0.00000000  1
  O  O10  1  0.07846684  0.57846684  0.15693369  1
  O  O11  1  0.92153316  0.42153316  0.84306631  1
  O  O12  1  0.57846684  0.07846684  0.15693369  1
  O  O13  1  0.42153316  0.92153316  0.84306631  1
