# generated using pymatgen
data_K3TaO2F7
_symmetry_space_group_name_H-M   'P 1'
_cell_length_a   7.24531731
_cell_length_b   9.76680669
_cell_length_c   14.06719825
_cell_angle_alpha   90.00000000
_cell_angle_beta   90.00000000
_cell_angle_gamma   90.00000000
_symmetry_Int_Tables_number   1
_chemical_formula_structural   K3TaO2F7
_chemical_formula_sum   'K12 Ta4 O8 F28'
_cell_volume   995.44578104
_cell_formula_units_Z   4
loop_
 _symmetry_equiv_pos_site_id
 _symmetry_equiv_pos_as_xyz
  1  'x, y, z'
loop_
 _atom_site_type_symbol
 _atom_site_label
 _atom_site_symmetry_multiplicity
 _atom_site_fract_x
 _atom_site_fract_y
 _atom_site_fract_z
 _atom_site_occupancy
  K  K0  1  0.26542968  0.75000000  0.17335955  1
  K  K1  1  0.76542968  0.75000000  0.32664045  1
  K  K2  1  0.73457032  0.25000000  0.82664045  1
  K  K3  1  0.23457032  0.25000000  0.67335955  1
  K  K4  1  0.28244631  0.98380772  0.84803244  1
  K  K5  1  0.78244631  0.51619228  0.65196756  1
  K  K6  1  0.71755369  0.48380772  0.15196756  1
  K  K7  1  0.21755369  0.01619228  0.34803244  1
  K  K8  1  0.71755369  0.01619228  0.15196756  1
  K  K9  1  0.21755369  0.48380772  0.34803244  1
  K  K10  1  0.28244631  0.51619228  0.84803244  1
  K  K11  1  0.78244631  0.98380772  0.65196756  1
  Ta  Ta12  1  0.21101197  0.75000000  0.57197232  1
  Ta  Ta13  1  0.71101197  0.75000000  0.92802768  1
  Ta  Ta14  1  0.78898803  0.25000000  0.42802768  1
  Ta  Ta15  1  0.28898803  0.25000000  0.07197232  1
  O  O16  1  0.48709473  0.81923664  0.55552819  1
  O  O17  1  0.98709473  0.68076336  0.94447181  1
  O  O18  1  0.51290527  0.31923664  0.44447181  1
  O  O19  1  0.01290527  0.18076336  0.05552819  1
  O  O20  1  0.51290527  0.18076336  0.44447181  1
  O  O21  1  0.01290527  0.31923664  0.05552819  1
  O  O22  1  0.48709473  0.68076336  0.55552819  1
  O  O23  1  0.98709473  0.81923664  0.94447181  1
  F  F24  1  0.94428019  0.75000000  0.58717599  1
  F  F25  1  0.44428019  0.75000000  0.91282401  1
  F  F26  1  0.05571981  0.25000000  0.41282401  1
  F  F27  1  0.55571981  0.25000000  0.08717599  1
  F  F28  1  0.25420103  0.75000000  0.70669061  1
  F  F29  1  0.75420103  0.75000000  0.79330939  1
  F  F30  1  0.74579897  0.25000000  0.29330939  1
  F  F31  1  0.24579897  0.25000000  0.20669061  1
  F  F32  1  0.16628107  0.94723252  0.56774532  1
  F  F33  1  0.66628107  0.55276748  0.93225468  1
  F  F34  1  0.83371893  0.44723252  0.43225468  1
  F  F35  1  0.33371893  0.05276748  0.06774532  1
  F  F36  1  0.83371893  0.05276748  0.43225468  1
  F  F37  1  0.33371893  0.44723252  0.06774532  1
  F  F38  1  0.16628107  0.55276748  0.56774532  1
  F  F39  1  0.66628107  0.94723252  0.93225468  1
  F  F40  1  0.19571113  0.75000000  0.43462760  1
  F  F41  1  0.69571113  0.75000000  0.06537240  1
  F  F42  1  0.80428887  0.25000000  0.56537240  1
  F  F43  1  0.30428887  0.25000000  0.93462760  1
  F  F44  1  0.50111407  0.41436722  0.72873069  1
  F  F45  1  0.00111407  0.08563278  0.77126931  1
  F  F46  1  0.49888593  0.91436722  0.27126931  1
  F  F47  1  0.99888593  0.58563278  0.22873069  1
  F  F48  1  0.49888593  0.58563278  0.27126931  1
  F  F49  1  0.99888593  0.91436722  0.22873069  1
  F  F50  1  0.50111407  0.08563278  0.72873069  1
  F  F51  1  0.00111407  0.41436722  0.77126931  1
