# generated using pymatgen
data_Sr4Cr3O10
_symmetry_space_group_name_H-M   'P 1'
_cell_length_a   3.87229939
_cell_length_b   3.87229939
_cell_length_c   14.45735447
_cell_angle_alpha   97.69625646
_cell_angle_beta   97.69625646
_cell_angle_gamma   90.00000000
_symmetry_Int_Tables_number   1
_chemical_formula_structural   Sr4Cr3O10
_chemical_formula_sum   'Sr4 Cr3 O10'
_cell_volume   212.86021929
_cell_formula_units_Z   1
loop_
 _symmetry_equiv_pos_site_id
 _symmetry_equiv_pos_as_xyz
  1  'x, y, z'
loop_
 _atom_site_type_symbol
 _atom_site_label
 _atom_site_symmetry_multiplicity
 _atom_site_fract_x
 _atom_site_fract_y
 _atom_site_fract_z
 _atom_site_occupancy
  Sr  Sr0  1  0.29745943  0.29745943  0.59491886  1
  Sr  Sr1  1  0.70254057  0.70254057  0.40508114  1
  Sr  Sr2  1  0.43271605  0.43271605  0.86543211  1
  Sr  Sr3  1  0.56728395  0.56728395  0.13456789  1
  Cr  Cr4  1  0.13929455  0.13929455  0.27858909  1
  Cr  Cr5  1  0.86070545  0.86070545  0.72141091  1
  Cr  Cr6  1  0.00000000  0.00000000  0.00000000  1
  O  O7  1  0.20865329  0.20865329  0.41730657  1
  O  O8  1  0.79134671  0.79134671  0.58269343  1
  O  O9  1  0.13617375  0.63617375  0.27234749  1
  O  O10  1  0.86382625  0.36382625  0.72765251  1
  O  O11  1  0.63617375  0.13617375  0.27234749  1
  O  O12  1  0.36382625  0.86382625  0.72765251  1
  O  O13  1  0.06606463  0.06606463  0.13212927  1
  O  O14  1  0.93393537  0.93393537  0.86787073  1
  O  O15  1  0.00000000  0.50000000  0.00000000  1
  O  O16  1  0.50000000  0.00000000  0.00000000  1
