# generated using pymatgen
data_Yb3(Co2Sn)4
_symmetry_space_group_name_H-M   'P 1'
_cell_length_a   7.52873310
_cell_length_b   8.86550144
_cell_length_c   8.86550144
_cell_angle_alpha   119.99999940
_cell_angle_beta   90.00000000
_cell_angle_gamma   90.00000000
_symmetry_Int_Tables_number   1
_chemical_formula_structural   Yb3(Co2Sn)4
_chemical_formula_sum   'Yb6 Co16 Sn8'
_cell_volume   512.45902375
_cell_formula_units_Z   2
loop_
 _symmetry_equiv_pos_site_id
 _symmetry_equiv_pos_as_xyz
  1  'x, y, z'
loop_
 _atom_site_type_symbol
 _atom_site_label
 _atom_site_symmetry_multiplicity
 _atom_site_fract_x
 _atom_site_fract_y
 _atom_site_fract_z
 _atom_site_occupancy
  Yb  Yb0  1  0.78222305  0.47461485  0.94922970  1
  Yb  Yb1  1  0.78222305  0.47461485  0.52538515  1
  Yb  Yb2  1  0.28222305  0.52538515  0.05077030  1
  Yb  Yb3  1  0.78222305  0.05077030  0.52538515  1
  Yb  Yb4  1  0.28222305  0.52538515  0.47461485  1
  Yb  Yb5  1  0.28222305  0.94922970  0.47461485  1
  Co  Co6  1  0.94530277  0.84178124  0.68356248  1
  Co  Co7  1  0.94530277  0.84178124  0.15821876  1
  Co  Co8  1  0.44530277  0.15821876  0.31643752  1
  Co  Co9  1  0.94530277  0.31643752  0.15821876  1
  Co  Co10  1  0.44530277  0.15821876  0.84178124  1
  Co  Co11  1  0.44530277  0.68356248  0.84178124  1
  Co  Co12  1  0.74926519  0.09645165  0.19290330  1
  Co  Co13  1  0.74926519  0.09645165  0.90354835  1
  Co  Co14  1  0.24926519  0.90354835  0.80709670  1
  Co  Co15  1  0.74926519  0.80709670  0.90354835  1
  Co  Co16  1  0.24926519  0.90354835  0.09645165  1
  Co  Co17  1  0.24926519  0.19290330  0.09645165  1
  Co  Co18  1  0.62576699  0.66666700  0.33333300  1
  Co  Co19  1  0.12576699  0.33333300  0.66666700  1
  Co  Co20  1  0.99617254  -0.00000000  -0.00000000  1
  Co  Co21  1  0.49617254  -0.00000000  -0.00000000  1
  Sn  Sn22  1  0.57040548  0.82750946  0.65501892  1
  Sn  Sn23  1  0.57040548  0.82750946  0.17249054  1
  Sn  Sn24  1  0.07040548  0.17249054  0.34498108  1
  Sn  Sn25  1  0.57040548  0.34498108  0.17249054  1
  Sn  Sn26  1  0.07040548  0.17249054  0.82750946  1
  Sn  Sn27  1  0.07040548  0.65501892  0.82750946  1
  Sn  Sn28  1  0.96587104  0.66666700  0.33333300  1
  Sn  Sn29  1  0.46587104  0.33333300  0.66666700  1
