# generated using pymatgen
data_Mg4(MoO4)3
_symmetry_space_group_name_H-M   'P 1'
_cell_length_a   5.24082460
_cell_length_b   10.74400557
_cell_length_c   17.35153875
_cell_angle_alpha   90.00000000
_cell_angle_beta   90.00000000
_cell_angle_gamma   90.00000000
_symmetry_Int_Tables_number   1
_chemical_formula_structural   Mg4(MoO4)3
_chemical_formula_sum   'Mg16 Mo12 O48'
_cell_volume   977.02087792
_cell_formula_units_Z   4
loop_
 _symmetry_equiv_pos_site_id
 _symmetry_equiv_pos_as_xyz
  1  'x, y, z'
loop_
 _atom_site_type_symbol
 _atom_site_label
 _atom_site_symmetry_multiplicity
 _atom_site_fract_x
 _atom_site_fract_y
 _atom_site_fract_z
 _atom_site_occupancy
  Mg  Mg0  1  0.07895203  0.25000000  0.25031244  1
  Mg  Mg1  1  0.92104797  0.75000000  0.74968756  1
  Mg  Mg2  1  0.42104797  0.75000000  0.75031244  1
  Mg  Mg3  1  0.57895203  0.25000000  0.24968756  1
  Mg  Mg4  1  0.23277865  0.07152299  0.52689859  1
  Mg  Mg5  1  0.76722135  0.92847701  0.47310141  1
  Mg  Mg6  1  0.26722135  0.92847701  0.02689859  1
  Mg  Mg7  1  0.76722135  0.57152299  0.47310141  1
  Mg  Mg8  1  0.73277865  0.07152299  0.97310141  1
  Mg  Mg9  1  0.23277865  0.42847701  0.52689859  1
  Mg  Mg10  1  0.73277865  0.42847701  0.97310141  1
  Mg  Mg11  1  0.26722135  0.57152299  0.02689859  1
  Mg  Mg12  1  0.25613520  0.25000000  0.69711142  1
  Mg  Mg13  1  0.74386480  0.75000000  0.30288858  1
  Mg  Mg14  1  0.24386480  0.75000000  0.19711142  1
  Mg  Mg15  1  0.75613520  0.25000000  0.80288858  1
  Mo  Mo16  1  0.29539096  0.53387087  0.33424141  1
  Mo  Mo17  1  0.70460904  0.46612913  0.66575859  1
  Mo  Mo18  1  0.20460904  0.46612913  0.83424141  1
  Mo  Mo19  1  0.70460904  0.03387087  0.66575859  1
  Mo  Mo20  1  0.79539096  0.53387087  0.16575859  1
  Mo  Mo21  1  0.29539096  0.96612913  0.33424141  1
  Mo  Mo22  1  0.79539096  0.96612913  0.16575859  1
  Mo  Mo23  1  0.20460904  0.03387087  0.83424141  1
  Mo  Mo24  1  0.27048589  0.25000000  0.05483495  1
  Mo  Mo25  1  0.72951411  0.75000000  0.94516505  1
  Mo  Mo26  1  0.22951411  0.75000000  0.55483495  1
  Mo  Mo27  1  0.77048589  0.25000000  0.44516505  1
  O  O28  1  0.05589249  0.25000000  0.50591700  1
  O  O29  1  0.94410751  0.75000000  0.49408300  1
  O  O30  1  0.44410751  0.75000000  0.00591700  1
  O  O31  1  0.55589249  0.25000000  0.99408300  1
  O  O32  1  0.07917606  0.11485544  0.03668092  1
  O  O33  1  0.92082394  0.88514456  0.96331908  1
  O  O34  1  0.42082394  0.88514456  0.53668092  1
  O  O35  1  0.92082394  0.61485544  0.96331908  1
  O  O36  1  0.57917606  0.11485544  0.46331908  1
  O  O37  1  0.07917606  0.38514456  0.03668092  1
  O  O38  1  0.57917606  0.38514456  0.46331908  1
  O  O39  1  0.42082394  0.61485544  0.53668092  1
  O  O40  1  0.09179517  0.00194127  0.42363145  1
  O  O41  1  0.90820483  0.99805873  0.57636855  1
  O  O42  1  0.40820483  0.99805873  0.92363145  1
  O  O43  1  0.90820483  0.50194127  0.57636855  1
  O  O44  1  0.59179517  0.00194127  0.07636855  1
  O  O45  1  0.09179517  0.49805873  0.42363145  1
  O  O46  1  0.59179517  0.49805873  0.07636855  1
  O  O47  1  0.40820483  0.50194127  0.92363145  1
  O  O48  1  0.32860371  0.12221808  0.29130606  1
  O  O49  1  0.67139629  0.87778192  0.70869394  1
  O  O50  1  0.17139629  0.87778192  0.79130606  1
  O  O51  1  0.67139629  0.62221808  0.70869394  1
  O  O52  1  0.82860371  0.12221808  0.20869394  1
  O  O53  1  0.32860371  0.37778192  0.29130606  1
  O  O54  1  0.82860371  0.37778192  0.20869394  1
  O  O55  1  0.17139629  0.62221808  0.79130606  1
  O  O56  1  0.33561620  0.25000000  0.15581275  1
  O  O57  1  0.66438380  0.75000000  0.84418725  1
  O  O58  1  0.16438380  0.75000000  0.65581275  1
  O  O59  1  0.83561620  0.25000000  0.34418725  1
  O  O60  1  0.04497393  0.62625826  0.27593014  1
  O  O61  1  0.95502607  0.37374174  0.72406986  1
  O  O62  1  0.45502607  0.37374174  0.77593014  1
  O  O63  1  0.95502607  0.12625826  0.72406986  1
  O  O64  1  0.54497393  0.62625826  0.22406986  1
  O  O65  1  0.04497393  0.87374174  0.27593014  1
  O  O66  1  0.54497393  0.87374174  0.22406986  1
  O  O67  1  0.45502607  0.12625826  0.77593014  1
  O  O68  1  0.05994722  0.62278968  0.12040964  1
  O  O69  1  0.94005278  0.37721032  0.87959036  1
  O  O70  1  0.44005278  0.37721032  0.62040964  1
  O  O71  1  0.94005278  0.12278968  0.87959036  1
  O  O72  1  0.55994722  0.62278968  0.37959036  1
  O  O73  1  0.05994722  0.87721032  0.12040964  1
  O  O74  1  0.55994722  0.87721032  0.37959036  1
  O  O75  1  0.44005278  0.12278968  0.62040964  1
