# generated using pymatgen
data_Sr2La3Ti2O10
_symmetry_space_group_name_H-M   'P 1'
_cell_length_a   5.60028800
_cell_length_b   6.88365245
_cell_length_c   12.38238119
_cell_angle_alpha   94.31937382
_cell_angle_beta   90.04739301
_cell_angle_gamma   89.98038867
_symmetry_Int_Tables_number   1
_chemical_formula_structural   Sr2La3Ti2O10
_chemical_formula_sum   'Sr4 La6 Ti4 O20'
_cell_volume   475.99021961
_cell_formula_units_Z   2
loop_
 _symmetry_equiv_pos_site_id
 _symmetry_equiv_pos_as_xyz
  1  'x, y, z'
loop_
 _atom_site_type_symbol
 _atom_site_label
 _atom_site_symmetry_multiplicity
 _atom_site_fract_x
 _atom_site_fract_y
 _atom_site_fract_z
 _atom_site_occupancy
  Sr  Sr0  1  0.74997228  0.68523286  0.54609905  1
  Sr  Sr1  1  0.25005756  0.31478900  0.45416111  1
  Sr  Sr2  1  0.74995715  0.18522543  0.65235188  1
  Sr  Sr3  1  0.25003559  0.81487722  0.34783809  1
  La  La4  1  0.74991264  0.41223690  0.94180681  1
  La  La5  1  0.25003382  0.58761102  0.05804026  1
  La  La6  1  0.75011566  0.44253297  0.25558410  1
  La  La7  1  0.24992355  0.55755011  0.74436391  1
  La  La8  1  0.74982296  0.96701238  0.10216488  1
  La  La9  1  0.25001902  0.03268102  0.89708209  1
  Ti  Ti10  1  0.74997324  0.04892120  0.39271550  1
  Ti  Ti11  1  0.25004591  0.95110787  0.60729449  1
  Ti  Ti12  1  0.75006278  0.80979301  0.81678857  1
  Ti  Ti13  1  0.24991582  0.19044342  0.18307251  1
  O  O14  1  0.74990057  0.34434607  0.45060903  1
  O  O15  1  0.25012712  0.65551711  0.54929726  1
  O  O16  1  0.74996934  0.52442684  0.74113262  1
  O  O17  1  0.25001661  0.47511573  0.25888070  1
  O  O18  1  0.74994347  0.76182950  0.34665826  1
  O  O19  1  0.25006582  0.23843475  0.65331068  1
  O  O20  1  0.75026036  0.63767024  0.10920950  1
  O  O21  1  0.24979886  0.36224539  0.89080208  1
  O  O22  1  0.75023963  0.07736563  0.89167398  1
  O  O23  1  0.24983660  0.92298486  0.10863509  1
  O  O24  1  0.00579478  0.88893026  0.71762812  1
  O  O25  1  0.99432231  0.11109006  0.28233481  1
  O  O26  1  0.50549099  0.11107498  0.28229920  1
  O  O27  1  0.49440531  0.88898465  0.71766930  1
  O  O28  1  0.99977163  0.72739768  0.91671434  1
  O  O29  1  0.00023264  0.27253289  0.08350093  1
  O  O30  1  0.49989504  0.27258569  0.08343655  1
  O  O31  1  0.50006734  0.72744085  0.91679676  1
  O  O32  1  -0.00002174  0.00001121  0.50002483  1
  O  O33  1  0.50003533  0.00000121  0.50002273  1
