# generated using pymatgen
data_Sm5Si3NO12
_symmetry_space_group_name_H-M   'P 1'
_cell_length_a   6.99613095
_cell_length_b   9.64503768
_cell_length_c   9.64503768
_cell_angle_alpha   119.99999842
_cell_angle_beta   90.00000000
_cell_angle_gamma   90.00000000
_symmetry_Int_Tables_number   1
_chemical_formula_structural   Sm5Si3NO12
_chemical_formula_sum   'Sm10 Si6 N2 O24'
_cell_volume   563.63301696
_cell_formula_units_Z   2
loop_
 _symmetry_equiv_pos_site_id
 _symmetry_equiv_pos_as_xyz
  1  'x, y, z'
loop_
 _atom_site_type_symbol
 _atom_site_label
 _atom_site_symmetry_multiplicity
 _atom_site_fract_x
 _atom_site_fract_y
 _atom_site_fract_z
 _atom_site_occupancy
  Sm  Sm0  1  0.99928237  0.66666700  0.33333300  1
  Sm  Sm1  1  0.00071763  0.33333300  0.66666700  1
  Sm  Sm2  1  0.49928237  0.33333300  0.66666700  1
  Sm  Sm3  1  0.50071763  0.66666700  0.33333300  1
  Sm  Sm4  1  0.75000000  0.77097854  0.00132461  1
  Sm  Sm5  1  0.25000000  0.22902146  0.99867539  1
  Sm  Sm6  1  0.75000000  0.23034607  0.22902146  1
  Sm  Sm7  1  0.25000000  0.76965393  0.77097854  1
  Sm  Sm8  1  0.75000000  0.99867539  0.76965393  1
  Sm  Sm9  1  0.25000000  0.00132461  0.23034607  1
  Si  Si10  1  0.75000000  0.59304745  0.62724466  1
  Si  Si11  1  0.25000000  0.40695255  0.37275534  1
  Si  Si12  1  0.75000000  0.03419721  0.40695255  1
  Si  Si13  1  0.25000000  0.96580279  0.59304745  1
  Si  Si14  1  0.75000000  0.37275534  0.96580279  1
  Si  Si15  1  0.25000000  0.62724466  0.03419721  1
  N  N16  1  0.75000000  -0.00000000  -0.00000000  1
  N  N17  1  0.25000000  -0.00000000  -0.00000000  1
  O  O18  1  0.75000000  0.83989114  0.33313926  1
  O  O19  1  0.25000000  0.16010886  0.66686074  1
  O  O20  1  0.75000000  0.49324812  0.16010886  1
  O  O21  1  0.25000000  0.50675188  0.83989114  1
  O  O22  1  0.75000000  0.66686074  0.50675188  1
  O  O23  1  0.25000000  0.33313926  0.49324812  1
  O  O24  1  0.75000000  0.39573399  0.53172923  1
  O  O25  1  0.25000000  0.60426601  0.46827077  1
  O  O26  1  0.75000000  0.13599524  0.60426601  1
  O  O27  1  0.25000000  0.86400476  0.39573399  1
  O  O28  1  0.75000000  0.46827077  0.86400476  1
  O  O29  1  0.25000000  0.53172923  0.13599524  1
  O  O30  1  0.94029667  0.64746165  0.74354036  1
  O  O31  1  0.05970333  0.35253835  0.25645964  1
  O  O32  1  0.94029667  0.09607871  0.35253835  1
  O  O33  1  0.44029667  0.35253835  0.25645964  1
  O  O34  1  0.05970333  0.90392129  0.64746165  1
  O  O35  1  0.55970333  0.64746165  0.74354036  1
  O  O36  1  0.94029667  0.25645964  0.90392129  1
  O  O37  1  0.44029667  0.90392129  0.64746165  1
  O  O38  1  0.05970333  0.74354036  0.09607871  1
  O  O39  1  0.55970333  0.09607871  0.35253835  1
  O  O40  1  0.44029667  0.74354036  0.09607871  1
  O  O41  1  0.55970333  0.25645964  0.90392129  1
