# generated using pymatgen
data_RbTmI3
_symmetry_space_group_name_H-M   'P 1'
_cell_length_a   4.32160098
_cell_length_b   10.24571280
_cell_length_c   17.96622497
_cell_angle_alpha   90.00000000
_cell_angle_beta   90.00000000
_cell_angle_gamma   90.00000000
_symmetry_Int_Tables_number   1
_chemical_formula_structural   RbTmI3
_chemical_formula_sum   'Rb4 Tm4 I12'
_cell_volume   795.50639778
_cell_formula_units_Z   4
loop_
 _symmetry_equiv_pos_site_id
 _symmetry_equiv_pos_as_xyz
  1  'x, y, z'
loop_
 _atom_site_type_symbol
 _atom_site_label
 _atom_site_symmetry_multiplicity
 _atom_site_fract_x
 _atom_site_fract_y
 _atom_site_fract_z
 _atom_site_occupancy
  Rb  Rb0  1  0.75000000  0.57041257  0.32757690  1
  Rb  Rb1  1  0.25000000  0.42958743  0.67242310  1
  Rb  Rb2  1  0.25000000  0.92958743  0.82757690  1
  Rb  Rb3  1  0.75000000  0.07041257  0.17242310  1
  Tm  Tm4  1  0.75000000  0.87795832  0.54271212  1
  Tm  Tm5  1  0.25000000  0.12204168  0.45728788  1
  Tm  Tm6  1  0.25000000  0.62204168  0.04271212  1
  Tm  Tm7  1  0.75000000  0.37795832  0.95728788  1
  I  I8  1  0.75000000  0.95330993  0.37625551  1
  I  I9  1  0.25000000  0.04669007  0.62374449  1
  I  I10  1  0.25000000  0.54669007  0.87625551  1
  I  I11  1  0.75000000  0.45330993  0.12374449  1
  I  I12  1  0.75000000  0.82430972  0.99725320  1
  I  I13  1  0.25000000  0.17569028  0.00274680  1
  I  I14  1  0.25000000  0.67569028  0.49725320  1
  I  I15  1  0.75000000  0.32430972  0.50274680  1
  I  I16  1  0.75000000  0.72978503  0.69398602  1
  I  I17  1  0.25000000  0.27021497  0.30601398  1
  I  I18  1  0.25000000  0.77021497  0.19398602  1
  I  I19  1  0.75000000  0.22978503  0.80601398  1
