# generated using pymatgen
data_Sr2CaNbO6
_symmetry_space_group_name_H-M   'P 1'
_cell_length_a   8.27781977
_cell_length_b   8.27781977
_cell_length_c   8.64406345
_cell_angle_alpha   90.00000000
_cell_angle_beta   90.00000000
_cell_angle_gamma   90.00000000
_symmetry_Int_Tables_number   1
_chemical_formula_structural   Sr2CaNbO6
_chemical_formula_sum   'Sr8 Ca4 Nb4 O24'
_cell_volume   592.31111019
_cell_formula_units_Z   4
loop_
 _symmetry_equiv_pos_site_id
 _symmetry_equiv_pos_as_xyz
  1  'x, y, z'
loop_
 _atom_site_type_symbol
 _atom_site_label
 _atom_site_symmetry_multiplicity
 _atom_site_fract_x
 _atom_site_fract_y
 _atom_site_fract_z
 _atom_site_occupancy
  Sr  Sr0  1  0.24990736  0.25003779  0.24777157  1
  Sr  Sr1  1  0.75009264  0.74996221  0.24777157  1
  Sr  Sr2  1  0.25003779  0.75009264  0.75222843  1
  Sr  Sr3  1  0.74996221  0.24990736  0.75222843  1
  Sr  Sr4  1  0.25016513  0.75072478  0.24824656  1
  Sr  Sr5  1  0.74983487  0.24927522  0.24824656  1
  Sr  Sr6  1  0.75072478  0.74983487  0.75175344  1
  Sr  Sr7  1  0.24927522  0.25016513  0.75175344  1
  Ca  Ca8  1  -0.00000000  0.50000000  0.00108664  1
  Ca  Ca9  1  0.50000000  0.00000000  0.99891336  1
  Ca  Ca10  1  0.50000000  0.50000000  0.50000000  1
  Ca  Ca11  1  0.00000000  0.00000000  0.50000000  1
  Nb  Nb12  1  0.00000000  0.00000000  -0.00000000  1
  Nb  Nb13  1  0.50000000  0.50000000  -0.00000000  1
  Nb  Nb14  1  0.00000000  0.50000000  0.50083280  1
  Nb  Nb15  1  0.50000000  0.00000000  0.49916720  1
  O  O16  1  0.26916332  0.07911728  0.49716236  1
  O  O17  1  0.73083668  0.92088272  0.49716236  1
  O  O18  1  0.07911728  0.73083668  0.50283764  1
  O  O19  1  0.92088272  0.26916332  0.50283764  1
  O  O20  1  0.00000000  0.50000000  0.73534686  1
  O  O21  1  0.50000000  0.00000000  0.26465314  1
  O  O22  1  0.00000000  0.00000000  0.23466337  1
  O  O23  1  0.00000000  0.00000000  0.76533663  1
  O  O24  1  0.26792852  0.42635622  0.99998665  1
  O  O25  1  0.73207148  0.57364378  0.99998665  1
  O  O26  1  0.42635622  0.73207148  0.00001335  1
  O  O27  1  0.57364378  0.26792852  0.00001335  1
  O  O28  1  0.23120829  0.07522774  0.99874427  1
  O  O29  1  0.76879171  0.92477226  0.99874427  1
  O  O30  1  0.07522774  0.76879171  0.00125573  1
  O  O31  1  0.92477226  0.23120829  0.00125573  1
  O  O32  1  0.50000000  0.50000000  0.23411235  1
  O  O33  1  0.50000000  0.50000000  0.76588765  1
  O  O34  1  0.00000000  0.50000000  0.26803304  1
  O  O35  1  0.50000000  0.00000000  0.73196696  1
  O  O36  1  0.23069913  0.42093620  0.50177482  1
  O  O37  1  0.76930087  0.57906380  0.50177482  1
  O  O38  1  0.42093620  0.76930087  0.49822518  1
  O  O39  1  0.57906380  0.23069913  0.49822518  1
