# generated using pymatgen
data_NaNd(Si2O5)3
_symmetry_space_group_name_H-M   'P 1'
_cell_length_a   7.16269599
_cell_length_b   7.52961882
_cell_length_c   16.12807642
_cell_angle_alpha   103.49921191
_cell_angle_beta   90.00000000
_cell_angle_gamma   90.00000000
_symmetry_Int_Tables_number   1
_chemical_formula_structural   NaNd(Si2O5)3
_chemical_formula_sum   'Na2 Nd2 Si12 O30'
_cell_volume   845.79484171
_cell_formula_units_Z   2
loop_
 _symmetry_equiv_pos_site_id
 _symmetry_equiv_pos_as_xyz
  1  'x, y, z'
loop_
 _atom_site_type_symbol
 _atom_site_label
 _atom_site_symmetry_multiplicity
 _atom_site_fract_x
 _atom_site_fract_y
 _atom_site_fract_z
 _atom_site_occupancy
  Na  Na0  1  0.02821567  0.37665244  0.75330489  1
  Na  Na1  1  0.02821567  0.62334756  0.24669511  1
  Nd  Nd2  1  0.99756416  0.86982328  0.73964657  1
  Nd  Nd3  1  0.99756416  0.13017672  0.26035343  1
  Si  Si4  1  0.49752008  0.91667270  0.83334539  1
  Si  Si5  1  0.49752008  0.08332730  0.16665461  1
  Si  Si6  1  0.75527358  0.24140041  0.90085310  1
  Si  Si7  1  0.75527358  0.75859959  0.09914690  1
  Si  Si8  1  0.75527358  0.34054731  0.09914690  1
  Si  Si9  1  0.75527358  0.65945269  0.90085310  1
  Si  Si10  1  0.59343755  0.81834527  0.63669054  1
  Si  Si11  1  0.59343755  0.18165473  0.36330946  1
  Si  Si12  1  0.28922140  0.09057762  0.59468400  1
  Si  Si13  1  0.28922140  0.90942238  0.40531600  1
  Si  Si14  1  0.28922140  0.49589362  0.40531600  1
  Si  Si15  1  0.28922140  0.50410638  0.59468400  1
  O  O16  1  0.61592121  0.87100809  0.74201618  1
  O  O17  1  0.61592121  0.12899191  0.25798382  1
  O  O18  1  0.56262083  0.11944606  0.88507142  1
  O  O19  1  0.56262083  0.88055394  0.11492858  1
  O  O20  1  0.56262083  0.23437464  0.11492858  1
  O  O21  1  0.56262083  0.76562536  0.88507142  1
  O  O22  1  0.82113995  0.25914368  1.00000000  1
  O  O23  1  0.82113995  0.74085632  0.00000000  1
  O  O24  1  0.91384953  0.15574748  0.83194280  1
  O  O25  1  0.91384953  0.84425252  0.16805720  1
  O  O26  1  0.91384953  0.32380468  0.16805720  1
  O  O27  1  0.91384953  0.67619532  0.83194280  1
  O  O28  1  0.69586468  0.44458747  0.88917495  1
  O  O29  1  0.69586468  0.55541253  0.11082505  1
  O  O30  1  0.13819398  0.08243647  0.66837692  1
  O  O31  1  0.13819398  0.91756353  0.33162308  1
  O  O32  1  0.13819398  0.41405955  0.33162308  1
  O  O33  1  0.13819398  0.58594045  0.66837692  1
  O  O34  1  0.48145304  0.98109546  0.60773741  1
  O  O35  1  0.48145304  0.01890454  0.39226259  1
  O  O36  1  0.48145304  0.37335805  0.39226259  1
  O  O37  1  0.48145304  0.62664195  0.60773741  1
  O  O38  1  0.20601543  0.00000000  0.50000000  1
  O  O39  1  0.20601543  0.50000000  0.50000000  1
  O  O40  1  0.35631852  0.29941075  0.59882151  1
  O  O41  1  0.35631852  0.70058925  0.40117849  1
  O  O42  1  0.27652477  0.90712498  0.81424996  1
  O  O43  1  0.27652477  0.09287502  0.18575004  1
  O  O44  1  0.80975323  0.80351582  0.60703164  1
  O  O45  1  0.80975323  0.19648418  0.39296836  1
