# generated using pymatgen
data_NaFe2(PO4)2
_symmetry_space_group_name_H-M   'P 1'
_cell_length_a   5.14564405
_cell_length_b   9.04864604
_cell_length_c   8.95458291
_cell_angle_alpha   97.10925725
_cell_angle_beta   101.55617850
_cell_angle_gamma   104.69509418
_symmetry_Int_Tables_number   1
_chemical_formula_structural   NaFe2(PO4)2
_chemical_formula_sum   'Na2 Fe4 P4 O16'
_cell_volume   388.35945816
_cell_formula_units_Z   2
loop_
 _symmetry_equiv_pos_site_id
 _symmetry_equiv_pos_as_xyz
  1  'x, y, z'
loop_
 _atom_site_type_symbol
 _atom_site_label
 _atom_site_symmetry_multiplicity
 _atom_site_fract_x
 _atom_site_fract_y
 _atom_site_fract_z
 _atom_site_occupancy
  Na  Na0  1  0.42091650  0.69943733  0.18984458  1
  Na  Na1  1  0.57908350  0.30056267  0.81015542  1
  Fe  Fe2  1  0.31657617  0.10038421  0.37726557  1
  Fe  Fe3  1  0.68342383  0.89961579  0.62273443  1
  Fe  Fe4  1  0.78511331  0.40065251  0.23908751  1
  Fe  Fe5  1  0.21488669  0.59934749  0.76091249  1
  P  P6  1  0.08846459  0.74761441  0.44843194  1
  P  P7  1  0.91153541  0.25238559  0.55156806  1
  P  P8  1  0.17840763  0.26981450  0.07413293  1
  P  P9  1  0.82159237  0.73018550  0.92586707  1
  O  O10  1  0.16686506  0.14632840  0.17744523  1
  O  O11  1  0.83313494  0.85367160  0.82255477  1
  O  O12  1  0.20873470  0.22356723  0.91342302  1
  O  O13  1  0.79126530  0.77643277  0.08657698  1
  O  O14  1  0.74215594  0.26153892  0.38583266  1
  O  O15  1  0.25784406  0.73846108  0.61416734  1
  O  O16  1  0.18840008  0.22366419  0.54541585  1
  O  O17  1  0.81159992  0.77633581  0.45458415  1
  O  O18  1  0.70435058  0.12268063  0.60153270  1
  O  O19  1  0.29564942  0.87731937  0.39846730  1
  O  O20  1  0.90890064  0.32729756  0.06754459  1
  O  O21  1  0.09109936  0.67270244  0.93245541  1
  O  O22  1  0.05094361  0.59223647  0.33867364  1
  O  O23  1  0.94905639  0.40776353  0.66132636  1
  O  O24  1  0.42891472  0.42035090  0.16632440  1
  O  O25  1  0.57108528  0.57964910  0.83367560  1
