# generated using pymatgen
data_La(SeO4)3
_symmetry_space_group_name_H-M   'P 1'
_cell_length_a   6.34355688
_cell_length_b   9.85158109
_cell_length_c   9.85158109
_cell_angle_alpha   119.99999692
_cell_angle_beta   90.00000000
_cell_angle_gamma   90.00000000
_symmetry_Int_Tables_number   1
_chemical_formula_structural   La(SeO4)3
_chemical_formula_sum   'La2 Se6 O24'
_cell_volume   533.18184916
_cell_formula_units_Z   2
loop_
 _symmetry_equiv_pos_site_id
 _symmetry_equiv_pos_as_xyz
  1  'x, y, z'
loop_
 _atom_site_type_symbol
 _atom_site_label
 _atom_site_symmetry_multiplicity
 _atom_site_fract_x
 _atom_site_fract_y
 _atom_site_fract_z
 _atom_site_occupancy
  La  La0  1  0.75000000  0.66666700  0.33333300  1
  La  La1  1  0.25000000  0.33333300  0.66666700  1
  Se  Se2  1  0.75000000  0.60987042  0.70177152  1
  Se  Se3  1  0.25000000  0.39012958  0.29822848  1
  Se  Se4  1  0.75000000  0.09190111  0.39012958  1
  Se  Se5  1  0.25000000  0.90809889  0.60987042  1
  Se  Se6  1  0.75000000  0.29822848  0.90809889  1
  Se  Se7  1  0.25000000  0.70177152  0.09190111  1
  O  O8  1  0.75000000  0.96244071  0.45191929  1
  O  O9  1  0.25000000  0.03755929  0.54808071  1
  O  O10  1  0.75000000  0.48947858  0.03755929  1
  O  O11  1  0.25000000  0.51052142  0.96244071  1
  O  O12  1  0.75000000  0.54808071  0.51052142  1
  O  O13  1  0.25000000  0.45191929  0.48947858  1
  O  O14  1  0.75000000  0.80478862  0.81545720  1
  O  O15  1  0.25000000  0.19521138  0.18454280  1
  O  O16  1  0.75000000  0.01066858  0.19521138  1
  O  O17  1  0.25000000  0.98933142  0.80478862  1
  O  O18  1  0.75000000  0.18454280  0.98933142  1
  O  O19  1  0.25000000  0.81545720  0.01066858  1
  O  O20  1  0.96326149  0.54288288  0.75056764  1
  O  O21  1  0.03673851  0.45711712  0.24943236  1
  O  O22  1  0.96326149  0.20768475  0.45711712  1
  O  O23  1  0.46326149  0.45711712  0.24943236  1
  O  O24  1  0.03673851  0.79231525  0.54288288  1
  O  O25  1  0.53673851  0.54288288  0.75056764  1
  O  O26  1  0.96326149  0.24943236  0.79231525  1
  O  O27  1  0.46326149  0.79231525  0.54288288  1
  O  O28  1  0.03673851  0.75056764  0.20768475  1
  O  O29  1  0.53673851  0.20768475  0.45711712  1
  O  O30  1  0.46326149  0.75056764  0.20768475  1
  O  O31  1  0.53673851  0.24943236  0.79231525  1
