# generated using pymatgen
data_Mg7(SiO3)8
_symmetry_space_group_name_H-M   'P 1'
_cell_length_a   5.36205971
_cell_length_b   9.94817528
_cell_length_c   10.35796609
_cell_angle_alpha   113.18774916
_cell_angle_beta   95.64731413
_cell_angle_gamma   109.51677978
_symmetry_Int_Tables_number   1
_chemical_formula_structural   Mg7(SiO3)8
_chemical_formula_sum   'Mg7 Si8 O24'
_cell_volume   461.53966491
_cell_formula_units_Z   1
loop_
 _symmetry_equiv_pos_site_id
 _symmetry_equiv_pos_as_xyz
  1  'x, y, z'
loop_
 _atom_site_type_symbol
 _atom_site_label
 _atom_site_symmetry_multiplicity
 _atom_site_fract_x
 _atom_site_fract_y
 _atom_site_fract_z
 _atom_site_occupancy
  Mg  Mg0  1  0.24440568  0.74440568  0.48881137  1
  Mg  Mg1  1  0.75559432  0.25559432  0.51118863  1
  Mg  Mg2  1  0.82169142  0.82169142  0.64338283  1
  Mg  Mg3  1  0.17830858  0.17830858  0.35661717  1
  Mg  Mg4  1  0.00000000  0.00000000  0.00000000  1
  Mg  Mg5  1  0.40827858  0.90827858  0.81655717  1
  Mg  Mg6  1  0.59172142  0.09172142  0.18344283  1
  Si  Si7  1  0.92852483  0.20284299  0.83198352  1
  Si  Si8  1  0.07147517  0.79715701  0.16801648  1
  Si  Si9  1  0.90345869  0.62914053  0.83198352  1
  Si  Si10  1  0.09654131  0.37085947  0.16801648  1
  Si  Si11  1  0.65161589  0.87153399  0.33943479  1
  Si  Si12  1  0.34838411  0.12846601  0.66056521  1
  Si  Si13  1  0.68781890  0.46790080  0.33943479  1
  Si  Si14  1  0.31218110  0.53209920  0.66056521  1
  O  O15  1  0.32698569  0.76911000  0.23827458  1
  O  O16  1  0.67301431  0.23089000  0.76172542  1
  O  O17  1  0.91128888  0.46916458  0.23827458  1
  O  O18  1  0.08871112  0.53083542  0.76172542  1
  O  O19  1  0.07231620  0.34224457  1.00000000  1
  O  O20  1  0.92768380  0.65775543  0.00000000  1
  O  O21  1  0.40874550  0.09342772  0.00000000  1
  O  O22  1  0.59125450  0.90657228  1.00000000  1
  O  O23  1  0.15144054  0.21693781  0.73524058  1
  O  O24  1  0.84855946  0.78306219  0.26475942  1
  O  O25  1  0.58380004  0.51830277  0.73524058  1
  O  O26  1  0.41619996  0.48169723  0.26475942  1
  O  O27  1  0.63166805  0.86374423  0.49072507  1
  O  O28  1  0.36833195  0.13625577  0.50927493  1
  O  O29  1  0.85905701  0.62698084  0.49072507  1
  O  O30  1  0.14094299  0.37301916  0.50927493  1
  O  O31  1  0.81828575  0.02537714  0.82485973  1
  O  O32  1  0.18171425  0.97462286  0.17514027  1
  O  O33  1  0.00657398  0.79948259  0.82485973  1
  O  O34  1  0.99342602  0.20051741  0.17514027  1
  O  O35  1  0.76739561  0.05245543  0.34993110  1
  O  O36  1  0.23260439  0.94754457  0.65006890  1
  O  O37  1  0.58253550  0.29747567  0.34993110  1
  O  O38  1  0.41746450  0.70252433  0.65006890  1
