# generated using pymatgen
data_CsSmI3
_symmetry_space_group_name_H-M   'P 1'
_cell_length_a   8.70625521
_cell_length_b   12.42452329
_cell_length_c   17.62940210
_cell_angle_alpha   90.00000000
_cell_angle_beta   90.00000000
_cell_angle_gamma   90.00000000
_symmetry_Int_Tables_number   1
_chemical_formula_structural   CsSmI3
_chemical_formula_sum   'Cs8 Sm8 I24'
_cell_volume   1906.99129964
_cell_formula_units_Z   8
loop_
 _symmetry_equiv_pos_site_id
 _symmetry_equiv_pos_as_xyz
  1  'x, y, z'
loop_
 _atom_site_type_symbol
 _atom_site_label
 _atom_site_symmetry_multiplicity
 _atom_site_fract_x
 _atom_site_fract_y
 _atom_site_fract_z
 _atom_site_occupancy
  Cs  Cs0  1  0.50000000  0.27197457  0.50000000  1
  Cs  Cs1  1  0.50000000  0.72802543  0.50000000  1
  Cs  Cs2  1  0.50000000  0.26156230  -0.00000000  1
  Cs  Cs3  1  0.50000000  0.73843770  -0.00000000  1
  Cs  Cs4  1  -0.00000000  0.24549046  0.23524452  1
  Cs  Cs5  1  -0.00000000  0.75450954  0.76475548  1
  Cs  Cs6  1  -0.00000000  0.75450954  0.23524452  1
  Cs  Cs7  1  -0.00000000  0.24549046  0.76475548  1
  Sm  Sm8  1  -0.00000000  0.00000000  0.50000000  1
  Sm  Sm9  1  0.50000000  0.50000000  0.24914637  1
  Sm  Sm10  1  0.50000000  0.50000000  0.75085363  1
  Sm  Sm11  1  -0.00000000  0.50000000  0.50000000  1
  Sm  Sm12  1  0.50000000  0.00000000  0.25004234  1
  Sm  Sm13  1  0.50000000  0.00000000  0.74995766  1
  Sm  Sm14  1  -0.00000000  0.50000000  -0.00000000  1
  Sm  Sm15  1  -0.00000000  0.00000000  -0.00000000  1
  I  I16  1  0.25104363  0.50000000  0.12402115  1
  I  I17  1  0.74895637  0.50000000  0.87597885  1
  I  I18  1  0.74895637  0.50000000  0.12402115  1
  I  I19  1  0.25104363  0.50000000  0.87597885  1
  I  I20  1  -0.00000000  0.25007188  0.50000000  1
  I  I21  1  -0.00000000  0.74992812  0.50000000  1
  I  I22  1  0.24900943  0.00000000  0.37398284  1
  I  I23  1  0.75099057  0.00000000  0.62601716  1
  I  I24  1  0.75099057  0.00000000  0.37398284  1
  I  I25  1  0.24900943  0.00000000  0.62601716  1
  I  I26  1  -0.00000000  0.24995851  -0.00000000  1
  I  I27  1  -0.00000000  0.75004149  -0.00000000  1
  I  I28  1  0.25129445  0.00000000  0.12442038  1
  I  I29  1  0.74870555  0.00000000  0.87557962  1
  I  I30  1  0.74870555  0.00000000  0.12442038  1
  I  I31  1  0.25129445  0.00000000  0.87557962  1
  I  I32  1  0.24858460  0.50000000  0.37343589  1
  I  I33  1  0.75141540  0.50000000  0.62656411  1
  I  I34  1  0.75141540  0.50000000  0.37343589  1
  I  I35  1  0.24858460  0.50000000  0.62656411  1
  I  I36  1  0.50000000  0.25013873  0.24794562  1
  I  I37  1  0.50000000  0.74986127  0.75205438  1
  I  I38  1  0.50000000  0.74986127  0.24794562  1
  I  I39  1  0.50000000  0.25013873  0.75205438  1
