# generated using pymatgen
data_La5Si3O13
_symmetry_space_group_name_H-M   'P 1'
_cell_length_a   7.29692323
_cell_length_b   9.82248669
_cell_length_c   9.82248670
_cell_angle_alpha   120.00000339
_cell_angle_beta   90.00000000
_cell_angle_gamma   90.00000000
_symmetry_Int_Tables_number   1
_chemical_formula_structural   La5Si3O13
_chemical_formula_sum   'La10 Si6 O26'
_cell_volume   609.69592486
_cell_formula_units_Z   2
loop_
 _symmetry_equiv_pos_site_id
 _symmetry_equiv_pos_as_xyz
  1  'x, y, z'
loop_
 _atom_site_type_symbol
 _atom_site_label
 _atom_site_symmetry_multiplicity
 _atom_site_fract_x
 _atom_site_fract_y
 _atom_site_fract_z
 _atom_site_occupancy
  La  La0  1  0.00481138  0.66666700  0.33333300  1
  La  La1  1  0.99518862  0.33333300  0.66666700  1
  La  La2  1  0.75065100  0.75719701  0.98829448  1
  La  La3  1  0.24934900  0.24280299  0.01170552  1
  La  La4  1  0.75065100  0.23109747  0.24280299  1
  La  La5  1  0.24934900  0.76890253  0.75719701  1
  La  La6  1  0.75065100  0.01170552  0.76890253  1
  La  La7  1  0.24934900  0.98829448  0.23109747  1
  La  La8  1  0.49553590  0.66666700  0.33333300  1
  La  La9  1  0.50446410  0.33333300  0.66666700  1
  Si  Si10  1  0.74908370  0.96990775  0.37014359  1
  Si  Si11  1  0.25091630  0.03009225  0.62985641  1
  Si  Si12  1  0.74908370  0.40023584  0.03009225  1
  Si  Si13  1  0.25091630  0.59976416  0.96990775  1
  Si  Si14  1  0.74908370  0.62985641  0.59976416  1
  Si  Si15  1  0.25091630  0.37014359  0.40023584  1
  O  O16  1  0.74886408  0.51627672  0.67840471  1
  O  O17  1  0.25113592  0.48372328  0.32159529  1
  O  O18  1  0.74886408  0.16212799  0.48372328  1
  O  O19  1  0.25113592  0.83787201  0.51627672  1
  O  O20  1  0.74886408  0.32159529  0.83787201  1
  O  O21  1  0.25113592  0.67840471  0.16212799  1
  O  O22  1  0.75502464  0.00000000  0.00000000  1
  O  O23  1  0.24497536  0.00000000  0.00000000  1
  O  O24  1  0.74825145  0.87591505  0.47017726  1
  O  O25  1  0.25174855  0.12408495  0.52982274  1
  O  O26  1  0.74825145  0.59426221  0.12408495  1
  O  O27  1  0.25174855  0.40573779  0.87591505  1
  O  O28  1  0.74825145  0.52982274  0.40573779  1
  O  O29  1  0.25174855  0.47017726  0.59426221  1
  O  O30  1  0.56916500  0.90927566  0.25216991  1
  O  O31  1  0.43083500  0.09072434  0.74783009  1
  O  O32  1  0.56916500  0.34289426  0.09072434  1
  O  O33  1  0.43083500  0.65710574  0.90927566  1
  O  O34  1  0.56916500  0.74783009  0.65710574  1
  O  O35  1  0.43083500  0.25216991  0.34289426  1
  O  O36  1  0.93105390  0.91099043  0.25450664  1
  O  O37  1  0.06894610  0.08900957  0.74549336  1
  O  O38  1  0.93105390  0.34351621  0.08900957  1
  O  O39  1  0.06894610  0.65648379  0.91099043  1
  O  O40  1  0.93105390  0.74549336  0.65648379  1
  O  O41  1  0.06894610  0.25450664  0.34351621  1
