# generated using pymatgen
data_CuH12C6(S2N)2
_symmetry_space_group_name_H-M   'P 1'
_cell_length_a   9.06915513
_cell_length_b   10.98188724
_cell_length_c   15.82708882
_cell_angle_alpha   88.03594538
_cell_angle_beta   85.23889045
_cell_angle_gamma   65.61196745
_symmetry_Int_Tables_number   1
_chemical_formula_structural   CuH12C6(S2N)2
_chemical_formula_sum   'Cu4 H48 C24 S16 N8'
_cell_volume   1430.71251521
_cell_formula_units_Z   4
loop_
 _symmetry_equiv_pos_site_id
 _symmetry_equiv_pos_as_xyz
  1  'x, y, z'
loop_
 _atom_site_type_symbol
 _atom_site_label
 _atom_site_symmetry_multiplicity
 _atom_site_fract_x
 _atom_site_fract_y
 _atom_site_fract_z
 _atom_site_occupancy
  Cu  Cu0  1  0.22268903  0.75145288  0.13081070  1
  Cu  Cu1  1  0.02585809  0.75145288  0.36918930  1
  Cu  Cu2  1  0.77731097  0.24854712  0.86918930  1
  Cu  Cu3  1  0.97414191  0.24854712  0.63081070  1
  H  H4  1  0.36421283  0.91262481  0.37047728  1
  H  H5  1  0.72316236  0.91262481  0.12952272  1
  H  H6  1  0.63578717  0.08737519  0.62952272  1
  H  H7  1  0.27683764  0.08737519  0.87047728  1
  H  H8  1  0.38976715  0.06638608  0.36608453  1
  H  H9  1  0.54384677  0.06638608  0.13391547  1
  H  H10  1  0.61023285  0.93361392  0.63391547  1
  H  H11  1  0.45615323  0.93361392  0.86608453  1
  H  H12  1  0.20203925  0.06500590  0.40892368  1
  H  H13  1  0.73295486  0.06500590  0.09107632  1
  H  H14  1  0.79796075  0.93499410  0.59107632  1
  H  H15  1  0.26704514  0.93499410  0.90892368  1
  H  H16  1  0.12151287  0.19879897  0.19134260  1
  H  H17  1  0.67968816  0.19879897  0.30865740  1
  H  H18  1  0.87848713  0.80120103  0.80865740  1
  H  H19  1  0.32031184  0.80120103  0.69134260  1
  H  H20  1  0.05723552  0.23636502  0.30178392  1
  H  H21  1  0.70639946  0.23636502  0.19821608  1
  H  H22  1  0.94276448  0.76363498  0.69821608  1
  H  H23  1  0.29360054  0.76363498  0.80178392  1
  H  H24  1  0.24467882  0.23736252  0.26003694  1
  H  H25  1  0.51795866  0.23736252  0.23996306  1
  H  H26  1  0.75532118  0.76263748  0.73996306  1
  H  H27  1  0.48204134  0.76263748  0.76003694  1
  H  H28  1  0.36403904  0.29933635  0.05840154  1
  H  H29  1  0.33662461  0.29933635  0.44159846  1
  H  H30  1  0.63596096  0.70066365  0.94159846  1
  H  H31  1  0.66337539  0.70066365  0.55840154  1
  H  H32  1  0.24275587  0.26591253  0.98587279  1
  H  H33  1  0.49133160  0.26591253  0.51412721  1
  H  H34  1  0.75724413  0.73408747  0.01412721  1
  H  H35  1  0.50866840  0.73408747  0.48587279  1
  H  H36  1  0.43829317  0.25922211  0.94965830  1
  H  H37  1  0.30248472  0.25922211  0.55034170  1
  H  H38  1  0.56170683  0.74077789  0.05034170  1
  H  H39  1  0.69751528  0.74077789  0.44965830  1
  H  H40  1  0.14976277  0.58566944  0.87403320  1
  H  H41  1  0.26456779  0.58566944  0.62596680  1
  H  H42  1  0.85023723  0.41433056  0.12596680  1
  H  H43  1  0.73543221  0.41433056  0.37403320  1
  H  H44  1  0.31109185  0.42924195  0.84005608  1
  H  H45  1  0.25966620  0.42924195  0.65994392  1
  H  H46  1  0.68890815  0.57075805  0.15994392  1
  H  H47  1  0.74033380  0.57075805  0.34005608  1
  H  H48  1  0.11689085  0.43482271  0.87619815  1
  H  H49  1  0.44828645  0.43482271  0.62380185  1
  H  H50  1  0.88310915  0.56517729  0.12380185  1
  H  H51  1  0.55171355  0.56517729  0.37619815  1
  C  C52  1  0.24483477  0.94975819  0.22671642  1
  C  C53  1  0.80540704  0.94975819  0.27328358  1
  C  C54  1  0.75516523  0.05024181  0.77328358  1
  C  C55  1  0.19459296  0.05024181  0.72671642  1
  C  C56  1  0.30365704  0.02056975  0.36056204  1
  C  C57  1  0.67577320  0.02056975  0.13943796  1
  C  C58  1  0.69634296  0.97943025  0.63943796  1
  C  C59  1  0.32422680  0.97943025  0.86056204  1
  C  C60  1  0.16182299  0.18812082  0.25554398  1
  C  C61  1  0.65005618  0.18812082  0.24445602  1
  C  C62  1  0.83817701  0.81187918  0.74445602  1
  C  C63  1  0.34994382  0.81187918  0.75554398  1
  C  C64  1  0.23917278  0.54897028  0.02486711  1
  C  C65  1  0.21185694  0.54897028  0.47513289  1
  C  C66  1  0.76082722  0.45102972  0.97513289  1
  C  C67  1  0.78814306  0.45102972  0.52486711  1
  C  C68  1  0.32979013  0.31036290  0.99300650  1
  C  C69  1  0.35984697  0.31036290  0.50699350  1
  C  C70  1  0.67020987  0.68963710  0.00699350  1
  C  C71  1  0.64015303  0.68963710  0.49300650  1
  C  C72  1  0.20470697  0.47772847  0.88515390  1
  C  C73  1  0.31756456  0.47772847  0.61484610  1
  C  C74  1  0.79529303  0.52227153  0.11484610  1
  C  C75  1  0.68243544  0.52227153  0.38515390  1
  S  S76  1  0.32178045  0.78345284  0.25531378  1
  S  S77  1  0.89476671  0.78345284  0.24468622  1
  S  S78  1  0.67821955  0.21654716  0.74468622  1
  S  S79  1  0.10523329  0.21654716  0.75531378  1
  S  S80  1  0.16702703  0.97900844  0.12881775  1
  S  S81  1  0.85396454  0.97900844  0.37118225  1
  S  S82  1  0.83297297  0.02099156  0.87118225  1
  S  S83  1  0.14603546  0.02099156  0.62881775  1
  S  S84  1  0.15262582  0.71622768  0.99882530  1
  S  S85  1  0.13114650  0.71622768  0.50117470  1
  S  S86  1  0.84737418  0.28377232  0.00117470  1
  S  S87  1  0.86885350  0.28377232  0.49882530  1
  S  S88  1  0.30126014  0.52045030  0.12640383  1
  S  S89  1  0.17828955  0.52045030  0.37359617  1
  S  S90  1  0.69873986  0.47954970  0.87359617  1
  S  S91  1  0.82171045  0.47954970  0.62640383  1
  N  N92  1  0.24309702  0.04680923  0.27645020  1
  N  N93  1  0.71009375  0.04680923  0.22354980  1
  N  N94  1  0.75690298  0.95319077  0.72354980  1
  N  N95  1  0.28990625  0.95319077  0.77645020  1
  N  N96  1  0.25543522  0.45170493  0.97130084  1
  N  N97  1  0.29285984  0.45170493  0.52869916  1
  N  N98  1  0.74456478  0.54829507  0.02869916  1
  N  N99  1  0.70714016  0.54829507  0.47130084  1
