# generated using pymatgen
data_Cs2SbF5
_symmetry_space_group_name_H-M   'P 1'
_cell_length_a   6.70169975
_cell_length_b   8.50460027
_cell_length_c   13.05683101
_cell_angle_alpha   90.00000000
_cell_angle_beta   90.00000000
_cell_angle_gamma   90.00000000
_symmetry_Int_Tables_number   1
_chemical_formula_structural   Cs2SbF5
_chemical_formula_sum   'Cs8 Sb4 F20'
_cell_volume   744.17770673
_cell_formula_units_Z   4
loop_
 _symmetry_equiv_pos_site_id
 _symmetry_equiv_pos_as_xyz
  1  'x, y, z'
loop_
 _atom_site_type_symbol
 _atom_site_label
 _atom_site_symmetry_multiplicity
 _atom_site_fract_x
 _atom_site_fract_y
 _atom_site_fract_z
 _atom_site_occupancy
  Cs  Cs0  1  0.75000000  0.49862843  0.27707364  1
  Cs  Cs1  1  0.25000000  0.50137157  0.72292636  1
  Cs  Cs2  1  0.25000000  0.00137157  0.77707364  1
  Cs  Cs3  1  0.75000000  0.99862843  0.22292636  1
  Cs  Cs4  1  0.75000000  0.84071064  0.58063240  1
  Cs  Cs5  1  0.25000000  0.15928936  0.41936760  1
  Cs  Cs6  1  0.25000000  0.65928936  0.08063240  1
  Cs  Cs7  1  0.75000000  0.34071064  0.91936760  1
  Sb  Sb8  1  0.75000000  0.82753827  0.93594389  1
  Sb  Sb9  1  0.25000000  0.17246173  0.06405611  1
  Sb  Sb10  1  0.25000000  0.67246173  0.43594389  1
  Sb  Sb11  1  0.75000000  0.32753827  0.56405611  1
  F  F12  1  0.75000000  0.68447081  0.08560315  1
  F  F13  1  0.25000000  0.31552919  0.91439685  1
  F  F14  1  0.25000000  0.81552919  0.58560315  1
  F  F15  1  0.75000000  0.18447081  0.41439685  1
  F  F16  1  0.97610575  0.68342228  0.87517040  1
  F  F17  1  0.02389425  0.31657772  0.12482960  1
  F  F18  1  0.02389425  0.81657772  0.37517040  1
  F  F19  1  0.47610575  0.31657772  0.12482960  1
  F  F20  1  0.97610575  0.18342228  0.62482960  1
  F  F21  1  0.52389425  0.68342228  0.87517040  1
  F  F22  1  0.52389425  0.18342228  0.62482960  1
  F  F23  1  0.47610575  0.81657772  0.37517040  1
  F  F24  1  -0.00000000  0.00000000  -0.00000000  1
  F  F25  1  -0.00000000  0.50000000  0.50000000  1
  F  F26  1  0.50000000  0.00000000  -0.00000000  1
  F  F27  1  0.50000000  0.50000000  0.50000000  1
  F  F28  1  0.75000000  0.96144024  0.79993186  1
  F  F29  1  0.25000000  0.03855976  0.20006814  1
  F  F30  1  0.25000000  0.53855976  0.29993186  1
  F  F31  1  0.75000000  0.46144024  0.70006814  1
