# generated using pymatgen
data_Cs2O3
_symmetry_space_group_name_H-M   'P 1'
_cell_length_a   8.56121565
_cell_length_b   8.56121565
_cell_length_c   8.56121565
_cell_angle_alpha   109.47122063
_cell_angle_beta   109.47122063
_cell_angle_gamma   109.47122063
_symmetry_Int_Tables_number   1
_chemical_formula_structural   Cs2O3
_chemical_formula_sum   'Cs8 O12'
_cell_volume   483.04147224
_cell_formula_units_Z   4
loop_
 _symmetry_equiv_pos_site_id
 _symmetry_equiv_pos_as_xyz
  1  'x, y, z'
loop_
 _atom_site_type_symbol
 _atom_site_label
 _atom_site_symmetry_multiplicity
 _atom_site_fract_x
 _atom_site_fract_y
 _atom_site_fract_z
 _atom_site_occupancy
  Cs  Cs0  1  0.89823982  0.89823982  0.89823982  1
  Cs  Cs1  1  0.60176018  0.00000000  0.50000000  1
  Cs  Cs2  1  0.50000000  0.60176018  -0.00000000  1
  Cs  Cs3  1  0.39823982  0.39823982  0.39823982  1
  Cs  Cs4  1  0.00000000  0.50000000  0.60176018  1
  Cs  Cs5  1  0.10176018  0.00000000  0.50000000  1
  Cs  Cs6  1  0.00000000  0.50000000  0.10176018  1
  Cs  Cs7  1  0.50000000  0.10176018  -0.00000000  1
  O  O8  1  0.69574580  0.44574580  0.75000000  1
  O  O9  1  0.80425420  0.05425420  0.25000000  1
  O  O10  1  0.44574580  0.75000000  0.69574580  1
  O  O11  1  0.19574580  0.25000000  0.94574580  1
  O  O12  1  0.05425420  0.25000000  0.80425420  1
  O  O13  1  0.30425420  0.75000000  0.55425420  1
  O  O14  1  0.75000000  0.69574580  0.44574580  1
  O  O15  1  0.94574580  0.19574580  0.25000000  1
  O  O16  1  0.25000000  0.80425420  0.05425420  1
  O  O17  1  0.55425420  0.30425420  0.75000000  1
  O  O18  1  0.25000000  0.94574580  0.19574580  1
  O  O19  1  0.75000000  0.55425420  0.30425420  1
