# generated using pymatgen
data_ErCu(MoO4)2
_symmetry_space_group_name_H-M   'P 1'
_cell_length_a   9.96103415
_cell_length_b   9.68624453
_cell_length_c   13.77289240
_cell_angle_alpha   90.00000000
_cell_angle_beta   90.00000000
_cell_angle_gamma   90.00000000
_symmetry_Int_Tables_number   1
_chemical_formula_structural   ErCu(MoO4)2
_chemical_formula_sum   'Er8 Cu8 Mo16 O64'
_cell_volume   1328.87769604
_cell_formula_units_Z   8
loop_
 _symmetry_equiv_pos_site_id
 _symmetry_equiv_pos_as_xyz
  1  'x, y, z'
loop_
 _atom_site_type_symbol
 _atom_site_label
 _atom_site_symmetry_multiplicity
 _atom_site_fract_x
 _atom_site_fract_y
 _atom_site_fract_z
 _atom_site_occupancy
  Er  Er0  1  0.61651161  0.53821501  0.87321421  1
  Er  Er1  1  0.38348839  0.46178499  0.12678579  1
  Er  Er2  1  0.88348839  0.03821501  0.12678579  1
  Er  Er3  1  0.38348839  0.96178499  0.37321421  1
  Er  Er4  1  0.11651161  0.96178499  0.87321421  1
  Er  Er5  1  0.61651161  0.03821501  0.62678579  1
  Er  Er6  1  0.11651161  0.46178499  0.62678579  1
  Er  Er7  1  0.88348839  0.53821501  0.37321421  1
  Cu  Cu8  1  0.56919916  0.73426776  0.51884721  1
  Cu  Cu9  1  0.43080084  0.26573224  0.48115279  1
  Cu  Cu10  1  0.93080084  0.23426776  0.48115279  1
  Cu  Cu11  1  0.43080084  0.76573224  0.01884721  1
  Cu  Cu12  1  0.06919916  0.76573224  0.51884721  1
  Cu  Cu13  1  0.56919916  0.23426776  0.98115279  1
  Cu  Cu14  1  0.06919916  0.26573224  0.98115279  1
  Cu  Cu15  1  0.93080084  0.73426776  0.01884721  1
  Mo  Mo16  1  0.71489201  0.91141009  0.92142650  1
  Mo  Mo17  1  0.28510799  0.08858991  0.07857350  1
  Mo  Mo18  1  0.78510799  0.41141009  0.07857350  1
  Mo  Mo19  1  0.28510799  0.58858991  0.42142650  1
  Mo  Mo20  1  0.21489201  0.58858991  0.92142650  1
  Mo  Mo21  1  0.71489201  0.41141009  0.57857350  1
  Mo  Mo22  1  0.21489201  0.08858991  0.57857350  1
  Mo  Mo23  1  0.78510799  0.91141009  0.42142650  1
  Mo  Mo24  1  0.86675493  0.76796908  0.70921284  1
  Mo  Mo25  1  0.13324507  0.23203092  0.29078716  1
  Mo  Mo26  1  0.63324507  0.26796908  0.29078716  1
  Mo  Mo27  1  0.13324507  0.73203092  0.20921284  1
  Mo  Mo28  1  0.36675493  0.73203092  0.70921284  1
  Mo  Mo29  1  0.86675493  0.26796908  0.79078716  1
  Mo  Mo30  1  0.36675493  0.23203092  0.79078716  1
  Mo  Mo31  1  0.63324507  0.76796908  0.20921284  1
  O  O32  1  0.64693337  0.55677391  0.51543934  1
  O  O33  1  0.35306663  0.44322609  0.48456066  1
  O  O34  1  0.85306663  0.05677391  0.48456066  1
  O  O35  1  0.35306663  0.94322609  0.01543934  1
  O  O36  1  0.14693337  0.94322609  0.51543934  1
  O  O37  1  0.64693337  0.05677391  0.98456066  1
  O  O38  1  0.14693337  0.44322609  0.98456066  1
  O  O39  1  0.85306663  0.55677391  0.01543934  1
  O  O40  1  0.60982376  0.75740200  0.94206450  1
  O  O41  1  0.39017624  0.24259800  0.05793550  1
  O  O42  1  0.89017624  0.25740200  0.05793550  1
  O  O43  1  0.39017624  0.74259800  0.44206450  1
  O  O44  1  0.10982376  0.74259800  0.94206450  1
  O  O45  1  0.60982376  0.25740200  0.55793550  1
  O  O46  1  0.10982376  0.24259800  0.55793550  1
  O  O47  1  0.89017624  0.75740200  0.44206450  1
  O  O48  1  0.89545973  0.91979567  0.96158133  1
  O  O49  1  0.10454027  0.08020433  0.03841867  1
  O  O50  1  0.60454027  0.41979567  0.03841867  1
  O  O51  1  0.10454027  0.58020433  0.46158133  1
  O  O52  1  0.39545973  0.58020433  0.96158133  1
  O  O53  1  0.89545973  0.41979567  0.53841867  1
  O  O54  1  0.39545973  0.08020433  0.53841867  1
  O  O55  1  0.60454027  0.91979567  0.46158133  1
  O  O56  1  0.98674905  0.88617179  0.75736719  1
  O  O57  1  0.01325095  0.11382821  0.24263281  1
  O  O58  1  0.51325095  0.38617179  0.24263281  1
  O  O59  1  0.01325095  0.61382821  0.25736719  1
  O  O60  1  0.48674905  0.61382821  0.75736719  1
  O  O61  1  0.98674905  0.38617179  0.74263281  1
  O  O62  1  0.48674905  0.11382821  0.74263281  1
  O  O63  1  0.51325095  0.88617179  0.25736719  1
  O  O64  1  0.78844533  0.67563893  0.80776586  1
  O  O65  1  0.21155467  0.32436107  0.19223414  1
  O  O66  1  0.71155467  0.17563893  0.19223414  1
  O  O67  1  0.21155467  0.82436107  0.30776586  1
  O  O68  1  0.28844533  0.82436107  0.80776586  1
  O  O69  1  0.78844533  0.17563893  0.69223414  1
  O  O70  1  0.28844533  0.32436107  0.69223414  1
  O  O71  1  0.71155467  0.67563893  0.30776586  1
  O  O72  1  0.70369023  0.95154792  0.79619753  1
  O  O73  1  0.29630977  0.04845208  0.20380247  1
  O  O74  1  0.79630977  0.45154792  0.20380247  1
  O  O75  1  0.29630977  0.54845208  0.29619753  1
  O  O76  1  0.20369023  0.54845208  0.79619753  1
  O  O77  1  0.70369023  0.45154792  0.70380247  1
  O  O78  1  0.20369023  0.04845208  0.70380247  1
  O  O79  1  0.79630977  0.95154792  0.29619753  1
  O  O80  1  0.96971487  0.65000527  0.64119115  1
  O  O81  1  0.03028513  0.34999473  0.35880885  1
  O  O82  1  0.53028513  0.15000527  0.35880885  1
  O  O83  1  0.03028513  0.84999473  0.14119115  1
  O  O84  1  0.46971487  0.84999473  0.64119115  1
  O  O85  1  0.96971487  0.15000527  0.85880885  1
  O  O86  1  0.46971487  0.34999473  0.85880885  1
  O  O87  1  0.53028513  0.65000527  0.14119115  1
  O  O88  1  0.75552513  0.84870324  0.62075149  1
  O  O89  1  0.24447487  0.15129676  0.37924851  1
  O  O90  1  0.74447487  0.34870324  0.37924851  1
  O  O91  1  0.24447487  0.65129676  0.12075149  1
  O  O92  1  0.25552513  0.65129676  0.62075149  1
  O  O93  1  0.75552513  0.34870324  0.87924851  1
  O  O94  1  0.25552513  0.15129676  0.87924851  1
  O  O95  1  0.74447487  0.84870324  0.12075149  1
