# generated using pymatgen
data_Al5Sb3O16
_symmetry_space_group_name_H-M   'P 1'
_cell_length_a   4.52546058
_cell_length_b   7.52435953
_cell_length_c   7.52435953
_cell_angle_alpha   101.38957278
_cell_angle_beta   90.69006658
_cell_angle_gamma   90.69006658
_symmetry_Int_Tables_number   1
_chemical_formula_structural   Al5Sb3O16
_chemical_formula_sum   'Al5 Sb3 O16'
_cell_volume   251.12243626
_cell_formula_units_Z   1
loop_
 _symmetry_equiv_pos_site_id
 _symmetry_equiv_pos_as_xyz
  1  'x, y, z'
loop_
 _atom_site_type_symbol
 _atom_site_label
 _atom_site_symmetry_multiplicity
 _atom_site_fract_x
 _atom_site_fract_y
 _atom_site_fract_z
 _atom_site_occupancy
  Al  Al0  1  0.00072957  0.61329398  0.86438623  1
  Al  Al1  1  0.99927043  0.38670602  0.13561377  1
  Al  Al2  1  0.99927043  0.13561377  0.38670602  1
  Al  Al3  1  0.00072957  0.86438623  0.61329398  1
  Al  Al4  1  -0.00000000  -0.00000000  -0.00000000  1
  Sb  Sb5  1  0.50000000  0.76923065  0.23076935  1
  Sb  Sb6  1  0.50000000  0.23076935  0.76923065  1
  Sb  Sb7  1  0.50000000  0.50000000  0.50000000  1
  O  O8  1  0.78893494  0.41029129  0.91815288  1
  O  O9  1  0.21106506  0.58970871  0.08184712  1
  O  O10  1  0.21106506  0.08184712  0.58970871  1
  O  O11  1  0.78893494  0.91815288  0.41029129  1
  O  O12  1  0.75568244  0.79022985  0.02528031  1
  O  O13  1  0.24431756  0.20977015  0.97471969  1
  O  O14  1  0.24431756  0.97471969  0.20977015  1
  O  O15  1  0.75568244  0.02528031  0.79022985  1
  O  O16  1  0.18148067  0.83022850  0.83022850  1
  O  O17  1  0.81851933  0.16977150  0.16977150  1
  O  O18  1  0.71332688  0.54190941  0.27768829  1
  O  O19  1  0.28667312  0.45809059  0.72231171  1
  O  O20  1  0.28667312  0.72231171  0.45809059  1
  O  O21  1  0.71332688  0.27768829  0.54190941  1
  O  O22  1  0.80024454  0.65160025  0.65160025  1
  O  O23  1  0.19975546  0.34839975  0.34839975  1
