# generated using pymatgen
data_ZnCdO2
_symmetry_space_group_name_H-M   'P 1'
_cell_length_a   3.44643221
_cell_length_b   3.44643045
_cell_length_c   5.70526587
_cell_angle_alpha   89.99989585
_cell_angle_beta   90.00006832
_cell_angle_gamma   119.99992844
_symmetry_Int_Tables_number   1
_chemical_formula_structural   ZnCdO2
_chemical_formula_sum   'Zn1 Cd1 O2'
_cell_volume   58.68756523
_cell_formula_units_Z   1
loop_
 _symmetry_equiv_pos_site_id
 _symmetry_equiv_pos_as_xyz
  1  'x, y, z'
loop_
 _atom_site_type_symbol
 _atom_site_label
 _atom_site_symmetry_multiplicity
 _atom_site_fract_x
 _atom_site_fract_y
 _atom_site_fract_z
 _atom_site_occupancy
  Zn  Zn0  1  0.66666548  0.33333394  0.99693654  1
  Cd  Cd1  1  0.33333192  0.66666825  0.49044107  1
  O  O2  1  0.33333400  0.66666672  0.09799067  1
  O  O3  1  0.66666861  0.33333109  0.65063172  1
