# generated using pymatgen
data_Zr7V5N2
_symmetry_space_group_name_H-M   'P 1'
_cell_length_a   8.70463092
_cell_length_b   8.73372394
_cell_length_c   8.70463092
_cell_angle_alpha   59.88937761
_cell_angle_beta   120.17329776
_cell_angle_gamma   120.11062239
_symmetry_Int_Tables_number   1
_chemical_formula_structural   Zr7V5N2
_chemical_formula_sum   'Zr14 V10 N4'
_cell_volume   466.53783810
_cell_formula_units_Z   2
loop_
 _symmetry_equiv_pos_site_id
 _symmetry_equiv_pos_as_xyz
  1  'x, y, z'
loop_
 _atom_site_type_symbol
 _atom_site_label
 _atom_site_symmetry_multiplicity
 _atom_site_fract_x
 _atom_site_fract_y
 _atom_site_fract_z
 _atom_site_occupancy
  Zr  Zr0  1  0.05979086  0.80979086  0.44020914  1
  Zr  Zr1  1  0.68879782  0.43879782  0.81120218  1
  Zr  Zr2  1  0.05736198  0.81130582  0.81038314  1
  Zr  Zr3  1  0.68961686  0.43567303  0.44263802  1
  Zr  Zr4  1  0.05736198  0.43567303  0.81038314  1
  Zr  Zr5  1  0.68961686  0.81130582  0.44263802  1
  Zr  Zr6  1  0.94020914  0.19020914  0.55979086  1
  Zr  Zr7  1  0.31120218  0.56120218  0.18879782  1
  Zr  Zr8  1  0.94263802  0.18869418  0.18961686  1
  Zr  Zr9  1  0.31038314  0.56432697  0.55736198  1
  Zr  Zr10  1  0.94263802  0.56432697  0.18961686  1
  Zr  Zr11  1  0.31038314  0.18869418  0.55736198  1
  Zr  Zr12  1  0.50000000  0.50000000  -0.00000000  1
  Zr  Zr13  1  0.50000000  -0.00000000  -0.00000000  1
  V  V14  1  0.28689548  0.88674600  0.21310452  1
  V  V15  1  0.28689548  0.18704497  0.21310452  1
  V  V16  1  0.27431996  0.19097047  0.89237902  1
  V  V17  1  0.60762098  0.19097047  0.22568004  1
  V  V18  1  0.71310452  0.11325400  0.78689548  1
  V  V19  1  0.71310452  0.81295503  0.78689548  1
  V  V20  1  0.72568004  0.80902953  0.10762098  1
  V  V21  1  0.39237902  0.80902953  0.77431996  1
  V  V22  1  0.50000000  0.00000000  0.50000000  1
  V  V23  1  -0.00000000  -0.00000000  -0.00000000  1
  N  N24  1  -0.00000000  -0.00000000  0.50000000  1
  N  N25  1  -0.00000000  0.50000000  0.50000000  1
  N  N26  1  -0.00000000  0.50000000  -0.00000000  1
  N  N27  1  0.50000000  0.50000000  0.50000000  1
