# generated using pymatgen
data_Cr3Pb5ClO12
_symmetry_space_group_name_H-M   'P 1'
_cell_length_a   7.37997692
_cell_length_b   10.41522976
_cell_length_c   10.41522977
_cell_angle_alpha   119.99999777
_cell_angle_beta   90.00000000
_cell_angle_gamma   90.00000000
_symmetry_Int_Tables_number   1
_chemical_formula_structural   Cr3Pb5ClO12
_chemical_formula_sum   'Cr6 Pb10 Cl2 O24'
_cell_volume   693.30344099
_cell_formula_units_Z   2
loop_
 _symmetry_equiv_pos_site_id
 _symmetry_equiv_pos_as_xyz
  1  'x, y, z'
loop_
 _atom_site_type_symbol
 _atom_site_label
 _atom_site_symmetry_multiplicity
 _atom_site_fract_x
 _atom_site_fract_y
 _atom_site_fract_z
 _atom_site_occupancy
  Cr  Cr0  1  0.75000000  0.97282669  0.38247490  1
  Cr  Cr1  1  0.25000000  0.02717331  0.61752510  1
  Cr  Cr2  1  0.75000000  0.40964820  0.02717331  1
  Cr  Cr3  1  0.25000000  0.59035180  0.97282669  1
  Cr  Cr4  1  0.75000000  0.61752510  0.59035180  1
  Cr  Cr5  1  0.25000000  0.38247490  0.40964820  1
  Pb  Pb6  1  0.00706237  0.66666700  0.33333300  1
  Pb  Pb7  1  0.99293763  0.33333300  0.66666700  1
  Pb  Pb8  1  0.50706237  0.33333300  0.66666700  1
  Pb  Pb9  1  0.49293763  0.66666700  0.33333300  1
  Pb  Pb10  1  0.75000000  0.75716273  0.01400319  1
  Pb  Pb11  1  0.25000000  0.24283727  0.98599681  1
  Pb  Pb12  1  0.75000000  0.25684046  0.24283727  1
  Pb  Pb13  1  0.25000000  0.74315954  0.75716273  1
  Pb  Pb14  1  0.75000000  0.98599681  0.74315954  1
  Pb  Pb15  1  0.25000000  0.01400319  0.25684046  1
  Cl  Cl16  1  -0.00000000  -0.00000000  0.00000000  1
  Cl  Cl17  1  0.50000000  -0.00000000  0.00000000  1
  O  O18  1  0.75000000  0.51050593  0.67483901  1
  O  O19  1  0.25000000  0.48949407  0.32516099  1
  O  O20  1  0.75000000  0.16433308  0.48949407  1
  O  O21  1  0.25000000  0.83566692  0.51050593  1
  O  O22  1  0.75000000  0.32516099  0.83566692  1
  O  O23  1  0.25000000  0.67483901  0.16433308  1
  O  O24  1  0.93666753  0.90923261  0.26834009  1
  O  O25  1  0.06333247  0.09076739  0.73165991  1
  O  O26  1  0.93666753  0.35910748  0.09076739  1
  O  O27  1  0.43666753  0.09076739  0.73165991  1
  O  O28  1  0.06333247  0.64089252  0.90923261  1
  O  O29  1  0.56333247  0.90923261  0.26834009  1
  O  O30  1  0.93666753  0.73165991  0.64089252  1
  O  O31  1  0.43666753  0.64089252  0.90923261  1
  O  O32  1  0.06333247  0.26834009  0.35910748  1
  O  O33  1  0.56333247  0.35910748  0.09076739  1
  O  O34  1  0.43666753  0.26834009  0.35910748  1
  O  O35  1  0.56333247  0.73165991  0.64089252  1
  O  O36  1  0.75000000  0.87516846  0.47897791  1
  O  O37  1  0.25000000  0.12483154  0.52102209  1
  O  O38  1  0.75000000  0.60380945  0.12483154  1
  O  O39  1  0.25000000  0.39619055  0.87516846  1
  O  O40  1  0.75000000  0.52102209  0.39619055  1
  O  O41  1  0.25000000  0.47897791  0.60380945  1
