# generated using pymatgen
data_ZrNbB2
_symmetry_space_group_name_H-M   'P 1'
_cell_length_a   3.19297410
_cell_length_b   3.42685282
_cell_length_c   4.90121304
_cell_angle_alpha   69.53761871
_cell_angle_beta   90.00000000
_cell_angle_gamma   90.00000000
_symmetry_Int_Tables_number   1
_chemical_formula_structural   ZrNbB2
_chemical_formula_sum   'Zr1 Nb1 B2'
_cell_volume   50.24450344
_cell_formula_units_Z   1
loop_
 _symmetry_equiv_pos_site_id
 _symmetry_equiv_pos_as_xyz
  1  'x, y, z'
loop_
 _atom_site_type_symbol
 _atom_site_label
 _atom_site_symmetry_multiplicity
 _atom_site_fract_x
 _atom_site_fract_y
 _atom_site_fract_z
 _atom_site_occupancy
  Zr  Zr0  1  0.75000000  0.14837137  0.70325726  1
  Nb  Nb1  1  0.25000000  0.86177439  0.27645122  1
  B  B2  1  0.25000000  0.54797442  0.90405117  1
  B  B3  1  0.75000000  0.44187982  0.11624036  1
