# generated using pymatgen
data_Ca2Al2(SiO4)3
_symmetry_space_group_name_H-M   'P 1'
_cell_length_a   4.67359623
_cell_length_b   5.54428569
_cell_length_c   18.73219968
_cell_angle_alpha   90.00000000
_cell_angle_beta   90.00000000
_cell_angle_gamma   90.00000000
_symmetry_Int_Tables_number   1
_chemical_formula_structural   Ca2Al2(SiO4)3
_chemical_formula_sum   'Ca4 Al4 Si6 O24'
_cell_volume   485.38412561
_cell_formula_units_Z   2
loop_
 _symmetry_equiv_pos_site_id
 _symmetry_equiv_pos_as_xyz
  1  'x, y, z'
loop_
 _atom_site_type_symbol
 _atom_site_label
 _atom_site_symmetry_multiplicity
 _atom_site_fract_x
 _atom_site_fract_y
 _atom_site_fract_z
 _atom_site_occupancy
  Ca  Ca0  1  0.00981193  0.24099174  0.64863578  1
  Ca  Ca1  1  0.00981193  0.75900826  0.35136422  1
  Ca  Ca2  1  0.00981193  0.24099174  0.85136422  1
  Ca  Ca3  1  0.00981193  0.75900826  0.14863578  1
  Al  Al4  1  0.20284623  -0.00000000  0.50000000  1
  Al  Al5  1  0.20284623  -0.00000000  -0.00000000  1
  Al  Al6  1  0.01418524  0.73896483  0.75000000  1
  Al  Al7  1  0.01418524  0.26103517  0.25000000  1
  Si  Si8  1  0.81951894  0.50000000  0.50000000  1
  Si  Si9  1  0.81951894  0.50000000  -0.00000000  1
  Si  Si10  1  0.50776577  0.75113121  0.63076702  1
  Si  Si11  1  0.50776577  0.24886879  0.36923298  1
  Si  Si12  1  0.50776577  0.75113121  0.86923298  1
  Si  Si13  1  0.50776577  0.24886879  0.13076702  1
  O  O14  1  0.00399284  0.26119151  0.51963904  1
  O  O15  1  0.00399284  0.73880849  0.48036096  1
  O  O16  1  0.00399284  0.26119151  0.98036096  1
  O  O17  1  0.00399284  0.73880849  0.01963904  1
  O  O18  1  0.63685472  0.54170548  0.57409294  1
  O  O19  1  0.63685472  0.45829452  0.42590706  1
  O  O20  1  0.63685472  0.54170548  0.92590706  1
  O  O21  1  0.63685472  0.45829452  0.07409294  1
  O  O22  1  0.37386343  0.97255264  0.58270323  1
  O  O23  1  0.37386343  0.02744736  0.41729677  1
  O  O24  1  0.37386343  0.97255264  0.91729677  1
  O  O25  1  0.37386343  0.02744736  0.08270323  1
  O  O26  1  0.26053701  0.61012562  0.67566845  1
  O  O27  1  0.26053701  0.38987438  0.32433155  1
  O  O28  1  0.26053701  0.61012562  0.82433155  1
  O  O29  1  0.26053701  0.38987438  0.17566845  1
  O  O30  1  0.76941763  0.86751928  0.67645323  1
  O  O31  1  0.76941763  0.13248072  0.32354677  1
  O  O32  1  0.76941763  0.86751928  0.82354677  1
  O  O33  1  0.76941763  0.13248072  0.17645323  1
  O  O34  1  0.18601126  0.04919901  0.75000000  1
  O  O35  1  0.18601126  0.95080099  0.25000000  1
  O  O36  1  0.83295170  0.43376480  0.75000000  1
  O  O37  1  0.83295170  0.56623520  0.25000000  1
