# generated using pymatgen
data_BaSc6Ni4O15
_symmetry_space_group_name_H-M   'P 1'
_cell_length_a   7.98008494
_cell_length_b   7.98008494
_cell_length_c   9.75626899
_cell_angle_alpha   90.00000000
_cell_angle_beta   90.00000000
_cell_angle_gamma   96.18781128
_symmetry_Int_Tables_number   1
_chemical_formula_structural   BaSc6Ni4O15
_chemical_formula_sum   'Ba2 Sc12 Ni8 O30'
_cell_volume   617.67661335
_cell_formula_units_Z   2
loop_
 _symmetry_equiv_pos_site_id
 _symmetry_equiv_pos_as_xyz
  1  'x, y, z'
loop_
 _atom_site_type_symbol
 _atom_site_label
 _atom_site_symmetry_multiplicity
 _atom_site_fract_x
 _atom_site_fract_y
 _atom_site_fract_z
 _atom_site_occupancy
  Ba  Ba0  1  0.50000000  0.50000000  -0.00000000  1
  Ba  Ba1  1  -0.00000000  -0.00000000  0.50000000  1
  Sc  Sc2  1  0.18716513  0.18716513  0.13942555  1
  Sc  Sc3  1  0.81283487  0.81283487  0.86057445  1
  Sc  Sc4  1  0.31283487  0.31283487  0.63942555  1
  Sc  Sc5  1  0.68716513  0.68716513  0.36057445  1
  Sc  Sc6  1  0.54770778  0.28079696  0.35495604  1
  Sc  Sc7  1  0.45229222  0.71920304  0.64504396  1
  Sc  Sc8  1  0.95229222  0.21920304  0.85495604  1
  Sc  Sc9  1  0.78079696  0.04770778  0.14504396  1
  Sc  Sc10  1  0.04770778  0.78079696  0.14504396  1
  Sc  Sc11  1  0.21920304  0.95229222  0.85495604  1
  Sc  Sc12  1  0.71920304  0.45229222  0.64504396  1
  Sc  Sc13  1  0.28079696  0.54770778  0.35495604  1
  Ni  Ni14  1  0.42057422  0.90524969  0.11657736  1
  Ni  Ni15  1  0.57942578  0.09475031  0.88342264  1
  Ni  Ni16  1  0.07942578  0.59475031  0.61657736  1
  Ni  Ni17  1  0.40524969  0.92057422  0.38342264  1
  Ni  Ni18  1  0.92057422  0.40524969  0.38342264  1
  Ni  Ni19  1  0.59475031  0.07942578  0.61657736  1
  Ni  Ni20  1  0.09475031  0.57942578  0.88342264  1
  Ni  Ni21  1  0.90524969  0.42057422  0.11657736  1
  O  O22  1  0.56009842  0.06009842  0.25000000  1
  O  O23  1  0.43990158  0.93990158  0.75000000  1
  O  O24  1  0.93990158  0.43990158  0.75000000  1
  O  O25  1  0.06009842  0.56009842  0.25000000  1
  O  O26  1  0.21829899  0.95871985  0.24464853  1
  O  O27  1  0.78170101  0.04128015  0.75535147  1
  O  O28  1  0.28170101  0.54128015  0.74464853  1
  O  O29  1  0.45871985  0.71829899  0.25535147  1
  O  O30  1  0.71829899  0.45871985  0.25535147  1
  O  O31  1  0.54128015  0.28170101  0.74464853  1
  O  O32  1  0.04128015  0.78170101  0.75535147  1
  O  O33  1  0.95871985  0.21829899  0.24464853  1
  O  O34  1  0.35293234  0.35293234  0.23817046  1
  O  O35  1  0.64706766  0.64706766  0.76182954  1
  O  O36  1  0.14706766  0.14706766  0.73817046  1
  O  O37  1  0.85293234  0.85293234  0.26182954  1
  O  O38  1  0.36346742  0.10346997  0.99803595  1
  O  O39  1  0.63653258  0.89653003  0.00196405  1
  O  O40  1  0.13653258  0.39653003  0.49803595  1
  O  O41  1  0.60346997  0.86346742  0.50196405  1
  O  O42  1  0.86346742  0.60346997  0.50196405  1
  O  O43  1  0.39653003  0.13653258  0.49803595  1
  O  O44  1  0.89653003  0.63653258  0.00196405  1
  O  O45  1  0.10346997  0.36346742  0.99803595  1
  O  O46  1  0.25126927  0.74873073  -0.00000000  1
  O  O47  1  0.74873073  0.25126927  -0.00000000  1
  O  O48  1  0.24873073  0.75126927  0.50000000  1
  O  O49  1  0.75126927  0.24873073  0.50000000  1
  O  O50  1  -0.00000000  -0.00000000  -0.00000000  1
  O  O51  1  0.50000000  0.50000000  0.50000000  1
