# generated using pymatgen
data_Zr4FeSe8
_symmetry_space_group_name_H-M   'P 1'
_cell_length_a   7.31300436
_cell_length_b   7.52126801
_cell_length_c   7.31413937
_cell_angle_alpha   104.93678669
_cell_angle_beta   61.92547919
_cell_angle_gamma   75.17496747
_symmetry_Int_Tables_number   1
_chemical_formula_structural   Zr4FeSe8
_chemical_formula_sum   'Zr4 Fe1 Se8'
_cell_volume   307.57848308
_cell_formula_units_Z   1
loop_
 _symmetry_equiv_pos_site_id
 _symmetry_equiv_pos_as_xyz
  1  'x, y, z'
loop_
 _atom_site_type_symbol
 _atom_site_label
 _atom_site_symmetry_multiplicity
 _atom_site_fract_x
 _atom_site_fract_y
 _atom_site_fract_z
 _atom_site_occupancy
  Zr  Zr0  1  0.00393674  0.99503944  0.99878697  1
  Zr  Zr1  1  0.49606326  0.00496056  0.50121303  1
  Zr  Zr2  1  0.00692976  0.49983609  0.99288031  1
  Zr  Zr3  1  0.49307024  0.50016391  0.50711969  1
  Fe  Fe4  1  0.25000000  -0.00000000  0.25000000  1
  Se  Se5  1  0.96292722  0.33254703  0.29547900  1
  Se  Se6  1  0.46274106  0.33332025  0.79588646  1
  Se  Se7  1  0.46401399  0.83413183  0.80022835  1
  Se  Se8  1  0.96620134  0.83417060  0.29808502  1
  Se  Se9  1  0.53379866  0.16582940  0.20191498  1
  Se  Se10  1  0.03598601  0.16586817  0.69977165  1
  Se  Se11  1  0.03725894  0.66667975  0.70411354  1
  Se  Se12  1  0.53707278  0.66745297  0.20452100  1
