# generated using pymatgen
data_YV2(FeCo)5
_symmetry_space_group_name_H-M   'P 1'
_cell_length_a   4.67684891
_cell_length_b   6.40475792
_cell_length_c   6.40475792
_cell_angle_alpha   97.46823787
_cell_angle_beta   111.41419582
_cell_angle_gamma   68.58580418
_symmetry_Int_Tables_number   1
_chemical_formula_structural   YV2(FeCo)5
_chemical_formula_sum   'Y1 V2 Fe5 Co5'
_cell_volume   166.27334902
_cell_formula_units_Z   1
loop_
 _symmetry_equiv_pos_site_id
 _symmetry_equiv_pos_as_xyz
  1  'x, y, z'
loop_
 _atom_site_type_symbol
 _atom_site_label
 _atom_site_symmetry_multiplicity
 _atom_site_fract_x
 _atom_site_fract_y
 _atom_site_fract_z
 _atom_site_occupancy
  Y  Y0  1  0.00000000  0.99845522  0.99845522  1
  V  V1  1  0.00000000  0.35853803  0.35853803  1
  V  V2  1  0.00000000  0.64219388  0.64219388  1
  Fe  Fe3  1  0.50102730  0.99871392  0.50166328  1
  Fe  Fe4  1  0.00192206  0.99871392  0.50166328  1
  Fe  Fe5  1  0.49897270  0.50166328  0.99871392  1
  Fe  Fe6  1  0.99807794  0.50166328  0.99871392  1
  Fe  Fe7  1  0.50000000  0.22538412  0.22538412  1
  Co  Co8  1  0.72566610  0.77493850  0.22627070  1
  Co  Co9  1  0.27433390  0.22627070  0.77493850  1
  Co  Co10  1  0.50000000  0.77583622  0.77583622  1
  Co  Co11  1  0.64149301  0.35732146  0.64030748  1
  Co  Co12  1  0.35850699  0.64030748  0.35732146  1
