# generated using pymatgen
data_YbIn7Cu5
_symmetry_space_group_name_H-M   'P 1'
_cell_length_a   5.61206707
_cell_length_b   7.26278253
_cell_length_c   7.26278253
_cell_angle_alpha   99.12398861
_cell_angle_beta   112.72806385
_cell_angle_gamma   67.27193615
_symmetry_Int_Tables_number   1
_chemical_formula_structural   YbIn7Cu5
_chemical_formula_sum   'Yb1 In7 Cu5'
_cell_volume   251.82190828
_cell_formula_units_Z   1
loop_
 _symmetry_equiv_pos_site_id
 _symmetry_equiv_pos_as_xyz
  1  'x, y, z'
loop_
 _atom_site_type_symbol
 _atom_site_label
 _atom_site_symmetry_multiplicity
 _atom_site_fract_x
 _atom_site_fract_y
 _atom_site_fract_z
 _atom_site_occupancy
  Yb  Yb0  1  0.00277898  0.99722102  0.00277898  1
  In  In1  1  0.65894834  0.34105166  0.65894834  1
  In  In2  1  0.33196282  0.66803718  0.33196282  1
  In  In3  1  0.98749767  0.35304464  0.32803997  1
  In  In4  1  0.98749767  0.67196003  0.64695536  1
  In  In5  1  0.27327688  0.22672312  0.77327688  1
  In  In6  1  0.51221364  0.78610190  0.81052919  1
  In  In7  1  0.51221364  0.18947081  0.21389810  1
  Cu  Cu8  1  0.49697039  0.99079173  0.49437470  1
  Cu  Cu9  1  0.00661258  0.99079173  0.49437470  1
  Cu  Cu10  1  0.49697039  0.50562530  0.00920827  1
  Cu  Cu11  1  0.00661258  0.50562530  0.00920827  1
  Cu  Cu12  1  0.72644442  0.77355558  0.22644442  1
