# generated using pymatgen
data_YU2(BRh)12
_symmetry_space_group_name_H-M   'P 1'
_cell_length_a   5.33561738
_cell_length_b   5.33561738
_cell_length_c   22.51708378
_cell_angle_alpha   90.00000000
_cell_angle_beta   90.00000000
_cell_angle_gamma   90.00000000
_symmetry_Int_Tables_number   1
_chemical_formula_structural   YU2(BRh)12
_chemical_formula_sum   'Y2 U4 B24 Rh24'
_cell_volume   641.03464351
_cell_formula_units_Z   2
loop_
 _symmetry_equiv_pos_site_id
 _symmetry_equiv_pos_as_xyz
  1  'x, y, z'
loop_
 _atom_site_type_symbol
 _atom_site_label
 _atom_site_symmetry_multiplicity
 _atom_site_fract_x
 _atom_site_fract_y
 _atom_site_fract_z
 _atom_site_occupancy
  Y  Y0  1  0.25000000  0.75000000  0.58328809  1
  Y  Y1  1  0.25000000  0.75000000  0.91671191  1
  U  U2  1  0.75000000  0.25000000  0.08343640  1
  U  U3  1  0.75000000  0.25000000  0.41656360  1
  U  U4  1  0.75000000  0.25000000  0.75000000  1
  U  U5  1  0.25000000  0.75000000  0.25000000  1
  B  B6  1  0.58289803  0.75000000  0.13190881  1
  B  B7  1  0.58326810  0.75000000  0.46606694  1
  B  B8  1  0.58318030  0.75000000  0.79890437  1
  B  B9  1  0.91710197  0.75000000  0.13190881  1
  B  B10  1  0.91673190  0.75000000  0.46606694  1
  B  B11  1  0.91681970  0.75000000  0.79890437  1
  B  B12  1  0.75000000  0.58280372  0.29916245  1
  B  B13  1  0.75000000  0.58071634  0.63335688  1
  B  B14  1  0.75000000  0.58130533  0.96654098  1
  B  B15  1  0.75000000  0.91719628  0.29916245  1
  B  B16  1  0.75000000  0.91928366  0.63335688  1
  B  B17  1  0.75000000  0.91869467  0.96654098  1
  B  B18  1  0.41719628  0.25000000  0.20083755  1
  B  B19  1  0.41869467  0.25000000  0.53345902  1
  B  B20  1  0.41928366  0.25000000  0.86664312  1
  B  B21  1  0.08280372  0.25000000  0.20083755  1
  B  B22  1  0.08130533  0.25000000  0.53345902  1
  B  B23  1  0.08071634  0.25000000  0.86664312  1
  B  B24  1  0.25000000  0.41673190  0.03393306  1
  B  B25  1  0.25000000  0.41710197  0.36809119  1
  B  B26  1  0.25000000  0.41681970  0.70109563  1
  B  B27  1  0.25000000  0.08326810  0.03393306  1
  B  B28  1  0.25000000  0.08289803  0.36809119  1
  B  B29  1  0.25000000  0.08318030  0.70109563  1
  Rh  Rh30  1  0.99796968  0.75000000  0.03479992  1
  Rh  Rh31  1  0.99800623  0.75000000  0.36744944  1
  Rh  Rh32  1  0.99720163  0.75000000  0.70147596  1
  Rh  Rh33  1  0.50203032  0.75000000  0.03479992  1
  Rh  Rh34  1  0.50199377  0.75000000  0.36744944  1
  Rh  Rh35  1  0.50279837  0.75000000  0.70147596  1
  Rh  Rh36  1  0.75000000  0.99785649  0.20037301  1
  Rh  Rh37  1  0.75000000  0.00007355  0.53412285  1
  Rh  Rh38  1  0.75000000  -0.00004718  0.86722869  1
  Rh  Rh39  1  0.75000000  0.50214351  0.20037301  1
  Rh  Rh40  1  0.75000000  0.49992645  0.53412285  1
  Rh  Rh41  1  0.75000000  0.50004718  0.86722869  1
  Rh  Rh42  1  0.00214351  0.25000000  0.29962699  1
  Rh  Rh43  1  0.00004718  0.25000000  0.63277131  1
  Rh  Rh44  1  -0.00007355  0.25000000  0.96587715  1
  Rh  Rh45  1  0.49785649  0.25000000  0.29962699  1
  Rh  Rh46  1  0.49995282  0.25000000  0.63277131  1
  Rh  Rh47  1  0.50007355  0.25000000  0.96587715  1
  Rh  Rh48  1  0.25000000  0.00199377  0.13255056  1
  Rh  Rh49  1  0.25000000  0.00203032  0.46520008  1
  Rh  Rh50  1  0.25000000  0.00279837  0.79852404  1
  Rh  Rh51  1  0.25000000  0.49800623  0.13255056  1
  Rh  Rh52  1  0.25000000  0.49796968  0.46520008  1
  Rh  Rh53  1  0.25000000  0.49720163  0.79852404  1
