# generated using pymatgen
data_Zr2TiSnO8
_symmetry_space_group_name_H-M   'P 1'
_cell_length_a   4.89521759
_cell_length_b   5.19664926
_cell_length_c   5.76084803
_cell_angle_alpha   90.00000000
_cell_angle_beta   90.00000000
_cell_angle_gamma   90.83087523
_symmetry_Int_Tables_number   1
_chemical_formula_structural   Zr2TiSnO8
_chemical_formula_sum   'Zr2 Ti1 Sn1 O8'
_cell_volume   146.53324231
_cell_formula_units_Z   1
loop_
 _symmetry_equiv_pos_site_id
 _symmetry_equiv_pos_as_xyz
  1  'x, y, z'
loop_
 _atom_site_type_symbol
 _atom_site_label
 _atom_site_symmetry_multiplicity
 _atom_site_fract_x
 _atom_site_fract_y
 _atom_site_fract_z
 _atom_site_occupancy
  Zr  Zr0  1  -0.00000000  0.25000000  0.17570864  1
  Zr  Zr1  1  0.50000000  0.75000000  0.30318460  1
  Ti  Ti2  1  -0.00000000  0.75000000  0.81526810  1
  Sn  Sn3  1  0.50000000  0.25000000  0.68216912  1
  O  O4  1  0.71640654  0.08108078  0.40062419  1
  O  O5  1  0.78067998  0.57822376  0.09846207  1
  O  O6  1  0.21932002  0.92177624  0.09846207  1
  O  O7  1  0.28359346  0.41891922  0.40062419  1
  O  O8  1  0.25333857  0.91633959  0.61852734  1
  O  O9  1  0.22966506  0.44038398  0.89422118  1
  O  O10  1  0.77033494  0.05961602  0.89422118  1
  O  O11  1  0.74666143  0.58366041  0.61852734  1
