# generated using pymatgen
data_YIn7Cu5
_symmetry_space_group_name_H-M   'P 1'
_cell_length_a   5.62492668
_cell_length_b   7.24703011
_cell_length_c   7.24703011
_cell_angle_alpha   98.90919875
_cell_angle_beta   112.83538846
_cell_angle_gamma   67.16461154
_symmetry_Int_Tables_number   1
_chemical_formula_structural   YIn7Cu5
_chemical_formula_sum   'Y1 In7 Cu5'
_cell_volume   250.92199938
_cell_formula_units_Z   1
loop_
 _symmetry_equiv_pos_site_id
 _symmetry_equiv_pos_as_xyz
  1  'x, y, z'
loop_
 _atom_site_type_symbol
 _atom_site_label
 _atom_site_symmetry_multiplicity
 _atom_site_fract_x
 _atom_site_fract_y
 _atom_site_fract_z
 _atom_site_occupancy
  Y  Y0  1  0.00109022  0.99890978  0.00109022  1
  In  In1  1  0.65784607  0.34215393  0.65784607  1
  In  In2  1  0.33417176  0.66582824  0.33417176  1
  In  In3  1  0.98842603  0.35185789  0.32870995  1
  In  In4  1  0.98842603  0.67129005  0.64814211  1
  In  In5  1  0.27471576  0.22528424  0.77471576  1
  In  In6  1  0.51181426  0.78717849  0.81080700  1
  In  In7  1  0.51181426  0.18919300  0.21282151  1
  Cu  Cu8  1  0.49911202  0.99243146  0.49587908  1
  Cu  Cu9  1  0.00433559  0.99243146  0.49587908  1
  Cu  Cu10  1  0.49911202  0.50412092  0.00756854  1
  Cu  Cu11  1  0.00433559  0.50412092  0.00756854  1
  Cu  Cu12  1  0.72480040  0.77519960  0.22480040  1
