# generated using pymatgen
data_YbV4O8
_symmetry_space_group_name_H-M   'P 1'
_cell_length_a   3.05378045
_cell_length_b   9.03073504
_cell_length_c   10.68820241
_cell_angle_alpha   90.90807323
_cell_angle_beta   89.99005523
_cell_angle_gamma   90.02012808
_symmetry_Int_Tables_number   1
_chemical_formula_structural   YbV4O8
_chemical_formula_sum   'Yb2 V8 O16'
_cell_volume   294.72094503
_cell_formula_units_Z   2
loop_
 _symmetry_equiv_pos_site_id
 _symmetry_equiv_pos_as_xyz
  1  'x, y, z'
loop_
 _atom_site_type_symbol
 _atom_site_label
 _atom_site_symmetry_multiplicity
 _atom_site_fract_x
 _atom_site_fract_y
 _atom_site_fract_z
 _atom_site_occupancy
  Yb  Yb0  1  0.24914424  0.74644290  0.15799420  1
  Yb  Yb1  1  0.75085576  0.25355710  0.84200580  1
  V  V2  1  0.24974445  0.55181558  0.38792413  1
  V  V3  1  0.75025555  0.44818442  0.61207587  1
  V  V4  1  0.75046806  0.93029718  0.88438241  1
  V  V5  1  0.24953194  0.06970282  0.11561759  1
  V  V6  1  0.25023973  0.58479916  0.89333945  1
  V  V7  1  0.74976027  0.41520084  0.10666055  1
  V  V8  1  0.74916978  0.92287024  0.39812130  1
  V  V9  1  0.25083022  0.07712976  0.60187870  1
  O  O10  1  0.24917543  0.96733022  0.28345753  1
  O  O11  1  0.75082457  0.03266978  0.71654247  1
  O  O12  1  0.75024807  0.51262955  0.79631229  1
  O  O13  1  0.24975193  0.48737045  0.20368771  1
  O  O14  1  0.25058696  0.78388152  0.86268189  1
  O  O15  1  0.74941304  0.21611848  0.13731811  1
  O  O16  1  0.74903614  0.71758415  0.33673477  1
  O  O17  1  0.25096386  0.28241585  0.66326523  1
  O  O18  1  0.25002596  0.57191167  0.57633632  1
  O  O19  1  0.74997404  0.42808833  0.42366368  1
  O  O20  1  0.74957663  0.91908991  0.07500132  1
  O  O21  1  0.25042337  0.08091009  0.92499868  1
  O  O22  1  0.24958724  0.89062330  0.51808767  1
  O  O23  1  0.75041276  0.10937670  0.48191233  1
  O  O24  1  0.74996654  0.61451152  0.02508243  1
  O  O25  1  0.25003346  0.38548848  0.97491757  1
