# generated using pymatgen
data_YFeNi4
_symmetry_space_group_name_H-M   'P 1'
_cell_length_a   3.92439799
_cell_length_b   4.94927955
_cell_length_c   4.94843826
_cell_angle_alpha   60.01426582
_cell_angle_beta   90.00000000
_cell_angle_gamma   90.00000000
_symmetry_Int_Tables_number   1
_chemical_formula_structural   YFeNi4
_chemical_formula_sum   'Y1 Fe1 Ni4'
_cell_volume   83.24846424
_cell_formula_units_Z   1
loop_
 _symmetry_equiv_pos_site_id
 _symmetry_equiv_pos_as_xyz
  1  'x, y, z'
loop_
 _atom_site_type_symbol
 _atom_site_label
 _atom_site_symmetry_multiplicity
 _atom_site_fract_x
 _atom_site_fract_y
 _atom_site_fract_z
 _atom_site_occupancy
  Y  Y0  1  -0.00000000  0.99997389  0.00001299  1
  Fe  Fe1  1  -0.00000000  0.33333162  0.33342362  1
  Ni  Ni2  1  -0.00000000  0.66660850  0.66663897  1
  Ni  Ni3  1  0.50000000  0.50036258  0.50037421  1
  Ni  Ni4  1  0.50000000  0.50035637  0.99929109  1
  Ni  Ni5  1  0.50000000  0.99926705  0.50035912  1
