# generated using pymatgen
data_Y2C3O11
_symmetry_space_group_name_H-M   'P 1'
_cell_length_a   5.99645634
_cell_length_b   8.10309999
_cell_length_c   9.26610399
_cell_angle_alpha   90.00000000
_cell_angle_beta   90.00000000
_cell_angle_gamma   111.71623509
_symmetry_Int_Tables_number   1
_chemical_formula_structural   Y2C3O11
_chemical_formula_sum   'Y4 C6 O22'
_cell_volume   418.28446679
_cell_formula_units_Z   2
loop_
 _symmetry_equiv_pos_site_id
 _symmetry_equiv_pos_as_xyz
  1  'x, y, z'
loop_
 _atom_site_type_symbol
 _atom_site_label
 _atom_site_symmetry_multiplicity
 _atom_site_fract_x
 _atom_site_fract_y
 _atom_site_fract_z
 _atom_site_occupancy
  Y  Y0  1  0.15448930  0.31530306  0.49540828  1
  Y  Y1  1  0.83918624  0.68469694  0.49540828  1
  Y  Y2  1  0.84551070  0.68469694  0.99540828  1
  Y  Y3  1  0.16081376  0.31530306  0.99540828  1
  C  C4  1  0.06424982  0.61234628  0.24764992  1
  C  C5  1  0.45190354  0.38765372  0.24764992  1
  C  C6  1  0.93575018  0.38765372  0.74764992  1
  C  C7  1  0.54809646  0.61234628  0.74764992  1
  C  C8  1  0.76867751  0.00000000  0.42877015  1
  C  C9  1  0.23132249  0.00000000  0.92877015  1
  O  O10  1  0.11227421  0.55966895  0.37023184  1
  O  O11  1  0.55260525  0.44033105  0.37023184  1
  O  O12  1  0.88772579  0.44033105  0.87023184  1
  O  O13  1  0.44739475  0.55966895  0.87023184  1
  O  O14  1  0.97386153  0.73557293  0.24665900  1
  O  O15  1  0.23828861  0.26442707  0.24665900  1
  O  O16  1  0.02613847  0.26442707  0.74665900  1
  O  O17  1  0.76171139  0.73557293  0.74665900  1
  O  O18  1  0.08679372  0.54489293  0.12466611  1
  O  O19  1  0.54190079  0.45510707  0.12466611  1
  O  O20  1  0.91320628  0.45510707  0.62466611  1
  O  O21  1  0.45809921  0.54489293  0.62466611  1
  O  O22  1  0.97439999  0.00000000  0.49015776  1
  O  O23  1  0.02560001  -0.00000000  0.99015776  1
  O  O24  1  0.76098517  0.15250738  0.40384896  1
  O  O25  1  0.60847780  0.84749262  0.40384896  1
  O  O26  1  0.23901483  0.84749262  0.90384896  1
  O  O27  1  0.39152220  0.15250738  0.90384896  1
  O  O28  1  0.76131791  0.17448783  0.08907193  1
  O  O29  1  0.58683008  0.82551217  0.08907193  1
  O  O30  1  0.23868209  0.82551217  0.58907193  1
  O  O31  1  0.41316992  0.17448783  0.58907193  1
