# generated using pymatgen
data_LiSiH19(C3N2)2
_symmetry_space_group_name_H-M   'P 1'
_cell_length_a   9.47156405
_cell_length_b   12.18571198
_cell_length_c   23.27699627
_cell_angle_alpha   97.35106397
_cell_angle_beta   90.00000000
_cell_angle_gamma   90.00000000
_symmetry_Int_Tables_number   1
_chemical_formula_structural   LiSiH19(C3N2)2
_chemical_formula_sum   'Li8 Si8 H152 C48 N32'
_cell_volume   2664.49705664
_cell_formula_units_Z   8
loop_
 _symmetry_equiv_pos_site_id
 _symmetry_equiv_pos_as_xyz
  1  'x, y, z'
loop_
 _atom_site_type_symbol
 _atom_site_label
 _atom_site_symmetry_multiplicity
 _atom_site_fract_x
 _atom_site_fract_y
 _atom_site_fract_z
 _atom_site_occupancy
  Li  Li0  1  0.67994720  0.71186479  0.50113585  1
  Li  Li1  1  0.82005280  0.21186479  0.00113585  1
  Li  Li2  1  0.32005280  0.28813521  0.49886415  1
  Li  Li3  1  0.17994720  0.78813521  0.99886415  1
  Li  Li4  1  0.58326256  0.52651724  0.45851641  1
  Li  Li5  1  0.91673744  0.02651724  0.95851641  1
  Li  Li6  1  0.41673744  0.47348276  0.54148359  1
  Li  Li7  1  0.08326256  0.97348276  0.04148359  1
  Si  Si8  1  0.54053694  0.67729903  0.59769435  1
  Si  Si9  1  0.95946306  0.17729903  0.09769435  1
  Si  Si10  1  0.45946306  0.32270097  0.40230565  1
  Si  Si11  1  0.04053694  0.82270097  0.90230565  1
  Si  Si12  1  0.81824755  0.71138126  0.39992977  1
  Si  Si13  1  0.68175245  0.21138126  0.89992977  1
  Si  Si14  1  0.18175245  0.28861874  0.60007023  1
  Si  Si15  1  0.31824755  0.78861874  0.10007023  1
  H  H16  1  0.41149869  0.67948791  0.51357063  1
  H  H17  1  0.08850131  0.17948791  0.01357063  1
  H  H18  1  0.58850131  0.32051209  0.48642937  1
  H  H19  1  0.91149869  0.82051209  0.98642937  1
  H  H20  1  0.83807683  0.54614720  0.43565999  1
  H  H21  1  0.66192317  0.04614720  0.93565999  1
  H  H22  1  0.16192317  0.45385280  0.56434001  1
  H  H23  1  0.33807683  0.95385280  0.06434001  1
  H  H24  1  0.55845156  0.82195409  0.70204382  1
  H  H25  1  0.94154844  0.32195409  0.20204382  1
  H  H26  1  0.44154844  0.17804591  0.29795618  1
  H  H27  1  0.05845156  0.67804591  0.79795618  1
  H  H28  1  0.39662983  0.89511188  0.69759066  1
  H  H29  1  0.10337017  0.39511188  0.19759066  1
  H  H30  1  0.60337017  0.10488812  0.30240934  1
  H  H31  1  0.89662983  0.60488812  0.80240934  1
  H  H32  1  0.40288130  0.77585946  0.73440089  1
  H  H33  1  0.09711870  0.27585946  0.23440089  1
  H  H34  1  0.59711870  0.22414054  0.26559911  1
  H  H35  1  0.90288130  0.72414054  0.76559911  1
  H  H36  1  0.23891834  0.67399831  0.59318586  1
  H  H37  1  0.26108166  0.17399831  0.09318586  1
  H  H38  1  0.76108166  0.32600169  0.40681414  1
  H  H39  1  0.73891834  0.82600169  0.90681414  1
  H  H40  1  0.21152051  0.68850860  0.66956947  1
  H  H41  1  0.28847949  0.18850860  0.16956947  1
  H  H42  1  0.78847949  0.31149140  0.33043053  1
  H  H43  1  0.71152051  0.81149140  0.83043053  1
  H  H44  1  0.20636783  0.80736811  0.63238517  1
  H  H45  1  0.29363217  0.30736811  0.13238517  1
  H  H46  1  0.79363217  0.19263189  0.36761483  1
  H  H47  1  0.70636783  0.69263189  0.86761483  1
  H  H48  1  0.70794776  0.41045176  0.59634985  1
  H  H49  1  0.79205224  0.91045176  0.09634985  1
  H  H50  1  0.29205224  0.58954824  0.40365015  1
  H  H51  1  0.20794776  0.08954824  0.90365015  1
  H  H52  1  0.82465756  0.51588215  0.62715337  1
  H  H53  1  0.67534244  0.01588215  0.12715337  1
  H  H54  1  0.17534244  0.48411785  0.37284663  1
  H  H55  1  0.32465756  0.98411785  0.87284663  1
  H  H56  1  0.75040257  0.52302523  0.55742086  1
  H  H57  1  0.74959743  0.02302523  0.05742086  1
  H  H58  1  0.24959743  0.47697477  0.44257914  1
  H  H59  1  0.25040257  0.97697477  0.94257914  1
  H  H60  1  0.55669297  0.44907829  0.68482350  1
  H  H61  1  0.94330703  0.94907829  0.18482350  1
  H  H62  1  0.44330703  0.55092171  0.31517650  1
  H  H63  1  0.05669297  0.05092171  0.81517650  1
  H  H64  1  0.66495575  0.56141098  0.71523502  1
  H  H65  1  0.83504425  0.06141098  0.21523502  1
  H  H66  1  0.33504425  0.43858902  0.28476498  1
  H  H67  1  0.16495575  0.93858902  0.78476498  1
  H  H68  1  0.48173310  0.58312829  0.70157321  1
  H  H69  1  0.01826690  0.08312829  0.20157321  1
  H  H70  1  0.51826690  0.41687171  0.29842679  1
  H  H71  1  0.98173310  0.91687171  0.79842679  1
  H  H72  1  0.90019576  0.80661543  0.61348506  1
  H  H73  1  0.59980424  0.30661543  0.11348506  1
  H  H74  1  0.09980424  0.19338457  0.38651494  1
  H  H75  1  0.40019576  0.69338457  0.88651494  1
  H  H76  1  0.78745468  0.83384886  0.67465575  1
  H  H77  1  0.71254532  0.33384886  0.17465575  1
  H  H78  1  0.21254532  0.16615114  0.32534425  1
  H  H79  1  0.28745468  0.66615114  0.82534425  1
  H  H80  1  0.82885595  0.69457911  0.64638862  1
  H  H81  1  0.67114405  0.19457911  0.14638862  1
  H  H82  1  0.17114405  0.30542089  0.35361138  1
  H  H83  1  0.32885595  0.80542089  0.85361138  1
  H  H84  1  0.61827546  0.93863015  0.62375785  1
  H  H85  1  0.88172454  0.43863015  0.12375785  1
  H  H86  1  0.38172454  0.06136985  0.37624215  1
  H  H87  1  0.11827546  0.56136985  0.87624215  1
  H  H88  1  0.55698623  0.88219457  0.55395658  1
  H  H89  1  0.94301377  0.38219457  0.05395658  1
  H  H90  1  0.44301377  0.11780543  0.44604342  1
  H  H91  1  0.05698623  0.61780543  0.94604342  1
  H  H92  1  0.73742410  0.92346243  0.56410002  1
  H  H93  1  0.76257590  0.42346243  0.06410002  1
  H  H94  1  0.26257590  0.07653757  0.43589998  1
  H  H95  1  0.23742410  0.57653757  0.93589998  1
  H  H96  1  0.88044018  0.78234992  0.26023219  1
  H  H97  1  0.61955982  0.28234992  0.76023219  1
  H  H98  1  0.11955982  0.21765008  0.73976781  1
  H  H99  1  0.38044018  0.71765008  0.23976781  1
  H  H100  1  0.69775351  0.74831207  0.25641241  1
  H  H101  1  0.80224649  0.24831207  0.75641241  1
  H  H102  1  0.30224649  0.25168793  0.74358759  1
  H  H103  1  0.19775351  0.75168793  0.24358759  1
  H  H104  1  0.76119015  0.85038422  0.31205344  1
  H  H105  1  0.73880985  0.35038422  0.81205344  1
  H  H106  1  0.23880985  0.14961578  0.68794656  1
  H  H107  1  0.26119015  0.64961578  0.18794656  1
  H  H108  1  0.86532438  0.51916663  0.32326283  1
  H  H109  1  0.63467562  0.01916663  0.82326283  1
  H  H110  1  0.13467562  0.48083337  0.67673717  1
  H  H111  1  0.36532438  0.98083337  0.17673717  1
  H  H112  1  0.95501947  0.58847857  0.27069910  1
  H  H113  1  0.54498053  0.08847857  0.77069910  1
  H  H114  1  0.04498053  0.41152143  0.72930090  1
  H  H115  1  0.45501947  0.91152143  0.22930090  1
  H  H116  1  0.77425783  0.54954513  0.26022059  1
  H  H117  1  0.72574217  0.04954513  0.76022059  1
  H  H118  1  0.22574217  0.45045487  0.73977941  1
  H  H119  1  0.27425783  0.95045487  0.23977941  1
  H  H120  1  0.53640264  0.84378053  0.36113523  1
  H  H121  1  0.96359736  0.34378053  0.86113523  1
  H  H122  1  0.46359736  0.15621947  0.63886477  1
  H  H123  1  0.03640264  0.65621947  0.13886477  1
  H  H124  1  0.47597635  0.84884007  0.43387381  1
  H  H125  1  0.02402365  0.34884007  0.93387381  1
  H  H126  1  0.52402365  0.15115993  0.56612619  1
  H  H127  1  0.97597635  0.65115993  0.06612619  1
  H  H128  1  0.52341769  0.71940161  0.39341124  1
  H  H129  1  0.97658231  0.21940161  0.89341124  1
  H  H130  1  0.47658231  0.28059839  0.60658876  1
  H  H131  1  0.02341769  0.78059839  0.10658876  1
  H  H132  1  0.84971280  0.94352797  0.44517605  1
  H  H133  1  0.65028720  0.44352797  0.94517605  1
  H  H134  1  0.15028720  0.05647203  0.55482395  1
  H  H135  1  0.34971280  0.55647203  0.05482395  1
  H  H136  1  0.73043979  0.97361706  0.38996474  1
  H  H137  1  0.76956021  0.47361706  0.88996474  1
  H  H138  1  0.26956021  0.02638294  0.61003526  1
  H  H139  1  0.23043979  0.52638294  0.11003526  1
  H  H140  1  0.67299542  0.98522368  0.46308788  1
  H  H141  1  0.82700458  0.48522368  0.96308788  1
  H  H142  1  0.32700458  0.01477632  0.53691212  1
  H  H143  1  0.17299542  0.51477632  0.03691212  1
  H  H144  1  0.15561202  0.74910089  0.47663472  1
  H  H145  1  0.34438798  0.24910089  0.97663472  1
  H  H146  1  0.84438798  0.25089911  0.52336528  1
  H  H147  1  0.65561202  0.75089911  0.02336528  1
  H  H148  1  0.98399680  0.71982074  0.50235240  1
  H  H149  1  0.51600320  0.21982074  0.00235240  1
  H  H150  1  0.01600320  0.28017926  0.49764760  1
  H  H151  1  0.48399680  0.78017926  0.99764760  1
  H  H152  1  0.03628543  0.85979867  0.49747438  1
  H  H153  1  0.46371457  0.35979867  0.99747438  1
  H  H154  1  0.96371457  0.14020133  0.50252562  1
  H  H155  1  0.53628543  0.64020133  0.00252562  1
  H  H156  1  0.18540756  0.79511426  0.38062877  1
  H  H157  1  0.31459244  0.29511426  0.88062877  1
  H  H158  1  0.81459244  0.20488574  0.61937123  1
  H  H159  1  0.68540756  0.70488574  0.11937123  1
  H  H160  1  0.03669917  0.80472365  0.33495101  1
  H  H161  1  0.46330083  0.30472365  0.83495101  1
  H  H162  1  0.96330083  0.19527635  0.66504899  1
  H  H163  1  0.53669917  0.69527635  0.16504899  1
  H  H164  1  0.07102212  0.91140660  0.39316515  1
  H  H165  1  0.42897788  0.41140660  0.89316515  1
  H  H166  1  0.92897788  0.08859340  0.60683485  1
  H  H167  1  0.57102212  0.58859340  0.10683485  1
  C  C168  1  0.44396505  0.81172203  0.69627495  1
  C  C169  1  0.05603495  0.31172203  0.19627495  1
  C  C170  1  0.55603495  0.18827797  0.30372505  1
  C  C171  1  0.94396505  0.68827797  0.80372505  1
  C  C172  1  0.26061360  0.72722960  0.63393065  1
  C  C173  1  0.23938640  0.22722960  0.13393065  1
  C  C174  1  0.73938640  0.27277040  0.36606935  1
  C  C175  1  0.76061360  0.77277040  0.86606935  1
  C  C176  1  0.72755886  0.50055341  0.60073403  1
  C  C177  1  0.77244114  0.00055341  0.10073403  1
  C  C178  1  0.27244114  0.49944659  0.39926597  1
  C  C179  1  0.22755886  0.99944659  0.89926597  1
  C  C180  1  0.57659562  0.53841377  0.68477808  1
  C  C181  1  0.92340438  0.03841377  0.18477808  1
  C  C182  1  0.42340438  0.46158623  0.31522192  1
  C  C183  1  0.07659562  0.96158623  0.81522192  1
  C  C184  1  0.80545336  0.77662230  0.63426733  1
  C  C185  1  0.69454664  0.27662230  0.13426733  1
  C  C186  1  0.19454664  0.22337770  0.36573267  1
  C  C187  1  0.30545336  0.72337770  0.86573267  1
  C  C188  1  0.64751298  0.88422949  0.58372750  1
  C  C189  1  0.85248702  0.38422949  0.08372750  1
  C  C190  1  0.35248702  0.11577051  0.41627250  1
  C  C191  1  0.14751298  0.61577051  0.91627250  1
  C  C192  1  0.78593690  0.77019305  0.28696222  1
  C  C193  1  0.71406310  0.27019305  0.78696222  1
  C  C194  1  0.21406310  0.22980695  0.71303778  1
  C  C195  1  0.28593690  0.72980695  0.21303778  1
  C  C196  1  0.85294504  0.58145460  0.29342090  1
  C  C197  1  0.64705496  0.08145460  0.79342090  1
  C  C198  1  0.14705496  0.41854540  0.70657910  1
  C  C199  1  0.35294504  0.91854540  0.20657910  1
  C  C200  1  0.55150185  0.80744371  0.40201066  1
  C  C201  1  0.94849815  0.30744371  0.90201066  1
  C  C202  1  0.44849815  0.19255629  0.59798934  1
  C  C203  1  0.05150185  0.69255629  0.09798934  1
  C  C204  1  0.73961771  0.93535692  0.43063232  1
  C  C205  1  0.76038229  0.43535692  0.93063232  1
  C  C206  1  0.26038229  0.06464308  0.56936768  1
  C  C207  1  0.23961771  0.56464308  0.06936768  1
  C  C208  1  0.04292834  0.77291391  0.47607384  1
  C  C209  1  0.45707166  0.27291391  0.97607384  1
  C  C210  1  0.95707166  0.22708609  0.52392616  1
  C  C211  1  0.54292834  0.72708609  0.02392616  1
  C  C212  1  0.07347441  0.82045506  0.37988917  1
  C  C213  1  0.42652559  0.32045506  0.87988917  1
  C  C214  1  0.92652559  0.17954494  0.62011083  1
  C  C215  1  0.57347441  0.67954494  0.12011083  1
  N  N216  1  0.41111376  0.74264472  0.64242386  1
  N  N217  1  0.08888624  0.24264472  0.14242386  1
  N  N218  1  0.58888624  0.25735528  0.35757614  1
  N  N219  1  0.91111376  0.75735528  0.85757614  1
  N  N220  1  0.60699702  0.56227482  0.62649636  1
  N  N221  1  0.89300298  0.06227482  0.12649636  1
  N  N222  1  0.39300298  0.43772518  0.37350364  1
  N  N223  1  0.10699702  0.93772518  0.87350364  1
  N  N224  1  0.68452364  0.77232404  0.59505161  1
  N  N225  1  0.81547636  0.27232404  0.09505161  1
  N  N226  1  0.31547636  0.22767596  0.40494839  1
  N  N227  1  0.18452364  0.72767596  0.90494839  1
  N  N228  1  0.49010340  0.63288305  0.52830180  1
  N  N229  1  0.00989660  0.13288305  0.02830180  1
  N  N230  1  0.50989660  0.36711695  0.47169820  1
  N  N231  1  0.99010340  0.86711695  0.97169820  1
  N  N232  1  0.80793909  0.68600288  0.32461841  1
  N  N233  1  0.69206091  0.18600288  0.82461841  1
  N  N234  1  0.19206091  0.31399712  0.67538159  1
  N  N235  1  0.30793909  0.81399712  0.17538159  1
  N  N236  1  0.69611798  0.81972381  0.42358147  1
  N  N237  1  0.80388202  0.31972381  0.92358147  1
  N  N238  1  0.30388202  0.18027619  0.57641853  1
  N  N239  1  0.19611798  0.68027619  0.07641853  1
  N  N240  1  0.98914514  0.75985370  0.41732731  1
  N  N241  1  0.51085486  0.25985370  0.91732731  1
  N  N242  1  0.01085486  0.24014630  0.58267269  1
  N  N243  1  0.48914514  0.74014630  0.08267269  1
  N  N244  1  0.76541189  0.60836294  0.43769971  1
  N  N245  1  0.73458811  0.10836294  0.93769971  1
  N  N246  1  0.23458811  0.39163706  0.56230029  1
  N  N247  1  0.26541189  0.89163706  0.06230029  1
