# generated using pymatgen
data_ThSc(BRh)8
_symmetry_space_group_name_H-M   'P 1'
_cell_length_a   5.35058262
_cell_length_b   5.35058262
_cell_length_c   7.51426580
_cell_angle_alpha   90.00000000
_cell_angle_beta   90.00000000
_cell_angle_gamma   90.00000000
_symmetry_Int_Tables_number   1
_chemical_formula_structural   ThSc(BRh)8
_chemical_formula_sum   'Th1 Sc1 B8 Rh8'
_cell_volume   215.12391960
_cell_formula_units_Z   1
loop_
 _symmetry_equiv_pos_site_id
 _symmetry_equiv_pos_as_xyz
  1  'x, y, z'
loop_
 _atom_site_type_symbol
 _atom_site_label
 _atom_site_symmetry_multiplicity
 _atom_site_fract_x
 _atom_site_fract_y
 _atom_site_fract_z
 _atom_site_occupancy
  Th  Th0  1  0.25000000  0.75000000  0.75000000  1
  Sc  Sc1  1  0.75000000  0.25000000  0.25000000  1
  B  B2  1  0.57928268  0.75000000  0.39819766  1
  B  B3  1  0.92071732  0.75000000  0.39819766  1
  B  B4  1  0.75000000  0.58327713  0.90066143  1
  B  B5  1  0.75000000  0.91672287  0.90066143  1
  B  B6  1  0.41672287  0.25000000  0.59933857  1
  B  B7  1  0.08327713  0.25000000  0.59933857  1
  B  B8  1  0.25000000  0.42071732  0.10180234  1
  B  B9  1  0.25000000  0.07928268  0.10180234  1
  Rh  Rh10  1  0.99901041  0.75000000  0.10878540  1
  Rh  Rh11  1  0.50098959  0.75000000  0.10878540  1
  Rh  Rh12  1  0.75000000  0.00176069  0.59751291  1
  Rh  Rh13  1  0.75000000  0.49823931  0.59751291  1
  Rh  Rh14  1  0.99823931  0.25000000  0.90248709  1
  Rh  Rh15  1  0.50176069  0.25000000  0.90248709  1
  Rh  Rh16  1  0.25000000  0.00098959  0.39121460  1
  Rh  Rh17  1  0.25000000  0.49901041  0.39121460  1
