# generated using pymatgen
data_V4AgO10
_symmetry_space_group_name_H-M   'P 1'
_cell_length_a   3.68874685
_cell_length_b   6.19146860
_cell_length_c   9.17920827
_cell_angle_alpha   91.34312157
_cell_angle_beta   90.00000000
_cell_angle_gamma   72.66911808
_symmetry_Int_Tables_number   1
_chemical_formula_structural   V4AgO10
_chemical_formula_sum   'V4 Ag1 O10'
_cell_volume   200.06374273
_cell_formula_units_Z   1
loop_
 _symmetry_equiv_pos_site_id
 _symmetry_equiv_pos_as_xyz
  1  'x, y, z'
loop_
 _atom_site_type_symbol
 _atom_site_label
 _atom_site_symmetry_multiplicity
 _atom_site_fract_x
 _atom_site_fract_y
 _atom_site_fract_z
 _atom_site_occupancy
  V  V0  1  0.06547853  0.86904295  0.33427435  1
  V  V1  1  0.93209980  0.13580040  0.66473824  1
  V  V2  1  0.77126514  0.45746972  0.33548581  1
  V  V3  1  0.22845705  0.54308589  0.66335652  1
  Ag  Ag4  1  0.37987048  0.24025904  0.01647591  1
  O  O5  1  0.60346985  0.79306030  0.36422323  1
  O  O6  1  0.39866528  0.20266943  0.63546371  1
  O  O7  1  0.24048349  0.51903303  0.38174513  1
  O  O8  1  0.75962405  0.48075190  0.61628315  1
  O  O9  1  0.05002829  0.89994343  0.15888389  1
  O  O10  1  0.93532784  0.12934432  0.84576114  1
  O  O11  1  0.80037640  0.39924719  0.15691386  1
  O  O12  1  0.21567449  0.56865101  0.83955900  1
  O  O13  1  0.92343317  0.15313366  0.40472935  1
  O  O14  1  0.07904614  0.84190773  0.60680673  1
