# generated using pymatgen
data_ThSc2(BRh)12
_symmetry_space_group_name_H-M   'P 1'
_cell_length_a   5.33132523
_cell_length_b   5.33132523
_cell_length_c   22.33802781
_cell_angle_alpha   90.00000000
_cell_angle_beta   90.00000000
_cell_angle_gamma   90.00000000
_symmetry_Int_Tables_number   1
_chemical_formula_structural   ThSc2(BRh)12
_chemical_formula_sum   'Th2 Sc4 B24 Rh24'
_cell_volume   634.91440572
_cell_formula_units_Z   2
loop_
 _symmetry_equiv_pos_site_id
 _symmetry_equiv_pos_as_xyz
  1  'x, y, z'
loop_
 _atom_site_type_symbol
 _atom_site_label
 _atom_site_symmetry_multiplicity
 _atom_site_fract_x
 _atom_site_fract_y
 _atom_site_fract_z
 _atom_site_occupancy
  Th  Th0  1  0.25000000  0.75000000  0.58275372  1
  Th  Th1  1  0.25000000  0.75000000  0.91724628  1
  Sc  Sc2  1  0.75000000  0.25000000  0.08356798  1
  Sc  Sc3  1  0.75000000  0.25000000  0.41643202  1
  Sc  Sc4  1  0.75000000  0.25000000  0.75000000  1
  Sc  Sc5  1  0.25000000  0.75000000  0.25000000  1
  B  B6  1  0.57993445  0.75000000  0.13443237  1
  B  B7  1  0.58106883  0.75000000  0.46361436  1
  B  B8  1  0.58052797  0.75000000  0.79917957  1
  B  B9  1  0.92006555  0.75000000  0.13443237  1
  B  B10  1  0.91893117  0.75000000  0.46361436  1
  B  B11  1  0.91947203  0.75000000  0.79917957  1
  B  B12  1  0.75000000  0.58056771  0.29870477  1
  B  B13  1  0.75000000  0.58347726  0.63318179  1
  B  B14  1  0.75000000  0.58326723  0.96732346  1
  B  B15  1  0.75000000  0.91943229  0.29870477  1
  B  B16  1  0.75000000  0.91652274  0.63318179  1
  B  B17  1  0.75000000  0.91673277  0.96732346  1
  B  B18  1  0.41943229  0.25000000  0.20129523  1
  B  B19  1  0.41673277  0.25000000  0.53267654  1
  B  B20  1  0.41652274  0.25000000  0.86681821  1
  B  B21  1  0.08056771  0.25000000  0.20129523  1
  B  B22  1  0.08326723  0.25000000  0.53267654  1
  B  B23  1  0.08347726  0.25000000  0.86681821  1
  B  B24  1  0.25000000  0.41893117  0.03638564  1
  B  B25  1  0.25000000  0.42006555  0.36556763  1
  B  B26  1  0.25000000  0.41947203  0.70082043  1
  B  B27  1  0.25000000  0.08106883  0.03638564  1
  B  B28  1  0.25000000  0.07993445  0.36556763  1
  B  B29  1  0.25000000  0.08052797  0.70082043  1
  Rh  Rh30  1  0.99878053  0.75000000  0.03738705  1
  Rh  Rh31  1  0.00109123  0.75000000  0.36633574  1
  Rh  Rh32  1  0.99817659  0.75000000  0.70279782  1
  Rh  Rh33  1  0.50121947  0.75000000  0.03738705  1
  Rh  Rh34  1  0.49890877  0.75000000  0.36633574  1
  Rh  Rh35  1  0.50182341  0.75000000  0.70279782  1
  Rh  Rh36  1  0.75000000  0.00156331  0.20100659  1
  Rh  Rh37  1  0.75000000  0.00172271  0.53133846  1
  Rh  Rh38  1  0.75000000  0.00165158  0.86592395  1
  Rh  Rh39  1  0.75000000  0.49843669  0.20100659  1
  Rh  Rh40  1  0.75000000  0.49827729  0.53133846  1
  Rh  Rh41  1  0.75000000  0.49834842  0.86592395  1
  Rh  Rh42  1  0.99843669  0.25000000  0.29899341  1
  Rh  Rh43  1  0.99834842  0.25000000  0.63407605  1
  Rh  Rh44  1  0.99827729  0.25000000  0.96866154  1
  Rh  Rh45  1  0.50156331  0.25000000  0.29899341  1
  Rh  Rh46  1  0.50165158  0.25000000  0.63407605  1
  Rh  Rh47  1  0.50172271  0.25000000  0.96866154  1
  Rh  Rh48  1  0.25000000  0.99890877  0.13366426  1
  Rh  Rh49  1  0.25000000  0.00121947  0.46261295  1
  Rh  Rh50  1  0.25000000  0.00182341  0.79720218  1
  Rh  Rh51  1  0.25000000  0.50109123  0.13366426  1
  Rh  Rh52  1  0.25000000  0.49878053  0.46261295  1
  Rh  Rh53  1  0.25000000  0.49817659  0.79720218  1
