# generated using pymatgen
data_Tm(CuTe)3
_symmetry_space_group_name_H-M   'P 1'
_cell_length_a   7.44015277
_cell_length_b   8.19950483
_cell_length_c   7.43990743
_cell_angle_alpha   63.01721076
_cell_angle_beta   119.99996974
_cell_angle_gamma   116.98575720
_symmetry_Int_Tables_number   1
_chemical_formula_structural   Tm(CuTe)3
_chemical_formula_sum   'Tm2 Cu6 Te6'
_cell_volume   334.79759195
_cell_formula_units_Z   2
loop_
 _symmetry_equiv_pos_site_id
 _symmetry_equiv_pos_as_xyz
  1  'x, y, z'
loop_
 _atom_site_type_symbol
 _atom_site_label
 _atom_site_symmetry_multiplicity
 _atom_site_fract_x
 _atom_site_fract_y
 _atom_site_fract_z
 _atom_site_occupancy
  Tm  Tm0  1  0.00063004  0.00189214  0.99937872  1
  Tm  Tm1  1  0.33270296  0.99810786  0.66728828  1
  Cu  Cu2  1  0.79513503  0.37525080  0.86216802  1
  Cu  Cu3  1  0.13785004  0.37532474  0.55759147  1
  Cu  Cu4  1  0.44237081  0.37529799  0.20493385  1
  Cu  Cu5  1  0.89096219  0.62470201  0.46173315  1
  Cu  Cu6  1  0.19548396  0.62467526  0.10907453  1
  Cu  Cu7  1  0.53819797  0.62474920  0.80449898  1
  Te  Te8  1  0.58721593  0.75584456  0.09257797  1
  Te  Te9  1  0.26115946  0.75582826  0.41273776  1
  Te  Te10  1  0.90744294  0.75578645  0.73886235  1
  Te  Te11  1  0.42589106  0.24421355  0.92780365  1
  Te  Te12  1  0.07217354  0.24417174  0.25392924  1
  Te  Te13  1  0.74611707  0.24415544  0.57408903  1
