# generated using pymatgen
data_Tb2Si3Ge
_symmetry_space_group_name_H-M   'P 1'
_cell_length_a   3.96826755
_cell_length_b   4.00145682
_cell_length_c   8.12957238
_cell_angle_alpha   75.75285802
_cell_angle_beta   75.87349328
_cell_angle_gamma   90.00000000
_symmetry_Int_Tables_number   1
_chemical_formula_structural   Tb2Si3Ge
_chemical_formula_sum   'Tb2 Si3 Ge1'
_cell_volume   121.08626194
_cell_formula_units_Z   1
loop_
 _symmetry_equiv_pos_site_id
 _symmetry_equiv_pos_as_xyz
  1  'x, y, z'
loop_
 _atom_site_type_symbol
 _atom_site_label
 _atom_site_symmetry_multiplicity
 _atom_site_fract_x
 _atom_site_fract_y
 _atom_site_fract_z
 _atom_site_occupancy
  Tb  Tb0  1  0.88039672  0.63039672  0.73920656  1
  Tb  Tb1  1  0.12172366  0.37172366  0.25655269  1
  Si  Si2  1  0.46151569  0.21151569  0.57696862  1
  Si  Si3  1  0.54237708  0.79237708  0.41524584  1
  Si  Si4  1  0.69991036  0.94991036  0.10017928  1
  Ge  Ge5  1  0.29407649  0.04407649  0.91184701  1
