# generated using pymatgen
data_V7(CuS6)2
_symmetry_space_group_name_H-M   'P 1'
_cell_length_a   6.70742919
_cell_length_b   6.65619771
_cell_length_c   8.02854592
_cell_angle_alpha   89.94016972
_cell_angle_beta   71.98447487
_cell_angle_gamma   106.54850473
_symmetry_Int_Tables_number   1
_chemical_formula_structural   V7(CuS6)2
_chemical_formula_sum   'V7 Cu2 S12'
_cell_volume   325.18392894
_cell_formula_units_Z   1
loop_
 _symmetry_equiv_pos_site_id
 _symmetry_equiv_pos_as_xyz
  1  'x, y, z'
loop_
 _atom_site_type_symbol
 _atom_site_label
 _atom_site_symmetry_multiplicity
 _atom_site_fract_x
 _atom_site_fract_y
 _atom_site_fract_z
 _atom_site_occupancy
  V  V0  1  0.35796935  0.05177641  0.15445568  1
  V  V1  1  0.02486115  0.71597113  0.48699138  1
  V  V2  1  0.68988654  0.38482815  0.81881890  1
  V  V3  1  0.31011346  0.61517185  0.18118110  1
  V  V4  1  0.97513885  0.28402887  0.51300862  1
  V  V5  1  0.64203065  0.94822359  0.84554432  1
  V  V6  1  -0.00000000  -0.00000000  0.00000000  1
  Cu  Cu7  1  0.66732712  0.66686379  0.33393493  1
  Cu  Cu8  1  0.33267288  0.33313621  0.66606507  1
  S  S9  1  0.40308830  0.85575922  0.37228255  1
  S  S10  1  0.06914686  0.52250172  0.70431236  1
  S  S11  1  0.73918879  0.18832785  0.03656980  1
  S  S12  1  0.26081121  0.81167215  0.96343020  1
  S  S13  1  0.93085314  0.47749828  0.29568764  1
  S  S14  1  0.59691170  0.14424078  0.62771745  1
  S  S15  1  0.29849996  0.31954062  0.98573952  1
  S  S16  1  0.96964120  0.99232752  0.31187620  1
  S  S17  1  0.63618802  0.65759603  0.64997281  1
  S  S18  1  0.36381198  0.34240397  0.35002719  1
  S  S19  1  0.03035880  0.00767248  0.68812380  1
  S  S20  1  0.70150004  0.68045938  0.01426048  1
