# generated using pymatgen
data_Cu2Pb5C(SO7)3
_symmetry_space_group_name_H-M   'P 1'
_cell_length_a   6.10116301
_cell_length_b   7.59142195
_cell_length_c   20.78403744
_cell_angle_alpha   90.00000000
_cell_angle_beta   90.00000000
_cell_angle_gamma   90.00000000
_symmetry_Int_Tables_number   1
_chemical_formula_structural   Cu2Pb5C(SO7)3
_chemical_formula_sum   'Cu4 Pb10 C2 S6 O42'
_cell_volume   962.64392817
_cell_formula_units_Z   2
loop_
 _symmetry_equiv_pos_site_id
 _symmetry_equiv_pos_as_xyz
  1  'x, y, z'
loop_
 _atom_site_type_symbol
 _atom_site_label
 _atom_site_symmetry_multiplicity
 _atom_site_fract_x
 _atom_site_fract_y
 _atom_site_fract_z
 _atom_site_occupancy
  Cu  Cu0  1  0.18631494  0.49646760  0.24928547  1
  Cu  Cu1  1  0.18631494  0.49646760  0.75071453  1
  Cu  Cu2  1  0.68631494  0.50353240  0.25071453  1
  Cu  Cu3  1  0.68631494  0.50353240  0.74928547  1
  Pb  Pb4  1  0.98748556  0.10676615  0.00000000  1
  Pb  Pb5  1  0.48748556  0.89323385  0.50000000  1
  Pb  Pb6  1  0.45323306  0.43132447  0.09598343  1
  Pb  Pb7  1  0.45323306  0.43132447  0.90401657  1
  Pb  Pb8  1  0.95323306  0.56867553  0.40401657  1
  Pb  Pb9  1  0.95323306  0.56867553  0.59598343  1
  Pb  Pb10  1  0.41662777  0.87636724  0.16909986  1
  Pb  Pb11  1  0.41662777  0.87636724  0.83090014  1
  Pb  Pb12  1  0.91662777  0.12363276  0.33090014  1
  Pb  Pb13  1  0.91662777  0.12363276  0.66909986  1
  C  C14  1  0.41518947  0.83577378  0.00000000  1
  C  C15  1  0.91518947  0.16422622  0.50000000  1
  S  S16  1  0.94353752  0.12208407  0.16149908  1
  S  S17  1  0.94353752  0.12208407  0.83850092  1
  S  S18  1  0.44353752  0.87791593  0.33850092  1
  S  S19  1  0.44353752  0.87791593  0.66149908  1
  S  S20  1  0.95063729  0.55731404  0.00000000  1
  S  S21  1  0.45063729  0.44268596  0.50000000  1
  O  O22  1  0.13695820  0.39133608  0.32756951  1
  O  O23  1  0.13695820  0.39133608  0.67243049  1
  O  O24  1  0.63695820  0.60866392  0.17243049  1
  O  O25  1  0.63695820  0.60866392  0.82756951  1
  O  O26  1  0.24010238  0.59548872  0.17009072  1
  O  O27  1  0.24010238  0.59548872  0.82990928  1
  O  O28  1  0.74010238  0.40451128  0.32990928  1
  O  O29  1  0.74010238  0.40451128  0.67009072  1
  O  O30  1  0.43894454  0.37156012  0.23669877  1
  O  O31  1  0.43894454  0.37156012  0.76330123  1
  O  O32  1  0.93894454  0.62843988  0.26330123  1
  O  O33  1  0.93894454  0.62843988  0.73669877  1
  O  O34  1  0.95272725  0.66421514  0.05859920  1
  O  O35  1  0.95272725  0.66421514  0.94140080  1
  O  O36  1  0.45272725  0.33578486  0.44140080  1
  O  O37  1  0.45272725  0.33578486  0.55859920  1
  O  O38  1  0.75512580  0.43039097  -0.00000000  1
  O  O39  1  0.25512580  0.56960903  0.50000000  1
  O  O40  1  0.14887273  0.42797971  0.00000000  1
  O  O41  1  0.64887273  0.57202029  0.50000000  1
  O  O42  1  0.92705397  0.26417790  0.21058641  1
  O  O43  1  0.92705397  0.26417790  0.78941359  1
  O  O44  1  0.42705397  0.73582210  0.28941359  1
  O  O45  1  0.42705397  0.73582210  0.71058641  1
  O  O46  1  0.99235000  0.95330843  0.19469484  1
  O  O47  1  0.99235000  0.95330843  0.80530516  1
  O  O48  1  0.49235000  0.04669157  0.30530516  1
  O  O49  1  0.49235000  0.04669157  0.69469484  1
  O  O50  1  0.73636176  0.11126685  0.12309737  1
  O  O51  1  0.73636176  0.11126685  0.87690263  1
  O  O52  1  0.23636176  0.88873315  0.37690263  1
  O  O53  1  0.23636176  0.88873315  0.62309737  1
  O  O54  1  0.12767422  0.16285878  0.11464619  1
  O  O55  1  0.12767422  0.16285878  0.88535381  1
  O  O56  1  0.62767422  0.83714122  0.38535381  1
  O  O57  1  0.62767422  0.83714122  0.61464619  1
  O  O58  1  0.44186288  0.75333347  0.05426716  1
  O  O59  1  0.44186288  0.75333347  0.94573284  1
  O  O60  1  0.94186288  0.24666653  0.44573284  1
  O  O61  1  0.94186288  0.24666653  0.55426716  1
  O  O62  1  0.36519212  0.00166920  0.00000000  1
  O  O63  1  0.86519212  0.99833080  0.50000000  1
