# generated using pymatgen
data_SrGd2BeO5
_symmetry_space_group_name_H-M   'P 1'
_cell_length_a   6.55237885
_cell_length_b   7.18635059
_cell_length_c   9.54433241
_cell_angle_alpha   90.00000000
_cell_angle_beta   90.00000000
_cell_angle_gamma   90.00000000
_symmetry_Int_Tables_number   1
_chemical_formula_structural   SrGd2BeO5
_chemical_formula_sum   'Sr4 Gd8 Be4 O20'
_cell_volume   449.42058119
_cell_formula_units_Z   4
loop_
 _symmetry_equiv_pos_site_id
 _symmetry_equiv_pos_as_xyz
  1  'x, y, z'
loop_
 _atom_site_type_symbol
 _atom_site_label
 _atom_site_symmetry_multiplicity
 _atom_site_fract_x
 _atom_site_fract_y
 _atom_site_fract_z
 _atom_site_occupancy
  Sr  Sr0  1  0.58362425  0.98204698  0.67569799  1
  Sr  Sr1  1  0.41637575  0.48204698  0.32430201  1
  Sr  Sr2  1  0.08362425  0.48204698  0.82430201  1
  Sr  Sr3  1  0.91637575  0.98204698  0.17569799  1
  Gd  Gd4  1  0.09376135  0.74683232  0.52098516  1
  Gd  Gd5  1  0.40623865  0.74683232  0.02098516  1
  Gd  Gd6  1  0.90623865  0.24683232  0.47901484  1
  Gd  Gd7  1  0.59376135  0.24683232  0.97901484  1
  Gd  Gd8  1  0.92873395  0.52565098  0.17487205  1
  Gd  Gd9  1  0.07126605  0.02565098  0.82512795  1
  Gd  Gd10  1  0.42873395  0.02565098  0.32512795  1
  Gd  Gd11  1  0.57126605  0.52565098  0.67487205  1
  Be  Be12  1  0.69288876  0.74888717  0.39945844  1
  Be  Be13  1  0.80711124  0.74888717  0.89945844  1
  Be  Be14  1  0.30711124  0.24888717  0.60054156  1
  Be  Be15  1  0.19288876  0.24888717  0.10054156  1
  O  O16  1  0.01911953  0.74784379  0.99162560  1
  O  O17  1  0.48088047  0.74784379  0.49162560  1
  O  O18  1  0.98088047  0.24784379  0.00837440  1
  O  O19  1  0.51911953  0.24784379  0.50837440  1
  O  O20  1  0.63269983  0.75055655  0.22472788  1
  O  O21  1  0.86730017  0.75055655  0.72472788  1
  O  O22  1  0.36730017  0.25055655  0.77527212  1
  O  O23  1  0.13269983  0.25055655  0.27527212  1
  O  O24  1  0.31945752  0.05649993  0.07219067  1
  O  O25  1  0.19467310  0.44387086  0.56642924  1
  O  O26  1  0.68054248  0.55649993  0.92780933  1
  O  O27  1  0.80532690  0.94387086  0.43357076  1
  O  O28  1  0.69467310  0.94387086  0.93357076  1
  O  O29  1  0.81945752  0.55649993  0.42780933  1
  O  O30  1  0.30532690  0.44387086  0.06642924  1
  O  O31  1  0.18054248  0.05649993  0.57219067  1
  O  O32  1  0.16173086  0.74781141  0.28117458  1
  O  O33  1  0.33826914  0.74781141  0.78117458  1
  O  O34  1  0.83826914  0.24781141  0.71882542  1
  O  O35  1  0.66173086  0.24781141  0.21882542  1
