# generated using pymatgen
data_TaAlFe
_symmetry_space_group_name_H-M   'P 1'
_cell_length_a   4.90181615
_cell_length_b   4.95049954
_cell_length_c   8.04999335
_cell_angle_alpha   90.00000000
_cell_angle_beta   90.00000000
_cell_angle_gamma   120.33140460
_symmetry_Int_Tables_number   1
_chemical_formula_structural   TaAlFe
_chemical_formula_sum   'Ta4 Al4 Fe4'
_cell_volume   168.60567278
_cell_formula_units_Z   4
loop_
 _symmetry_equiv_pos_site_id
 _symmetry_equiv_pos_as_xyz
  1  'x, y, z'
loop_
 _atom_site_type_symbol
 _atom_site_label
 _atom_site_symmetry_multiplicity
 _atom_site_fract_x
 _atom_site_fract_y
 _atom_site_fract_z
 _atom_site_occupancy
  Ta  Ta0  1  0.66976225  0.33487388  0.55343769  1
  Ta  Ta1  1  0.33378537  0.66689716  0.43016332  1
  Ta  Ta2  1  0.33378537  0.66689716  0.06983668  1
  Ta  Ta3  1  0.66976225  0.33487388  0.94656231  1
  Al  Al4  1  0.98726106  0.99362113  0.49207091  1
  Al  Al5  1  0.98726106  0.99362113  0.00792909  1
  Al  Al6  1  0.17950600  0.34736450  0.75000000  1
  Al  Al7  1  0.17949966  0.83213050  0.75000000  1
  Fe  Fe8  1  0.67030242  0.83518039  0.75000000  1
  Fe  Fe9  1  0.82406558  0.65213785  0.25000000  1
  Fe  Fe10  1  0.82404563  0.17190068  0.25000000  1
  Fe  Fe11  1  0.34096335  0.17050175  0.25000000  1
