# generated using pymatgen
data_SrTiFe4Bi4O15
_symmetry_space_group_name_H-M   'P 1'
_cell_length_a   4.07140482
_cell_length_b   5.76203913
_cell_length_c   14.44011873
_cell_angle_alpha   101.50859690
_cell_angle_beta   89.67762802
_cell_angle_gamma   91.61597047
_symmetry_Int_Tables_number   1
_chemical_formula_structural   SrTiFe4Bi4O15
_chemical_formula_sum   'Sr1 Ti1 Fe4 Bi4 O15'
_cell_volume   331.81647248
_cell_formula_units_Z   1
loop_
 _symmetry_equiv_pos_site_id
 _symmetry_equiv_pos_as_xyz
  1  'x, y, z'
loop_
 _atom_site_type_symbol
 _atom_site_label
 _atom_site_symmetry_multiplicity
 _atom_site_fract_x
 _atom_site_fract_y
 _atom_site_fract_z
 _atom_site_occupancy
  Sr  Sr0  1  0.48087552  0.53141512  1.00000000  1
  Ti  Ti1  1  0.98422682  0.05899081  0.00000000  1
  Fe  Fe2  1  0.96147767  0.62752843  0.19566935  1
  Fe  Fe3  1  0.96475140  0.23611930  0.39982758  1
  Fe  Fe4  1  0.96475140  0.83629171  0.60017242  1
  Fe  Fe5  1  0.96147767  0.43185909  0.80433065  1
  Bi  Bi6  1  0.54533957  0.06646500  0.19965800  1
  Bi  Bi7  1  0.53674074  0.66406797  0.39852753  1
  Bi  Bi8  1  0.53674074  0.26554044  0.60147247  1
  Bi  Bi9  1  0.54533957  0.86680699  0.80034200  1
  O  O10  1  0.92330491  0.67794635  0.70799854  1
  O  O11  1  0.91664746  0.47684702  0.30546687  1
  O  O12  1  0.91229287  0.07167724  0.50526660  1
  O  O13  1  0.93373238  0.25351158  0.90474459  1
  O  O14  1  0.90947720  0.86211988  0.09946804  1
  O  O15  1  0.90947720  0.76265184  0.90053196  1
  O  O16  1  0.91229287  0.56641064  0.49473340  1
  O  O17  1  0.91664746  0.17138015  0.69453313  1
  O  O18  1  0.93373238  0.34876699  0.09525541  1
  O  O19  1  0.92330491  0.96994781  0.29200146  1
  O  O20  1  0.44214144  0.48657037  0.80282764  1
  O  O21  1  0.44323537  0.28313650  0.39737781  1
  O  O22  1  0.44323537  0.88575869  0.60262219  1
  O  O23  1  0.42861564  0.04244734  0.00000000  1
  O  O24  1  0.44214144  0.68374273  0.19717236  1
