# generated using pymatgen
data_SrLa2CeMn2Cr2O12
_symmetry_space_group_name_H-M   'P 1'
_cell_length_a   5.53439112
_cell_length_b   5.52043150
_cell_length_c   9.64111715
_cell_angle_alpha   74.62502008
_cell_angle_beta   90.67464675
_cell_angle_gamma   60.85944041
_symmetry_Int_Tables_number   1
_chemical_formula_structural   SrLa2CeMn2Cr2O12
_chemical_formula_sum   'Sr1 La2 Ce1 Mn2 Cr2 O12'
_cell_volume   244.57157781
_cell_formula_units_Z   1
loop_
 _symmetry_equiv_pos_site_id
 _symmetry_equiv_pos_as_xyz
  1  'x, y, z'
loop_
 _atom_site_type_symbol
 _atom_site_label
 _atom_site_symmetry_multiplicity
 _atom_site_fract_x
 _atom_site_fract_y
 _atom_site_fract_z
 _atom_site_occupancy
  Sr  Sr0  1  0.87015858  0.25746403  0.62106011  1
  La  La1  1  0.37751822  0.24603700  0.12913812  1
  La  La2  1  0.12959951  0.74349994  0.38003180  1
  Ce  Ce3  1  0.62073091  0.75762989  0.87078834  1
  Mn  Mn4  1  0.25446819  0.49760068  0.75371365  1
  Mn  Mn5  1  0.49833206  0.00283104  0.50023745  1
  Cr  Cr6  1  0.74431515  0.50725907  0.24624929  1
  Cr  Cr7  1  0.99818915  0.99864365  0.99904660  1
  O  O8  1  0.79134019  0.82999590  0.11736441  1
  O  O9  1  0.33010347  0.81209790  0.62817489  1
  O  O10  1  0.14694802  0.26213483  0.33346182  1
  O  O11  1  0.65594417  0.25109128  0.84330357  1
  O  O12  1  0.65578828  0.69240749  0.40426407  1
  O  O13  1  0.16117369  0.66596576  0.91492939  1
  O  O14  1  0.32742874  0.75254021  0.16329188  1
  O  O15  1  0.85068419  0.73784075  0.67745624  1
  O  O16  1  0.82889597  0.34990215  0.07251463  1
  O  O17  1  0.33597980  0.32180828  0.59318694  1
  O  O18  1  0.69301345  0.17725329  0.36834856  1
  O  O19  1  0.22938827  0.13599686  0.88343824  1
