# generated using pymatgen
data_Ta6Cr3Ni3C2
_symmetry_space_group_name_H-M   'P 1'
_cell_length_a   8.08400497
_cell_length_b   8.11960608
_cell_length_c   8.02702012
_cell_angle_alpha   90.00000000
_cell_angle_beta   60.23290924
_cell_angle_gamma   120.14578691
_symmetry_Int_Tables_number   1
_chemical_formula_structural   Ta6Cr3Ni3C2
_chemical_formula_sum   'Ta12 Cr6 Ni6 C4'
_cell_volume   373.04999839
_cell_formula_units_Z   2
loop_
 _symmetry_equiv_pos_site_id
 _symmetry_equiv_pos_as_xyz
  1  'x, y, z'
loop_
 _atom_site_type_symbol
 _atom_site_label
 _atom_site_symmetry_multiplicity
 _atom_site_fract_x
 _atom_site_fract_y
 _atom_site_fract_z
 _atom_site_occupancy
  Ta  Ta0  1  0.64232754  0.82116377  0.42883623  1
  Ta  Ta1  1  0.86221817  0.43110909  0.81889091  1
  Ta  Ta2  1  0.24881598  0.81818201  0.82012485  1
  Ta  Ta3  1  0.24881598  0.43063397  0.43105918  1
  Ta  Ta4  1  0.24881598  0.43063397  0.82012485  1
  Ta  Ta5  1  0.24881598  0.81818201  0.43105918  1
  Ta  Ta6  1  0.36508097  0.18254049  0.56745951  1
  Ta  Ta7  1  0.13630630  0.56815315  0.18184685  1
  Ta  Ta8  1  0.74913452  0.18212551  0.18255957  1
  Ta  Ta9  1  0.74913452  0.56700901  0.56830591  1
  Ta  Ta10  1  0.74913452  0.56700901  0.18255957  1
  Ta  Ta11  1  0.74913452  0.18212551  0.56830591  1
  Cr  Cr12  1  0.50134001  0.50336492  0.99933000  1
  Cr  Cr13  1  0.50134001  0.99797509  0.99933000  1
  Cr  Cr14  1  0.99777778  0.99888889  0.49779982  1
  Cr  Cr15  1  0.99777778  0.99888889  0.00442240  1
  Cr  Cr16  1  0.09681288  0.89458100  0.20159356  1
  Cr  Cr17  1  0.09681288  0.20223188  0.20159356  1
  Ni  Ni18  1  0.40937316  0.20468658  0.88732122  1
  Ni  Ni19  1  0.40937316  0.20468658  0.20330562  1
  Ni  Ni20  1  0.90736595  0.11235567  0.79631702  1
  Ni  Ni21  1  0.90736595  0.79501028  0.79631702  1
  Ni  Ni22  1  0.59034297  0.79517148  0.11366957  1
  Ni  Ni23  1  0.59034297  0.79517148  0.79598746  1
  C  C24  1  0.49943403  0.00112946  0.50028299  1
  C  C25  1  0.49943403  0.49830457  0.50028299  1
  C  C26  1  0.99868576  0.49934288  0.00047167  1
  C  C27  1  0.99868576  0.49934288  0.50084257  1
