# generated using pymatgen
data_Rb(IO3)3
_symmetry_space_group_name_H-M   'P 1'
_cell_length_a   7.11440963
_cell_length_b   7.49047749
_cell_length_c   18.37850690
_cell_angle_alpha   79.48474231
_cell_angle_beta   85.09256319
_cell_angle_gamma   71.51473692
_symmetry_Int_Tables_number   1
_chemical_formula_structural   Rb(IO3)3
_chemical_formula_sum   'Rb4 I12 O36'
_cell_volume   912.86327855
_cell_formula_units_Z   4
loop_
 _symmetry_equiv_pos_site_id
 _symmetry_equiv_pos_as_xyz
  1  'x, y, z'
loop_
 _atom_site_type_symbol
 _atom_site_label
 _atom_site_symmetry_multiplicity
 _atom_site_fract_x
 _atom_site_fract_y
 _atom_site_fract_z
 _atom_site_occupancy
  Rb  Rb0  1  0.54204336  0.09135482  0.17205160  1
  Rb  Rb1  1  0.45795664  0.90864518  0.82794840  1
  Rb  Rb2  1  0.30526449  0.82742484  0.49530995  1
  Rb  Rb3  1  0.69473551  0.17257516  0.50469005  1
  I  I4  1  0.97817258  0.49239110  0.60518077  1
  I  I5  1  0.02182742  0.50760890  0.39481923  1
  I  I6  1  0.10711002  0.13790265  0.03132877  1
  I  I7  1  0.89288998  0.86209735  0.96867123  1
  I  I8  1  0.52008014  0.63884483  0.07530150  1
  I  I9  1  0.47991986  0.36115517  0.92469850  1
  I  I10  1  0.06019436  0.56585952  0.16562946  1
  I  I11  1  0.93980564  0.43414048  0.83437054  1
  I  I12  1  0.51672118  0.59713757  0.30460426  1
  I  I13  1  0.48327882  0.40286243  0.69539574  1
  I  I14  1  0.02076756  0.94875903  0.69906068  1
  I  I15  1  0.97923244  0.05124097  0.30093932  1
  O  O16  1  0.77544292  0.61232274  0.29842433  1
  O  O17  1  0.22455708  0.38767726  0.70157567  1
  O  O18  1  0.80752434  0.48836763  0.68578481  1
  O  O19  1  0.19247566  0.51163237  0.31421519  1
  O  O20  1  0.98117120  0.73915476  0.59440109  1
  O  O21  1  0.01882880  0.26084524  0.40559891  1
  O  O22  1  0.80213875  0.51831320  0.53085929  1
  O  O23  1  0.19786125  0.48168680  0.46914071  1
  O  O24  1  0.15290858  0.99744189  0.95414611  1
  O  O25  1  0.84709142  0.00255811  0.04585389  1
  O  O26  1  0.34397440  0.21873805  0.00862705  1
  O  O27  1  0.65602560  0.78126195  0.99137295  1
  O  O28  1  0.05159405  0.59527575  0.06438067  1
  O  O29  1  0.94840595  0.40472425  0.93561933  1
  O  O30  1  0.24250140  0.94716720  0.10247092  1
  O  O31  1  0.75749860  0.05283280  0.89752908  1
  O  O32  1  0.65499872  0.39708603  0.06279919  1
  O  O33  1  0.34500128  0.60291397  0.93720081  1
  O  O34  1  0.33776794  0.52805809  0.16600408  1
  O  O35  1  0.66223206  0.47194191  0.83399592  1
  O  O36  1  0.65207590  0.67173532  0.15034008  1
  O  O37  1  0.34792410  0.32826468  0.84965992  1
  O  O38  1  0.07517759  0.31609769  0.18623948  1
  O  O39  1  0.92482241  0.68390231  0.81376052  1
  O  O40  1  0.52052403  0.53101813  0.40632750  1
  O  O41  1  0.47947597  0.46898187  0.59367250  1
  O  O42  1  0.38272234  0.85309144  0.29623306  1
  O  O43  1  0.61727766  0.14690856  0.70376694  1
  O  O44  1  0.04854474  0.06656393  0.77328849  1
  O  O45  1  0.95145526  0.93343607  0.22671151  1
  O  O46  1  0.02141574  0.12334917  0.61441316  1
  O  O47  1  0.97858426  0.87665083  0.38558684  1
  O  O48  1  0.29035853  0.79432999  0.69355614  1
  O  O49  1  0.70964147  0.20567001  0.30644386  1
  O  O50  1  0.51263900  0.08224126  0.36702059  1
  O  O51  1  0.48736100  0.91775874  0.63297941  1
