# generated using pymatgen
data_Sm2Co16Ge
_symmetry_space_group_name_H-M   'P 1'
_cell_length_a   6.31485750
_cell_length_b   6.31485751
_cell_length_c   6.31485750
_cell_angle_alpha   83.18297474
_cell_angle_beta   83.18297461
_cell_angle_gamma   83.18297474
_symmetry_Int_Tables_number   1
_chemical_formula_structural   Sm2Co16Ge
_chemical_formula_sum   'Sm2 Co16 Ge1'
_cell_volume   246.87074592
_cell_formula_units_Z   1
loop_
 _symmetry_equiv_pos_site_id
 _symmetry_equiv_pos_as_xyz
  1  'x, y, z'
loop_
 _atom_site_type_symbol
 _atom_site_label
 _atom_site_symmetry_multiplicity
 _atom_site_fract_x
 _atom_site_fract_y
 _atom_site_fract_z
 _atom_site_occupancy
  Sm  Sm0  1  0.65588630  0.65588630  0.65588630  1
  Sm  Sm1  1  0.34892010  0.34892010  0.34892010  1
  Co  Co2  1  0.70983711  0.99815204  0.28702779  1
  Co  Co3  1  0.99815204  0.28702779  0.70983711  1
  Co  Co4  1  0.28702779  0.70983711  0.99815204  1
  Co  Co5  1  0.99815204  0.70983711  0.28702779  1
  Co  Co6  1  0.70983711  0.28702779  0.99815204  1
  Co  Co7  1  0.28702779  0.99815204  0.70983711  1
  Co  Co8  1  0.34938706  0.85150236  0.34938706  1
  Co  Co9  1  0.85150236  0.34938706  0.34938706  1
  Co  Co10  1  0.34938706  0.34938706  0.85150236  1
  Co  Co11  1  0.65529403  0.15011618  0.65529403  1
  Co  Co12  1  0.15011618  0.65529403  0.65529403  1
  Co  Co13  1  0.65529403  0.65529403  0.15011618  1
  Co  Co14  1  0.99671548  0.50278914  0.99671548  1
  Co  Co15  1  0.50278914  0.99671548  0.99671548  1
  Co  Co16  1  0.99671548  0.99671548  0.50278914  1
  Co  Co17  1  0.90051282  0.90051282  0.90051282  1
  Ge  Ge18  1  0.09744608  0.09744608  0.09744608  1
