# generated using pymatgen
data_Sr8Co6Cl4O15
_symmetry_space_group_name_H-M   'P 1'
_cell_length_a   5.52947652
_cell_length_b   5.52905417
_cell_length_c   16.08308206
_cell_angle_alpha   89.93780519
_cell_angle_beta   80.10148579
_cell_angle_gamma   89.63819710
_symmetry_Int_Tables_number   1
_chemical_formula_structural   Sr8Co6Cl4O15
_chemical_formula_sum   'Sr8 Co6 Cl4 O15'
_cell_volume   484.37517653
_cell_formula_units_Z   1
loop_
 _symmetry_equiv_pos_site_id
 _symmetry_equiv_pos_as_xyz
  1  'x, y, z'
loop_
 _atom_site_type_symbol
 _atom_site_label
 _atom_site_symmetry_multiplicity
 _atom_site_fract_x
 _atom_site_fract_y
 _atom_site_fract_z
 _atom_site_occupancy
  Sr  Sr0  1  0.42891409  0.00661555  0.12887884  1
  Sr  Sr1  1  0.94220707  0.49338445  0.12887884  1
  Sr  Sr2  1  0.07108591  0.49338445  0.87112116  1
  Sr  Sr3  1  0.55779293  0.00661555  0.87112116  1
  Sr  Sr4  1  0.31983374  0.00116942  0.35801755  1
  Sr  Sr5  1  0.82214871  0.49883058  0.35801755  1
  Sr  Sr6  1  0.18016626  0.49883058  0.64198245  1
  Sr  Sr7  1  0.67785129  0.00116942  0.64198245  1
  Co  Co8  1  0.11673024  0.99655224  0.75973680  1
  Co  Co9  1  0.62353295  0.50344776  0.75973680  1
  Co  Co10  1  0.38326976  0.50344776  0.24026320  1
  Co  Co11  1  0.87646705  0.99655224  0.24026320  1
  Co  Co12  1  0.48725246  0.48720714  0.00000000  1
  Co  Co13  1  0.01274754  0.01279286  1.00000000  1
  Cl  Cl14  1  0.21561171  -0.00002672  0.56885960  1
  Cl  Cl15  1  0.71552869  0.50002672  0.56885960  1
  Cl  Cl16  1  0.28438829  0.50002672  0.43114040  1
  Cl  Cl17  1  0.78447131  -0.00002672  0.43114040  1
  O  O18  1  0.03485834  0.97724508  0.88394497  1
  O  O19  1  0.58119669  0.52275492  0.88394497  1
  O  O20  1  0.46514166  0.52275492  0.11605503  1
  O  O21  1  0.91880331  0.97724508  0.11605503  1
  O  O22  1  0.37493023  0.25000000  0.75013955  1
  O  O23  1  0.87916063  0.75000000  0.74167873  1
  O  O24  1  0.87776300  0.25000000  0.74447400  1
  O  O25  1  0.37777407  0.75000000  0.74445186  1
  O  O26  1  0.12506977  0.25000000  0.24986045  1
  O  O27  1  0.62083937  0.75000000  0.25832127  1
  O  O28  1  0.62223700  0.25000000  0.25552600  1
  O  O29  1  0.12222593  0.75000000  0.25554814  1
  O  O30  1  0.25000000  0.25000000  0.00000000  1
  O  O31  1  0.75000000  0.25000000  0.00000000  1
  O  O32  1  0.25000000  0.75000000  0.00000000  1
