# generated using pymatgen
data_Sr2V11NiO22
_symmetry_space_group_name_H-M   'P 1'
_cell_length_a   5.91043270
_cell_length_b   5.91043270
_cell_length_c   13.22695491
_cell_angle_alpha   90.00000000
_cell_angle_beta   90.00000000
_cell_angle_gamma   119.39593454
_symmetry_Int_Tables_number   1
_chemical_formula_structural   Sr2V11NiO22
_chemical_formula_sum   'Sr2 V11 Ni1 O22'
_cell_volume   402.56919607
_cell_formula_units_Z   1
loop_
 _symmetry_equiv_pos_site_id
 _symmetry_equiv_pos_as_xyz
  1  'x, y, z'
loop_
 _atom_site_type_symbol
 _atom_site_label
 _atom_site_symmetry_multiplicity
 _atom_site_fract_x
 _atom_site_fract_y
 _atom_site_fract_z
 _atom_site_occupancy
  Sr  Sr0  1  0.66555844  0.33444156  0.75000000  1
  Sr  Sr1  1  0.33548019  0.66451981  0.25000000  1
  V  V2  1  0.50165577  0.00013642  0.50086253  1
  V  V3  1  0.50259658  0.49740342  0.49856482  1
  V  V4  1  -0.00013642  0.49834423  0.50086253  1
  V  V5  1  0.50165577  0.00013642  0.99913747  1
  V  V6  1  0.50259658  0.49740342  0.00143518  1
  V  V7  1  -0.00013642  0.49834423  0.99913747  1
  V  V8  1  0.99682115  0.00317885  0.64307352  1
  V  V9  1  0.00506834  0.99493166  0.35099934  1
  V  V10  1  0.00506834  0.99493166  0.14900066  1
  V  V11  1  0.99682115  0.00317885  0.85692648  1
  V  V12  1  0.33114155  0.66885845  0.75000000  1
  Ni  Ni13  1  0.66607468  0.33392532  0.25000000  1
  O  O14  1  0.66060314  0.33939686  0.08481596  1
  O  O15  1  0.33792071  0.66207929  0.91052184  1
  O  O16  1  0.33792071  0.66207929  0.58947816  1
  O  O17  1  0.66060314  0.33939686  0.41518404  1
  O  O18  1  0.81860487  0.64754609  0.58126223  1
  O  O19  1  0.82455098  0.17544902  0.58315369  1
  O  O20  1  0.35245391  0.18139513  0.58126223  1
  O  O21  1  0.17812917  0.34717814  0.41835301  1
  O  O22  1  0.16683172  0.83316828  0.41656839  1
  O  O23  1  0.65282186  0.82187083  0.41835301  1
  O  O24  1  0.17812917  0.34717814  0.08164699  1
  O  O25  1  0.16683172  0.83316828  0.08343161  1
  O  O26  1  0.65282186  0.82187083  0.08164699  1
  O  O27  1  0.81860487  0.64754609  0.91873777  1
  O  O28  1  0.82455098  0.17544902  0.91684631  1
  O  O29  1  0.35245391  0.18139513  0.91873777  1
  O  O30  1  0.85340575  0.71141980  0.25000000  1
  O  O31  1  0.85900362  0.14099638  0.25000000  1
  O  O32  1  0.28858020  0.14659425  0.25000000  1
  O  O33  1  0.15931634  0.30827620  0.75000000  1
  O  O34  1  0.15387190  0.84612810  0.75000000  1
  O  O35  1  0.69172380  0.84068366  0.75000000  1
