# generated using pymatgen
data_Sm3MgTi4O14
_symmetry_space_group_name_H-M   'P 1'
_cell_length_a   7.29569933
_cell_length_b   7.17154808
_cell_length_c   7.29569933
_cell_angle_alpha   90.00000000
_cell_angle_beta   60.00000000
_cell_angle_gamma   120.57433603
_symmetry_Int_Tables_number   1
_chemical_formula_structural   Sm3MgTi4O14
_chemical_formula_sum   'Sm3 Mg1 Ti4 O14'
_cell_volume   267.55099040
_cell_formula_units_Z   1
loop_
 _symmetry_equiv_pos_site_id
 _symmetry_equiv_pos_as_xyz
  1  'x, y, z'
loop_
 _atom_site_type_symbol
 _atom_site_label
 _atom_site_symmetry_multiplicity
 _atom_site_fract_x
 _atom_site_fract_y
 _atom_site_fract_z
 _atom_site_occupancy
  Sm  Sm0  1  0.50000000  0.50000000  0.50000000  1
  Sm  Sm1  1  -0.00000000  0.50000000  -0.00000000  1
  Sm  Sm2  1  -0.00000000  0.50000000  0.50000000  1
  Mg  Mg3  1  0.50000000  -0.00000000  0.50000000  1
  Ti  Ti4  1  0.50000000  0.50000000  -0.00000000  1
  Ti  Ti5  1  0.50000000  -0.00000000  -0.00000000  1
  Ti  Ti6  1  -0.00000000  -0.00000000  0.50000000  1
  Ti  Ti7  1  -0.00000000  -0.00000000  -0.00000000  1
  O  O8  1  0.85590525  0.92534518  0.32204738  1
  O  O9  1  0.65900875  0.33147147  0.92049562  1
  O  O10  1  0.24739255  0.92534518  0.93056007  1
  O  O11  1  0.25196710  0.33147147  0.32753728  1
  O  O12  1  0.25196710  0.33147147  0.92049562  1
  O  O13  1  0.24739255  0.92534518  0.32204738  1
  O  O14  1  0.14409475  0.07465482  0.67795262  1
  O  O15  1  0.34099125  0.66852853  0.07950438  1
  O  O16  1  0.75260745  0.07465482  0.06943993  1
  O  O17  1  0.74803290  0.66852853  0.67246272  1
  O  O18  1  0.74803290  0.66852853  0.07950438  1
  O  O19  1  0.75260745  0.07465482  0.67795262  1
  O  O20  1  0.72856625  0.34284937  0.38571688  1
  O  O21  1  0.27143375  0.65715063  0.61428312  1
