# generated using pymatgen
data_Sr2Ce2Ti5O15
_symmetry_space_group_name_H-M   'P 1'
_cell_length_a   5.53354251
_cell_length_b   11.71197952
_cell_length_c   5.52865141
_cell_angle_alpha   103.61529620
_cell_angle_beta   120.02926227
_cell_angle_gamma   89.99999999
_symmetry_Int_Tables_number   1
_chemical_formula_structural   Sr2Ce2Ti5O15
_chemical_formula_sum   'Sr2 Ce2 Ti5 O15'
_cell_volume   298.52275773
_cell_formula_units_Z   1
loop_
 _symmetry_equiv_pos_site_id
 _symmetry_equiv_pos_as_xyz
  1  'x, y, z'
loop_
 _atom_site_type_symbol
 _atom_site_label
 _atom_site_symmetry_multiplicity
 _atom_site_fract_x
 _atom_site_fract_y
 _atom_site_fract_z
 _atom_site_occupancy
  Sr  Sr0  1  0.50008372  0.50024335  0.50016745  1
  Sr  Sr1  1  0.89991628  0.69975665  0.29983255  1
  Ce  Ce2  1  0.09796623  0.29367336  0.69593245  1
  Ce  Ce3  1  0.30203377  0.90632664  0.10406755  1
  Ti  Ti4  1  0.79731158  0.39190389  0.09462316  1
  Ti  Ti5  1  0.00195210  0.00594615  0.50390420  1
  Ti  Ti6  1  0.39804790  0.19405385  0.29609580  1
  Ti  Ti7  1  0.60268842  0.80809611  0.70537684  1
  Ti  Ti8  1  0.20000000  0.60000000  0.90000000  1
  O  O9  1  0.39859793  0.70380555  0.80516680  1
  O  O10  1  0.59707021  0.30419191  0.20705213  1
  O  O11  1  0.00140207  0.49619445  0.99483320  1
  O  O12  1  0.20000000  0.10000000  0.40000000  1
  O  O13  1  0.80292979  0.89580809  0.59294787  1
  O  O14  1  0.49343113  0.49619445  0.99483320  1
  O  O15  1  0.70000000  0.10000000  0.40000000  1
  O  O16  1  0.10998192  0.30419191  0.20705213  1
  O  O17  1  0.29001808  0.89580809  0.59294787  1
  O  O18  1  0.90656887  0.70380555  0.80516680  1
  O  O19  1  0.59712842  0.30419976  0.69425684  1
  O  O20  1  0.80287158  0.89580024  0.10574316  1
  O  O21  1  0.20000000  0.10000000  0.90000000  1
  O  O22  1  0.39859190  0.70384526  0.29718380  1
  O  O23  1  0.00140810  0.49615474  0.50281620  1
