# generated using pymatgen
data_Si13Rh20
_symmetry_space_group_name_H-M   'P 1'
_cell_length_a   3.63404830
_cell_length_b   11.99818148
_cell_length_c   11.99985690
_cell_angle_alpha   120.00002987
_cell_angle_beta   89.99784532
_cell_angle_gamma   89.99644029
_symmetry_Int_Tables_number   1
_chemical_formula_structural   Si13Rh20
_chemical_formula_sum   'Si13 Rh20'
_cell_volume   453.11943323
_cell_formula_units_Z   1
loop_
 _symmetry_equiv_pos_site_id
 _symmetry_equiv_pos_as_xyz
  1  'x, y, z'
loop_
 _atom_site_type_symbol
 _atom_site_label
 _atom_site_symmetry_multiplicity
 _atom_site_fract_x
 _atom_site_fract_y
 _atom_site_fract_z
 _atom_site_occupancy
  Si  Si0  1  0.75007242  0.38407125  0.83440407  1
  Si  Si1  1  0.75008499  0.16564093  0.54969865  1
  Si  Si2  1  0.75008037  0.45029141  0.61593478  1
  Si  Si3  1  0.24992758  0.61592875  0.16559593  1
  Si  Si4  1  0.24991501  0.83435907  0.45030135  1
  Si  Si5  1  0.24991963  0.54970859  0.38406522  1
  Si  Si6  1  0.50000000  -0.00000000  0.00000000  1
  Si  Si7  1  0.74771925  0.66165414  0.89264629  1
  Si  Si8  1  0.74772258  0.10737659  0.76902234  1
  Si  Si9  1  0.74770191  0.23094983  0.33835188  1
  Si  Si10  1  0.25228075  0.33834586  0.10735371  1
  Si  Si11  1  0.25227742  0.89262341  0.23097766  1
  Si  Si12  1  0.25229809  0.76905017  0.66164812  1
  Rh  Rh13  1  0.74879141  0.66666824  0.33335655  1
  Rh  Rh14  1  0.25120859  0.33333176  0.66664345  1
  Rh  Rh15  1  0.74694137  0.99597045  0.18396843  1
  Rh  Rh16  1  0.74694662  0.81601523  0.81200613  1
  Rh  Rh17  1  0.74697300  0.18796811  0.00403257  1
  Rh  Rh18  1  0.25305863  0.00402955  0.81603157  1
  Rh  Rh19  1  0.25305338  0.18398477  0.18799387  1
  Rh  Rh20  1  0.25302700  0.81203189  0.99596743  1
  Rh  Rh21  1  0.75238805  0.72881540  0.12871691  1
  Rh  Rh22  1  0.75237554  0.87127636  0.60010641  1
  Rh  Rh23  1  0.75239543  0.39991181  0.27119802  1
  Rh  Rh24  1  0.24761195  0.27118460  0.87128309  1
  Rh  Rh25  1  0.24762446  0.12872364  0.39989359  1
  Rh  Rh26  1  0.24760457  0.60008819  0.72880198  1
  Rh  Rh27  1  0.75089290  0.46141668  0.07113685  1
  Rh  Rh28  1  0.75088299  0.92880879  0.39024454  1
  Rh  Rh29  1  0.75092497  0.60973656  0.53856276  1
  Rh  Rh30  1  0.24910710  0.53858332  0.92886315  1
  Rh  Rh31  1  0.24911701  0.07119121  0.60975546  1
  Rh  Rh32  1  0.24907503  0.39026344  0.46143724  1
