# generated using pymatgen
data_SmAlFe
_symmetry_space_group_name_H-M   'P 1'
_cell_length_a   5.41275332
_cell_length_b   5.41301742
_cell_length_c   8.84982806
_cell_angle_alpha   90.00000000
_cell_angle_beta   90.00000000
_cell_angle_gamma   61.06011402
_symmetry_Int_Tables_number   1
_chemical_formula_structural   SmAlFe
_chemical_formula_sum   'Sm4 Al4 Fe4'
_cell_volume   226.91542248
_cell_formula_units_Z   4
loop_
 _symmetry_equiv_pos_site_id
 _symmetry_equiv_pos_as_xyz
  1  'x, y, z'
loop_
 _atom_site_type_symbol
 _atom_site_label
 _atom_site_symmetry_multiplicity
 _atom_site_fract_x
 _atom_site_fract_y
 _atom_site_fract_z
 _atom_site_occupancy
  Sm  Sm0  1  0.33340962  0.33346188  0.55429763  1
  Sm  Sm1  1  0.66885177  0.66885022  0.42673059  1
  Sm  Sm2  1  0.66885177  0.66885022  0.07326941  1
  Sm  Sm3  1  0.33340962  0.33346188  0.94570237  1
  Al  Al4  1  0.99560330  0.99550978  0.48612890  1
  Al  Al5  1  0.99560330  0.99550978  0.01387110  1
  Al  Al6  1  0.83565143  0.33766642  0.75000000  1
  Al  Al7  1  0.33768037  0.83562378  0.75000000  1
  Fe  Fe8  1  0.83438273  0.83434379  0.75000000  1
  Fe  Fe9  1  0.17671572  0.64857229  0.25000000  1
  Fe  Fe10  1  0.64850300  0.17678867  0.25000000  1
  Fe  Fe11  1  0.17133738  0.17136130  0.25000000  1
