# generated using pymatgen
data_SrH2(CO2)2
_symmetry_space_group_name_H-M   'P 1'
_cell_length_a   7.24226006
_cell_length_b   7.24226006
_cell_length_c   10.16761607
_cell_angle_alpha   90.00000000
_cell_angle_beta   90.00000000
_cell_angle_gamma   90.00000000
_symmetry_Int_Tables_number   1
_chemical_formula_structural   SrH2(CO2)2
_chemical_formula_sum   'Sr4 H8 C8 O16'
_cell_volume   533.29482608
_cell_formula_units_Z   4
loop_
 _symmetry_equiv_pos_site_id
 _symmetry_equiv_pos_as_xyz
  1  'x, y, z'
loop_
 _atom_site_type_symbol
 _atom_site_label
 _atom_site_symmetry_multiplicity
 _atom_site_fract_x
 _atom_site_fract_y
 _atom_site_fract_z
 _atom_site_occupancy
  Sr  Sr0  1  0.77936902  0.22063098  0.25000000  1
  Sr  Sr1  1  0.22063098  0.77936902  0.75000000  1
  Sr  Sr2  1  0.72063098  0.72063098  0.00000000  1
  Sr  Sr3  1  0.27936902  0.27936902  0.50000000  1
  H  H4  1  0.80390581  0.36265217  0.65973905  1
  H  H5  1  0.19609419  0.63734783  0.15973905  1
  H  H6  1  0.86265217  0.69609419  0.40973905  1
  H  H7  1  0.13734783  0.30390581  0.90973905  1
  H  H8  1  0.63734783  0.19609419  0.84026095  1
  H  H9  1  0.36265217  0.80390581  0.34026095  1
  H  H10  1  0.69609419  0.86265217  0.59026095  1
  H  H11  1  0.30390581  0.13734783  0.09026095  1
  C  C12  1  0.78587155  0.30771839  0.55847957  1
  C  C13  1  0.21412845  0.69228161  0.05847957  1
  C  C14  1  0.80771839  0.71412845  0.30847957  1
  C  C15  1  0.19228161  0.28587155  0.80847957  1
  C  C16  1  0.69228161  0.21412845  0.94152043  1
  C  C17  1  0.30771839  0.78587155  0.44152043  1
  C  C18  1  0.71412845  0.80771839  0.69152043  1
  C  C19  1  0.28587155  0.19228161  0.19152043  1
  O  O20  1  0.93056981  0.28060794  0.49019815  1
  O  O21  1  0.06943019  0.71939206  0.99019815  1
  O  O22  1  0.78060794  0.56943019  0.24019815  1
  O  O23  1  0.21939206  0.43056981  0.74019815  1
  O  O24  1  0.71939206  0.06943019  0.00980185  1
  O  O25  1  0.28060794  0.93056981  0.50980185  1
  O  O26  1  0.56943019  0.78060794  0.75980185  1
  O  O27  1  0.43056981  0.21939206  0.25980185  1
  O  O28  1  0.62395975  0.27775825  0.51763953  1
  O  O29  1  0.37604025  0.72224175  0.01763953  1
  O  O30  1  0.77775825  0.87604025  0.26763953  1
  O  O31  1  0.22224175  0.12395975  0.76763953  1
  O  O32  1  0.72224175  0.37604025  0.98236047  1
  O  O33  1  0.27775825  0.62395975  0.48236047  1
  O  O34  1  0.87604025  0.77775825  0.73236047  1
  O  O35  1  0.12395975  0.22224175  0.23236047  1
