# generated using pymatgen
data_SbHC2O5
_symmetry_space_group_name_H-M   'P 1'
_cell_length_a   6.02979597
_cell_length_b   6.49633009
_cell_length_c   11.37564842
_cell_angle_alpha   90.00000000
_cell_angle_beta   90.00000000
_cell_angle_gamma   90.00000000
_symmetry_Int_Tables_number   1
_chemical_formula_structural   SbHC2O5
_chemical_formula_sum   'Sb4 H4 C8 O20'
_cell_volume   445.60172395
_cell_formula_units_Z   4
loop_
 _symmetry_equiv_pos_site_id
 _symmetry_equiv_pos_as_xyz
  1  'x, y, z'
loop_
 _atom_site_type_symbol
 _atom_site_label
 _atom_site_symmetry_multiplicity
 _atom_site_fract_x
 _atom_site_fract_y
 _atom_site_fract_z
 _atom_site_occupancy
  Sb  Sb0  1  0.32237084  0.01601157  0.74992802  1
  Sb  Sb1  1  0.82237084  0.48398843  0.75007198  1
  Sb  Sb2  1  0.67762916  0.98398843  0.24992802  1
  Sb  Sb3  1  0.17762916  0.51601157  0.25007198  1
  H  H4  1  0.85321987  0.10277129  0.71446484  1
  H  H5  1  0.35321987  0.39722871  0.78553516  1
  H  H6  1  0.14678013  0.89722871  0.21446484  1
  H  H7  1  0.64678013  0.60277129  0.28553516  1
  C  C8  1  0.39429334  0.05199015  0.47649487  1
  C  C9  1  0.89429334  0.44800985  0.02350513  1
  C  C10  1  0.60570666  0.94800985  0.97649487  1
  C  C11  1  0.10570666  0.55199015  0.52350513  1
  C  C12  1  0.60584193  0.94870837  0.52326011  1
  C  C13  1  0.10584193  0.55129163  0.97673989  1
  C  C14  1  0.39415807  0.05129163  0.02326011  1
  C  C15  1  0.89415807  0.44870837  0.47673989  1
  O  O16  1  0.24765252  0.10315622  0.54965138  1
  O  O17  1  0.74765252  0.39684378  0.95034862  1
  O  O18  1  0.75234748  0.89684378  0.04965138  1
  O  O19  1  0.25234748  0.60315622  0.45034862  1
  O  O20  1  0.75248728  0.89419356  0.45110558  1
  O  O21  1  0.25248728  0.60580644  0.04889442  1
  O  O22  1  0.24751272  0.10580644  0.95110558  1
  O  O23  1  0.74751272  0.39419356  0.54889442  1
  O  O24  1  0.96066678  0.20083702  0.74826308  1
  O  O25  1  0.46066678  0.29916298  0.75173692  1
  O  O26  1  0.03933322  0.79916298  0.24826308  1
  O  O27  1  0.53933322  0.70083702  0.25173692  1
  O  O28  1  0.38321304  0.08298273  0.36563934  1
  O  O29  1  0.88321304  0.41701727  0.13436066  1
  O  O30  1  0.61678696  0.91701727  0.86563934  1
  O  O31  1  0.11678696  0.58298273  0.63436066  1
  O  O32  1  0.62227381  0.92724786  0.63541625  1
  O  O33  1  0.12227381  0.57275214  0.86458375  1
  O  O34  1  0.37772619  0.07275214  0.13541625  1
  O  O35  1  0.87772619  0.42724786  0.36458375  1
