# generated using pymatgen
data_Pr5S9
_symmetry_space_group_name_H-M   'P 1'
_cell_length_a   5.57389831
_cell_length_b   10.00862573
_cell_length_c   12.23014414
_cell_angle_alpha   82.02438605
_cell_angle_beta   76.82797540
_cell_angle_gamma   90.00000008
_symmetry_Int_Tables_number   1
_chemical_formula_structural   Pr5S9
_chemical_formula_sum   'Pr10 S18'
_cell_volume   657.55339077
_cell_formula_units_Z   2
loop_
 _symmetry_equiv_pos_site_id
 _symmetry_equiv_pos_as_xyz
  1  'x, y, z'
loop_
 _atom_site_type_symbol
 _atom_site_label
 _atom_site_symmetry_multiplicity
 _atom_site_fract_x
 _atom_site_fract_y
 _atom_site_fract_z
 _atom_site_occupancy
  Pr  Pr0  1  0.55548531  0.33533345  0.38505524  1
  Pr  Pr1  1  0.35026239  0.94846859  0.79880861  1
  Pr  Pr2  1  0.15568705  0.52764434  0.19003186  1
  Pr  Pr3  1  0.94347621  0.14144157  0.58921224  1
  Pr  Pr4  1  0.76783606  0.73146391  0.99266189  1
  Pr  Pr5  1  0.13268845  0.05855843  0.21078776  1
  Pr  Pr6  1  0.94571890  0.67235566  0.60996814  1
  Pr  Pr7  1  0.74907100  0.25153141  0.00119139  1
  Pr  Pr8  1  0.54054055  0.86466655  0.41494476  1
  Pr  Pr9  1  0.36049796  0.46853609  0.80733811  1
  S  S10  1  0.02504696  0.92134191  0.44744304  1
  S  S11  1  0.42342959  0.72617747  0.65046254  1
  S  S12  1  0.61772973  0.11192342  0.24764973  1
  S  S13  1  0.84338381  0.52250614  0.84019399  1
  S  S14  1  0.22654607  0.31338772  0.04416748  1
  S  S15  1  0.46537946  0.08807658  0.55235027  1
  S  S16  1  0.87071355  0.88661228  0.75583252  1
  S  S17  1  0.07249000  0.27865809  0.35255696  1
  S  S18  1  0.28357779  0.67749386  0.95980601  1
  S  S19  1  0.67389212  0.47382253  0.14953746  1
  S  S20  1  0.29950501  0.60000000  0.40000000  1
  S  S21  1  0.71136419  0.42700444  0.57465427  1
  S  S22  1  0.88601846  0.77299556  0.22534573  1
  S  S23  1  0.11385772  0.22404820  0.77773860  1
  S  S24  1  0.49159631  0.97595180  0.02226140  1
  S  S25  1  0.99219127  0.98778803  0.01068436  1
  S  S26  1  0.79913845  0.60000000  0.40000000  1
  S  S27  1  0.60287563  0.21221197  0.78931564  1
