# generated using pymatgen
data_PrSO
_symmetry_space_group_name_H-M   'P 1'
_cell_length_a   3.92127623
_cell_length_b   4.65774370
_cell_length_c   7.02099524
_cell_angle_alpha   70.62794206
_cell_angle_beta   73.78433837
_cell_angle_gamma   90.00000000
_symmetry_Int_Tables_number   1
_chemical_formula_structural   PrSO
_chemical_formula_sum   'Pr2 S2 O2'
_cell_volume   115.55201625
_cell_formula_units_Z   2
loop_
 _symmetry_equiv_pos_site_id
 _symmetry_equiv_pos_as_xyz
  1  'x, y, z'
loop_
 _atom_site_type_symbol
 _atom_site_label
 _atom_site_symmetry_multiplicity
 _atom_site_fract_x
 _atom_site_fract_y
 _atom_site_fract_z
 _atom_site_occupancy
  Pr  Pr0  1  0.33666293  0.33666293  0.32667414  1
  Pr  Pr1  1  0.66333707  0.66333707  0.67332586  1
  S  S2  1  0.00000000  0.22215922  0.00000000  1
  S  S3  1  0.00000000  0.77784078  0.00000000  1
  O  O4  1  0.73321114  0.23321114  0.53357772  1
  O  O5  1  0.26678886  0.76678886  0.46642228  1
