# generated using pymatgen
data_Nd6Cd5Si7
_symmetry_space_group_name_H-M   'P 1'
_cell_length_a   4.31890514
_cell_length_b   5.89573813
_cell_length_c   17.58681703
_cell_angle_alpha   98.66887007
_cell_angle_beta   90.00000000
_cell_angle_gamma   111.48597635
_symmetry_Int_Tables_number   1
_chemical_formula_structural   Nd6Cd5Si7
_chemical_formula_sum   'Nd6 Cd5 Si7'
_cell_volume   411.19266635
_cell_formula_units_Z   1
loop_
 _symmetry_equiv_pos_site_id
 _symmetry_equiv_pos_as_xyz
  1  'x, y, z'
loop_
 _atom_site_type_symbol
 _atom_site_label
 _atom_site_symmetry_multiplicity
 _atom_site_fract_x
 _atom_site_fract_y
 _atom_site_fract_z
 _atom_site_occupancy
  Nd  Nd0  1  0.61674958  0.23349915  0.93730962  1
  Nd  Nd1  1  0.29096851  0.58193602  0.27330575  1
  Nd  Nd2  1  0.97614037  0.95228175  0.60973312  1
  Nd  Nd3  1  0.72977153  0.45954405  0.73819361  1
  Nd  Nd4  1  0.36332943  0.72665886  0.04991951  1
  Nd  Nd5  1  0.03705193  0.07410287  0.39323535  1
  Cd  Cd6  1  0.68522401  0.37044701  0.13694896  1
  Cd  Cd7  1  0.35534484  0.71069068  0.47346628  1
  Cd  Cd8  1  0.03293186  0.06586372  0.80192341  1
  Cd  Cd9  1  0.97348654  0.94697307  0.19220400  1
  Cd  Cd10  1  0.65575490  0.31150881  0.53248881  1
  Si  Si11  1  0.28404129  0.56808358  0.87424702  1
  Si  Si12  1  0.57783369  0.15566838  0.27694861  1
  Si  Si13  1  0.26138314  0.52276628  0.61675225  1
  Si  Si14  1  0.89248985  0.78497869  0.92501518  1
  Si  Si15  1  0.07675969  0.15352037  0.05593367  1
  Si  Si16  1  0.74981856  0.49963712  0.38900475  1
  Si  Si17  1  0.44092029  0.88183958  0.72337011  1
