# generated using pymatgen
data_SbPb4
_symmetry_space_group_name_H-M   'P 1'
_cell_length_a   3.55967930
_cell_length_b   3.55967930
_cell_length_c   14.27854382
_cell_angle_alpha   90.00000000
_cell_angle_beta   97.16062164
_cell_angle_gamma   120.00000000
_symmetry_Int_Tables_number   1
_chemical_formula_structural   SbPb4
_chemical_formula_sum   'Sb1 Pb4'
_cell_volume   155.05663062
_cell_formula_units_Z   1
loop_
 _symmetry_equiv_pos_site_id
 _symmetry_equiv_pos_as_xyz
  1  'x, y, z'
loop_
 _atom_site_type_symbol
 _atom_site_label
 _atom_site_symmetry_multiplicity
 _atom_site_fract_x
 _atom_site_fract_y
 _atom_site_fract_z
 _atom_site_occupancy
  Sb  Sb0  1  0.00000000  -0.00000000  -0.00000000  1
  Pb  Pb1  1  0.79265319  0.39632659  0.18897978  1
  Pb  Pb2  1  0.59963602  0.79981801  0.39945403  1
  Pb  Pb3  1  0.40036398  0.20018199  0.60054597  1
  Pb  Pb4  1  0.20734681  0.60367341  0.81102022  1
