# generated using pymatgen
data_Ni5Ge(BO5)2
_symmetry_space_group_name_H-M   'P 1'
_cell_length_a   3.00371601
_cell_length_b   9.39449266
_cell_length_c   12.23353172
_cell_angle_alpha   90.00000000
_cell_angle_beta   90.00000000
_cell_angle_gamma   90.00000000
_symmetry_Int_Tables_number   1
_chemical_formula_structural   Ni5Ge(BO5)2
_chemical_formula_sum   'Ni10 Ge2 B4 O20'
_cell_volume   345.21054479
_cell_formula_units_Z   2
loop_
 _symmetry_equiv_pos_site_id
 _symmetry_equiv_pos_as_xyz
  1  'x, y, z'
loop_
 _atom_site_type_symbol
 _atom_site_label
 _atom_site_symmetry_multiplicity
 _atom_site_fract_x
 _atom_site_fract_y
 _atom_site_fract_z
 _atom_site_occupancy
  Ni  Ni0  1  0.50000000  0.50847077  0.21948323  1
  Ni  Ni1  1  0.50000000  0.51020892  0.78329139  1
  Ni  Ni2  1  0.50000000  0.98979108  0.28329139  1
  Ni  Ni3  1  0.50000000  0.99152923  0.71948323  1
  Ni  Ni4  1  0.50000000  0.50971457  0.49720182  1
  Ni  Ni5  1  0.50000000  0.99028543  0.99720182  1
  Ni  Ni6  1  -0.00000000  0.98637632  0.49577862  1
  Ni  Ni7  1  -0.00000000  0.51362368  0.99577862  1
  Ni  Ni8  1  -0.00000000  0.73652720  0.38457442  1
  Ni  Ni9  1  0.00000000  0.76347280  0.88457442  1
  Ge  Ge10  1  -0.00000000  0.25898665  0.61432972  1
  Ge  Ge11  1  -0.00000000  0.24101335  0.11432972  1
  B  B12  1  -0.00000000  0.77497876  0.13941088  1
  B  B13  1  -0.00000000  0.23444507  0.86114011  1
  B  B14  1  -0.00000000  0.26555493  0.36114011  1
  B  B15  1  -0.00000000  0.72502124  0.63941088  1
  O  O16  1  0.50000000  0.60212686  0.35625405  1
  O  O17  1  0.50000000  0.38417810  0.64309778  1
  O  O18  1  0.50000000  0.11582190  0.14309778  1
  O  O19  1  0.50000000  0.89787314  0.85625405  1
  O  O20  1  0.50000000  0.88861398  0.42405203  1
  O  O21  1  0.50000000  0.12921710  0.58091093  1
  O  O22  1  0.50000000  0.37078290  0.08091093  1
  O  O23  1  0.50000000  0.61138602  0.92405203  1
  O  O24  1  -0.00000000  0.62531514  0.13993909  1
  O  O25  1  -0.00000000  0.37849823  0.85928626  1
  O  O26  1  -0.00000000  0.12150177  0.35928626  1
  O  O27  1  -0.00000000  0.87468486  0.63993909  1
  O  O28  1  -0.00000000  0.64860320  0.54303154  1
  O  O29  1  -0.00000000  0.34262239  0.46100340  1
  O  O30  1  -0.00000000  0.15737761  0.96100340  1
  O  O31  1  -0.00000000  0.85139680  0.04303154  1
  O  O32  1  -0.00000000  0.84944614  0.23652544  1
  O  O33  1  -0.00000000  0.15985902  0.76068928  1
  O  O34  1  -0.00000000  0.34014098  0.26068928  1
  O  O35  1  0.00000000  0.65055386  0.73652544  1
