# generated using pymatgen
data_NaSr2Nb5O15
_symmetry_space_group_name_H-M   'P 1'
_cell_length_a   4.07861843
_cell_length_b   12.62277093
_cell_length_c   12.62277093
_cell_angle_alpha   90.05348109
_cell_angle_beta   90.00000000
_cell_angle_gamma   90.00000000
_symmetry_Int_Tables_number   1
_chemical_formula_structural   NaSr2Nb5O15
_chemical_formula_sum   'Na2 Sr4 Nb10 O30'
_cell_volume   649.86371731
_cell_formula_units_Z   2
loop_
 _symmetry_equiv_pos_site_id
 _symmetry_equiv_pos_as_xyz
  1  'x, y, z'
loop_
 _atom_site_type_symbol
 _atom_site_label
 _atom_site_symmetry_multiplicity
 _atom_site_fract_x
 _atom_site_fract_y
 _atom_site_fract_z
 _atom_site_occupancy
  Na  Na0  1  0.00782785  0.82923253  0.32923253  1
  Na  Na1  1  0.00782785  0.17076747  0.67076747  1
  Sr  Sr2  1  0.99846037  0.67268433  0.82731567  1
  Sr  Sr3  1  0.99846037  0.32731567  0.17268433  1
  Sr  Sr4  1  0.95456643  0.50000000  0.50000000  1
  Sr  Sr5  1  0.95456643  -0.00000000  -0.00000000  1
  Nb  Nb6  1  0.46154166  0.28786150  0.42352637  1
  Nb  Nb7  1  0.46154166  0.71213850  0.57647363  1
  Nb  Nb8  1  0.46166490  0.21060485  0.92157618  1
  Nb  Nb9  1  0.46166490  0.78939515  0.07842382  1
  Nb  Nb10  1  0.46166490  0.42157618  0.71060485  1
  Nb  Nb11  1  0.46166490  0.57842382  0.28939515  1
  Nb  Nb12  1  0.46154166  0.92352637  0.78786150  1
  Nb  Nb13  1  0.46154166  0.07647363  0.21213850  1
  Nb  Nb14  1  0.47725289  -0.00000000  0.50000000  1
  Nb  Nb15  1  0.47447440  0.50000000  -0.00000000  1
  O  O16  1  0.40785962  0.71908712  0.21908712  1
  O  O17  1  0.40785962  0.28091288  0.78091288  1
  O  O18  1  0.41841190  0.77325632  0.72674368  1
  O  O19  1  0.41841190  0.22674368  0.27325632  1
  O  O20  1  0.91917990  0.29963426  0.41528991  1
  O  O21  1  0.91917990  0.70036574  0.58471009  1
  O  O22  1  0.91754623  0.20108683  0.92269326  1
  O  O23  1  0.91754623  0.79891317  0.07730674  1
  O  O24  1  0.91754623  0.42269326  0.70108683  1
  O  O25  1  0.91754623  0.57730674  0.29891317  1
  O  O26  1  0.91917990  0.91528991  0.79963426  1
  O  O27  1  0.91917990  0.08471009  0.20036574  1
  O  O28  1  0.41118206  0.49204758  0.15747163  1
  O  O29  1  0.41118206  0.50795242  0.84252837  1
  O  O30  1  0.41326473  0.00199388  0.65794092  1
  O  O31  1  0.41326473  0.99800612  0.34205908  1
  O  O32  1  0.41326473  0.15794092  0.50199388  1
  O  O33  1  0.41326473  0.84205908  0.49800612  1
  O  O34  1  0.41118206  0.65747163  0.99204758  1
  O  O35  1  0.41118206  0.34252837  0.00795242  1
  O  O36  1  0.40615022  0.43555623  0.36068418  1
  O  O37  1  0.40615022  0.56444377  0.63931582  1
  O  O38  1  0.41416411  0.06216092  0.86580666  1
  O  O39  1  0.41416411  0.93783908  0.13419334  1
  O  O40  1  0.41416411  0.36580666  0.56216092  1
  O  O41  1  0.41416411  0.63419334  0.43783908  1
  O  O42  1  0.40615022  0.86068418  0.93555623  1
  O  O43  1  0.40615022  0.13931582  0.06444377  1
  O  O44  1  0.92373577  -0.00000000  0.50000000  1
  O  O45  1  0.92554936  0.50000000  -0.00000000  1
