# generated using pymatgen
data_Nb10(AlSi)3
_symmetry_space_group_name_H-M   'P 1'
_cell_length_a   5.15899614
_cell_length_b   7.66646659
_cell_length_c   7.68518313
_cell_angle_alpha   96.48441918
_cell_angle_beta   109.61180264
_cell_angle_gamma   70.33834844
_symmetry_Int_Tables_number   1
_chemical_formula_structural   Nb10(AlSi)3
_chemical_formula_sum   'Nb10 Al3 Si3'
_cell_volume   269.63166836
_cell_formula_units_Z   1
loop_
 _symmetry_equiv_pos_site_id
 _symmetry_equiv_pos_as_xyz
  1  'x, y, z'
loop_
 _atom_site_type_symbol
 _atom_site_label
 _atom_site_symmetry_multiplicity
 _atom_site_fract_x
 _atom_site_fract_y
 _atom_site_fract_z
 _atom_site_occupancy
  Nb  Nb0  1  0.42241280  0.85335964  0.69818524  1
  Nb  Nb1  1  0.58173777  0.14108521  0.30456076  1
  Nb  Nb2  1  0.92384693  0.29973511  0.14742896  1
  Nb  Nb3  1  0.07299409  0.70060329  0.84659147  1
  Nb  Nb4  1  0.72358203  0.70026489  0.14742896  1
  Nb  Nb5  1  0.27359738  0.29939671  0.84659147  1
  Nb  Nb6  1  0.77577244  0.14664036  0.69818524  1
  Nb  Nb7  1  0.22282298  0.85891479  0.30456076  1
  Nb  Nb8  1  0.25062579  0.50000000  0.50372494  1
  Nb  Nb9  1  0.75309915  0.50000000  0.50372494  1
  Al  Al10  1  0.25010132  0.00000000  0.00020264  1
  Al  Al11  1  0.75010132  0.00000000  0.00020264  1
  Al  Al12  1  0.33490248  0.50000000  0.16980497  1
  Si  Si13  1  0.66533367  0.50000000  0.83066733  1
  Si  Si14  1  0.83610583  0.82685819  0.49906985  1
  Si  Si15  1  0.16296402  0.17314181  0.49906985  1
