# generated using pymatgen
data_Nd2Ga3(Fe7C)2
_symmetry_space_group_name_H-M   'P 1'
_cell_length_a   6.54127123
_cell_length_b   6.51970159
_cell_length_c   6.54127123
_cell_angle_alpha   83.85229862
_cell_angle_beta   83.68265783
_cell_angle_gamma   83.85229862
_symmetry_Int_Tables_number   1
_chemical_formula_structural   Nd2Ga3(Fe7C)2
_chemical_formula_sum   'Nd2 Ga3 Fe14 C2'
_cell_volume   274.39283728
_cell_formula_units_Z   1
loop_
 _symmetry_equiv_pos_site_id
 _symmetry_equiv_pos_as_xyz
  1  'x, y, z'
loop_
 _atom_site_type_symbol
 _atom_site_label
 _atom_site_symmetry_multiplicity
 _atom_site_fract_x
 _atom_site_fract_y
 _atom_site_fract_z
 _atom_site_occupancy
  Nd  Nd0  1  0.65160196  0.66369008  0.65160196  1
  Nd  Nd1  1  0.34839804  0.33630992  0.34839804  1
  Ga  Ga2  1  0.00000000  0.50000000  0.00000000  1
  Ga  Ga3  1  0.50000000  -0.00000000  0.00000000  1
  Ga  Ga4  1  0.00000000  -0.00000000  0.50000000  1
  Fe  Fe5  1  0.90771750  0.90641627  0.90771750  1
  Fe  Fe6  1  0.09228250  0.09358373  0.09228250  1
  Fe  Fe7  1  0.34264570  0.84834143  0.34264570  1
  Fe  Fe8  1  0.85147793  0.34304955  0.34510815  1
  Fe  Fe9  1  0.34510815  0.34304955  0.85147793  1
  Fe  Fe10  1  0.65735430  0.15165857  0.65735430  1
  Fe  Fe11  1  0.14852207  0.65695045  0.65489185  1
  Fe  Fe12  1  0.65489185  0.65695045  0.14852207  1
  Fe  Fe13  1  0.71457010  -0.00000000  0.28542990  1
  Fe  Fe14  1  0.99928819  0.28662147  0.71397445  1
  Fe  Fe15  1  0.28602555  0.71337853  0.00071181  1
  Fe  Fe16  1  0.00071181  0.71337853  0.28602555  1
  Fe  Fe17  1  0.71397445  0.28662147  0.99928819  1
  Fe  Fe18  1  0.28542990  -0.00000000  0.71457010  1
  C  C19  1  0.00000000  0.50000000  0.50000000  1
  C  C20  1  0.50000000  0.50000000  0.00000000  1
