# generated using pymatgen
data_Rb6Ga10Se20O61
_symmetry_space_group_name_H-M   'P 1'
_cell_length_a   10.99039752
_cell_length_b   12.78813072
_cell_length_c   12.95397826
_cell_angle_alpha   86.86706297
_cell_angle_beta   85.06614568
_cell_angle_gamma   72.43957129
_symmetry_Int_Tables_number   1
_chemical_formula_structural   Rb6Ga10Se20O61
_chemical_formula_sum   'Rb6 Ga10 Se20 O61'
_cell_volume   1728.57354188
_cell_formula_units_Z   1
loop_
 _symmetry_equiv_pos_site_id
 _symmetry_equiv_pos_as_xyz
  1  'x, y, z'
loop_
 _atom_site_type_symbol
 _atom_site_label
 _atom_site_symmetry_multiplicity
 _atom_site_fract_x
 _atom_site_fract_y
 _atom_site_fract_z
 _atom_site_occupancy
  Rb  Rb0  1  0.73942891  0.44340463  0.94629717  1
  Rb  Rb1  1  0.26063809  0.55684963  0.05353124  1
  Rb  Rb2  1  0.50502085  0.00260279  0.82119082  1
  Rb  Rb3  1  0.49536190  0.99660250  0.17993850  1
  Rb  Rb4  1  0.82427361  0.92212414  0.45276390  1
  Rb  Rb5  1  0.17624809  0.07560872  0.54658091  1
  Ga  Ga6  1  0.80318763  0.68205324  0.72662967  1
  Ga  Ga7  1  0.19670324  0.31836030  0.27220862  1
  Ga  Ga8  1  0.82136711  0.67539361  0.22050702  1
  Ga  Ga9  1  0.17826191  0.32528480  0.78047515  1
  Ga  Ga10  1  0.49018923  0.26517900  0.00166011  1
  Ga  Ga11  1  0.51004381  0.73463743  0.99840434  1
  Ga  Ga12  1  0.80611047  0.17610761  0.22861999  1
  Ga  Ga13  1  0.19391282  0.82371469  0.77159014  1
  Ga  Ga14  1  0.80209092  0.18150193  0.73298638  1
  Ga  Ga15  1  0.19770174  0.81849340  0.26685836  1
  Se  Se16  1  0.48320891  0.32741047  0.75708497  1
  Se  Se17  1  0.51689768  0.67282072  0.24301201  1
  Se  Se18  1  0.76085127  0.65210898  0.47769116  1
  Se  Se19  1  0.23759965  0.34794067  0.52264125  1
  Se  Se20  1  0.88909539  0.40743520  0.22327549  1
  Se  Se21  1  0.11074368  0.59270754  0.77667828  1
  Se  Se22  1  0.50378603  0.67495107  0.75919700  1
  Se  Se23  1  0.49628944  0.32528620  0.24077239  1
  Se  Se24  1  0.80684656  0.72944500  0.97448826  1
  Se  Se25  1  0.19330099  0.27039793  0.02548675  1
  Se  Se26  1  0.78464837  0.13118079  0.98709740  1
  Se  Se27  1  0.21542289  0.86886991  0.01288254  1
  Se  Se28  1  0.79328248  0.23112625  0.47494174  1
  Se  Se29  1  0.20747321  0.76908739  0.52530874  1
  Se  Se30  1  0.89204825  0.91220988  0.72176824  1
  Se  Se31  1  0.10779298  0.08772601  0.27843430  1
  Se  Se32  1  0.89701976  0.40957489  0.67790956  1
  Se  Se33  1  0.10281979  0.59071341  0.32202822  1
  Se  Se34  1  0.91736654  0.90796504  0.16937556  1
  Se  Se35  1  0.08263132  0.09216917  0.83043615  1
  O  O36  1  0.78426557  0.53496625  0.70706109  1
  O  O37  1  0.21563781  0.46490475  0.29348549  1
  O  O38  1  0.61203971  0.21321151  0.73389050  1
  O  O39  1  0.38767599  0.78714204  0.26598679  1
  O  O40  1  0.79760713  0.03157966  0.77983755  1
  O  O41  1  0.20229396  0.96854928  0.22015126  1
  O  O42  1  0.78571523  0.33335319  0.26471071  1
  O  O43  1  0.21442288  0.66650849  0.73515943  1
  O  O44  1  0.79509811  0.21790858  0.88273910  1
  O  O45  1  0.20490029  0.78213132  0.11721761  1
  O  O46  1  0.60213703  0.67613902  0.47702159  1
  O  O47  1  0.39330372  0.33285884  0.52324972  1
  O  O48  1  0.78719699  0.33630656  0.69850455  1
  O  O49  1  0.21302826  0.66357603  0.30127718  1
  O  O50  1  0.79286602  0.72660722  0.57260877  1
  O  O51  1  0.20715129  0.27367931  0.42715888  1
  O  O52  1  0.78889964  0.83627239  0.75847361  1
  O  O53  1  0.21107923  0.16384086  0.24192951  1
  O  O54  1  0.79735835  0.02383210  0.21035845  1
  O  O55  1  0.20254422  0.97629835  0.78982847  1
  O  O56  1  0.06364825  0.74022133  0.51760676  1
  O  O57  1  0.93751450  0.25928683  0.48210954  1
  O  O58  1  0.81795712  0.71563441  0.37121564  1
  O  O59  1  0.18175718  0.28420850  0.62911534  1
  O  O60  1  0.83043628  0.13455332  0.38009587  1
  O  O61  1  0.16862898  0.86555872  0.62033895  1
  O  O62  1  0.37972192  0.79256130  0.74598148  1
  O  O63  1  0.62010895  0.20773447  0.25437474  1
  O  O64  1  0.82159780  0.13769014  0.58108709  1
  O  O65  1  0.17714825  0.86237205  0.41906600  1
  O  O66  1  0.00705039  0.36361357  0.31053157  1
  O  O67  1  0.99318136  0.63630396  0.68938203  1
  O  O68  1  0.37091996  0.25799817  0.77107118  1
  O  O69  1  0.62894275  0.74216357  0.22818117  1
  O  O70  1  0.82333376  0.63173305  0.07423012  1
  O  O71  1  0.17679647  0.36836755  0.92600450  1
  O  O72  1  0.82349974  0.63802269  0.87730512  1
  O  O73  1  0.17661606  0.36206649  0.12242766  1
  O  O74  1  0.49392615  0.36023731  0.88767310  1
  O  O75  1  0.50560310  0.63974919  0.11251818  1
  O  O76  1  0.35865134  0.19927022  0.01655220  1
  O  O77  1  0.64127405  0.80070079  0.98342322  1
  O  O78  1  0.78746864  0.22298579  0.07847659  1
  O  O79  1  0.21245944  0.77697599  0.92156493  1
  O  O80  1  0.50424585  0.64013634  0.89455980  1
  O  O81  1  0.49562707  0.35978958  0.10541853  1
  O  O82  1  0.00749557  0.86285754  0.81000130  1
  O  O83  1  0.99260560  0.13725364  0.19012835  1
  O  O84  1  0.98453975  0.38064107  0.78698113  1
  O  O85  1  0.01559606  0.61917950  0.21299504  1
  O  O86  1  0.79826448  0.53200452  0.27171148  1
  O  O87  1  0.20137760  0.46793216  0.72797701  1
  O  O88  1  0.62271398  0.13191709  0.99610220  1
  O  O89  1  0.37729270  0.86802356  0.00387302  1
  O  O90  1  0.00313900  0.86769672  0.27809309  1
  O  O91  1  0.99697833  0.13224080  0.72180194  1
  O  O92  1  0.18171904  0.17487854  0.82758678  1
  O  O93  1  0.81840504  0.82531729  0.17184470  1
  O  O94  1  0.61645703  0.74289064  0.74472964  1
  O  O95  1  0.38348001  0.25726503  0.25572595  1
  O  O96  1  0.47803347  0.89355591  0.48423443  1
