# generated using pymatgen
data_Nd2Ti12(CuO4)9
_symmetry_space_group_name_H-M   'P 1'
_cell_length_a   6.47410813
_cell_length_b   10.53680920
_cell_length_c   10.53680920
_cell_angle_alpha   60.00000000
_cell_angle_beta   90.00000000
_cell_angle_gamma   90.00000000
_symmetry_Int_Tables_number   1
_chemical_formula_structural   Nd2Ti12(CuO4)9
_chemical_formula_sum   'Nd2 Ti12 Cu9 O36'
_cell_volume   622.48488771
_cell_formula_units_Z   1
loop_
 _symmetry_equiv_pos_site_id
 _symmetry_equiv_pos_as_xyz
  1  'x, y, z'
loop_
 _atom_site_type_symbol
 _atom_site_label
 _atom_site_symmetry_multiplicity
 _atom_site_fract_x
 _atom_site_fract_y
 _atom_site_fract_z
 _atom_site_occupancy
  Nd  Nd0  1  0.00435667  0.00000000  0.00000000  1
  Nd  Nd1  1  0.66231033  0.33333300  0.33333300  1
  Ti  Ti2  1  0.83333300  0.16666700  0.16666700  1
  Ti  Ti3  1  0.49644623  0.50639552  0.50900045  1
  Ti  Ti4  1  0.17022077  0.82693748  0.82433255  1
  Ti  Ti5  1  0.49295325  -0.00000000  -0.00000000  1
  Ti  Ti6  1  0.17371375  0.33333300  0.33333300  1
  Ti  Ti7  1  0.83333300  0.66666700  0.66666700  1
  Ti  Ti8  1  0.83333300  0.16666700  0.66666700  1
  Ti  Ti9  1  0.49644623  0.50900045  0.98460403  1
  Ti  Ti10  1  0.17022077  0.82433255  0.34872897  1
  Ti  Ti11  1  0.17022077  0.34872897  0.82693748  1
  Ti  Ti12  1  0.83333300  0.66666700  0.16666700  1
  Ti  Ti13  1  0.49644623  0.98460403  0.50639552  1
  Cu  Cu14  1  0.99712155  0.49945266  0.49909050  1
  Cu  Cu15  1  0.66954545  0.83388034  0.83424250  1
  Cu  Cu16  1  0.33333300  0.16666700  0.16666700  1
  Cu  Cu17  1  0.66954545  0.33187616  0.83388034  1
  Cu  Cu18  1  0.33333300  0.66666700  0.16666700  1
  Cu  Cu19  1  0.99712155  0.00145684  0.49945266  1
  Cu  Cu20  1  0.33333300  0.16666700  0.66666700  1
  Cu  Cu21  1  0.99712155  0.49909050  0.00145684  1
  Cu  Cu22  1  0.66954545  0.83424250  0.33187616  1
  O  O23  1  0.24639741  0.44219642  0.62309932  1
  O  O24  1  0.91795491  0.78244360  0.95871723  1
  O  O25  1  0.58422603  0.11564477  0.29212537  1
  O  O26  1  0.34790454  0.35080541  0.17471935  1
  O  O27  1  0.00425248  0.68422391  0.50290546  1
  O  O28  1  0.68374203  0.01682194  0.84147911  1
  O  O29  1  0.98292397  0.31651206  0.49185489  1
  O  O30  1  0.66241452  0.64910909  0.83042754  1
  O  O31  1  0.31876246  0.98252759  0.15861365  1
  O  O32  1  0.08244097  0.21768823  0.04120763  1
  O  O33  1  0.74871109  0.55089040  0.37461677  1
  O  O34  1  0.42026959  0.89113658  0.71023368  1
  O  O35  1  0.42026959  0.39862974  0.89113658  1
  O  O36  1  0.08244097  0.74110313  0.21768823  1
  O  O37  1  0.74871109  0.07449383  0.55089040  1
  O  O38  1  0.66241452  0.52046337  0.64910909  1
  O  O39  1  0.31876246  0.85885776  0.98252759  1
  O  O40  1  0.98292397  0.19163405  0.31651206  1
  O  O41  1  0.68374203  0.14169995  0.01682194  1
  O  O42  1  0.34790454  0.47447524  0.35080541  1
  O  O43  1  0.00425248  0.81286963  0.68422391  1
  O  O44  1  0.91795491  0.25884017  0.78244360  1
  O  O45  1  0.58422603  0.59222987  0.11564477  1
  O  O46  1  0.24639741  0.93470326  0.44219642  1
  O  O47  1  0.00425248  0.50290546  0.81286963  1
  O  O48  1  0.68374203  0.84147911  0.14169995  1
  O  O49  1  0.34790454  0.17471935  0.47447524  1
  O  O50  1  0.58422603  0.29212537  0.59222987  1
  O  O51  1  0.24639741  0.62309932  0.93470326  1
  O  O52  1  0.91795491  0.95871723  0.25884017  1
  O  O53  1  0.74871109  0.37461677  0.07449383  1
  O  O54  1  0.42026959  0.71023368  0.39862974  1
  O  O55  1  0.08244097  0.04120763  0.74110313  1
  O  O56  1  0.31876246  0.15861365  0.85885776  1
  O  O57  1  0.98292397  0.49185489  0.19163405  1
  O  O58  1  0.66241452  0.83042754  0.52046337  1
