# generated using pymatgen
data_Na3Mn2CuH10S4O17
_symmetry_space_group_name_H-M   'P 1'
_cell_length_a   7.79446230
_cell_length_b   7.87989396
_cell_length_c   14.56796781
_cell_angle_alpha   90.00000000
_cell_angle_beta   90.00000000
_cell_angle_gamma   100.89890270
_symmetry_Int_Tables_number   1
_chemical_formula_structural   Na3Mn2CuH10S4O17
_chemical_formula_sum   'Na6 Mn4 Cu2 H20 S8 O34'
_cell_volume   878.61848646
_cell_formula_units_Z   2
loop_
 _symmetry_equiv_pos_site_id
 _symmetry_equiv_pos_as_xyz
  1  'x, y, z'
loop_
 _atom_site_type_symbol
 _atom_site_label
 _atom_site_symmetry_multiplicity
 _atom_site_fract_x
 _atom_site_fract_y
 _atom_site_fract_z
 _atom_site_occupancy
  Na  Na0  1  0.15032690  0.78393652  0.75180771  1
  Na  Na1  1  0.84967310  0.21606348  0.25180771  1
  Na  Na2  1  0.46708109  0.19258816  0.40158249  1
  Na  Na3  1  0.53291891  0.80741184  0.90158249  1
  Na  Na4  1  0.51364139  0.80264326  0.59222780  1
  Na  Na5  1  0.48635861  0.19735674  0.09222780  1
  Mn  Mn6  1  0.76394202  0.34340122  0.61392316  1
  Mn  Mn7  1  0.23605798  0.65659878  0.11392316  1
  Mn  Mn8  1  0.23530474  0.65688170  0.38528748  1
  Mn  Mn9  1  0.76469526  0.34311830  0.88528748  1
  Cu  Cu10  1  0.30549378  0.27904228  0.74974240  1
  Cu  Cu11  1  0.69450622  0.72095772  0.24974240  1
  H  H12  1  0.69219120  0.56190895  0.47443959  1
  H  H13  1  0.30780880  0.43809105  0.97443959  1
  H  H14  1  0.30817301  0.43810161  0.52554953  1
  H  H15  1  0.69182699  0.56189839  0.02554953  1
  H  H16  1  0.86429189  0.12971144  0.48148053  1
  H  H17  1  0.13570811  0.87028856  0.98148053  1
  H  H18  1  0.13565585  0.87128503  0.51808576  1
  H  H19  1  0.86434415  0.12871497  0.01808576  1
  H  H20  1  0.04567052  0.19816114  0.53525650  1
  H  H21  1  0.95432948  0.80183886  0.03525650  1
  H  H22  1  0.95409654  0.80245632  0.46431438  1
  H  H23  1  0.04590346  0.19754368  0.96431438  1
  H  H24  1  0.80782419  0.44466376  0.42951217  1
  H  H25  1  0.19217581  0.55533624  0.92951217  1
  H  H26  1  0.19137143  0.55459489  0.57030147  1
  H  H27  1  0.80862857  0.44540511  0.07030147  1
  H  H28  1  0.88326226  0.01140106  0.74750837  1
  H  H29  1  0.11673774  0.98859894  0.24750837  1
  H  H30  1  0.81129197  0.82571182  0.70722218  1
  H  H31  1  0.18870803  0.17428818  0.20722218  1
  S  S32  1  0.05175965  0.38474324  0.74969194  1
  S  S33  1  0.94824035  0.61525676  0.24969194  1
  S  S34  1  0.51249336  0.52630587  0.74935265  1
  S  S35  1  0.48750664  0.47369413  0.24935265  1
  S  S36  1  0.34935583  0.13245656  0.62051396  1
  S  S37  1  0.65064417  0.86754344  0.12051396  1
  S  S38  1  0.65049791  0.86707991  0.38006220  1
  S  S39  1  0.34950209  0.13292009  0.88006220  1
  O  O40  1  0.03538873  0.49679921  0.66538648  1
  O  O41  1  0.96461127  0.50320079  0.16538648  1
  O  O42  1  0.96441029  0.50456583  0.33444300  1
  O  O43  1  0.03558971  0.49543417  0.83444300  1
  O  O44  1  0.91751534  0.18831575  0.53788455  1
  O  O45  1  0.08248466  0.81168425  0.03788455  1
  O  O46  1  0.08185283  0.80873755  0.46289427  1
  O  O47  1  0.91814717  0.19126245  0.96289427  1
  O  O48  1  0.63472426  0.54218248  0.66542000  1
  O  O49  1  0.36527574  0.45781752  0.16542000  1
  O  O50  1  0.37287133  0.46610231  0.33496006  1
  O  O51  1  0.62712867  0.53389769  0.83496006  1
  O  O52  1  0.54528181  0.13141303  0.60683436  1
  O  O53  1  0.45471819  0.86858697  0.10683436  1
  O  O54  1  0.45472750  0.86760671  0.39447820  1
  O  O55  1  0.54527250  0.13239329  0.89447820  1
  O  O56  1  0.44160131  0.69254374  0.74951408  1
  O  O57  1  0.55839869  0.30745626  0.24951408  1
  O  O58  1  0.87433095  0.25305170  0.74951177  1
  O  O59  1  0.12566905  0.74694830  0.24951177  1
  O  O60  1  0.89065628  0.88850674  0.75272433  1
  O  O61  1  0.10934372  0.11149326  0.25272433  1
  O  O62  1  0.28842410  0.21558080  0.53451159  1
  O  O63  1  0.71157590  0.78441920  0.03451159  1
  O  O64  1  0.71228147  0.78488783  0.46632613  1
  O  O65  1  0.28771853  0.21511217  0.96632613  1
  O  O66  1  0.71424753  0.44092080  0.47602124  1
  O  O67  1  0.28575247  0.55907920  0.97602124  1
  O  O68  1  0.28577014  0.55902534  0.52415165  1
  O  O69  1  0.71422986  0.44097466  0.02415165  1
  O  O70  1  0.26374786  0.94234229  0.61821809  1
  O  O71  1  0.73625214  0.05765771  0.11821809  1
  O  O72  1  0.73542573  0.05714758  0.38175791  1
  O  O73  1  0.26457427  0.94285242  0.88175791  1
