# generated using pymatgen
data_Nb2Ni3Ge
_symmetry_space_group_name_H-M   'P 1'
_cell_length_a   4.91383146
_cell_length_b   4.91399005
_cell_length_c   7.80119224
_cell_angle_alpha   90.00000000
_cell_angle_beta   90.00000000
_cell_angle_gamma   59.99893241
_symmetry_Int_Tables_number   1
_chemical_formula_structural   Nb2Ni3Ge
_chemical_formula_sum   'Nb4 Ni6 Ge2'
_cell_volume   163.13286689
_cell_formula_units_Z   2
loop_
 _symmetry_equiv_pos_site_id
 _symmetry_equiv_pos_as_xyz
  1  'x, y, z'
loop_
 _atom_site_type_symbol
 _atom_site_label
 _atom_site_symmetry_multiplicity
 _atom_site_fract_x
 _atom_site_fract_y
 _atom_site_fract_z
 _atom_site_occupancy
  Nb  Nb0  1  0.33334663  0.33332668  0.56093843  1
  Nb  Nb1  1  0.66665337  0.66667332  0.43906157  1
  Nb  Nb2  1  0.66665337  0.66667332  0.06093843  1
  Nb  Nb3  1  0.33334663  0.33332668  0.93906157  1
  Ni  Ni4  1  0.82902212  0.34195832  0.75000000  1
  Ni  Ni5  1  0.34189032  0.82905484  0.75000000  1
  Ni  Ni6  1  0.82902212  0.82901956  0.75000000  1
  Ni  Ni7  1  0.17097788  0.65804168  0.25000000  1
  Ni  Ni8  1  0.65810968  0.17094516  0.25000000  1
  Ni  Ni9  1  0.17097788  0.17098044  0.25000000  1
  Ge  Ge10  1  -0.00000000  0.00000000  0.50000000  1
  Ge  Ge11  1  -0.00000000  0.00000000  0.00000000  1
