# generated using pymatgen
data_ReH12C4NO4
_symmetry_space_group_name_H-M   'P 1'
_cell_length_a   6.15208802
_cell_length_b   12.67619817
_cell_length_c   13.32186080
_cell_angle_alpha   90.00000000
_cell_angle_beta   90.00000000
_cell_angle_gamma   89.92050840
_symmetry_Int_Tables_number   1
_chemical_formula_structural   ReH12C4NO4
_chemical_formula_sum   'Re4 H48 C16 N4 O16'
_cell_volume   1038.90547193
_cell_formula_units_Z   4
loop_
 _symmetry_equiv_pos_site_id
 _symmetry_equiv_pos_as_xyz
  1  'x, y, z'
loop_
 _atom_site_type_symbol
 _atom_site_label
 _atom_site_symmetry_multiplicity
 _atom_site_fract_x
 _atom_site_fract_y
 _atom_site_fract_z
 _atom_site_occupancy
  Re  Re0  1  0.05424929  0.98392105  0.25000000  1
  Re  Re1  1  0.94575071  0.01607895  0.75000000  1
  Re  Re2  1  0.05385350  0.51701365  0.75000000  1
  Re  Re3  1  0.94614650  0.48298635  0.25000000  1
  H  H4  1  0.71628729  0.63599022  0.96733811  1
  H  H5  1  0.28371271  0.36400978  0.46733811  1
  H  H6  1  0.28371271  0.36400978  0.03266189  1
  H  H7  1  0.71628729  0.63599022  0.53266189  1
  H  H8  1  0.51141021  0.65285640  0.87212633  1
  H  H9  1  0.48858979  0.34714360  0.37212633  1
  H  H10  1  0.48858979  0.34714360  0.12787367  1
  H  H11  1  0.51141021  0.65285640  0.62787367  1
  H  H12  1  0.71918367  0.75152317  0.88795150  1
  H  H13  1  0.28081633  0.24847683  0.38795150  1
  H  H14  1  0.28081633  0.24847683  0.11204850  1
  H  H15  1  0.71918367  0.75152317  0.61204850  1
  H  H16  1  0.71729007  0.74797840  0.11333783  1
  H  H17  1  0.28270993  0.25202160  0.61333783  1
  H  H18  1  0.28270993  0.25202160  0.88666217  1
  H  H19  1  0.71729007  0.74797840  0.38666217  1
  H  H20  1  0.71782557  0.86293696  0.03320811  1
  H  H21  1  0.28217443  0.13706304  0.53320811  1
  H  H22  1  0.28217443  0.13706304  0.96679189  1
  H  H23  1  0.71782557  0.86293696  0.46679189  1
  H  H24  1  0.51098787  0.84794194  0.12771767  1
  H  H25  1  0.48901213  0.15205806  0.62771767  1
  H  H26  1  0.48901213  0.15205806  0.87228233  1
  H  H27  1  0.51098787  0.84794194  0.37228233  1
  H  H28  1  0.23560713  0.78588034  0.89184576  1
  H  H29  1  0.76439287  0.21411966  0.39184576  1
  H  H30  1  0.76439287  0.21411966  0.10815424  1
  H  H31  1  0.23560713  0.78588034  0.60815424  1
  H  H32  1  0.23539572  0.86929577  0.00175707  1
  H  H33  1  0.76460428  0.13070423  0.50175707  1
  H  H34  1  0.76460428  0.13070423  0.99824293  1
  H  H35  1  0.23539572  0.86929577  0.49824293  1
  H  H36  1  0.44271291  0.88443214  0.90740833  1
  H  H37  1  0.55728709  0.11556786  0.40740833  1
  H  H38  1  0.55728709  0.11556786  0.09259167  1
  H  H39  1  0.44271291  0.88443214  0.59259167  1
  H  H40  1  0.44250169  0.61571277  0.09302613  1
  H  H41  1  0.55749831  0.38428723  0.59302613  1
  H  H42  1  0.55749831  0.38428723  0.90697387  1
  H  H43  1  0.44250169  0.61571277  0.40697387  1
  H  H44  1  0.23571879  0.71472674  0.10868580  1
  H  H45  1  0.76428121  0.28527326  0.60868580  1
  H  H46  1  0.76428121  0.28527326  0.89131420  1
  H  H47  1  0.23571879  0.71472674  0.39131420  1
  H  H48  1  0.23494385  0.63125476  0.99884405  1
  H  H49  1  0.76505615  0.36874524  0.49884405  1
  H  H50  1  0.76505615  0.36874524  0.00115595  1
  H  H51  1  0.23494385  0.63125476  0.50115595  1
  C  C52  1  0.61692632  0.69315655  0.92599827  1
  C  C53  1  0.38307368  0.30684345  0.42599827  1
  C  C54  1  0.38307368  0.30684345  0.07400173  1
  C  C55  1  0.61692632  0.69315655  0.57400173  1
  C  C56  1  0.61680964  0.80662147  0.07453648  1
  C  C57  1  0.38319036  0.19337853  0.57453648  1
  C  C58  1  0.38319036  0.19337853  0.92546352  1
  C  C59  1  0.61680964  0.80662147  0.42546352  1
  C  C60  1  0.33632324  0.82846314  0.94617916  1
  C  C61  1  0.66367676  0.17153686  0.44617916  1
  C  C62  1  0.66367676  0.17153686  0.05382084  1
  C  C63  1  0.33632324  0.82846314  0.55382084  1
  C  C64  1  0.33619865  0.67185159  0.05430875  1
  C  C65  1  0.66380135  0.32814841  0.55430875  1
  C  C66  1  0.66380135  0.32814841  0.94569125  1
  C  C67  1  0.33619865  0.67185159  0.44569125  1
  N  N68  1  0.47625822  0.75003576  0.00021873  1
  N  N69  1  0.52374178  0.24996424  0.50021873  1
  N  N70  1  0.52374178  0.24996424  0.99978127  1
  N  N71  1  0.47625822  0.75003576  0.49978127  1
  O  O72  1  0.77106708  0.99627033  0.25000000  1
  O  O73  1  0.22893292  0.00372967  0.75000000  1
  O  O74  1  0.76986359  0.50654593  0.75000000  1
  O  O75  1  0.23013641  0.49345407  0.25000000  1
  O  O76  1  0.12611018  0.65120579  0.75000000  1
  O  O77  1  0.87388982  0.34879421  0.25000000  1
  O  O78  1  0.15865389  0.45597180  0.85829705  1
  O  O79  1  0.84134611  0.54402820  0.35829705  1
  O  O80  1  0.84134611  0.54402820  0.14170295  1
  O  O81  1  0.15865389  0.45597180  0.64170295  1
  O  O82  1  0.16094565  0.04385415  0.14168576  1
  O  O83  1  0.83905435  0.95614585  0.64168576  1
  O  O84  1  0.83905435  0.95614585  0.85831424  1
  O  O85  1  0.16094565  0.04385415  0.35831424  1
  O  O86  1  0.12315040  0.84874135  0.25000000  1
  O  O87  1  0.87684960  0.15125865  0.75000000  1
