# generated using pymatgen
data_NaCaNb3(BiO6)2
_symmetry_space_group_name_H-M   'P 1'
_cell_length_a   3.95527625
_cell_length_b   3.95527625
_cell_length_c   16.59223987
_cell_angle_alpha   83.15495465
_cell_angle_beta   83.15495465
_cell_angle_gamma   90.00286253
_symmetry_Int_Tables_number   1
_chemical_formula_structural   NaCaNb3(BiO6)2
_chemical_formula_sum   'Na1 Ca1 Nb3 Bi2 O12'
_cell_volume   255.85851518
_cell_formula_units_Z   1
loop_
 _symmetry_equiv_pos_site_id
 _symmetry_equiv_pos_as_xyz
  1  'x, y, z'
loop_
 _atom_site_type_symbol
 _atom_site_label
 _atom_site_symmetry_multiplicity
 _atom_site_fract_x
 _atom_site_fract_y
 _atom_site_fract_z
 _atom_site_occupancy
  Na  Na0  1  0.93107745  0.93107745  0.13784510  1
  Ca  Ca1  1  0.06360926  0.06360926  0.87278148  1
  Nb  Nb2  1  0.62750510  0.62750510  0.74498981  1
  Nb  Nb3  1  0.37079834  0.37079834  0.25840332  1
  Nb  Nb4  1  0.49815483  0.49815483  0.00369033  1
  Bi  Bi5  1  0.78783947  0.78783947  0.42432106  1
  Bi  Bi6  1  0.21381479  0.21381479  0.57237041  1
  O  O7  1  0.37738686  0.87738686  0.24522628  1
  O  O8  1  0.12016776  0.62016776  0.75966447  1
  O  O9  1  0.62016776  0.12016776  0.75966447  1
  O  O10  1  0.87738686  0.37738686  0.24522628  1
  O  O11  1  0.68549634  0.68549634  0.62900732  1
  O  O12  1  0.31299556  0.31299556  0.37400888  1
  O  O13  1  0.56258163  0.56258163  0.87483675  1
  O  O14  1  0.44013207  0.44013207  0.11973587  1
  O  O15  1  0.25063922  0.75063922  0.49872156  1
  O  O16  1  0.75063922  0.25063922  0.49872156  1
  O  O17  1  0.50480373  0.00480373  0.99039253  1
  O  O18  1  0.00480373  0.50480373  0.99039253  1
