# generated using pymatgen
data_Mn2Cr13S20
_symmetry_space_group_name_H-M   'P 1'
_cell_length_a   7.94423659
_cell_length_b   8.76805215
_cell_length_c   8.10831642
_cell_angle_alpha   77.59912358
_cell_angle_beta   88.61047969
_cell_angle_gamma   75.04541535
_symmetry_Int_Tables_number   1
_chemical_formula_structural   Mn2Cr13S20
_chemical_formula_sum   'Mn2 Cr13 S20'
_cell_volume   532.63807289
_cell_formula_units_Z   1
loop_
 _symmetry_equiv_pos_site_id
 _symmetry_equiv_pos_as_xyz
  1  'x, y, z'
loop_
 _atom_site_type_symbol
 _atom_site_label
 _atom_site_symmetry_multiplicity
 _atom_site_fract_x
 _atom_site_fract_y
 _atom_site_fract_z
 _atom_site_occupancy
  Mn  Mn0  1  0.00034009  -0.00050482  -0.00000100  1
  Mn  Mn1  1  0.39965991  0.40050482  0.40000100  1
  Cr  Cr2  1  0.80084716  0.80090574  0.80134553  1
  Cr  Cr3  1  0.20000000  0.20000000  0.20000000  1
  Cr  Cr4  1  0.59915284  0.59909426  0.59865447  1
  Cr  Cr5  1  0.83455414  0.63508879  0.31958984  1
  Cr  Cr6  1  0.23638384  0.03464450  0.71936074  1
  Cr  Cr7  1  0.63623952  0.43419367  0.11874294  1
  Cr  Cr8  1  0.03492019  0.83424336  0.51864156  1
  Cr  Cr9  1  0.43350088  0.23372903  0.91908126  1
  Cr  Cr10  1  0.76376048  0.96580633  0.28125706  1
  Cr  Cr11  1  0.16361616  0.36535550  0.68063926  1
  Cr  Cr12  1  0.56544586  0.76491121  0.08041016  1
  Cr  Cr13  1  0.96649912  0.16627097  0.48091874  1
  Cr  Cr14  1  0.36507981  0.56575664  0.88135844  1
  S  S15  1  0.89451802  0.19612414  0.18278836  1
  S  S16  1  0.68997752  0.99226690  0.98135271  1
  S  S17  1  0.49714154  0.79449108  0.77809838  1
  S  S18  1  0.29233265  0.59506011  0.58417915  1
  S  S19  1  0.09110878  0.39362357  0.38006267  1
  S  S20  1  0.30889122  0.00637643  0.01993733  1
  S  S21  1  0.10766735  0.80493989  0.81582085  1
  S  S22  1  0.90285846  0.60550892  0.62190162  1
  S  S23  1  0.71002248  0.40773310  0.41864729  1
  S  S24  1  0.50548198  0.20387586  0.21721164  1
  S  S25  1  0.37725287  0.60573795  0.14908906  1
  S  S26  1  0.17586067  0.40653510  0.94943059  1
  S  S27  1  0.97652019  0.20448008  0.74892863  1
  S  S28  1  0.77736793  0.00668347  0.55041276  1
  S  S29  1  0.57503325  0.80500448  0.34872239  1
  S  S30  1  0.82496675  0.59499552  0.05127761  1
  S  S31  1  0.62263207  0.39331653  0.84958724  1
  S  S32  1  0.42347981  0.19551992  0.65107137  1
  S  S33  1  0.22413933  0.99346490  0.45056941  1
  S  S34  1  0.02274713  0.79426205  0.25091094  1
