# generated using pymatgen
data_Na3In2Bi3
_symmetry_space_group_name_H-M   'P 1'
_cell_length_a   4.72645450
_cell_length_b   8.22839813
_cell_length_c   27.49483784
_cell_angle_alpha   89.79015757
_cell_angle_beta   90.00000000
_cell_angle_gamma   90.00000000
_symmetry_Int_Tables_number   1
_chemical_formula_structural   Na3In2Bi3
_chemical_formula_sum   'Na12 In8 Bi12'
_cell_volume   1069.29867349
_cell_formula_units_Z   4
loop_
 _symmetry_equiv_pos_site_id
 _symmetry_equiv_pos_as_xyz
  1  'x, y, z'
loop_
 _atom_site_type_symbol
 _atom_site_label
 _atom_site_symmetry_multiplicity
 _atom_site_fract_x
 _atom_site_fract_y
 _atom_site_fract_z
 _atom_site_occupancy
  Na  Na0  1  0.75000000  0.52386667  0.10868460  1
  Na  Na1  1  0.75000000  0.52462822  0.43878486  1
  Na  Na2  1  0.75000000  0.52205450  0.77416021  1
  Na  Na3  1  0.75000000  0.03546563  0.06243895  1
  Na  Na4  1  0.75000000  0.03094440  0.39235928  1
  Na  Na5  1  0.75000000  0.03630531  0.72731905  1
  Na  Na6  1  0.25000000  0.47715417  0.22830216  1
  Na  Na7  1  0.25000000  0.47080831  0.55719093  1
  Na  Na8  1  0.25000000  0.47018455  0.89153598  1
  Na  Na9  1  0.25000000  0.97856393  0.27346602  1
  Na  Na10  1  0.25000000  0.97876355  0.60296760  1
  Na  Na11  1  0.25000000  0.97812535  0.93740092  1
  In  In12  1  0.75000000  0.63834819  0.64218148  1
  In  In13  1  0.75000000  0.63385873  0.97665634  1
  In  In14  1  0.25000000  0.86869797  0.14620218  1
  In  In15  1  0.25000000  0.86495293  0.47295222  1
  In  In16  1  0.25000000  0.87699701  0.81160258  1
  In  In17  1  0.25000000  0.34048645  0.02653568  1
  In  In18  1  0.25000000  0.35413860  0.35882997  1
  In  In19  1  0.25000000  0.34126230  0.69230464  1
  Bi  Bi20  1  0.75000000  0.28123955  0.29332592  1
  Bi  Bi21  1  0.75000000  0.26509026  0.62524212  1
  Bi  Bi22  1  0.75000000  0.26481563  0.95857861  1
  Bi  Bi23  1  0.75000000  0.76971723  0.20653266  1
  Bi  Bi24  1  0.75000000  0.77480712  0.53826561  1
  Bi  Bi25  1  0.75000000  0.76463959  0.87063041  1
  Bi  Bi26  1  0.25000000  0.73841293  0.03713361  1
  Bi  Bi27  1  0.25000000  0.72605714  0.37230709  1
  Bi  Bi28  1  0.25000000  0.73670470  0.70492824  1
  Bi  Bi29  1  0.25000000  0.23250744  0.13098918  1
  Bi  Bi30  1  0.25000000  0.22937672  0.46335140  1
  Bi  Bi31  1  0.25000000  0.23662491  0.79657248  1
