# generated using pymatgen
data_Mg4CuO5
_symmetry_space_group_name_H-M   'P 1'
_cell_length_a   3.01505981
_cell_length_b   4.25151028
_cell_length_c   7.95811969
_cell_angle_alpha   105.49283348
_cell_angle_beta   100.91969233
_cell_angle_gamma   90.00000000
_symmetry_Int_Tables_number   1
_chemical_formula_structural   Mg4CuO5
_chemical_formula_sum   'Mg4 Cu1 O5'
_cell_volume   96.38684792
_cell_formula_units_Z   1
loop_
 _symmetry_equiv_pos_site_id
 _symmetry_equiv_pos_as_xyz
  1  'x, y, z'
loop_
 _atom_site_type_symbol
 _atom_site_label
 _atom_site_symmetry_multiplicity
 _atom_site_fract_x
 _atom_site_fract_y
 _atom_site_fract_z
 _atom_site_occupancy
  Mg  Mg0  1  0.59906994  0.59906994  0.19813989  1
  Mg  Mg1  1  0.20024334  0.20024334  0.40048667  1
  Mg  Mg2  1  0.79975666  0.79975666  0.59951333  1
  Mg  Mg3  1  0.40093006  0.40093006  0.80186011  1
  Cu  Cu4  1  0.00000000  0.00000000  0.00000000  1
  O  O5  1  0.39788240  0.89788240  0.79576480  1
  O  O6  1  0.19987611  0.69987611  0.39975222  1
  O  O7  1  0.80012389  0.30012389  0.60024778  1
  O  O8  1  0.00000000  0.50000000  0.00000000  1
  O  O9  1  0.60211760  0.10211760  0.20423520  1
