# generated using pymatgen
data_Mn3Al4FeP4(H4O7)4
_symmetry_space_group_name_H-M   'P 1'
_cell_length_a   6.59370488
_cell_length_b   6.59370488
_cell_length_c   13.05188610
_cell_angle_alpha   89.84864576
_cell_angle_beta   89.84864576
_cell_angle_gamma   108.13018680
_symmetry_Int_Tables_number   1
_chemical_formula_structural   Mn3Al4FeP4(H4O7)4
_chemical_formula_sum   'Mn3 Al4 Fe1 P4 H16 O28'
_cell_volume   539.27754972
_cell_formula_units_Z   1
loop_
 _symmetry_equiv_pos_site_id
 _symmetry_equiv_pos_as_xyz
  1  'x, y, z'
loop_
 _atom_site_type_symbol
 _atom_site_label
 _atom_site_symmetry_multiplicity
 _atom_site_fract_x
 _atom_site_fract_y
 _atom_site_fract_z
 _atom_site_occupancy
  Mn  Mn0  1  0.64061814  0.85938186  0.75000000  1
  Mn  Mn1  1  0.12519034  0.37480966  0.75000000  1
  Mn  Mn2  1  0.37587255  0.12412745  0.25000000  1
  Al  Al3  1  0.98781120  0.46419097  0.49099152  1
  Al  Al4  1  0.46631058  0.99314321  0.50787861  1
  Al  Al5  1  0.03580903  0.51218880  0.00900848  1
  Al  Al6  1  0.50685679  0.03368942  0.99212139  1
  Fe  Fe7  1  0.86244974  0.63755026  0.25000000  1
  P  P8  1  0.86269589  0.12546495  0.16724294  1
  P  P9  1  0.13046275  0.86045383  0.83175729  1
  P  P10  1  0.63954617  0.36953725  0.66824271  1
  P  P11  1  0.37453505  0.63730411  0.33275706  1
  H  H12  1  0.85246737  0.74504987  0.07270595  1
  H  H13  1  0.73553563  0.83595225  0.93386390  1
  H  H14  1  0.25960528  0.33798878  0.57380287  1
  H  H15  1  0.31527413  0.25087338  0.42466177  1
  H  H16  1  0.16201122  0.24039472  0.92619713  1
  H  H17  1  0.24912662  0.18472587  0.07533823  1
  H  H18  1  0.75495013  0.64753263  0.42729405  1
  H  H19  1  0.66404775  0.76446437  0.56613610  1
  H  H20  1  0.78788785  0.20752145  0.35199039  1
  H  H21  1  0.09981394  0.91069864  0.57787408  1
  H  H22  1  0.71692324  0.28543011  0.85389900  1
  H  H23  1  0.43268469  0.64540822  0.05838418  1
  H  H24  1  0.21456989  0.78307676  0.64610100  1
  H  H25  1  0.85459178  0.06731531  0.44161582  1
  H  H26  1  0.29247855  0.71211215  0.14800961  1
  H  H27  1  0.58930136  0.40018606  0.92212592  1
  O  O28  1  0.87154745  0.61188148  0.09664782  1
  O  O29  1  0.60596796  0.86069420  0.90873852  1
  O  O30  1  0.12474660  0.36363407  0.59039005  1
  O  O31  1  0.35295458  0.12105409  0.41003006  1
  O  O32  1  0.13636593  0.37525340  0.90960995  1
  O  O33  1  0.37894591  0.14704542  0.08996994  1
  O  O34  1  0.88811852  0.62845255  0.40335218  1
  O  O35  1  0.63930580  0.89403204  0.59126148  1
  O  O36  1  0.99098791  0.70096599  0.91095774  1
  O  O37  1  0.69562528  0.98800264  0.09119288  1
  O  O38  1  0.20271062  0.46987573  0.39699354  1
  O  O39  1  0.46749602  0.19810152  0.60730744  1
  O  O40  1  0.03012427  0.29728938  0.10300646  1
  O  O41  1  0.30189848  0.03250398  0.89269256  1
  O  O42  1  0.79903401  0.50901209  0.58904226  1
  O  O43  1  0.51199736  0.80437472  0.40880712  1
  O  O44  1  0.51149838  0.52282968  0.27575050  1
  O  O45  1  0.52976113  0.50530863  0.72947422  1
  O  O46  1  0.99469137  0.97023887  0.77052578  1
  O  O47  1  0.97717032  0.98850162  0.22424950  1
  O  O48  1  0.80848482  0.19381832  0.43336633  1
  O  O49  1  0.19402175  0.82218205  0.56923426  1
  O  O50  1  0.67781795  0.30597825  0.93076574  1
  O  O51  1  0.30618168  0.69151518  0.06663367  1
  O  O52  1  0.74790508  0.23414514  0.24561747  1
  O  O53  1  0.23886509  0.73950678  0.75648708  1
  O  O54  1  0.76049322  0.26113491  0.74351292  1
  O  O55  1  0.26585486  0.75209492  0.25438253  1
