# generated using pymatgen
data_Mn2SnS4
_symmetry_space_group_name_H-M   'P 1'
_cell_length_a   3.63365442
_cell_length_b   6.79353308
_cell_length_c   6.19060865
_cell_angle_alpha   73.31181772
_cell_angle_beta   89.98534461
_cell_angle_gamma   90.00590012
_symmetry_Int_Tables_number   1
_chemical_formula_structural   Mn2SnS4
_chemical_formula_sum   'Mn2 Sn1 S4'
_cell_volume   146.38094311
_cell_formula_units_Z   1
loop_
 _symmetry_equiv_pos_site_id
 _symmetry_equiv_pos_as_xyz
  1  'x, y, z'
loop_
 _atom_site_type_symbol
 _atom_site_label
 _atom_site_symmetry_multiplicity
 _atom_site_fract_x
 _atom_site_fract_y
 _atom_site_fract_z
 _atom_site_occupancy
  Mn  Mn0  1  -0.00000000  0.50000000  0.50000000  1
  Mn  Mn1  1  0.50000000  0.50000000  -0.00000000  1
  Sn  Sn2  1  0.00000000  0.00000000  -0.00000000  1
  S  S3  1  0.99993350  0.69868726  0.77488342  1
  S  S4  1  0.50003493  0.28452225  0.74188937  1
  S  S5  1  0.00006650  0.30131274  0.22511658  1
  S  S6  1  0.49996507  0.71547775  0.25811063  1
