# generated using pymatgen
data_Mn2CuNiSb2
_symmetry_space_group_name_H-M   'P 1'
_cell_length_a   4.25127828
_cell_length_b   4.25127827
_cell_length_c   7.35449597
_cell_angle_alpha   73.20035312
_cell_angle_beta   90.00000000
_cell_angle_gamma   119.99999994
_symmetry_Int_Tables_number   1
_chemical_formula_structural   Mn2CuNiSb2
_chemical_formula_sum   'Mn2 Cu1 Ni1 Sb2'
_cell_volume   108.51264245
_cell_formula_units_Z   1
loop_
 _symmetry_equiv_pos_site_id
 _symmetry_equiv_pos_as_xyz
  1  'x, y, z'
loop_
 _atom_site_type_symbol
 _atom_site_label
 _atom_site_symmetry_multiplicity
 _atom_site_fract_x
 _atom_site_fract_y
 _atom_site_fract_z
 _atom_site_occupancy
  Mn  Mn0  1  0.25266495  0.50532989  0.24200516  1
  Mn  Mn1  1  0.74748987  0.49497974  0.75753039  1
  Cu  Cu2  1  0.87536077  0.75072154  0.37391769  1
  Ni  Ni3  1  0.37433868  0.74867737  0.87698395  1
  Sb  Sb4  1  0.00264288  0.00528577  0.99207135  1
  Sb  Sb5  1  0.49750285  0.99500570  0.50749145  1
