# generated using pymatgen
data_LiLa4AlO8
_symmetry_space_group_name_H-M   'P 1'
_cell_length_a   5.38251201
_cell_length_b   5.39493282
_cell_length_c   6.89493103
_cell_angle_alpha   90.00000000
_cell_angle_beta   67.02534842
_cell_angle_gamma   90.00000000
_symmetry_Int_Tables_number   1
_chemical_formula_structural   LiLa4AlO8
_chemical_formula_sum   'Li1 La4 Al1 O8'
_cell_volume   184.33532328
_cell_formula_units_Z   1
loop_
 _symmetry_equiv_pos_site_id
 _symmetry_equiv_pos_as_xyz
  1  'x, y, z'
loop_
 _atom_site_type_symbol
 _atom_site_label
 _atom_site_symmetry_multiplicity
 _atom_site_fract_x
 _atom_site_fract_y
 _atom_site_fract_z
 _atom_site_occupancy
  Li  Li0  1  -0.00000000  -0.00000000  0.00000000  1
  La  La1  1  0.36289598  -0.00000000  0.27420803  1
  La  La2  1  0.86387051  0.50000000  0.27225898  1
  La  La3  1  0.13612949  0.50000000  0.72774102  1
  La  La4  1  0.63710402  0.00000000  0.72579197  1
  Al  Al5  1  0.50000000  0.50000000  0.00000000  1
  O  O6  1  0.18036116  -0.00000000  0.63927768  1
  O  O7  1  0.67040755  0.50000000  0.65918490  1
  O  O8  1  0.32959245  0.50000000  0.34081510  1
  O  O9  1  0.81963884  0.00000000  0.36072232  1
  O  O10  1  0.25739306  0.73916758  0.00000000  1
  O  O11  1  0.74260694  0.26083242  -0.00000000  1
  O  O12  1  0.25739306  0.26083242  0.00000000  1
  O  O13  1  0.74260694  0.73916758  -0.00000000  1
