# generated using pymatgen
data_B9H25C4NCl
_symmetry_space_group_name_H-M   'P 1'
_cell_length_a   10.51802822
_cell_length_b   11.38422336
_cell_length_c   15.06221206
_cell_angle_alpha   90.00000000
_cell_angle_beta   95.44708048
_cell_angle_gamma   90.00000000
_symmetry_Int_Tables_number   1
_chemical_formula_structural   B9H25C4NCl
_chemical_formula_sum   'B36 H100 C16 N4 Cl4'
_cell_volume   1795.39872390
_cell_formula_units_Z   4
loop_
 _symmetry_equiv_pos_site_id
 _symmetry_equiv_pos_as_xyz
  1  'x, y, z'
loop_
 _atom_site_type_symbol
 _atom_site_label
 _atom_site_symmetry_multiplicity
 _atom_site_fract_x
 _atom_site_fract_y
 _atom_site_fract_z
 _atom_site_occupancy
  B  B0  1  0.37098738  0.28264421  0.50423418  1
  B  B1  1  0.62901262  0.78264421  0.99576582  1
  B  B2  1  0.62901262  0.71735579  0.49576582  1
  B  B3  1  0.37098738  0.21735579  0.00423418  1
  B  B4  1  0.27532689  0.28446678  0.59552950  1
  B  B5  1  0.72467311  0.78446678  0.90447050  1
  B  B6  1  0.72467311  0.71553322  0.40447050  1
  B  B7  1  0.27532689  0.21553322  0.09552950  1
  B  B8  1  0.31612028  0.14801874  0.54940279  1
  B  B9  1  0.68387972  0.64801874  0.95059721  1
  B  B10  1  0.68387972  0.85198126  0.45059721  1
  B  B11  1  0.31612028  0.35198126  0.04940279  1
  B  B12  1  0.28017084  0.32082397  0.40866611  1
  B  B13  1  0.71982916  0.82082397  0.09133389  1
  B  B14  1  0.71982916  0.67917603  0.59133389  1
  B  B15  1  0.28017084  0.17917603  0.90866611  1
  B  B16  1  0.30570422  0.16879733  0.43399240  1
  B  B17  1  0.69429578  0.66879733  0.06600760  1
  B  B18  1  0.69429578  0.83120267  0.56600760  1
  B  B19  1  0.30570422  0.33120267  0.93399240  1
  B  B20  1  0.18240789  0.07570122  0.49495122  1
  B  B21  1  0.81759211  0.57570122  0.00504878  1
  B  B22  1  0.81759211  0.92429878  0.50504878  1
  B  B23  1  0.18240789  0.42429878  0.99495122  1
  B  B24  1  0.16816943  0.16825751  0.59694608  1
  B  B25  1  0.83183057  0.66825751  0.90305392  1
  B  B26  1  0.83183057  0.83174249  0.40305392  1
  B  B27  1  0.16816943  0.33174249  0.09694608  1
  B  B28  1  0.11680468  0.32300366  0.57662913  1
  B  B29  1  0.88319532  0.82300366  0.92337087  1
  B  B30  1  0.88319532  0.67699634  0.42337087  1
  B  B31  1  0.11680468  0.17699634  0.07662913  1
  B  B32  1  0.24659030  0.38933351  0.51187735  1
  B  B33  1  0.75340970  0.88933351  0.98812265  1
  B  B34  1  0.75340970  0.61066649  0.48812265  1
  B  B35  1  0.24659030  0.11066649  0.01187735  1
  H  H36  1  0.80189614  0.09537572  0.69477824  1
  H  H37  1  0.19810386  0.59537572  0.80522176  1
  H  H38  1  0.19810386  0.90462428  0.30522176  1
  H  H39  1  0.80189614  0.40462428  0.19477824  1
  H  H40  1  0.68427658  0.17923166  0.62760334  1
  H  H41  1  0.31572342  0.67923166  0.87239666  1
  H  H42  1  0.31572342  0.82076834  0.37239666  1
  H  H43  1  0.68427658  0.32076834  0.12760334  1
  H  H44  1  0.84161995  0.23930205  0.65563498  1
  H  H45  1  0.15838005  0.73930205  0.84436502  1
  H  H46  1  0.15838005  0.76069795  0.34436502  1
  H  H47  1  0.84161995  0.26069795  0.15563498  1
  H  H48  1  0.63850306  0.39800172  0.79876906  1
  H  H49  1  0.36149694  0.89800172  0.70123094  1
  H  H50  1  0.36149694  0.60199828  0.20123094  1
  H  H51  1  0.63850306  0.10199828  0.29876906  1
  H  H52  1  0.75352244  0.41161972  0.71849696  1
  H  H53  1  0.24647756  0.91161972  0.78150304  1
  H  H54  1  0.24647756  0.58838028  0.28150304  1
  H  H55  1  0.75352244  0.08838028  0.21849696  1
  H  H56  1  0.59707932  0.35401003  0.68474103  1
  H  H57  1  0.40292068  0.85401003  0.81525897  1
  H  H58  1  0.40292068  0.64598997  0.31525897  1
  H  H59  1  0.59707932  0.14598997  0.18474103  1
  H  H60  1  0.86362137  0.15238973  0.84654303  1
  H  H61  1  0.13637863  0.65238973  0.65345697  1
  H  H62  1  0.13637863  0.84761027  0.15345697  1
  H  H63  1  0.86362137  0.34761027  0.34654303  1
  H  H64  1  0.90512967  0.29694736  0.80956340  1
  H  H65  1  0.09487033  0.79694736  0.69043660  1
  H  H66  1  0.09487033  0.70305264  0.19043660  1
  H  H67  1  0.90512967  0.20305264  0.30956340  1
  H  H68  1  0.79447853  0.28100176  0.89264114  1
  H  H69  1  0.20552147  0.78100176  0.60735886  1
  H  H70  1  0.20552147  0.71899824  0.10735886  1
  H  H71  1  0.79447853  0.21899824  0.39264114  1
  H  H72  1  0.65157790  0.07588955  0.80532565  1
  H  H73  1  0.34842210  0.57588955  0.69467435  1
  H  H74  1  0.34842210  0.92411045  0.19467435  1
  H  H75  1  0.65157790  0.42411045  0.30532565  1
  H  H76  1  0.58079769  0.20401806  0.85028257  1
  H  H77  1  0.41920231  0.70401806  0.64971743  1
  H  H78  1  0.41920231  0.79598194  0.14971743  1
  H  H79  1  0.58079769  0.29598194  0.35028257  1
  H  H80  1  0.53736820  0.16231426  0.73644174  1
  H  H81  1  0.46263180  0.66231426  0.76355826  1
  H  H82  1  0.46263180  0.83768574  0.26355826  1
  H  H83  1  0.53736820  0.33768574  0.23644174  1
  H  H84  1  0.48253088  0.30524197  0.51607822  1
  H  H85  1  0.51746912  0.80524197  0.98392178  1
  H  H86  1  0.51746912  0.69475803  0.48392178  1
  H  H87  1  0.48253088  0.19475803  0.01607822  1
  H  H88  1  0.32292156  0.31610665  0.66694332  1
  H  H89  1  0.67707844  0.81610665  0.83305668  1
  H  H90  1  0.67707844  0.68389335  0.33305668  1
  H  H91  1  0.32292156  0.18389335  0.16694332  1
  H  H92  1  0.39785826  0.08540888  0.58419799  1
  H  H93  1  0.60214174  0.58540888  0.91580201  1
  H  H94  1  0.60214174  0.91459112  0.41580201  1
  H  H95  1  0.39785826  0.41459112  0.08419799  1
  H  H96  1  0.31511170  0.37059301  0.34560602  1
  H  H97  1  0.68488830  0.87059301  0.15439398  1
  H  H98  1  0.68488830  0.62940699  0.65439398  1
  H  H99  1  0.31511170  0.12940699  0.84560602  1
  H  H100  1  0.36108588  0.11286677  0.38264246  1
  H  H101  1  0.63891412  0.61286677  0.11735754  1
  H  H102  1  0.63891412  0.88713323  0.61735754  1
  H  H103  1  0.36108588  0.38713323  0.88264246  1
  H  H104  1  0.21464237  0.22916950  0.37983916  1
  H  H105  1  0.78535763  0.72916950  0.12016084  1
  H  H106  1  0.78535763  0.77083050  0.62016084  1
  H  H107  1  0.21464237  0.27083050  0.87983916  1
  H  H108  1  0.17620857  0.37437271  0.43411586  1
  H  H109  1  0.82379143  0.87437271  0.06588414  1
  H  H110  1  0.82379143  0.62562729  0.56588414  1
  H  H111  1  0.17620857  0.12562729  0.93411586  1
  H  H112  1  0.19205996  0.97236523  0.51151043  1
  H  H113  1  0.80794004  0.47236523  0.98848957  1
  H  H114  1  0.80794004  0.02763477  0.48848957  1
  H  H115  1  0.19205996  0.52763477  0.01151043  1
  H  H116  1  0.11814528  0.09070967  0.42445480  1
  H  H117  1  0.88185472  0.59070967  0.07554520  1
  H  H118  1  0.88185472  0.90929033  0.57554520  1
  H  H119  1  0.11814528  0.40929033  0.92445480  1
  H  H120  1  0.15562152  0.11846882  0.66559964  1
  H  H121  1  0.84437848  0.61846882  0.83440036  1
  H  H122  1  0.84437848  0.88153118  0.33440036  1
  H  H123  1  0.15562152  0.38153118  0.16559964  1
  H  H124  1  0.08451762  0.12883098  0.53466628  1
  H  H125  1  0.91548238  0.62883098  0.96533372  1
  H  H126  1  0.91548238  0.87116902  0.46533372  1
  H  H127  1  0.08451762  0.37116902  0.03466628  1
  H  H128  1  0.03235451  0.31694377  0.51740576  1
  H  H129  1  0.96764549  0.81694377  0.98259424  1
  H  H130  1  0.96764549  0.68305623  0.48259424  1
  H  H131  1  0.03235451  0.18305623  0.01740576  1
  H  H132  1  0.27173093  0.49170203  0.51827016  1
  H  H133  1  0.72826907  0.99170203  0.98172984  1
  H  H134  1  0.72826907  0.50829797  0.48172984  1
  H  H135  1  0.27173093  0.00829797  0.01827016  1
  C  C136  1  0.76589264  0.18380192  0.67820942  1
  C  C137  1  0.23410736  0.68380192  0.82179058  1
  C  C138  1  0.23410736  0.81619808  0.32179058  1
  C  C139  1  0.76589264  0.31619808  0.17820942  1
  C  C140  1  0.67388728  0.35978365  0.73935244  1
  C  C141  1  0.32611272  0.85978365  0.76064756  1
  C  C142  1  0.32611272  0.64021635  0.26064756  1
  C  C143  1  0.67388728  0.14021635  0.23935244  1
  C  C144  1  0.82934530  0.24235678  0.83305763  1
  C  C145  1  0.17065470  0.74235678  0.66694237  1
  C  C146  1  0.17065470  0.75764322  0.16694237  1
  C  C147  1  0.82934530  0.25764322  0.33305763  1
  C  C148  1  0.61462041  0.16449032  0.79066398  1
  C  C149  1  0.38537959  0.66449032  0.70933602  1
  C  C150  1  0.38537959  0.83550968  0.20933602  1
  C  C151  1  0.61462041  0.33550968  0.29066398  1
  N  N152  1  0.72103542  0.23768148  0.76064053  1
  N  N153  1  0.27896458  0.73768148  0.73935947  1
  N  N154  1  0.27896458  0.76231852  0.23935947  1
  N  N155  1  0.72103542  0.26231852  0.26064053  1
  Cl  Cl156  1  0.06074284  0.41034367  0.67130182  1
  Cl  Cl157  1  0.93925716  0.91034367  0.82869818  1
  Cl  Cl158  1  0.93925716  0.58965633  0.32869818  1
  Cl  Cl159  1  0.06074284  0.08965633  0.17130182  1
