# generated using pymatgen
data_Mg3Cu(SnS4)2
_symmetry_space_group_name_H-M   'P 1'
_cell_length_a   7.47381395
_cell_length_b   7.47381395
_cell_length_c   7.47381395
_cell_angle_alpha   89.35470680
_cell_angle_beta   59.59203793
_cell_angle_gamma   118.85431201
_symmetry_Int_Tables_number   1
_chemical_formula_structural   Mg3Cu(SnS4)2
_chemical_formula_sum   'Mg3 Cu1 Sn2 S8'
_cell_volume   296.75511511
_cell_formula_units_Z   1
loop_
 _symmetry_equiv_pos_site_id
 _symmetry_equiv_pos_as_xyz
  1  'x, y, z'
loop_
 _atom_site_type_symbol
 _atom_site_label
 _atom_site_symmetry_multiplicity
 _atom_site_fract_x
 _atom_site_fract_y
 _atom_site_fract_z
 _atom_site_occupancy
  Mg  Mg0  1  -0.00000000  0.98488051  0.01511949  1
  Mg  Mg1  1  0.74972007  0.37551169  0.87476824  1
  Mg  Mg2  1  0.25027993  0.37551169  0.37420837  1
  Cu  Cu3  1  0.50000000  0.76353647  0.73646353  1
  Sn  Sn4  1  0.24909089  0.87363195  0.37545894  1
  Sn  Sn5  1  0.75090911  0.37545017  0.37545894  1
  S  S6  1  0.26071157  0.13181152  0.60747690  1
  S  S7  1  0.73928843  0.13181152  0.12890005  1
  S  S8  1  0.73061199  0.59500749  0.13560450  1
  S  S9  1  0.26938801  0.13378351  0.13560450  1
  S  S10  1  0.24852967  0.62293749  0.12853284  1
  S  S11  1  0.75147033  0.62293749  0.62559218  1
  S  S12  1  0.75867260  0.14026685  0.61840575  1
  S  S13  1  0.24132740  0.62292166  0.61840575  1
