# generated using pymatgen
data_Na4MgV10(H11O13)4
_symmetry_space_group_name_H-M   'P 1'
_cell_length_a   9.08571469
_cell_length_b   11.47358411
_cell_length_c   11.82072456
_cell_angle_alpha   105.17196169
_cell_angle_beta   96.72651329
_cell_angle_gamma   100.44849228
_symmetry_Int_Tables_number   1
_chemical_formula_structural   Na4MgV10(H11O13)4
_chemical_formula_sum   'Na4 Mg1 V10 H44 O52'
_cell_volume   1151.86817591
_cell_formula_units_Z   1
loop_
 _symmetry_equiv_pos_site_id
 _symmetry_equiv_pos_as_xyz
  1  'x, y, z'
loop_
 _atom_site_type_symbol
 _atom_site_label
 _atom_site_symmetry_multiplicity
 _atom_site_fract_x
 _atom_site_fract_y
 _atom_site_fract_z
 _atom_site_occupancy
  Na  Na0  1  0.71361897  0.59554674  0.29547780  1
  Na  Na1  1  0.28638103  0.40445326  0.70452220  1
  Na  Na2  1  0.50000000  0.50000000  0.50000000  1
  Na  Na3  1  0.50000000  0.50000000  -0.00000000  1
  Mg  Mg4  1  0.50000000  -0.00000000  0.50000000  1
  V  V5  1  0.03074767  0.97393026  0.22636493  1
  V  V6  1  0.96925233  0.02606974  0.77363507  1
  V  V7  1  0.16695552  0.25539429  0.24409208  1
  V  V8  1  0.83304448  0.74460571  0.75590792  1
  V  V9  1  0.81547897  0.15931765  0.20979875  1
  V  V10  1  0.18452103  0.84068235  0.79020125  1
  V  V11  1  0.95927164  0.23356639  0.00102861  1
  V  V12  1  0.04072836  0.76643361  0.99897139  1
  V  V13  1  0.18513188  0.05119561  0.01923497  1
  V  V14  1  0.81486812  0.94880439  0.98076503  1
  H  H15  1  0.24361800  0.59486121  0.10485140  1
  H  H16  1  0.75638200  0.40513879  0.89514860  1
  H  H17  1  0.74467493  0.74081273  0.11920159  1
  H  H18  1  0.25532507  0.25918727  0.88079841  1
  H  H19  1  0.98927945  0.59172817  0.18290189  1
  H  H20  1  0.01072055  0.40827183  0.81709811  1
  H  H21  1  0.65074518  0.33460751  0.11211998  1
  H  H22  1  0.34925482  0.66539249  0.88788002  1
  H  H23  1  0.79169735  0.45405389  0.46922461  1
  H  H24  1  0.20830265  0.54594611  0.53077539  1
  H  H25  1  0.58205052  0.73943997  0.14778582  1
  H  H26  1  0.41794948  0.26056003  0.85221418  1
  H  H27  1  0.23810042  0.46333119  0.11967277  1
  H  H28  1  0.76189958  0.53666881  0.88032723  1
  H  H29  1  0.94054625  0.82114148  0.41092298  1
  H  H30  1  0.05945375  0.17885852  0.58907702  1
  H  H31  1  0.40176261  0.85908525  0.28182373  1
  H  H32  1  0.59823739  0.14091475  0.71817627  1
  H  H33  1  0.25577818  0.84921666  0.34418335  1
  H  H34  1  0.74422182  0.15078334  0.65581665  1
  H  H35  1  0.36527395  0.86494545  0.10194966  1
  H  H36  1  0.63472605  0.13505455  0.89805034  1
  H  H37  1  0.64057331  0.87740521  0.63239197  1
  H  H38  1  0.35942669  0.12259479  0.36760803  1
  H  H39  1  0.48553000  0.32119899  0.13720183  1
  H  H40  1  0.51447000  0.67880101  0.86279817  1
  H  H41  1  0.41091424  0.59810353  0.28895096  1
  H  H42  1  0.58908576  0.40189647  0.71104904  1
  H  H43  1  0.46480357  0.84688898  0.64079847  1
  H  H44  1  0.53519643  0.15311102  0.35920153  1
  H  H45  1  0.73963044  0.89975058  0.43292531  1
  H  H46  1  0.26036956  0.10024942  0.56707469  1
  H  H47  1  0.87619018  0.80890076  0.52703782  1
  H  H48  1  0.12380982  0.19109924  0.47296218  1
  H  H49  1  0.68946129  0.36660464  0.35300251  1
  H  H50  1  0.31053871  0.63339536  0.64699749  1
  H  H51  1  0.95813255  0.46408242  0.21092668  1
  H  H52  1  0.04186745  0.53591758  0.78907332  1
  H  H53  1  0.53999664  0.92006842  0.12742224  1
  H  H54  1  0.46000336  0.07993158  0.87257776  1
  H  H55  1  0.74441613  0.00383162  0.37037216  1
  H  H56  1  0.25558387  0.99616838  0.62962784  1
  H  H57  1  0.47161440  0.71113642  0.40139486  1
  H  H58  1  0.52838560  0.28886358  0.59860514  1
  O  O59  1  0.10809960  0.14757629  0.91884057  1
  O  O60  1  0.89190040  0.85242371  0.08115943  1
  O  O61  1  0.84764335  0.79265697  0.44077791  1
  O  O62  1  0.15235665  0.20734303  0.55922209  1
  O  O63  1  0.17128110  0.93100190  0.10641943  1
  O  O64  1  0.82871890  0.06899810  0.89358057  1
  O  O65  1  0.29560368  0.17818996  0.12919432  1
  O  O66  1  0.70439632  0.82181004  0.87080568  1
  O  O67  1  0.05864692  0.88126765  0.30874010  1
  O  O68  1  0.94135308  0.11873235  0.69125990  1
  O  O69  1  0.57283475  0.38254591  0.13206591  1
  O  O70  1  0.42716525  0.61745409  0.86793409  1
  O  O71  1  0.48306034  0.62694326  0.36513335  1
  O  O72  1  0.51693966  0.37305674  0.63486665  1
  O  O73  1  0.70732421  0.45104319  0.40773396  1
  O  O74  1  0.29267579  0.54895681  0.59226604  1
  O  O75  1  0.93962519  0.54776189  0.23473687  1
  O  O76  1  0.06037481  0.45223811  0.76526313  1
  O  O77  1  0.87048038  0.03569405  0.27578401  1
  O  O78  1  0.12951962  0.96430595  0.72421599  1
  O  O79  1  0.46148430  0.85881670  0.14508116  1
  O  O80  1  0.53851570  0.14118330  0.85491884  1
  O  O81  1  0.65971015  0.68942959  0.14140400  1
  O  O82  1  0.34028985  0.31057041  0.85859600  1
  O  O83  1  0.92905395  0.32623507  0.91884832  1
  O  O84  1  0.07094605  0.67376493  0.08115168  1
  O  O85  1  0.36601758  0.85399768  0.35725580  1
  O  O86  1  0.63398242  0.14600232  0.64274420  1
  O  O87  1  0.30993879  0.54163400  0.12446758  1
  O  O88  1  0.69006121  0.45836600  0.87553242  1
  O  O89  1  0.98651781  0.27158116  0.29831647  1
  O  O90  1  0.01348219  0.72841884  0.70168353  1
  O  O91  1  0.69667084  0.00870596  0.07507045  1
  O  O92  1  0.30332916  0.99129404  0.92492955  1
  O  O93  1  0.99607576  0.08782951  0.09645153  1
  O  O94  1  0.00392424  0.91217049  0.90354847  1
  O  O95  1  0.11154025  0.32945771  0.12261395  1
  O  O96  1  0.88845975  0.67054229  0.87738605  1
  O  O97  1  0.17334604  0.11853679  0.30529895  1
  O  O98  1  0.82665396  0.88146321  0.69470105  1
  O  O99  1  0.53679004  0.86997985  0.58955625  1
  O  O100  1  0.46320996  0.13002015  0.41044375  1
  O  O101  1  0.29693897  0.36470792  0.34011084  1
  O  O102  1  0.70306103  0.63529208  0.65988916  1
  O  O103  1  0.80874874  0.24390391  0.09289904  1
  O  O104  1  0.19125126  0.75609609  0.90710096  1
  O  O105  1  0.68790152  0.96727913  0.42405065  1
  O  O106  1  0.31209848  0.03272087  0.57594935  1
  O  O107  1  0.67688113  0.19724906  0.28048289  1
  O  O108  1  0.32311887  0.80275094  0.71951711  1
  O  O109  1  0.10804249  0.64405988  0.44489196  1
  O  O110  1  0.89195751  0.35594012  0.55510804  1
