# generated using pymatgen
data_LaThUS5
_symmetry_space_group_name_H-M   'P 1'
_cell_length_a   7.49677198
_cell_length_b   8.11240829
_cell_length_c   12.03483573
_cell_angle_alpha   90.00000000
_cell_angle_beta   90.00000000
_cell_angle_gamma   90.00000000
_symmetry_Int_Tables_number   1
_chemical_formula_structural   LaThUS5
_chemical_formula_sum   'La4 Th4 U4 S20'
_cell_volume   731.92110215
_cell_formula_units_Z   4
loop_
 _symmetry_equiv_pos_site_id
 _symmetry_equiv_pos_as_xyz
  1  'x, y, z'
loop_
 _atom_site_type_symbol
 _atom_site_label
 _atom_site_symmetry_multiplicity
 _atom_site_fract_x
 _atom_site_fract_y
 _atom_site_fract_z
 _atom_site_occupancy
  La  La0  1  0.97586861  0.99984792  0.17876310  1
  La  La1  1  0.52413139  0.50015208  0.67876310  1
  La  La2  1  0.02413139  0.49984792  0.82123690  1
  La  La3  1  0.47586861  0.00015208  0.32123690  1
  Th  Th4  1  0.02345090  -0.00001816  0.82337165  1
  Th  Th5  1  0.47654910  0.50001816  0.32337165  1
  Th  Th6  1  0.97654910  0.49998184  0.17662835  1
  Th  Th7  1  0.52345090  0.00001816  0.67662835  1
  U  U8  1  0.42992188  0.74935093  0.00610117  1
  U  U9  1  0.07007812  0.75064907  0.50610117  1
  U  U10  1  0.57007812  0.24935093  0.99389883  1
  U  U11  1  0.92992188  0.25064907  0.49389883  1
  S  S12  1  0.66022052  0.53990742  0.90461222  1
  S  S13  1  0.83977948  0.96009258  0.40461222  1
  S  S14  1  0.33977948  0.03990742  0.09538778  1
  S  S15  1  0.16022052  0.46009258  0.59538778  1
  S  S16  1  0.33575944  0.45963112  0.10007533  1
  S  S17  1  0.16424056  0.04036888  0.60007533  1
  S  S18  1  0.66424056  0.95963112  0.89992467  1
  S  S19  1  0.83575944  0.54036888  0.39992467  1
  S  S20  1  0.30271381  0.75941007  0.78487314  1
  S  S21  1  0.19728619  0.74058993  0.28487314  1
  S  S22  1  0.69728619  0.25941007  0.21512686  1
  S  S23  1  0.80271381  0.24058993  0.71512686  1
  S  S24  1  0.67034104  0.74005056  0.18728361  1
  S  S25  1  0.82965896  0.75994944  0.68728361  1
  S  S26  1  0.32965896  0.24005056  0.81271639  1
  S  S27  1  0.17034104  0.25994944  0.31271639  1
  S  S28  1  0.04115019  0.74986129  0.00062155  1
  S  S29  1  0.45884981  0.75013871  0.50062155  1
  S  S30  1  0.95884981  0.24986129  0.99937845  1
  S  S31  1  0.54115019  0.25013871  0.49937845  1
