# generated using pymatgen
data_LaFeCuNi3
_symmetry_space_group_name_H-M   'P 1'
_cell_length_a   3.94092595
_cell_length_b   5.08114426
_cell_length_c   5.08361999
_cell_angle_alpha   119.99315331
_cell_angle_beta   90.00000000
_cell_angle_gamma   90.00000000
_symmetry_Int_Tables_number   1
_chemical_formula_structural   LaFeCuNi3
_chemical_formula_sum   'La1 Fe1 Cu1 Ni3'
_cell_volume   88.16444312
_cell_formula_units_Z   1
loop_
 _symmetry_equiv_pos_site_id
 _symmetry_equiv_pos_as_xyz
  1  'x, y, z'
loop_
 _atom_site_type_symbol
 _atom_site_label
 _atom_site_symmetry_multiplicity
 _atom_site_fract_x
 _atom_site_fract_y
 _atom_site_fract_z
 _atom_site_occupancy
  La  La0  1  -0.00000000  0.99997305  0.00002018  1
  Fe  Fe1  1  -0.00000000  0.66661538  0.33330613  1
  Cu  Cu2  1  -0.00000000  0.33330522  0.66667448  1
  Ni  Ni3  1  0.50000000  0.50140579  0.00278988  1
  Ni  Ni4  1  0.50000000  0.50138374  0.49861154  1
  Ni  Ni5  1  0.50000000  0.99721682  0.49859779  1
