# generated using pymatgen
data_LaFe6(CoB)6
_symmetry_space_group_name_H-M   'P 1'
_cell_length_a   6.03324022
_cell_length_b   6.03324023
_cell_length_c   6.03324022
_cell_angle_alpha   104.08327413
_cell_angle_beta   104.08325982
_cell_angle_gamma   104.08327413
_symmetry_Int_Tables_number   1
_chemical_formula_structural   LaFe6(CoB)6
_chemical_formula_sum   'La1 Fe6 Co6 B6'
_cell_volume   195.63201509
_cell_formula_units_Z   1
loop_
 _symmetry_equiv_pos_site_id
 _symmetry_equiv_pos_as_xyz
  1  'x, y, z'
loop_
 _atom_site_type_symbol
 _atom_site_label
 _atom_site_symmetry_multiplicity
 _atom_site_fract_x
 _atom_site_fract_y
 _atom_site_fract_z
 _atom_site_occupancy
  La  La0  1  -0.00000000  0.00000000  -0.00000000  1
  Fe  Fe1  1  0.13231350  0.50000000  0.86768650  1
  Fe  Fe2  1  0.50000000  0.86768650  0.13231350  1
  Fe  Fe3  1  0.86768650  0.13231350  0.50000000  1
  Fe  Fe4  1  0.50000000  0.13231350  0.86768650  1
  Fe  Fe5  1  0.13231350  0.86768650  0.50000000  1
  Fe  Fe6  1  0.86768650  0.50000000  0.13231350  1
  Co  Co7  1  0.54102838  0.54102838  0.81324540  1
  Co  Co8  1  0.54102838  0.81324540  0.54102838  1
  Co  Co9  1  0.81324540  0.54102838  0.54102838  1
  Co  Co10  1  0.45897162  0.45897162  0.18675460  1
  Co  Co11  1  0.45897162  0.18675460  0.45897162  1
  Co  Co12  1  0.18675460  0.45897162  0.45897162  1
  B  B13  1  0.76762773  0.76762773  0.32602395  1
  B  B14  1  0.76762773  0.32602395  0.76762773  1
  B  B15  1  0.32602395  0.76762773  0.76762773  1
  B  B16  1  0.23237227  0.23237227  0.67397605  1
  B  B17  1  0.23237227  0.67397605  0.23237227  1
  B  B18  1  0.67397605  0.23237227  0.23237227  1
