# generated using pymatgen
data_HoFeNi4
_symmetry_space_group_name_H-M   'P 1'
_cell_length_a   3.93856419
_cell_length_b   4.90818289
_cell_length_c   4.90759116
_cell_angle_alpha   119.98703129
_cell_angle_beta   90.00000000
_cell_angle_gamma   90.00000000
_symmetry_Int_Tables_number   1
_chemical_formula_structural   HoFeNi4
_chemical_formula_sum   'Ho1 Fe1 Ni4'
_cell_volume   82.17021272
_cell_formula_units_Z   1
loop_
 _symmetry_equiv_pos_site_id
 _symmetry_equiv_pos_as_xyz
  1  'x, y, z'
loop_
 _atom_site_type_symbol
 _atom_site_label
 _atom_site_symmetry_multiplicity
 _atom_site_fract_x
 _atom_site_fract_y
 _atom_site_fract_z
 _atom_site_occupancy
  Ho  Ho0  1  0.00000000  0.99997354  0.99999277  1
  Fe  Fe1  1  -0.00000000  0.33335166  0.66668960  1
  Ni  Ni2  1  0.00000000  0.66659842  0.33330265  1
  Ni  Ni3  1  0.50000000  0.50027673  0.00057228  1
  Ni  Ni4  1  0.50000000  0.50027300  0.49972915  1
  Ni  Ni5  1  0.50000000  0.99942666  0.49971354  1
