# generated using pymatgen
data_LiIn(TeMo)6
_symmetry_space_group_name_H-M   'P 1'
_cell_length_a   4.60593741
_cell_length_b   10.05130213
_cell_length_c   10.05194839
_cell_angle_alpha   119.99736846
_cell_angle_beta   90.00000000
_cell_angle_gamma   90.00000000
_symmetry_Int_Tables_number   1
_chemical_formula_structural   LiIn(TeMo)6
_chemical_formula_sum   'Li1 In1 Te6 Mo6'
_cell_volume   403.02571519
_cell_formula_units_Z   1
loop_
 _symmetry_equiv_pos_site_id
 _symmetry_equiv_pos_as_xyz
  1  'x, y, z'
loop_
 _atom_site_type_symbol
 _atom_site_label
 _atom_site_symmetry_multiplicity
 _atom_site_fract_x
 _atom_site_fract_y
 _atom_site_fract_z
 _atom_site_occupancy
  Li  Li0  1  0.75000000  0.66651252  0.33331450  1
  In  In1  1  0.25000000  0.33349793  0.66672226  1
  Te  Te2  1  0.75000000  0.69919022  0.64881326  1
  Te  Te3  1  0.75000000  0.35120926  0.05033675  1
  Te  Te4  1  0.75000000  0.94957909  0.30079639  1
  Te  Te5  1  0.25000000  0.30430500  0.34143009  1
  Te  Te6  1  0.25000000  0.65852278  0.96284623  1
  Te  Te7  1  0.25000000  0.03716816  0.69571104  1
  Mo  Mo8  1  0.75000000  0.02111623  0.85824547  1
  Mo  Mo9  1  0.75000000  0.14173189  0.16281924  1
  Mo  Mo10  1  0.75000000  0.83712782  0.97890124  1
  Mo  Mo11  1  0.25000000  0.98097688  0.14352082  1
  Mo  Mo12  1  0.25000000  0.85651469  0.83749075  1
  Mo  Mo13  1  0.25000000  0.16254751  0.01905194  1
