# generated using pymatgen
data_LaYTi2O6
_symmetry_space_group_name_H-M   'P 1'
_cell_length_a   5.47837693
_cell_length_b   5.71097642
_cell_length_c   7.82325770
_cell_angle_alpha   90.00000000
_cell_angle_beta   90.00000000
_cell_angle_gamma   90.00000000
_symmetry_Int_Tables_number   1
_chemical_formula_structural   LaYTi2O6
_chemical_formula_sum   'La2 Y2 Ti4 O12'
_cell_volume   244.76533635
_cell_formula_units_Z   2
loop_
 _symmetry_equiv_pos_site_id
 _symmetry_equiv_pos_as_xyz
  1  'x, y, z'
loop_
 _atom_site_type_symbol
 _atom_site_label
 _atom_site_symmetry_multiplicity
 _atom_site_fract_x
 _atom_site_fract_y
 _atom_site_fract_z
 _atom_site_occupancy
  La  La0  1  0.48555939  0.44571328  0.75000000  1
  La  La1  1  0.01444061  0.94571328  0.75000000  1
  Y  Y2  1  0.51348957  0.56895242  0.25000000  1
  Y  Y3  1  0.98651043  0.06895242  0.25000000  1
  Ti  Ti4  1  0.00058081  0.50187585  0.00560534  1
  Ti  Ti5  1  0.49941919  0.00187585  0.49439466  1
  Ti  Ti6  1  0.00058081  0.50187585  0.49439466  1
  Ti  Ti7  1  0.49941919  0.00187585  0.00560534  1
  O  O8  1  0.38681705  0.96043624  0.25000000  1
  O  O9  1  0.11318295  0.46043624  0.25000000  1
  O  O10  1  0.57897672  0.01689849  0.75000000  1
  O  O11  1  0.92102328  0.51689849  0.75000000  1
  O  O12  1  0.80277220  0.80077223  0.05907238  1
  O  O13  1  0.69722780  0.30077223  0.44092762  1
  O  O14  1  0.19591446  0.20135170  0.53907111  1
  O  O15  1  0.30408554  0.70135170  0.96092889  1
  O  O16  1  0.19591446  0.20135170  0.96092889  1
  O  O17  1  0.30408554  0.70135170  0.53907111  1
  O  O18  1  0.80277220  0.80077223  0.44092762  1
  O  O19  1  0.69722780  0.30077223  0.05907238  1
