# generated using pymatgen
data_Na7Th2H20C16O43
_symmetry_space_group_name_H-M   'P 1'
_cell_length_a   12.61291368
_cell_length_b   12.61291368
_cell_length_c   15.95021925
_cell_angle_alpha   102.14693625
_cell_angle_beta   102.14693625
_cell_angle_gamma   117.89219502
_symmetry_Int_Tables_number   1
_chemical_formula_structural   Na7Th2H20C16O43
_chemical_formula_sum   'Na14 Th4 H40 C32 O86'
_cell_volume   2047.60716611
_cell_formula_units_Z   2
loop_
 _symmetry_equiv_pos_site_id
 _symmetry_equiv_pos_as_xyz
  1  'x, y, z'
loop_
 _atom_site_type_symbol
 _atom_site_label
 _atom_site_symmetry_multiplicity
 _atom_site_fract_x
 _atom_site_fract_y
 _atom_site_fract_z
 _atom_site_occupancy
  Na  Na0  1  0.21640749  0.25489934  0.22867378  1
  Na  Na1  1  0.02622557  0.98773371  0.77132622  1
  Na  Na2  1  0.50489934  0.96640749  0.72867378  1
  Na  Na3  1  0.23773371  0.77622557  0.27132622  1
  Na  Na4  1  0.20893931  0.72691620  0.74618533  1
  Na  Na5  1  0.98073087  0.46275398  0.25381467  1
  Na  Na6  1  0.97691620  0.95893931  0.24618533  1
  Na  Na7  1  0.71275398  0.73073087  0.75381467  1
  Na  Na8  1  0.28149993  0.28149993  0.00000000  1
  Na  Na9  1  0.53149993  0.03149993  0.50000000  1
  Na  Na10  1  0.53879834  0.06229204  0.28482218  1
  Na  Na11  1  0.77746986  0.25397617  0.71517782  1
  Na  Na12  1  0.31229204  0.28879834  0.78482218  1
  Na  Na13  1  0.50397617  0.52746986  0.21517782  1
  Th  Th14  1  0.45440391  0.49731996  0.47543435  1
  Th  Th15  1  0.02188561  0.97896956  0.52456565  1
  Th  Th16  1  0.74731996  0.20440391  0.97543435  1
  Th  Th17  1  0.22896956  0.77188561  0.02456565  1
  H  H18  1  0.80759156  0.14661079  0.29609785  1
  H  H19  1  0.85051294  0.51149371  0.70390215  1
  H  H20  1  0.39661079  0.55759156  0.79609785  1
  H  H21  1  0.76149371  0.60051294  0.20390215  1
  H  H22  1  0.73051048  0.16267439  0.21567841  1
  H  H23  1  0.94699598  0.51483207  0.78432159  1
  H  H24  1  0.41267439  0.48051048  0.71567841  1
  H  H25  1  0.76483207  0.69699598  0.28432159  1
  H  H26  1  0.47152983  0.27434642  0.15283479  1
  H  H27  1  0.12151163  0.31869504  0.84716521  1
  H  H28  1  0.52434642  0.22152983  0.65283479  1
  H  H29  1  0.56869504  0.87151163  0.34716521  1
  H  H30  1  0.52484589  0.32300995  0.07671258  1
  H  H31  1  0.24629738  0.44813331  0.92328742  1
  H  H32  1  0.57300995  0.27484589  0.57671258  1
  H  H33  1  0.69813331  0.99629738  0.42328742  1
  H  H34  1  0.11368029  0.32261431  0.07296887  1
  H  H35  1  0.24964544  0.04071142  0.92703113  1
  H  H36  1  0.57261431  0.86368029  0.57296887  1
  H  H37  1  0.29071142  0.99964544  0.42703113  1
  H  H38  1  0.19429195  0.43986438  0.16613510  1
  H  H39  1  0.27372928  0.02815685  0.83386490  1
  H  H40  1  0.68986438  0.94429195  0.66613510  1
  H  H41  1  0.27815685  0.02372928  0.33386490  1
  H  H42  1  0.98382303  0.70084004  0.61675614  1
  H  H43  1  0.08408390  0.36706689  0.38324386  1
  H  H44  1  0.95084004  0.73382303  0.11675614  1
  H  H45  1  0.61706689  0.83408390  0.88324386  1
  H  H46  1  0.97238425  0.56987828  0.59282834  1
  H  H47  1  0.97704994  0.37955591  0.40717166  1
  H  H48  1  0.81987828  0.72238425  0.09282834  1
  H  H49  1  0.62955591  0.72704994  0.90717166  1
  H  H50  1  0.12844465  0.46986282  0.70682707  1
  H  H51  1  0.76303575  0.42161758  0.29317293  1
  H  H52  1  0.71986282  0.87844465  0.20682707  1
  H  H53  1  0.67161758  0.51303575  0.79317293  1
  H  H54  1  0.17067675  0.49593451  0.81053509  1
  H  H55  1  0.68539942  0.36014166  0.18946491  1
  H  H56  1  0.74593451  0.92067675  0.31053509  1
  H  H57  1  0.61014166  0.43539942  0.68946491  1
  C  C58  1  0.55710579  0.29883896  0.42245744  1
  C  C59  1  0.87638152  0.13464835  0.57754256  1
  C  C60  1  0.54883896  0.30710579  0.92245744  1
  C  C61  1  0.38464835  0.62638152  0.07754256  1
  C  C62  1  0.49253331  0.29400200  0.32576048  1
  C  C63  1  0.96824152  0.16677283  0.67423952  1
  C  C64  1  0.54400200  0.24253331  0.82576048  1
  C  C65  1  0.41677283  0.71824152  0.17423952  1
  C  C66  1  0.38373445  0.70236912  0.41393463  1
  C  C67  1  0.28843449  0.96979981  0.58606537  1
  C  C68  1  0.95236912  0.13373445  0.91393463  1
  C  C69  1  0.21979981  0.03843449  0.08606537  1
  C  C70  1  0.29318324  0.57216372  0.33234662  1
  C  C71  1  0.23981710  0.96083662  0.66765338  1
  C  C72  1  0.82216372  0.04318324  0.83234662  1
  C  C73  1  0.21083662  0.98981710  0.16765338  1
  C  C74  1  0.39623572  0.65923429  0.64572133  1
  C  C75  1  0.01351296  0.75051439  0.35427867  1
  C  C76  1  0.90923429  0.14623572  0.14572133  1
  C  C77  1  0.00051439  0.76351296  0.85427867  1
  C  C78  1  0.25097058  0.55179182  0.56681912  1
  C  C79  1  0.98497270  0.68415145  0.43318088  1
  C  C80  1  0.80179182  0.00097058  0.06681912  1
  C  C81  1  0.93415145  0.73497270  0.93318088  1
  C  C82  1  0.19566210  0.20759947  0.44578607  1
  C  C83  1  0.76181339  0.74987603  0.55421393  1
  C  C84  1  0.45759947  0.94566210  0.94578607  1
  C  C85  1  0.99987603  0.51181339  0.05421393  1
  C  C86  1  0.27122300  0.26684705  0.55016207  1
  C  C87  1  0.71668499  0.72106093  0.44983793  1
  C  C88  1  0.51684705  0.02122300  0.05016207  1
  C  C89  1  0.97106093  0.46668499  0.94983793  1
  O  O90  1  0.55490003  0.37530090  0.49027691  1
  O  O91  1  0.88502399  0.06462312  0.50972309  1
  O  O92  1  0.62530090  0.30490003  0.99027691  1
  O  O93  1  0.31462312  0.63502399  0.00972309  1
  O  O94  1  0.60173538  0.23080725  0.42930065  1
  O  O95  1  0.80150661  0.17243473  0.57069935  1
  O  O96  1  0.48080725  0.35173538  0.92930065  1
  O  O97  1  0.42243473  0.55150661  0.07069935  1
  O  O98  1  0.44282224  0.36268474  0.32564202  1
  O  O99  1  0.03704272  0.11718022  0.67435798  1
  O  O100  1  0.61268474  0.19282224  0.82564202  1
  O  O101  1  0.36718022  0.78704272  0.17435798  1
  O  O102  1  0.49158475  0.22442838  0.25635031  1
  O  O103  1  0.96807807  0.23523445  0.74364969  1
  O  O104  1  0.47442838  0.24158475  0.75635031  1
  O  O105  1  0.48523445  0.71807807  0.24364969  1
  O  O106  1  0.46435546  0.70181826  0.47855268  1
  O  O107  1  0.22326558  0.98580278  0.52144732  1
  O  O108  1  0.95181826  0.21435546  0.97855268  1
  O  O109  1  0.23580278  0.97326558  0.02144732  1
  O  O110  1  0.31664631  0.48408785  0.33605995  1
  O  O111  1  0.14802790  0.98058636  0.66394005  1
  O  O112  1  0.73408785  0.06664631  0.83605995  1
  O  O113  1  0.23058636  0.89802790  0.16394005  1
  O  O114  1  0.37437353  0.79561824  0.41132416  1
  O  O115  1  0.38429409  0.96304937  0.58867584  1
  O  O116  1  0.04561824  0.12437353  0.91132416  1
  O  O117  1  0.21304937  0.13429409  0.08867584  1
  O  O118  1  0.20664235  0.56019573  0.26822617  1
  O  O119  1  0.29196956  0.93841617  0.73177383  1
  O  O120  1  0.81019573  0.95664235  0.76822617  1
  O  O121  1  0.18841617  0.04196956  0.23177383  1
  O  O122  1  0.47894916  0.63459309  0.63337146  1
  O  O123  1  0.00122162  0.84557769  0.36662854  1
  O  O124  1  0.88459309  0.22894916  0.13337146  1
  O  O125  1  0.09557769  0.75122162  0.86662854  1
  O  O126  1  0.40389363  0.74744369  0.70349684  1
  O  O127  1  0.04394686  0.70039679  0.29650316  1
  O  O128  1  0.99744369  0.15389363  0.20349684  1
  O  O129  1  0.95039679  0.79394686  0.79650316  1
  O  O130  1  0.25225405  0.48613707  0.49649959  1
  O  O131  1  0.98963749  0.75575447  0.50350041  1
  O  O132  1  0.73613707  0.00225405  0.99649959  1
  O  O133  1  0.00575447  0.73963749  0.00350041  1
  O  O134  1  0.16178847  0.55220803  0.58838515  1
  O  O135  1  0.96382288  0.57340331  0.41161485  1
  O  O136  1  0.80220803  0.91178847  0.08838515  1
  O  O137  1  0.82340331  0.71382288  0.91161485  1
  O  O138  1  0.24602574  0.27021826  0.39792710  1
  O  O139  1  0.87229117  0.84809864  0.60207290  1
  O  O140  1  0.52021826  0.99602574  0.89792710  1
  O  O141  1  0.09809864  0.62229117  0.10207290  1
  O  O142  1  0.08998396  0.10005284  0.41690126  1
  O  O143  1  0.68315158  0.67308269  0.58309874  1
  O  O144  1  0.35005284  0.83998396  0.91690126  1
  O  O145  1  0.92308269  0.43315158  0.08309874  1
  O  O146  1  0.37904909  0.37096089  0.57861661  1
  O  O147  1  0.79234428  0.80043248  0.42138339  1
  O  O148  1  0.62096089  0.12904909  0.07861661  1
  O  O149  1  0.05043248  0.54234428  0.92138339  1
  O  O150  1  0.21892332  0.20618223  0.59844567  1
  O  O151  1  0.60773655  0.62047765  0.40155433  1
  O  O152  1  0.45618223  0.96892332  0.09844567  1
  O  O153  1  0.87047765  0.35773655  0.90155433  1
  O  O154  1  0.72077148  0.10904715  0.25303141  1
  O  O155  1  0.85601574  0.46774008  0.74696859  1
  O  O156  1  0.35904715  0.47077148  0.75303141  1
  O  O157  1  0.71774008  0.60601574  0.24696859  1
  O  O158  1  0.47768785  0.33070719  0.11696763  1
  O  O159  1  0.21373956  0.36072022  0.88303237  1
  O  O160  1  0.58070719  0.22768785  0.61696763  1
  O  O161  1  0.61072022  0.96373956  0.38303237  1
  O  O162  1  0.19790142  0.37331540  0.12381071  1
  O  O163  1  0.24950470  0.07409072  0.87618929  1
  O  O164  1  0.62331540  0.94790142  0.62381071  1
  O  O165  1  0.32409072  0.99950470  0.37618929  1
  O  O166  1  0.99249783  0.64312355  0.64594383  1
  O  O167  1  0.99717972  0.34655400  0.35405617  1
  O  O168  1  0.89312355  0.74249783  0.14594383  1
  O  O169  1  0.59655400  0.74717972  0.85405617  1
  O  O170  1  0.15669564  0.53440686  0.76595228  1
  O  O171  1  0.76845458  0.39074336  0.23404772  1
  O  O172  1  0.78440686  0.90669564  0.26595228  1
  O  O173  1  0.64074336  0.51845458  0.73404772  1
  O  O174  1  0.95539501  0.45539501  0.50000000  1
  O  O175  1  0.70539501  0.70539501  0.00000000  1
