# generated using pymatgen
data_Pb7(BrO4)2
_symmetry_space_group_name_H-M   'P 1'
_cell_length_a   5.99353528
_cell_length_b   7.33086780
_cell_length_c   20.01947479
_cell_angle_alpha   90.00000000
_cell_angle_beta   90.00000000
_cell_angle_gamma   114.65893099
_symmetry_Int_Tables_number   1
_chemical_formula_structural   Pb7(BrO4)2
_chemical_formula_sum   'Pb14 Br4 O16'
_cell_volume   799.39793148
_cell_formula_units_Z   2
loop_
 _symmetry_equiv_pos_site_id
 _symmetry_equiv_pos_as_xyz
  1  'x, y, z'
loop_
 _atom_site_type_symbol
 _atom_site_label
 _atom_site_symmetry_multiplicity
 _atom_site_fract_x
 _atom_site_fract_y
 _atom_site_fract_z
 _atom_site_occupancy
  Pb  Pb0  1  0.36123865  0.45020169  0.03228694  1
  Pb  Pb1  1  0.63876135  0.54979831  0.53228694  1
  Pb  Pb2  1  0.70111018  0.14692468  -0.00208469  1
  Pb  Pb3  1  0.29888982  0.85307532  0.49791531  1
  Pb  Pb4  1  0.18225656  0.12290454  0.87073836  1
  Pb  Pb5  1  0.81774344  0.87709546  0.37073836  1
  Pb  Pb6  1  0.86775832  0.47721780  0.86342227  1
  Pb  Pb7  1  0.13224168  0.52278220  0.36342227  1
  Pb  Pb8  1  0.82129518  0.34258774  0.16257787  1
  Pb  Pb9  1  0.17870482  0.65741226  0.66257787  1
  Pb  Pb10  1  0.13734682  0.05039222  0.15661651  1
  Pb  Pb11  1  0.86265318  0.94960778  0.65661651  1
  Pb  Pb12  1  0.48220071  0.71352296  0.22517485  1
  Pb  Pb13  1  0.51779929  0.28647704  0.72517485  1
  Br  Br14  1  0.97572520  0.71106202  0.05825932  1
  Br  Br15  1  0.02427480  0.28893798  0.55825932  1
  Br  Br16  1  0.53145377  0.81673087  0.91990680  1
  Br  Br17  1  0.46854623  0.18326913  0.41990680  1
  O  O18  1  0.97705622  0.20329041  0.07592889  1
  O  O19  1  0.02294378  0.79670959  0.57592889  1
  O  O20  1  0.50297227  0.20768857  0.07787912  1
  O  O21  1  0.49702773  0.79231143  0.57787912  1
  O  O22  1  0.53678573  0.30059321  0.93589847  1
  O  O23  1  0.46321427  0.69940679  0.43589847  1
  O  O24  1  0.02241677  0.30488586  0.93517470  1
  O  O25  1  0.97758323  0.69511414  0.43517470  1
  O  O26  1  0.22775767  0.76496279  0.28544292  1
  O  O27  1  0.77224233  0.23503721  0.78544292  1
  O  O28  1  0.64454479  0.61657015  0.30292560  1
  O  O29  1  0.35545521  0.38342985  0.80292560  1
  O  O30  1  0.74698417  0.00301726  0.19700174  1
  O  O31  1  0.25301583  0.99698274  0.69700174  1
  O  O32  1  0.28988587  0.46023754  0.16388031  1
  O  O33  1  0.71011413  0.53976246  0.66388031  1
