# generated using pymatgen
data_Fe2AsP
_symmetry_space_group_name_H-M   'P 1'
_cell_length_a   3.15826797
_cell_length_b   5.30109885
_cell_length_c   5.91243924
_cell_angle_alpha   90.00000000
_cell_angle_beta   90.00000000
_cell_angle_gamma   90.00000000
_symmetry_Int_Tables_number   1
_chemical_formula_structural   Fe2AsP
_chemical_formula_sum   'Fe4 As2 P2'
_cell_volume   98.98777652
_cell_formula_units_Z   2
loop_
 _symmetry_equiv_pos_site_id
 _symmetry_equiv_pos_as_xyz
  1  'x, y, z'
loop_
 _atom_site_type_symbol
 _atom_site_label
 _atom_site_symmetry_multiplicity
 _atom_site_fract_x
 _atom_site_fract_y
 _atom_site_fract_z
 _atom_site_occupancy
  Fe  Fe0  1  0.75000000  0.49687549  0.70656988  1
  Fe  Fe1  1  0.75000000  0.99687549  0.79343012  1
  Fe  Fe2  1  0.25000000  0.49498486  0.30822587  1
  Fe  Fe3  1  0.25000000  0.99498486  0.19177413  1
  As  As4  1  0.75000000  0.30725392  0.07072392  1
  As  As5  1  0.75000000  0.80725392  0.42927608  1
  P  P6  1  0.25000000  0.70088574  0.92573454  1
  P  P7  1  0.25000000  0.20088574  0.57426546  1
