# generated using pymatgen
data_GdTa4O12
_symmetry_space_group_name_H-M   'P 1'
_cell_length_a   5.58842229
_cell_length_b   5.58842229
_cell_length_c   7.94300606
_cell_angle_alpha   90.00000000
_cell_angle_beta   90.00000000
_cell_angle_gamma   90.05060185
_symmetry_Int_Tables_number   1
_chemical_formula_structural   GdTa4O12
_chemical_formula_sum   'Gd1 Ta4 O12'
_cell_volume   248.06366535
_cell_formula_units_Z   1
loop_
 _symmetry_equiv_pos_site_id
 _symmetry_equiv_pos_as_xyz
  1  'x, y, z'
loop_
 _atom_site_type_symbol
 _atom_site_label
 _atom_site_symmetry_multiplicity
 _atom_site_fract_x
 _atom_site_fract_y
 _atom_site_fract_z
 _atom_site_occupancy
  Gd  Gd0  1  0.28652645  0.71347355  0.00000000  1
  Ta  Ta1  1  0.75790288  0.74760948  0.74274748  1
  Ta  Ta2  1  0.25239052  0.24209712  0.74274748  1
  Ta  Ta3  1  0.75790288  0.74760948  0.25725252  1
  Ta  Ta4  1  0.25239052  0.24209712  0.25725252  1
  O  O5  1  0.00183345  0.99816655  0.76380743  1
  O  O6  1  0.00183345  0.99816655  0.23619257  1
  O  O7  1  0.01107764  0.51396616  0.77165500  1
  O  O8  1  0.48603384  0.98892236  0.22834500  1
  O  O9  1  0.01107764  0.51396616  0.22834500  1
  O  O10  1  0.48603384  0.98892236  0.77165500  1
  O  O11  1  0.72973297  0.75212558  0.00000000  1
  O  O12  1  0.24787442  0.27026703  0.00000000  1
  O  O13  1  0.73945500  0.74049060  0.50000000  1
  O  O14  1  0.25950940  0.26054500  0.50000000  1
  O  O15  1  0.48676256  0.51323744  0.77353255  1
  O  O16  1  0.48676256  0.51323744  0.22646745  1
