# generated using pymatgen
data_Hf2V3Ge
_symmetry_space_group_name_H-M   'P 1'
_cell_length_a   5.15479521
_cell_length_b   5.15479521
_cell_length_c   8.56999497
_cell_angle_alpha   90.00000000
_cell_angle_beta   90.00000000
_cell_angle_gamma   120.00191817
_symmetry_Int_Tables_number   1
_chemical_formula_structural   Hf2V3Ge
_chemical_formula_sum   'Hf4 V6 Ge2'
_cell_volume   197.20850343
_cell_formula_units_Z   2
loop_
 _symmetry_equiv_pos_site_id
 _symmetry_equiv_pos_as_xyz
  1  'x, y, z'
loop_
 _atom_site_type_symbol
 _atom_site_label
 _atom_site_symmetry_multiplicity
 _atom_site_fract_x
 _atom_site_fract_y
 _atom_site_fract_z
 _atom_site_occupancy
  Hf  Hf0  1  0.66667600  0.33332400  0.56102542  1
  Hf  Hf1  1  0.33332400  0.66667600  0.43897458  1
  Hf  Hf2  1  0.33332400  0.66667600  0.06102542  1
  Hf  Hf3  1  0.66667600  0.33332400  0.93897458  1
  V  V4  1  0.17795340  0.35587236  0.75000000  1
  V  V5  1  0.17792102  0.82207898  0.75000000  1
  V  V6  1  0.64412764  0.82204660  0.75000000  1
  V  V7  1  0.82204660  0.64412764  0.25000000  1
  V  V8  1  0.82207898  0.17792102  0.25000000  1
  V  V9  1  0.35587236  0.17795340  0.25000000  1
  Ge  Ge10  1  -0.00000000  0.00000000  0.50000000  1
  Ge  Ge11  1  -0.00000000  0.00000000  0.00000000  1
