# generated using pymatgen
data_FeSiMo
_symmetry_space_group_name_H-M   'P 1'
_cell_length_a   4.89599998
_cell_length_b   4.69605402
_cell_length_c   7.65718883
_cell_angle_alpha   90.00000000
_cell_angle_beta   90.00000000
_cell_angle_gamma   58.57637474
_symmetry_Int_Tables_number   1
_chemical_formula_structural   FeSiMo
_chemical_formula_sum   'Fe4 Si4 Mo4'
_cell_volume   150.23248894
_cell_formula_units_Z   4
loop_
 _symmetry_equiv_pos_site_id
 _symmetry_equiv_pos_as_xyz
  1  'x, y, z'
loop_
 _atom_site_type_symbol
 _atom_site_label
 _atom_site_symmetry_multiplicity
 _atom_site_fract_x
 _atom_site_fract_y
 _atom_site_fract_z
 _atom_site_occupancy
  Fe  Fe0  1  0.17179354  0.65641159  0.75000000  1
  Fe  Fe1  1  0.65245460  0.17381742  0.75000000  1
  Fe  Fe2  1  0.17371180  0.17385100  0.75000000  1
  Fe  Fe3  1  0.84918513  0.30165002  0.25000000  1
  Si  Si4  1  0.35500924  0.81153862  0.25000000  1
  Si  Si5  1  0.83347692  0.81154632  0.25000000  1
  Si  Si6  1  0.98936508  0.02121843  0.51209500  1
  Si  Si7  1  0.98936508  0.02121843  0.98790500  1
  Mo  Mo8  1  0.33013139  0.33973154  0.06099950  1
  Mo  Mo9  1  0.66268791  0.67464254  0.93183617  1
  Mo  Mo10  1  0.66268791  0.67464254  0.56816383  1
  Mo  Mo11  1  0.33013139  0.33973154  0.43900050  1
