# generated using pymatgen
data_HfAlPd
_symmetry_space_group_name_H-M   'P 1'
_cell_length_a   5.29140960
_cell_length_b   5.35061762
_cell_length_c   8.40705274
_cell_angle_alpha   90.00000000
_cell_angle_beta   90.00000000
_cell_angle_gamma   120.36926862
_symmetry_Int_Tables_number   1
_chemical_formula_structural   HfAlPd
_chemical_formula_sum   'Hf4 Al4 Pd4'
_cell_volume   205.36273338
_cell_formula_units_Z   4
loop_
 _symmetry_equiv_pos_site_id
 _symmetry_equiv_pos_as_xyz
  1  'x, y, z'
loop_
 _atom_site_type_symbol
 _atom_site_label
 _atom_site_symmetry_multiplicity
 _atom_site_fract_x
 _atom_site_fract_y
 _atom_site_fract_z
 _atom_site_occupancy
  Hf  Hf0  1  0.66487604  0.33242473  0.55201990  1
  Hf  Hf1  1  0.32957340  0.66479579  0.43267860  1
  Hf  Hf2  1  0.32957340  0.66479579  0.06732140  1
  Hf  Hf3  1  0.66487604  0.33242473  0.94798010  1
  Al  Al4  1  0.99435023  0.99717798  0.49591182  1
  Al  Al5  1  0.99435023  0.99717798  0.00408818  1
  Al  Al6  1  0.17668039  0.34755620  0.75000000  1
  Al  Al7  1  0.17668239  0.82912440  0.75000000  1
  Pd  Pd8  1  0.66577295  0.83289215  0.75000000  1
  Pd  Pd9  1  0.83294996  0.66330101  0.25000000  1
  Pd  Pd10  1  0.83294560  0.16965098  0.25000000  1
  Pd  Pd11  1  0.33736935  0.16867826  0.25000000  1
