# generated using pymatgen
data_HfNbCN
_symmetry_space_group_name_H-M   'P 1'
_cell_length_a   3.20218596
_cell_length_b   3.20218596
_cell_length_c   5.57621324
_cell_angle_alpha   73.31384389
_cell_angle_beta   90.00000000
_cell_angle_gamma   120.00000000
_symmetry_Int_Tables_number   1
_chemical_formula_structural   HfNbCN
_chemical_formula_sum   'Hf1 Nb1 C1 N1'
_cell_volume   46.71717941
_cell_formula_units_Z   1
loop_
 _symmetry_equiv_pos_site_id
 _symmetry_equiv_pos_as_xyz
  1  'x, y, z'
loop_
 _atom_site_type_symbol
 _atom_site_label
 _atom_site_symmetry_multiplicity
 _atom_site_fract_x
 _atom_site_fract_y
 _atom_site_fract_z
 _atom_site_occupancy
  Hf  Hf0  1  0.99825352  0.99650703  0.00523945  1
  Nb  Nb1  1  0.50302716  0.00605433  0.49091851  1
  C  C2  1  0.24946602  0.49893204  0.25160195  1
  N  N3  1  0.74925330  0.49850660  0.75224010  1
