# generated using pymatgen
data_HfTaCN
_symmetry_space_group_name_H-M   'P 1'
_cell_length_a   3.19391463
_cell_length_b   3.19391463
_cell_length_c   5.55373456
_cell_angle_alpha   73.28887051
_cell_angle_beta   90.00000000
_cell_angle_gamma   120.00000000
_symmetry_Int_Tables_number   1
_chemical_formula_structural   HfTaCN
_chemical_formula_sum   'Hf1 Ta1 C1 N1'
_cell_volume   46.28047528
_cell_formula_units_Z   1
loop_
 _symmetry_equiv_pos_site_id
 _symmetry_equiv_pos_as_xyz
  1  'x, y, z'
loop_
 _atom_site_type_symbol
 _atom_site_label
 _atom_site_symmetry_multiplicity
 _atom_site_fract_x
 _atom_site_fract_y
 _atom_site_fract_z
 _atom_site_occupancy
  Hf  Hf0  1  0.25292291  0.50584582  0.24123127  1
  Ta  Ta1  1  0.74633902  0.49267805  0.76098293  1
  C  C2  1  0.00247389  0.00494778  0.99257833  1
  N  N3  1  0.49826417  0.99652835  0.50520748  1
