# generated using pymatgen
data_HIO4
_symmetry_space_group_name_H-M   'P 1'
_cell_length_a   5.08530681
_cell_length_b   5.90855477
_cell_length_c   5.90855477
_cell_angle_alpha   71.94708538
_cell_angle_beta   82.80587293
_cell_angle_gamma   82.80587293
_symmetry_Int_Tables_number   1
_chemical_formula_structural   HIO4
_chemical_formula_sum   'H2 I2 O8'
_cell_volume   166.76025927
_cell_formula_units_Z   2
loop_
 _symmetry_equiv_pos_site_id
 _symmetry_equiv_pos_as_xyz
  1  'x, y, z'
loop_
 _atom_site_type_symbol
 _atom_site_label
 _atom_site_symmetry_multiplicity
 _atom_site_fract_x
 _atom_site_fract_y
 _atom_site_fract_z
 _atom_site_occupancy
  H  H0  1  0.97484149  0.04104653  0.51300671  1
  H  H1  1  0.52515851  0.48699329  0.95895347  1
  I  I2  1  0.25000000  0.86086220  0.13913780  1
  I  I3  1  0.75000000  0.12179243  0.87820757  1
  O  O4  1  0.95938848  0.80447214  0.96917971  1
  O  O5  1  0.54061152  0.03082029  0.19552786  1
  O  O6  1  0.03764658  0.19459085  0.02317829  1
  O  O7  1  0.46235342  0.97682171  0.80540915  1
  O  O8  1  0.89479247  0.19408283  0.56079553  1
  O  O9  1  0.60520753  0.43920447  0.80591717  1
  O  O10  1  0.09464671  0.82554307  0.43722979  1
  O  O11  1  0.40535329  0.56277021  0.17445693  1
