# generated using pymatgen
data_Co2SbAs
_symmetry_space_group_name_H-M   'P 1'
_cell_length_a   3.72624455
_cell_length_b   3.72667734
_cell_length_c   5.12864693
_cell_angle_alpha   90.00000000
_cell_angle_beta   90.00000000
_cell_angle_gamma   59.99614948
_symmetry_Int_Tables_number   1
_chemical_formula_structural   Co2SbAs
_chemical_formula_sum   'Co2 Sb1 As1'
_cell_volume   61.67508097
_cell_formula_units_Z   1
loop_
 _symmetry_equiv_pos_site_id
 _symmetry_equiv_pos_as_xyz
  1  'x, y, z'
loop_
 _atom_site_type_symbol
 _atom_site_label
 _atom_site_symmetry_multiplicity
 _atom_site_fract_x
 _atom_site_fract_y
 _atom_site_fract_z
 _atom_site_occupancy
  Co  Co0  1  0.99997867  0.00001067  0.51366426  1
  Co  Co1  1  0.99997867  0.00001067  0.98633574  1
  Sb  Sb2  1  0.66669490  0.66665255  0.25000000  1
  As  As3  1  0.33334776  0.33332612  0.75000000  1
