# generated using pymatgen
data_Cr2MoP3
_symmetry_space_group_name_H-M   'P 1'
_cell_length_a   3.12992701
_cell_length_b   5.46004503
_cell_length_c   18.26000994
_cell_angle_alpha   89.91964197
_cell_angle_beta   90.00000000
_cell_angle_gamma   90.00000000
_symmetry_Int_Tables_number   1
_chemical_formula_structural   Cr2MoP3
_chemical_formula_sum   'Cr8 Mo4 P12'
_cell_volume   312.05490726
_cell_formula_units_Z   4
loop_
 _symmetry_equiv_pos_site_id
 _symmetry_equiv_pos_as_xyz
  1  'x, y, z'
loop_
 _atom_site_type_symbol
 _atom_site_label
 _atom_site_symmetry_multiplicity
 _atom_site_fract_x
 _atom_site_fract_y
 _atom_site_fract_z
 _atom_site_occupancy
  Cr  Cr0  1  0.75000000  0.99473492  0.60276214  1
  Cr  Cr1  1  0.75000000  0.99423443  0.93449312  1
  Cr  Cr2  1  0.25000000  0.51070144  0.10139434  1
  Cr  Cr3  1  0.25000000  0.50860558  0.43951142  1
  Cr  Cr4  1  0.25000000  0.50852798  0.76994957  1
  Cr  Cr5  1  0.25000000  0.01182547  0.06104559  1
  Cr  Cr6  1  0.25000000  0.00948756  0.39862163  1
  Cr  Cr7  1  0.25000000  0.01070791  0.73026102  1
  Mo  Mo8  1  0.75000000  0.49316240  0.23054281  1
  Mo  Mo9  1  0.75000000  0.48987212  0.56476960  1
  Mo  Mo10  1  0.75000000  0.49017722  0.89609262  1
  Mo  Mo11  1  0.75000000  0.99328527  0.26932191  1
  P  P12  1  0.75000000  0.31040181  0.02323989  1
  P  P13  1  0.75000000  0.31695250  0.36137255  1
  P  P14  1  0.75000000  0.30971321  0.69162438  1
  P  P15  1  0.75000000  0.81581511  0.13829492  1
  P  P16  1  0.75000000  0.82107240  0.47690559  1
  P  P17  1  0.75000000  0.81908768  0.80825399  1
  P  P18  1  0.25000000  0.67815473  0.31914102  1
  P  P19  1  0.25000000  0.69625038  0.64879201  1
  P  P20  1  0.25000000  0.69595516  0.98037554  1
  P  P21  1  0.25000000  0.17905124  0.18068085  1
  P  P22  1  0.25000000  0.17092527  0.52035067  1
  P  P23  1  0.25000000  0.17129819  0.85220284  1
