# generated using pymatgen
data_Fe4W2N
_symmetry_space_group_name_H-M   'P 1'
_cell_length_a   7.74525789
_cell_length_b   7.69646860
_cell_length_c   7.70498344
_cell_angle_alpha   90.00000000
_cell_angle_beta   59.72620855
_cell_angle_gamma   119.79184041
_symmetry_Int_Tables_number   1
_chemical_formula_structural   Fe4W2N
_chemical_formula_sum   'Fe16 W8 N4'
_cell_volume   324.44793381
_cell_formula_units_Z   4
loop_
 _symmetry_equiv_pos_site_id
 _symmetry_equiv_pos_as_xyz
  1  'x, y, z'
loop_
 _atom_site_type_symbol
 _atom_site_label
 _atom_site_symmetry_multiplicity
 _atom_site_fract_x
 _atom_site_fract_y
 _atom_site_fract_z
 _atom_site_occupancy
  Fe  Fe0  1  0.75193426  0.37596713  0.87798932  1
  Fe  Fe1  1  0.25071059  0.37257404  0.37820169  1
  Fe  Fe2  1  0.25071059  0.87813655  0.37820169  1
  Fe  Fe3  1  0.74448502  0.37224251  0.37620448  1
  Fe  Fe4  1  0.34713630  0.17356815  0.48307053  1
  Fe  Fe5  1  0.66113523  0.17015188  0.16977423  1
  Fe  Fe6  1  0.66113523  0.49098334  0.16977423  1
  Fe  Fe7  1  0.33682892  0.16841446  0.16505916  1
  Fe  Fe8  1  0.15730222  0.57865111  0.26141712  1
  Fe  Fe9  1  0.84097871  0.57902999  0.57635212  1
  Fe  Fe10  1  0.84097871  0.26194872  0.57635212  1
  Fe  Fe11  1  0.15919727  0.57959863  0.58151619  1
  Fe  Fe12  1  0.89532127  0.94766064  0.54792431  1
  Fe  Fe13  1  0.50271931  0.55435679  0.54937010  1
  Fe  Fe14  1  0.50271931  0.94836252  0.54937010  1
  Fe  Fe15  1  0.09901882  0.54950941  0.94947682  1
  W  W16  1  0.50040960  0.94863959  0.94374063  1
  W  W17  1  0.50040960  0.55177001  0.94374063  1
  W  W18  1  0.59457519  0.79728760  0.21403318  1
  W  W19  1  0.98859432  0.19708866  0.20939950  1
  W  W20  1  0.98859432  0.79150566  0.20939950  1
  W  W21  1  0.40367690  0.20183845  0.78762269  1
  W  W22  1  0.00943231  0.80454660  0.79705793  1
  W  W23  1  0.00943231  0.20488571  0.79705793  1
  N  N24  1  0.74164336  0.87082168  0.39293128  1
  N  N25  1  0.25302963  0.87019483  0.87260569  1
  N  N26  1  0.25302963  0.38283480  0.87260569  1
  N  N27  1  0.75486107  0.87743053  0.86975114  1
