# generated using pymatgen
data_Co6BP
_symmetry_space_group_name_H-M   'P 1'
_cell_length_a   4.25122779
_cell_length_b   6.59820642
_cell_length_c   6.38142630
_cell_angle_alpha   92.76013310
_cell_angle_beta   109.45667191
_cell_angle_gamma   71.20698255
_symmetry_Int_Tables_number   1
_chemical_formula_structural   Co6BP
_chemical_formula_sum   'Co12 B2 P2'
_cell_volume   159.43079099
_cell_formula_units_Z   2
loop_
 _symmetry_equiv_pos_site_id
 _symmetry_equiv_pos_as_xyz
  1  'x, y, z'
loop_
 _atom_site_type_symbol
 _atom_site_label
 _atom_site_symmetry_multiplicity
 _atom_site_fract_x
 _atom_site_fract_y
 _atom_site_fract_z
 _atom_site_occupancy
  Co  Co0  1  0.67964315  0.18961123  0.00937583  1
  Co  Co1  1  0.85987855  0.81038877  0.99062417  1
  Co  Co2  1  0.36667031  0.95656875  0.18987315  1
  Co  Co3  1  0.13336591  0.04343125  0.81012685  1
  Co  Co4  1  0.64218751  0.38678159  0.67411724  1
  Co  Co5  1  0.35485186  0.61321841  0.32588276  1
  Co  Co6  1  0.98506605  0.34881199  0.38210275  1
  Co  Co7  1  0.95177529  0.65118801  0.61789725  1
  Co  Co8  1  0.07854660  0.40721346  0.01894020  1
  Co  Co9  1  0.46681985  0.59278654  0.98105980  1
  Co  Co10  1  0.97272888  0.95076546  0.39041851  1
  Co  Co11  1  0.53307583  0.04923454  0.60958149  1
  B  B12  1  0.21523726  0.32370701  0.73656268  1
  B  B13  1  0.80238159  0.67629299  0.26343732  1
  P  P14  1  0.51643084  0.24980090  0.32489122  1
  P  P15  1  0.44134052  0.75019910  0.67510878  1
