# generated using pymatgen
data_Al(SiO3)2
_symmetry_space_group_name_H-M   'P 1'
_cell_length_a   12.12941705
_cell_length_b   12.12941705
_cell_length_c   12.12941705
_cell_angle_alpha   110.60219523
_cell_angle_beta   108.90871044
_cell_angle_gamma   108.90871044
_symmetry_Int_Tables_number   1
_chemical_formula_structural   Al(SiO3)2
_chemical_formula_sum   'Al8 Si16 O48'
_cell_volume   1373.31662513
_cell_formula_units_Z   8
loop_
 _symmetry_equiv_pos_site_id
 _symmetry_equiv_pos_as_xyz
  1  'x, y, z'
loop_
 _atom_site_type_symbol
 _atom_site_label
 _atom_site_symmetry_multiplicity
 _atom_site_fract_x
 _atom_site_fract_y
 _atom_site_fract_z
 _atom_site_occupancy
  Al  Al0  1  0.75000000  0.04427461  0.45572539  1
  Al  Al1  1  0.41145077  0.20572539  0.95572539  1
  Al  Al2  1  0.25000000  0.95572539  0.54427461  1
  Al  Al3  1  0.58854923  0.79427461  0.04427461  1
  Al  Al4  1  0.08854923  0.54427461  0.29427461  1
  Al  Al5  1  0.75000000  0.70572539  0.79427461  1
  Al  Al6  1  0.91145077  0.45572539  0.70572539  1
  Al  Al7  1  0.25000000  0.29427461  0.20572539  1
  Si  Si8  1  0.78146256  0.21631306  0.75140252  1
  Si  Si9  1  0.53508946  0.46993996  0.25140252  1
  Si  Si10  1  0.28146256  0.25140252  0.71631306  1
  Si  Si11  1  0.46491054  0.93485050  0.21631306  1
  Si  Si12  1  0.21853744  0.78368694  0.24859748  1
  Si  Si13  1  0.46491054  0.53006004  0.74859748  1
  Si  Si14  1  0.71853744  0.74859748  0.28368694  1
  Si  Si15  1  0.53508946  0.06514950  0.78368694  1
  Si  Si16  1  0.96491054  0.71631306  0.43485050  1
  Si  Si17  1  0.71853744  0.96993996  0.93485050  1
  Si  Si18  1  0.03508946  0.75140252  0.96993996  1
  Si  Si19  1  0.21853744  0.43485050  0.46993996  1
  Si  Si20  1  0.03508946  0.28368694  0.56514950  1
  Si  Si21  1  0.28146256  0.03006004  0.06514950  1
  Si  Si22  1  0.96491054  0.24859748  0.03006004  1
  Si  Si23  1  0.78146256  0.56514950  0.53006004  1
  O  O24  1  0.77636555  0.10893905  0.62094111  1
  O  O25  1  0.51200206  0.34457556  0.12094111  1
  O  O26  1  0.27636555  0.12094111  0.60893905  1
  O  O27  1  0.48799794  0.83257350  0.10893905  1
  O  O28  1  0.22363445  0.89106095  0.37905889  1
  O  O29  1  0.48799794  0.65542444  0.87905889  1
  O  O30  1  0.72363445  0.87905889  0.39106095  1
  O  O31  1  0.51200206  0.16742650  0.89106095  1
  O  O32  1  0.98799794  0.60893905  0.33257350  1
  O  O33  1  0.72363445  0.84457556  0.83257350  1
  O  O34  1  0.01200206  0.62094111  0.84457556  1
  O  O35  1  0.22363445  0.33257350  0.34457556  1
  O  O36  1  0.01200206  0.39106095  0.66742650  1
  O  O37  1  0.27636555  0.15542444  0.16742650  1
  O  O38  1  0.98799794  0.37905889  0.15542444  1
  O  O39  1  0.77636555  0.66742650  0.65542444  1
  O  O40  1  0.80969272  0.35284538  0.74424409  1
  O  O41  1  0.39139871  0.43455137  0.24424409  1
  O  O42  1  0.30969272  0.24424409  0.85284538  1
  O  O43  1  0.60860129  0.04315266  0.35284538  1
  O  O44  1  0.19030728  0.64715462  0.25575591  1
  O  O45  1  0.60860129  0.56544863  0.75575591  1
  O  O46  1  0.69030728  0.75575591  0.14715462  1
  O  O47  1  0.39139871  0.95684734  0.64715462  1
  O  O48  1  0.10860129  0.85284538  0.54315266  1
  O  O49  1  0.69030728  0.93455137  0.04315266  1
  O  O50  1  0.89139871  0.74424409  0.93455137  1
  O  O51  1  0.19030728  0.54315266  0.43455137  1
  O  O52  1  0.89139871  0.14715462  0.45684734  1
  O  O53  1  0.30969272  0.06544863  0.95684734  1
  O  O54  1  0.10860129  0.25575591  0.06544863  1
  O  O55  1  0.80969272  0.45684734  0.56544863  1
  O  O56  1  0.63908060  0.15012647  0.74808459  1
  O  O57  1  0.59795813  0.60900399  0.24808459  1
  O  O58  1  0.13908060  0.24808459  0.65012647  1
  O  O59  1  0.40204187  0.01104586  0.15012647  1
  O  O60  1  0.36091940  0.84987353  0.25191541  1
  O  O61  1  0.40204187  0.39099601  0.75191541  1
  O  O62  1  0.86091940  0.75191541  0.34987353  1
  O  O63  1  0.59795813  0.98895414  0.84987353  1
  O  O64  1  0.90204187  0.65012647  0.51104586  1
  O  O65  1  0.86091940  0.10900399  0.01104586  1
  O  O66  1  0.09795813  0.74808459  0.10900399  1
  O  O67  1  0.36091940  0.51104586  0.60900399  1
  O  O68  1  0.09795813  0.34987353  0.48895414  1
  O  O69  1  0.13908060  0.89099601  0.98895414  1
  O  O70  1  0.90204187  0.25191541  0.89099601  1
  O  O71  1  0.63908060  0.48895414  0.39099601  1
