# generated using pymatgen
data_ErAlSi
_symmetry_space_group_name_H-M   'P 1'
_cell_length_a   4.07845020
_cell_length_b   4.07845020
_cell_length_c   7.78767782
_cell_angle_alpha   74.81996861
_cell_angle_beta   74.81996861
_cell_angle_gamma   90.00000000
_symmetry_Int_Tables_number   1
_chemical_formula_structural   ErAlSi
_chemical_formula_sum   'Er2 Al2 Si2'
_cell_volume   120.32892266
_cell_formula_units_Z   2
loop_
 _symmetry_equiv_pos_site_id
 _symmetry_equiv_pos_as_xyz
  1  'x, y, z'
loop_
 _atom_site_type_symbol
 _atom_site_label
 _atom_site_symmetry_multiplicity
 _atom_site_fract_x
 _atom_site_fract_y
 _atom_site_fract_z
 _atom_site_occupancy
  Er  Er0  1  0.87636756  0.62636756  0.24726487  1
  Er  Er1  1  0.12636756  0.37636756  0.74726487  1
  Al  Al2  1  0.54182492  0.79182492  0.91635016  1
  Al  Al3  1  0.29182492  0.04182492  0.41635016  1
  Si  Si4  1  0.45680752  0.20680752  0.08638497  1
  Si  Si5  1  0.70680752  0.95680752  0.58638497  1
