# generated using pymatgen
data_CrFeSi2
_symmetry_space_group_name_H-M   'P 1'
_cell_length_a   4.54243296
_cell_length_b   4.53263907
_cell_length_c   4.50016555
_cell_angle_alpha   90.00000000
_cell_angle_beta   90.00000000
_cell_angle_gamma   90.87819735
_symmetry_Int_Tables_number   1
_chemical_formula_structural   CrFeSi2
_chemical_formula_sum   'Cr2 Fe2 Si4'
_cell_volume   92.64396602
_cell_formula_units_Z   2
loop_
 _symmetry_equiv_pos_site_id
 _symmetry_equiv_pos_as_xyz
  1  'x, y, z'
loop_
 _atom_site_type_symbol
 _atom_site_label
 _atom_site_symmetry_multiplicity
 _atom_site_fract_x
 _atom_site_fract_y
 _atom_site_fract_z
 _atom_site_occupancy
  Cr  Cr0  1  0.85561944  0.63007639  0.36251274  1
  Cr  Cr1  1  0.64438056  0.36992361  0.86251274  1
  Fe  Fe2  1  0.36424948  0.85878548  0.63786123  1
  Fe  Fe3  1  0.13575052  0.14121452  0.13786123  1
  Si  Si4  1  0.15901024  0.33607841  0.65437515  1
  Si  Si5  1  0.34098976  0.66392159  0.15437515  1
  Si  Si6  1  0.65179410  0.14500545  0.34525088  1
  Si  Si7  1  0.84820590  0.85499455  0.84525088  1
