# generated using pymatgen
data_Cu3Bi2S3Br2
_symmetry_space_group_name_H-M   'P 1'
_cell_length_a   3.82011139
_cell_length_b   8.18351349
_cell_length_c   30.24706793
_cell_angle_alpha   90.00000000
_cell_angle_beta   90.00000000
_cell_angle_gamma   91.80072273
_symmetry_Int_Tables_number   1
_chemical_formula_structural   Cu3Bi2S3Br2
_chemical_formula_sum   'Cu12 Bi8 S12 Br8'
_cell_volume   945.11485087
_cell_formula_units_Z   4
loop_
 _symmetry_equiv_pos_site_id
 _symmetry_equiv_pos_as_xyz
  1  'x, y, z'
loop_
 _atom_site_type_symbol
 _atom_site_label
 _atom_site_symmetry_multiplicity
 _atom_site_fract_x
 _atom_site_fract_y
 _atom_site_fract_z
 _atom_site_occupancy
  Cu  Cu0  1  0.49995945  0.70786736  0.28072225  1
  Cu  Cu1  1  0.50004055  0.29213264  0.71927775  1
  Cu  Cu2  1  0.50004055  0.79213264  0.78072225  1
  Cu  Cu3  1  0.49995945  0.20786736  0.21927775  1
  Cu  Cu4  1  0.99821031  0.44492747  0.39736486  1
  Cu  Cu5  1  0.00178969  0.55507253  0.60263514  1
  Cu  Cu6  1  0.00178969  0.05507253  0.89736486  1
  Cu  Cu7  1  0.99821031  0.94492747  0.10263514  1
  Cu  Cu8  1  0.99860520  0.90880622  0.22983072  1
  Cu  Cu9  1  0.00139480  0.09119378  0.77016928  1
  Cu  Cu10  1  0.00139480  0.59119378  0.72983072  1
  Cu  Cu11  1  0.99860520  0.40880622  0.27016928  1
  Bi  Bi12  1  0.49610186  0.05905791  0.34896673  1
  Bi  Bi13  1  0.50389814  0.94094209  0.65103327  1
  Bi  Bi14  1  0.50389814  0.44094209  0.84896673  1
  Bi  Bi15  1  0.49610186  0.55905791  0.15103327  1
  Bi  Bi16  1  0.59680047  0.72655164  0.49470876  1
  Bi  Bi17  1  0.40319953  0.77344836  0.99470876  1
  Bi  Bi18  1  0.40319953  0.27344836  0.50529124  1
  Bi  Bi19  1  0.59680047  0.22655164  0.00529124  1
  S  S20  1  0.50248399  0.98412688  0.26219306  1
  S  S21  1  0.49751601  0.01587312  0.73780694  1
  S  S22  1  0.49751601  0.51587312  0.76219306  1
  S  S23  1  0.50248399  0.48412688  0.23780694  1
  S  S24  1  0.49981596  0.47666011  0.43731657  1
  S  S25  1  0.50018404  0.52333989  0.56268343  1
  S  S26  1  0.50018404  0.02333989  0.93731657  1
  S  S27  1  0.49981596  0.97666011  0.06268343  1
  S  S28  1  0.00606001  0.28529634  0.33618425  1
  S  S29  1  0.99393999  0.71470366  0.66381575  1
  S  S30  1  0.99393999  0.21470366  0.83618425  1
  S  S31  1  0.00606001  0.78529634  0.16381575  1
  Br  Br32  1  0.00153867  0.02786534  0.43676217  1
  Br  Br33  1  0.99846133  0.97213466  0.56323783  1
  Br  Br34  1  0.99846133  0.47213466  0.93676217  1
  Br  Br35  1  0.00153867  0.52786534  0.06323783  1
  Br  Br36  1  0.99746470  0.72241755  0.34241995  1
  Br  Br37  1  0.00253530  0.27758245  0.65758005  1
  Br  Br38  1  0.00253530  0.77758245  0.84241995  1
  Br  Br39  1  0.99746470  0.22241755  0.15758005  1
