# generated using pymatgen
data_DyAlNi4
_symmetry_space_group_name_H-M   'P 1'
_cell_length_a   3.85760260
_cell_length_b   5.02894203
_cell_length_c   5.03065295
_cell_angle_alpha   119.89025991
_cell_angle_beta   90.00000000
_cell_angle_gamma   90.00000000
_symmetry_Int_Tables_number   1
_chemical_formula_structural   DyAlNi4
_chemical_formula_sum   'Dy1 Al1 Ni4'
_cell_volume   84.61128516
_cell_formula_units_Z   1
loop_
 _symmetry_equiv_pos_site_id
 _symmetry_equiv_pos_as_xyz
  1  'x, y, z'
loop_
 _atom_site_type_symbol
 _atom_site_label
 _atom_site_symmetry_multiplicity
 _atom_site_fract_x
 _atom_site_fract_y
 _atom_site_fract_z
 _atom_site_occupancy
  Dy  Dy0  1  -0.00000000  0.99987117  -0.00025125  1
  Al  Al1  1  -0.00000000  0.33338375  0.66668332  1
  Ni  Ni2  1  -0.00000000  0.66661631  0.33327486  1
  Ni  Ni3  1  0.50000000  0.50204369  0.00413272  1
  Ni  Ni4  1  0.50000000  0.50190015  0.49809901  1
  Ni  Ni5  1  0.50000000  0.99608494  0.49806134  1
