# generated using pymatgen
data_Cd4Te5Pb
_symmetry_space_group_name_H-M   'P 1'
_cell_length_a   4.72427582
_cell_length_b   6.76229475
_cell_length_c   12.82926964
_cell_angle_alpha   74.71921735
_cell_angle_beta   79.39011110
_cell_angle_gamma   90.00000000
_symmetry_Int_Tables_number   1
_chemical_formula_structural   Cd4Te5Pb
_chemical_formula_sum   'Cd4 Te5 Pb1'
_cell_volume   388.09727994
_cell_formula_units_Z   1
loop_
 _symmetry_equiv_pos_site_id
 _symmetry_equiv_pos_as_xyz
  1  'x, y, z'
loop_
 _atom_site_type_symbol
 _atom_site_label
 _atom_site_symmetry_multiplicity
 _atom_site_fract_x
 _atom_site_fract_y
 _atom_site_fract_z
 _atom_site_occupancy
  Cd  Cd0  1  0.99391310  0.99625306  0.01217380  1
  Cd  Cd1  1  0.39640583  0.39717783  0.20718834  1
  Cd  Cd2  1  0.80359417  0.80436617  0.39281166  1
  Cd  Cd3  1  0.20608690  0.20842686  0.58782620  1
  Te  Te4  1  0.48984639  0.75055925  0.02030721  1
  Te  Te5  1  0.89884861  0.15537522  0.20230278  1
  Te  Te6  1  0.30115139  0.55767800  0.39769722  1
  Te  Te7  1  0.71015361  0.97086646  0.57969279  1
  Te  Te8  1  0.10000000  0.30357334  0.80000000  1
  Pb  Pb9  1  0.60000000  0.60572380  0.80000000  1
