# generated using pymatgen
data_Ce2ZrO6
_symmetry_space_group_name_H-M   'P 1'
_cell_length_a   3.78490432
_cell_length_b   3.78490432
_cell_length_c   8.48868581
_cell_angle_alpha   77.11833474
_cell_angle_beta   77.11833474
_cell_angle_gamma   90.00000000
_symmetry_Int_Tables_number   1
_chemical_formula_structural   Ce2ZrO6
_chemical_formula_sum   'Ce2 Zr1 O6'
_cell_volume   115.40258861
_cell_formula_units_Z   1
loop_
 _symmetry_equiv_pos_site_id
 _symmetry_equiv_pos_as_xyz
  1  'x, y, z'
loop_
 _atom_site_type_symbol
 _atom_site_label
 _atom_site_symmetry_multiplicity
 _atom_site_fract_x
 _atom_site_fract_y
 _atom_site_fract_z
 _atom_site_occupancy
  Ce  Ce0  1  0.33578013  0.33578013  0.32843873  1
  Ce  Ce1  1  0.66421987  0.66421987  0.67156127  1
  Zr  Zr2  1  0.00000000  0.00000000  0.00000000  1
  O  O3  1  0.92180822  0.42180822  0.15638456  1
  O  O4  1  0.25000000  0.75000000  0.50000000  1
  O  O5  1  0.57819178  0.07819178  0.84361544  1
  O  O6  1  0.42180822  0.92180822  0.15638456  1
  O  O7  1  0.75000000  0.25000000  0.50000000  1
  O  O8  1  0.07819178  0.57819178  0.84361544  1
