# generated using pymatgen
data_Ce2Mn3Al
_symmetry_space_group_name_H-M   'P 1'
_cell_length_a   5.38531540
_cell_length_b   5.38491652
_cell_length_c   8.45171741
_cell_angle_alpha   90.00000000
_cell_angle_beta   90.00000000
_cell_angle_gamma   60.00245015
_symmetry_Int_Tables_number   1
_chemical_formula_structural   Ce2Mn3Al
_chemical_formula_sum   'Ce4 Mn6 Al2'
_cell_volume   212.26404700
_cell_formula_units_Z   2
loop_
 _symmetry_equiv_pos_site_id
 _symmetry_equiv_pos_as_xyz
  1  'x, y, z'
loop_
 _atom_site_type_symbol
 _atom_site_label
 _atom_site_symmetry_multiplicity
 _atom_site_fract_x
 _atom_site_fract_y
 _atom_site_fract_z
 _atom_site_occupancy
  Ce  Ce0  1  0.33359326  0.33320337  0.57096052  1
  Ce  Ce1  1  0.66640674  0.66679663  0.42903948  1
  Ce  Ce2  1  0.66640674  0.66679663  0.07096052  1
  Ce  Ce3  1  0.33359326  0.33320337  0.92903948  1
  Mn  Mn4  1  0.82908155  0.34179704  0.75000000  1
  Mn  Mn5  1  0.34160783  0.82919609  0.75000000  1
  Mn  Mn6  1  0.82908155  0.82912142  0.75000000  1
  Mn  Mn7  1  0.17091845  0.65820296  0.25000000  1
  Mn  Mn8  1  0.65839217  0.17080391  0.25000000  1
  Mn  Mn9  1  0.17091845  0.17087858  0.25000000  1
  Al  Al10  1  -0.00000000  0.00000000  0.50000000  1
  Al  Al11  1  -0.00000000  0.00000000  0.00000000  1
