# generated using pymatgen
data_Cr8Co3NiS16
_symmetry_space_group_name_H-M   'P 1'
_cell_length_a   6.92609128
_cell_length_b   6.92609128
_cell_length_c   11.87914636
_cell_angle_alpha   73.05083585
_cell_angle_beta   90.00000000
_cell_angle_gamma   120.00000000
_symmetry_Int_Tables_number   1
_chemical_formula_structural   Cr8Co3NiS16
_chemical_formula_sum   'Cr8 Co3 Ni1 S16'
_cell_volume   464.70478036
_cell_formula_units_Z   1
loop_
 _symmetry_equiv_pos_site_id
 _symmetry_equiv_pos_as_xyz
  1  'x, y, z'
loop_
 _atom_site_type_symbol
 _atom_site_label
 _atom_site_symmetry_multiplicity
 _atom_site_fract_x
 _atom_site_fract_y
 _atom_site_fract_z
 _atom_site_occupancy
  Cr  Cr0  1  0.99883299  0.49766599  0.00350102  1
  Cr  Cr1  1  0.49947642  0.49895283  0.50157075  1
  Cr  Cr2  1  0.75139325  0.00278649  0.24853160  1
  Cr  Cr3  1  0.25038611  0.00077223  0.74994499  1
  Cr  Cr4  1  0.75139325  0.50007516  0.24853160  1
  Cr  Cr5  1  0.25038611  0.49966890  0.74994499  1
  Cr  Cr6  1  0.24868191  0.50007516  0.24853160  1
  Cr  Cr7  1  0.74928278  0.49966890  0.74994499  1
  Co  Co8  1  0.81224595  0.12449190  0.56326216  1
  Co  Co9  1  0.18810852  0.87621704  0.43567444  1
  Co  Co10  1  0.68790725  0.87581451  0.93627824  1
  Ni  Ni11  1  0.31228477  0.12456954  0.06314569  1
  S  S12  1  0.87832275  0.25664550  0.36503176  1
  S  S13  1  0.37818248  0.25636497  0.86545255  1
  S  S14  1  0.11750769  0.73501537  0.12822014  1
  S  S15  1  0.61667148  0.73334295  0.62893294  1
  S  S16  1  0.11750769  0.25427217  0.12822014  1
  S  S17  1  0.61667148  0.25439559  0.62893294  1
  S  S18  1  0.63676448  0.25427217  0.12822014  1
  S  S19  1  0.13772411  0.25439559  0.62893294  1
  S  S20  1  0.62219244  0.74438487  0.13342269  1
  S  S21  1  0.12208479  0.74416959  0.63374562  1
  S  S22  1  0.38397334  0.26794668  0.37174839  1
  S  S23  1  0.88214457  0.26428913  0.87226031  1
  S  S24  1  0.38397334  0.74427826  0.37174839  1
  S  S25  1  0.88214457  0.74559513  0.87226031  1
  S  S26  1  0.86030492  0.74427826  0.37174839  1
  S  S27  1  0.36345056  0.74559513  0.87226031  1
