# generated using pymatgen
data_BaLiMg6
_symmetry_space_group_name_H-M   'P 1'
_cell_length_a   7.33483783
_cell_length_b   7.33483717
_cell_length_c   5.17425374
_cell_angle_alpha   90.00000000
_cell_angle_beta   90.00000000
_cell_angle_gamma   126.80239903
_symmetry_Int_Tables_number   1
_chemical_formula_structural   BaLiMg6
_chemical_formula_sum   'Ba1 Li1 Mg6'
_cell_volume   222.89583589
_cell_formula_units_Z   1
loop_
 _symmetry_equiv_pos_site_id
 _symmetry_equiv_pos_as_xyz
  1  'x, y, z'
loop_
 _atom_site_type_symbol
 _atom_site_label
 _atom_site_symmetry_multiplicity
 _atom_site_fract_x
 _atom_site_fract_y
 _atom_site_fract_z
 _atom_site_occupancy
  Ba  Ba0  1  0.29942920  0.20057080  0.75000000  1
  Li  Li1  1  0.13122835  0.36877165  0.25000000  1
  Mg  Mg2  1  0.18993239  0.81108555  0.25000000  1
  Mg  Mg3  1  0.68891445  0.31006761  0.25000000  1
  Mg  Mg4  1  0.69385573  0.80614427  0.25000000  1
  Mg  Mg5  1  0.32734975  0.69581170  0.75000000  1
  Mg  Mg6  1  0.80418830  0.17265025  0.75000000  1
  Mg  Mg7  1  0.86510183  0.63489817  0.75000000  1
