# generated using pymatgen
data_BaTi2Fe4O11
_symmetry_space_group_name_H-M   'P 1'
_cell_length_a   5.93899032
_cell_length_b   5.93165374
_cell_length_c   13.61169972
_cell_angle_alpha   90.09674407
_cell_angle_beta   89.80707185
_cell_angle_gamma   120.04121493
_symmetry_Int_Tables_number   1
_chemical_formula_structural   BaTi2Fe4O11
_chemical_formula_sum   'Ba2 Ti4 Fe8 O22'
_cell_volume   415.09587907
_cell_formula_units_Z   2
loop_
 _symmetry_equiv_pos_site_id
 _symmetry_equiv_pos_as_xyz
  1  'x, y, z'
loop_
 _atom_site_type_symbol
 _atom_site_label
 _atom_site_symmetry_multiplicity
 _atom_site_fract_x
 _atom_site_fract_y
 _atom_site_fract_z
 _atom_site_occupancy
  Ba  Ba0  1  0.66686946  0.33374192  0.75000015  1
  Ba  Ba1  1  0.33313054  0.66625808  0.24999985  1
  Ti  Ti2  1  0.50000000  0.00000000  0.50000000  1
  Ti  Ti3  1  0.50000000  0.50000000  0.50000000  1
  Ti  Ti4  1  0.50000000  0.00000000  -0.00000000  1
  Ti  Ti5  1  -0.00000000  0.50000000  -0.00000000  1
  Fe  Fe6  1  0.66648148  0.33293232  0.25000084  1
  Fe  Fe7  1  0.33351852  0.66706768  0.74999916  1
  Fe  Fe8  1  0.99667482  0.99834627  0.64602355  1
  Fe  Fe9  1  0.00332518  0.00165373  0.35397645  1
  Fe  Fe10  1  0.99834061  0.00165929  0.14602258  1
  Fe  Fe11  1  0.00165939  0.99834071  0.85397742  1
  Fe  Fe12  1  -0.00000000  0.50000000  0.50000000  1
  Fe  Fe13  1  0.50000000  0.50000000  -0.00000000  1
  O  O14  1  0.67190140  0.32835825  0.08079630  1
  O  O15  1  0.32809860  0.67164175  0.91920370  1
  O  O16  1  0.34354207  0.67163733  0.58079621  1
  O  O17  1  0.65645793  0.32836267  0.41920379  1
  O  O18  1  0.15009173  0.30011460  0.74999988  1
  O  O19  1  0.14996467  0.85037960  0.74851696  1
  O  O20  1  0.70038539  0.85044359  0.75148292  1
  O  O21  1  0.84990827  0.69988540  0.25000012  1
  O  O22  1  0.85003533  0.14962040  0.25148304  1
  O  O23  1  0.29961461  0.14955641  0.24851708  1
  O  O24  1  0.81739789  0.65070098  0.57778490  1
  O  O25  1  0.81755175  0.16675372  0.57779720  1
  O  O26  1  0.34918036  0.17464307  0.57758989  1
  O  O27  1  0.18260211  0.34929902  0.42221510  1
  O  O28  1  0.18244825  0.83324628  0.42220280  1
  O  O29  1  0.65081964  0.82535693  0.42241011  1
  O  O30  1  0.16670333  0.34930649  0.07778354  1
  O  O31  1  0.17453483  0.82535350  0.07758991  1
  O  O32  1  0.65080534  0.83325332  0.07779841  1
  O  O33  1  0.83329667  0.65069351  0.92221646  1
  O  O34  1  0.82546517  0.17464650  0.92241009  1
  O  O35  1  0.34919466  0.16674668  0.92220159  1
