# generated using pymatgen
data_CaGdCoO4
_symmetry_space_group_name_H-M   'P 1'
_cell_length_a   5.21425594
_cell_length_b   5.41464515
_cell_length_c   6.38995097
_cell_angle_alpha   90.00000000
_cell_angle_beta   65.92046096
_cell_angle_gamma   90.00000000
_symmetry_Int_Tables_number   1
_chemical_formula_structural   CaGdCoO4
_chemical_formula_sum   'Ca2 Gd2 Co2 O8'
_cell_volume   164.71043168
_cell_formula_units_Z   2
loop_
 _symmetry_equiv_pos_site_id
 _symmetry_equiv_pos_as_xyz
  1  'x, y, z'
loop_
 _atom_site_type_symbol
 _atom_site_label
 _atom_site_symmetry_multiplicity
 _atom_site_fract_x
 _atom_site_fract_y
 _atom_site_fract_z
 _atom_site_occupancy
  Ca  Ca0  1  0.85440974  0.48725403  0.29118052  1
  Ca  Ca1  1  0.64559026  0.98725403  0.70881948  1
  Gd  Gd2  1  0.13674077  0.51869998  0.72651847  1
  Gd  Gd3  1  0.36325923  0.01869998  0.27348153  1
  Co  Co4  1  0.49968647  0.50167783  0.00062706  1
  Co  Co5  1  0.00031353  0.00167783  0.99937294  1
  O  O6  1  0.77290207  0.24868524  0.95159406  1
  O  O7  1  0.72709793  0.74868524  0.04840594  1
  O  O8  1  0.22449614  0.74868524  0.04840594  1
  O  O9  1  0.27550386  0.24868524  0.95159406  1
  O  O10  1  0.66283183  0.55263043  0.67433635  1
  O  O11  1  0.32768143  0.44236725  0.34463714  1
  O  O12  1  0.83716817  0.05263043  0.32566365  1
  O  O13  1  0.17231857  0.94236725  0.65536286  1
