# generated using pymatgen
data_Ca9Y3(CoO6)4
_symmetry_space_group_name_H-M   'P 1'
_cell_length_a   6.35896351
_cell_length_b   6.36598317
_cell_length_c   12.65530567
_cell_angle_alpha   88.25504007
_cell_angle_beta   88.88132969
_cell_angle_gamma   88.97722439
_symmetry_Int_Tables_number   1
_chemical_formula_structural   Ca9Y3(CoO6)4
_chemical_formula_sum   'Ca9 Y3 Co4 O24'
_cell_volume   511.88863260
_cell_formula_units_Z   1
loop_
 _symmetry_equiv_pos_site_id
 _symmetry_equiv_pos_as_xyz
  1  'x, y, z'
loop_
 _atom_site_type_symbol
 _atom_site_label
 _atom_site_symmetry_multiplicity
 _atom_site_fract_x
 _atom_site_fract_y
 _atom_site_fract_z
 _atom_site_occupancy
  Ca  Ca0  1  0.89561084  0.25051695  0.80251665  1
  Ca  Ca1  1  0.24904691  0.60572574  0.44691727  1
  Ca  Ca2  1  0.24485394  0.60772810  0.94660994  1
  Ca  Ca3  1  0.10663571  0.75055826  0.19805322  1
  Ca  Ca4  1  0.10577282  0.74733102  0.69859906  1
  Ca  Ca5  1  0.75225060  0.39488624  0.05098923  1
  Ca  Ca6  1  0.75294191  0.39387340  0.55364650  1
  Ca  Ca7  1  0.39279709  0.10308938  0.37534179  1
  Ca  Ca8  1  0.39400786  0.10502237  0.87395592  1
  Y  Y9  1  0.60740415  0.89428164  0.12580663  1
  Y  Y10  1  0.60482330  0.89443983  0.62509794  1
  Y  Y11  1  0.89339348  0.25241215  0.30252673  1
  Co  Co12  1  0.49553262  0.49656625  0.24887790  1
  Co  Co13  1  0.49787735  0.49805256  0.74931641  1
  Co  Co14  1  0.00304783  0.00260601  0.00094162  1
  Co  Co15  1  0.00154166  0.00196992  0.50157852  1
  O  O16  1  0.57180376  0.20726629  0.21552747  1
  O  O17  1  0.57058899  0.21224902  0.71111674  1
  O  O18  1  0.21430511  0.42596682  0.28162928  1
  O  O19  1  0.22104587  0.42700882  0.78302146  1
  O  O20  1  0.43775198  0.56357341  0.11066137  1
  O  O21  1  0.43705333  0.56705618  0.61021369  1
  O  O22  1  0.05994659  0.93721724  0.36225050  1
  O  O23  1  0.06377486  0.92688799  0.86331442  1
  O  O24  1  0.92125599  0.72887566  0.03552197  1
  O  O25  1  0.92010179  0.72430647  0.53315352  1
  O  O26  1  0.71749541  0.06945218  0.46464666  1
  O  O27  1  0.71765109  0.06864604  0.96883225  1
  O  O28  1  0.43439118  0.78156793  0.28191532  1
  O  O29  1  0.43343720  0.78505906  0.78101561  1
  O  O30  1  0.78128658  0.56757433  0.21613146  1
  O  O31  1  0.77728696  0.58207486  0.71559775  1
  O  O32  1  0.57671210  0.43315055  0.38370056  1
  O  O33  1  0.57228724  0.43995642  0.88431360  1
  O  O34  1  0.93150332  0.06772610  0.14656255  1
  O  O35  1  0.93223377  0.06455864  0.63888921  1
  O  O36  1  0.06560905  0.28290102  0.46459579  1
  O  O37  1  0.07130526  0.27583573  0.97044424  1
  O  O38  1  0.28728691  0.93037184  0.03820378  1
  O  O39  1  0.28634757  0.93165759  0.53796546  1
