# generated using pymatgen
data_VZnPbO5
_symmetry_space_group_name_H-M   'P 1'
_cell_length_a   6.06231583
_cell_length_b   7.85950617
_cell_length_c   9.41839748
_cell_angle_alpha   90.00000000
_cell_angle_beta   90.00000000
_cell_angle_gamma   90.00000000
_symmetry_Int_Tables_number   1
_chemical_formula_structural   VZnPbO5
_chemical_formula_sum   'V4 Zn4 Pb4 O20'
_cell_volume   448.75658271
_cell_formula_units_Z   4
loop_
 _symmetry_equiv_pos_site_id
 _symmetry_equiv_pos_as_xyz
  1  'x, y, z'
loop_
 _atom_site_type_symbol
 _atom_site_label
 _atom_site_symmetry_multiplicity
 _atom_site_fract_x
 _atom_site_fract_y
 _atom_site_fract_z
 _atom_site_occupancy
  V  V0  1  0.74463875  0.36247928  0.06298001  1
  V  V1  1  0.25536125  0.13752072  0.56298001  1
  V  V2  1  0.75536125  0.86247928  0.93701999  1
  V  V3  1  0.24463875  0.63752072  0.43701999  1
  Zn  Zn4  1  0.49987862  0.00106279  0.24834495  1
  Zn  Zn5  1  0.50012138  0.49893721  0.74834495  1
  Zn  Zn6  1  0.00012138  0.50106279  0.75165505  1
  Zn  Zn7  1  -0.00012138  0.99893721  0.25165505  1
  Pb  Pb8  1  0.24120017  0.12828549  0.92963724  1
  Pb  Pb9  1  0.75879983  0.37171451  0.42963724  1
  Pb  Pb10  1  0.25879983  0.62828549  0.07036276  1
  Pb  Pb11  1  0.74120017  0.87171451  0.57036276  1
  O  O12  1  0.75086249  0.18372221  0.17513998  1
  O  O13  1  0.24913751  0.31627779  0.67513998  1
  O  O14  1  0.74913751  0.68372221  0.82486002  1
  O  O15  1  0.25086249  0.81627779  0.32486002  1
  O  O16  1  0.72694963  0.53597509  0.16849946  1
  O  O17  1  0.27305037  0.96402491  0.66849946  1
  O  O18  1  0.77305037  0.03597509  0.83150054  1
  O  O19  1  0.22694963  0.46402491  0.33150054  1
  O  O20  1  0.99607566  0.37916503  0.96316718  1
  O  O21  1  0.00392434  0.12083497  0.46316718  1
  O  O22  1  0.50392434  0.87916503  0.03683282  1
  O  O23  1  0.49607566  0.62083497  0.53683282  1
  O  O24  1  0.50227217  0.36245958  0.95467137  1
  O  O25  1  0.49772783  0.13754042  0.45467137  1
  O  O26  1  0.99772783  0.86245958  0.04532863  1
  O  O27  1  0.00227217  0.63754042  0.54532863  1
  O  O28  1  0.24770537  0.12913600  0.17513153  1
  O  O29  1  0.75229463  0.37086400  0.67513153  1
  O  O30  1  0.25229463  0.62913600  0.82486847  1
  O  O31  1  0.74770537  0.87086400  0.32486847  1
