# generated using pymatgen
data_Cd2TeS
_symmetry_space_group_name_H-M   'P 1'
_cell_length_a   4.44221458
_cell_length_b   4.44228295
_cell_length_c   7.26963530
_cell_angle_alpha   90.00000440
_cell_angle_beta   89.99955643
_cell_angle_gamma   59.99957510
_symmetry_Int_Tables_number   1
_chemical_formula_structural   Cd2TeS
_chemical_formula_sum   'Cd2 Te1 S1'
_cell_volume   124.23591039
_cell_formula_units_Z   1
loop_
 _symmetry_equiv_pos_site_id
 _symmetry_equiv_pos_as_xyz
  1  'x, y, z'
loop_
 _atom_site_type_symbol
 _atom_site_label
 _atom_site_symmetry_multiplicity
 _atom_site_fract_x
 _atom_site_fract_y
 _atom_site_fract_z
 _atom_site_occupancy
  Cd  Cd0  1  0.66664917  0.66667557  0.47354187  1
  Cd  Cd1  1  0.33334820  0.33332586  0.02425522  1
  Te  Te2  1  0.33333187  0.33333380  0.63003809  1
  S  S3  1  0.66667077  0.66666476  0.12016482  1
