# generated using pymatgen
data_Al2Zn(SeS)2
_symmetry_space_group_name_H-M   'P 1'
_cell_length_a   3.78590464
_cell_length_b   6.93530691
_cell_length_c   6.33911108
_cell_angle_alpha   89.56301023
_cell_angle_beta   90.00069554
_cell_angle_gamma   89.99921401
_symmetry_Int_Tables_number   1
_chemical_formula_structural   Al2Zn(SeS)2
_chemical_formula_sum   'Al2 Zn1 Se2 S2'
_cell_volume   166.43746228
_cell_formula_units_Z   1
loop_
 _symmetry_equiv_pos_site_id
 _symmetry_equiv_pos_as_xyz
  1  'x, y, z'
loop_
 _atom_site_type_symbol
 _atom_site_label
 _atom_site_symmetry_multiplicity
 _atom_site_fract_x
 _atom_site_fract_y
 _atom_site_fract_z
 _atom_site_occupancy
  Al  Al0  1  0.49999762  0.83091057  0.47073452  1
  Al  Al1  1  0.49999646  0.15146324  0.03600713  1
  Zn  Zn2  1  0.99999591  0.34636439  0.48105607  1
  Se  Se3  1  0.50000257  0.15648526  0.63762586  1
  Se  Se4  1  0.00000014  0.66983093  0.63728287  1
  S  S5  1  0.99999122  0.33176515  0.11202718  1
  S  S6  1  0.49996608  0.84653045  0.12526638  1
