# generated using pymatgen
data_BaSi(HO2)2
_symmetry_space_group_name_H-M   'P 1'
_cell_length_a   7.22146945
_cell_length_b   7.61251264
_cell_length_c   7.68599243
_cell_angle_alpha   88.77800474
_cell_angle_beta   92.82077418
_cell_angle_gamma   77.76652269
_symmetry_Int_Tables_number   1
_chemical_formula_structural   BaSi(HO2)2
_chemical_formula_sum   'Ba4 Si4 H8 O16'
_cell_volume   412.21288370
_cell_formula_units_Z   4
loop_
 _symmetry_equiv_pos_site_id
 _symmetry_equiv_pos_as_xyz
  1  'x, y, z'
loop_
 _atom_site_type_symbol
 _atom_site_label
 _atom_site_symmetry_multiplicity
 _atom_site_fract_x
 _atom_site_fract_y
 _atom_site_fract_z
 _atom_site_occupancy
  Ba  Ba0  1  0.08498891  0.78913202  0.19565008  1
  Ba  Ba1  1  0.91501109  0.21086798  0.80434992  1
  Ba  Ba2  1  0.40977922  0.70057493  0.69581754  1
  Ba  Ba3  1  0.59022078  0.29942507  0.30418246  1
  Si  Si4  1  0.58299195  0.76127268  0.21804906  1
  Si  Si5  1  0.41700805  0.23872732  0.78195094  1
  Si  Si6  1  0.10669634  0.25414771  0.27265282  1
  Si  Si7  1  0.89330366  0.74585229  0.72734718  1
  H  H8  1  0.76398092  0.59139112  0.00963755  1
  H  H9  1  0.23601908  0.40860888  0.99036245  1
  H  H10  1  0.28939099  0.08900974  0.50070359  1
  H  H11  1  0.71060901  0.91099026  0.49929641  1
  H  H12  1  0.05327907  0.39172709  0.52414322  1
  H  H13  1  0.94672093  0.60827291  0.47585678  1
  H  H14  1  0.39056859  0.95098293  0.99135837  1
  H  H15  1  0.60943141  0.04901707  0.00864163  1
  O  O16  1  0.69585481  0.91527299  0.27471531  1
  O  O17  1  0.30414519  0.08472701  0.72528469  1
  O  O18  1  0.97240345  0.16391681  0.14650196  1
  O  O19  1  0.02759655  0.83608319  0.85349804  1
  O  O20  1  0.73713388  0.58760664  0.13932157  1
  O  O21  1  0.26286612  0.41239336  0.86067843  1
  O  O22  1  0.42672924  0.82861331  0.04174789  1
  O  O23  1  0.57327076  0.17138669  0.95825211  1
  O  O24  1  0.97468824  0.33388246  0.44644907  1
  O  O25  1  0.02531176  0.66611754  0.55355093  1
  O  O26  1  0.20531826  0.40810530  0.19307100  1
  O  O27  1  0.79468174  0.59189470  0.80692900  1
  O  O28  1  0.46611535  0.67444775  0.35746098  1
  O  O29  1  0.53388465  0.32555225  0.64253902  1
  O  O30  1  0.27603949  0.08981743  0.36948242  1
  O  O31  1  0.72396051  0.91018257  0.63051758  1
