# generated using pymatgen
data_BaSr3Cu8(BO3)8
_symmetry_space_group_name_H-M   'P 1'
_cell_length_a   7.05987759
_cell_length_b   9.10371768
_cell_length_c   9.08960780
_cell_angle_alpha   90.00000000
_cell_angle_beta   90.00000000
_cell_angle_gamma   90.00000000
_symmetry_Int_Tables_number   1
_chemical_formula_structural   BaSr3Cu8(BO3)8
_chemical_formula_sum   'Ba1 Sr3 Cu8 B8 O24'
_cell_volume   584.19938669
_cell_formula_units_Z   1
loop_
 _symmetry_equiv_pos_site_id
 _symmetry_equiv_pos_as_xyz
  1  'x, y, z'
loop_
 _atom_site_type_symbol
 _atom_site_label
 _atom_site_symmetry_multiplicity
 _atom_site_fract_x
 _atom_site_fract_y
 _atom_site_fract_z
 _atom_site_occupancy
  Ba  Ba0  1  0.50000000  0.00000000  0.50000000  1
  Sr  Sr1  1  0.50000000  0.50000000  -0.00000000  1
  Sr  Sr2  1  -0.00000000  0.00000000  0.50000000  1
  Sr  Sr3  1  -0.00000000  0.50000000  -0.00000000  1
  Cu  Cu4  1  0.78035915  0.61574322  0.61723492  1
  Cu  Cu5  1  0.27595253  0.11525058  0.11351113  1
  Cu  Cu6  1  0.78035915  0.38425678  0.38276508  1
  Cu  Cu7  1  0.27595253  0.88474942  0.88648887  1
  Cu  Cu8  1  0.21964085  0.61574322  0.38276508  1
  Cu  Cu9  1  0.72404747  0.11525058  0.88648887  1
  Cu  Cu10  1  0.72404747  0.88474942  0.11351113  1
  Cu  Cu11  1  0.21964085  0.38425678  0.61723492  1
  B  B12  1  0.23871964  0.29859067  0.29531873  1
  B  B13  1  0.74560016  0.79530582  0.79768262  1
  B  B14  1  0.23871964  0.70140933  0.70468127  1
  B  B15  1  0.74560016  0.20469418  0.20231738  1
  B  B16  1  0.25439984  0.79530582  0.20231738  1
  B  B17  1  0.76128036  0.29859067  0.70468127  1
  B  B18  1  0.25439984  0.20469418  0.79768262  1
  B  B19  1  0.76128036  0.70140933  0.29531873  1
  O  O20  1  0.25725311  0.33080022  0.14644453  1
  O  O21  1  0.76594074  0.82779740  0.64905889  1
  O  O22  1  0.25725311  0.66919978  0.85355547  1
  O  O23  1  0.76594074  0.17220260  0.35094111  1
  O  O24  1  0.74274689  0.33080022  0.85355547  1
  O  O25  1  0.23405926  0.82779740  0.35094111  1
  O  O26  1  0.74274689  0.66919978  0.14644453  1
  O  O27  1  0.23405926  0.17220260  0.64905889  1
  O  O28  1  0.24305495  0.64638234  0.16870474  1
  O  O29  1  0.75331538  0.14931525  0.67400224  1
  O  O30  1  0.24305495  0.35361766  0.83129526  1
  O  O31  1  0.75331538  0.85068475  0.32599776  1
  O  O32  1  0.75694505  0.64638234  0.83129526  1
  O  O33  1  0.24668462  0.14931525  0.32599776  1
  O  O34  1  0.75694505  0.35361766  0.16870474  1
  O  O35  1  0.24668462  0.85068475  0.67400224  1
  O  O36  1  0.21274223  0.40362927  0.40254621  1
  O  O37  1  0.71051737  0.90118726  0.90108264  1
  O  O38  1  0.21274223  0.59637073  0.59745379  1
  O  O39  1  0.71051737  0.09881274  0.09891736  1
  O  O40  1  0.28948263  0.90118726  0.09891736  1
  O  O41  1  0.78725777  0.40362927  0.59745379  1
  O  O42  1  0.28948263  0.09881274  0.90108264  1
  O  O43  1  0.78725777  0.59637073  0.40254621  1
