# generated using pymatgen
data_BaLa3TiCr3O12
_symmetry_space_group_name_H-M   'P 1'
_cell_length_a   3.96038866
_cell_length_b   5.63143975
_cell_length_c   11.14220982
_cell_angle_alpha   89.99999649
_cell_angle_beta   89.99999505
_cell_angle_gamma   89.99751829
_symmetry_Int_Tables_number   1
_chemical_formula_structural   BaLa3TiCr3O12
_chemical_formula_sum   'Ba1 La3 Ti1 Cr3 O12'
_cell_volume   248.50125242
_cell_formula_units_Z   1
loop_
 _symmetry_equiv_pos_site_id
 _symmetry_equiv_pos_as_xyz
  1  'x, y, z'
loop_
 _atom_site_type_symbol
 _atom_site_label
 _atom_site_symmetry_multiplicity
 _atom_site_fract_x
 _atom_site_fract_y
 _atom_site_fract_z
 _atom_site_occupancy
  Ba  Ba0  1  0.50000000  0.50000000  0.00000000  1
  La  La1  1  0.50000000  0.00000000  0.25666119  1
  La  La2  1  0.50000000  0.50000000  0.50000000  1
  La  La3  1  0.50000000  1.00000000  0.74333881  1
  Ti  Ti4  1  0.00000000  0.00000000  0.00000000  1
  Cr  Cr5  1  1.00000000  0.50000000  0.25004322  1
  Cr  Cr6  1  0.00000000  0.00000000  0.50000000  1
  Cr  Cr7  1  0.00000000  0.50000000  0.74995678  1
  O  O8  1  0.99999077  0.24904530  0.37512557  1
  O  O9  1  0.00000923  0.75095470  0.62487443  1
  O  O10  1  0.00005842  0.23497964  0.87026075  1
  O  O11  1  0.99994158  0.76502036  0.12973925  1
  O  O12  1  0.99999077  0.24904530  0.62487443  1
  O  O13  1  0.99994158  0.76502036  0.87026075  1
  O  O14  1  0.00005842  0.23497964  0.12973925  1
  O  O15  1  0.00000923  0.75095470  0.37512557  1
  O  O16  1  0.50000000  0.00000000  0.50000000  1
  O  O17  1  0.50000000  0.50000000  0.73933219  1
  O  O18  1  0.50000000  0.00000000  0.00000000  1
  O  O19  1  0.50000000  0.50000000  0.26066781  1
