# generated using pymatgen
data_Ba3SrY8(CuO5)4
_symmetry_space_group_name_H-M   'P 1'
_cell_length_a   5.69627614
_cell_length_b   7.23582027
_cell_length_c   12.22070712
_cell_angle_alpha   89.88515954
_cell_angle_beta   90.00000000
_cell_angle_gamma   90.00000000
_symmetry_Int_Tables_number   1
_chemical_formula_structural   Ba3SrY8(CuO5)4
_chemical_formula_sum   'Ba3 Sr1 Y8 Cu4 O20'
_cell_volume   503.70268881
_cell_formula_units_Z   1
loop_
 _symmetry_equiv_pos_site_id
 _symmetry_equiv_pos_as_xyz
  1  'x, y, z'
loop_
 _atom_site_type_symbol
 _atom_site_label
 _atom_site_symmetry_multiplicity
 _atom_site_fract_x
 _atom_site_fract_y
 _atom_site_fract_z
 _atom_site_occupancy
  Ba  Ba0  1  0.25000000  0.93016153  0.90501196  1
  Ba  Ba1  1  0.75000000  0.43139706  0.59389130  1
  Ba  Ba2  1  0.75000000  0.06910584  0.09506709  1
  Sr  Sr3  1  0.25000000  0.57426925  0.40821958  1
  Y  Y4  1  0.25000000  0.10544142  0.57258890  1
  Y  Y5  1  0.25000000  0.39675370  0.07458488  1
  Y  Y6  1  0.75000000  0.89416446  0.42583582  1
  Y  Y7  1  0.75000000  0.60386783  0.92609290  1
  Y  Y8  1  0.25000000  0.38735108  0.78590314  1
  Y  Y9  1  0.25000000  0.11387101  0.28815771  1
  Y  Y10  1  0.75000000  0.61220157  0.21425783  1
  Y  Y11  1  0.75000000  0.88683507  0.71207496  1
  Cu  Cu12  1  0.25000000  0.77901015  0.16294820  1
  Cu  Cu13  1  0.25000000  0.71805178  0.65982343  1
  Cu  Cu14  1  0.75000000  0.21853353  0.83841954  1
  Cu  Cu15  1  0.75000000  0.28187888  0.33967974  1
  O  O16  1  0.25000000  0.42188860  0.59285861  1
  O  O17  1  0.25000000  0.08395241  0.10055780  1
  O  O18  1  0.75000000  0.58117134  0.40156581  1
  O  O19  1  0.75000000  0.91706778  0.89979843  1
  O  O20  1  0.50341624  0.14636504  0.72679079  1
  O  O21  1  0.99778105  0.35656296  0.22962070  1
  O  O22  1  0.00716767  0.84986463  0.27480127  1
  O  O23  1  0.49572411  0.64523606  0.77169755  1
  O  O24  1  0.49283233  0.84986463  0.27480127  1
  O  O25  1  0.00427589  0.64523606  0.77169755  1
  O  O26  1  0.99658376  0.14636504  0.72679079  1
  O  O27  1  0.50221895  0.35656296  0.22962070  1
  O  O28  1  0.99393128  0.33729564  0.93186740  1
  O  O29  1  0.50727569  0.16158729  0.43205557  1
  O  O30  1  0.49362984  0.66322884  0.06788080  1
  O  O31  1  0.00743858  0.83637239  0.56661711  1
  O  O32  1  0.00637016  0.66322884  0.06788080  1
  O  O33  1  0.49256142  0.83637239  0.56661711  1
  O  O34  1  0.50606872  0.33729564  0.93186740  1
  O  O35  1  0.99272431  0.16158729  0.43205557  1
