# generated using pymatgen
data_Ba4Ca4Cu6Hg2O17
_symmetry_space_group_name_H-M   'P 1'
_cell_length_a   5.46171986
_cell_length_b   5.46171986
_cell_length_c   16.48218841
_cell_angle_alpha   80.46294007
_cell_angle_beta   80.46294007
_cell_angle_gamma   90.00000000
_symmetry_Int_Tables_number   1
_chemical_formula_structural   Ba4Ca4Cu6Hg2O17
_chemical_formula_sum   'Ba4 Ca4 Cu6 Hg2 O17'
_cell_volume   477.98230607
_cell_formula_units_Z   1
loop_
 _symmetry_equiv_pos_site_id
 _symmetry_equiv_pos_as_xyz
  1  'x, y, z'
loop_
 _atom_site_type_symbol
 _atom_site_label
 _atom_site_symmetry_multiplicity
 _atom_site_fract_x
 _atom_site_fract_y
 _atom_site_fract_z
 _atom_site_occupancy
  Ba  Ba0  1  0.16244660  0.66244660  0.67510681  1
  Ba  Ba1  1  0.66797219  0.16797219  0.66405562  1
  Ba  Ba2  1  0.33755340  0.83755340  0.32489319  1
  Ba  Ba3  1  0.83202781  0.33202781  0.33594438  1
  Ca  Ca4  1  0.05059882  0.55059882  0.89880236  1
  Ca  Ca5  1  0.55171770  0.05171770  0.89656461  1
  Ca  Ca6  1  0.44940118  0.94940118  0.10119764  1
  Ca  Ca7  1  0.94828230  0.44828230  0.10343539  1
  Cu  Cu8  1  0.09955150  0.09955150  0.80089699  1
  Cu  Cu9  1  0.59955150  0.59955150  0.80089699  1
  Cu  Cu10  1  0.40044850  0.40044850  0.19910301  1
  Cu  Cu11  1  0.90044850  0.90044850  0.19910301  1
  Cu  Cu12  1  0.50000000  0.50000000  -0.00000000  1
  Cu  Cu13  1  0.00000000  0.00000000  -0.00000000  1
  Hg  Hg14  1  0.25000000  0.25000000  0.50000000  1
  Hg  Hg15  1  0.75000000  0.75000000  0.50000000  1
  O  O16  1  0.18563346  0.18563346  0.62873308  1
  O  O17  1  0.68563346  0.68563346  0.62873308  1
  O  O18  1  0.31436654  0.31436654  0.37126692  1
  O  O19  1  0.81436654  0.81436654  0.37126692  1
  O  O20  1  0.34605293  0.84605293  0.80467577  1
  O  O21  1  0.84927130  0.34927130  0.80467577  1
  O  O22  1  0.84927130  0.84605293  0.80467577  1
  O  O23  1  0.34605293  0.34927130  0.80467577  1
  O  O24  1  0.65072870  0.15072870  0.19532423  1
  O  O25  1  0.15394707  0.65394707  0.19532423  1
  O  O26  1  0.15394707  0.15072870  0.19532423  1
  O  O27  1  0.65072870  0.65394707  0.19532423  1
  O  O28  1  0.75000000  0.25000000  -0.00000000  1
  O  O29  1  0.25000000  0.75000000  -0.00000000  1
  O  O30  1  0.25000000  0.25000000  -0.00000000  1
  O  O31  1  0.75000000  0.75000000  -0.00000000  1
  O  O32  1  0.75000000  0.25000000  0.50000000  1
