# generated using pymatgen
data_MnH44C12N8(ClO5)2
_symmetry_space_group_name_H-M   'P 1'
_cell_length_a   9.55911523
_cell_length_b   9.65818753
_cell_length_c   9.74460566
_cell_angle_alpha   119.79443877
_cell_angle_beta   101.17873689
_cell_angle_gamma   93.91995841
_symmetry_Int_Tables_number   1
_chemical_formula_structural   MnH44C12N8(ClO5)2
_chemical_formula_sum   'Mn1 H44 C12 N8 Cl2 O10'
_cell_volume   751.45457596
_cell_formula_units_Z   1
loop_
 _symmetry_equiv_pos_site_id
 _symmetry_equiv_pos_as_xyz
  1  'x, y, z'
loop_
 _atom_site_type_symbol
 _atom_site_label
 _atom_site_symmetry_multiplicity
 _atom_site_fract_x
 _atom_site_fract_y
 _atom_site_fract_z
 _atom_site_occupancy
  Mn  Mn0  1  0.50000000  0.50000000  0.50000000  1
  H  H1  1  0.28782979  0.35360491  0.59752118  1
  H  H2  1  0.71217021  0.64639509  0.40247882  1
  H  H3  1  0.36917511  0.52860883  0.75199890  1
  H  H4  1  0.63082489  0.47139117  0.24800110  1
  H  H5  1  0.37290146  0.17573796  0.22961893  1
  H  H6  1  0.62709854  0.82426204  0.77038107  1
  H  H7  1  0.30825377  0.29328798  0.17292455  1
  H  H8  1  0.69174623  0.70671202  0.82707545  1
  H  H9  1  0.30583415  0.73664402  0.54675912  1
  H  H10  1  0.69416585  0.26335598  0.45324088  1
  H  H11  1  0.36452160  0.70406782  0.39421452  1
  H  H12  1  0.63547840  0.29593218  0.60578548  1
  H  H13  1  0.20095499  0.17302665  0.90507279  1
  H  H14  1  0.79904501  0.82697335  0.09492721  1
  H  H15  1  0.09117635  0.27204200  0.99642567  1
  H  H16  1  0.90882365  0.72795800  0.00357433  1
  H  H17  1  0.16423991  0.12045072  0.59175396  1
  H  H18  1  0.83576009  0.87954928  0.40824604  1
  H  H19  1  0.05226178  0.16090005  0.48139225  1
  H  H20  1  0.94773822  0.83909995  0.51860775  1
  H  H21  1  0.34894848  0.86807790  0.91134810  1
  H  H22  1  0.65105152  0.13192210  0.08865190  1
  H  H23  1  0.50685025  0.87551105  0.05106439  1
  H  H24  1  0.49314975  0.12448895  0.94893561  1
  H  H25  1  0.34937195  0.52403176  0.05504951  1
  H  H26  1  0.65062805  0.47596824  0.94495049  1
  H  H27  1  0.50710454  0.68025625  0.13294358  1
  H  H28  1  0.49289546  0.31974375  0.86705642  1
  H  H29  1  0.34031208  0.00856337  0.39119040  1
  H  H30  1  0.65968792  0.99143663  0.60880960  1
  H  H31  1  0.50226006  0.95674789  0.32486520  1
  H  H32  1  0.49773994  0.04325211  0.67513480  1
  H  H33  1  0.13748000  0.65958844  0.80610016  1
  H  H34  1  0.86252000  0.34041156  0.19389984  1
  H  H35  1  0.13833485  0.51244203  0.86716846  1
  H  H36  1  0.86166515  0.48755797  0.13283154  1
  H  H37  1  0.12894622  0.99830232  0.20349545  1
  H  H38  1  0.87105378  0.00169768  0.79650455  1
  H  H39  1  0.13449867  0.93613996  0.99775396  1
  H  H40  1  0.86550133  0.06386004  0.00224604  1
  H  H41  1  0.12993005  0.80046166  0.28718684  1
  H  H42  1  0.87006995  0.19953834  0.71281316  1
  H  H43  1  0.13384420  0.59354746  0.14296638  1
  H  H44  1  0.86615580  0.40645254  0.85703362  1
  C  C45  1  0.38752087  0.84795729  0.01256957  1
  C  C46  1  0.61247913  0.15204271  0.98743043  1
  C  C47  1  0.38776036  0.65108280  0.09430435  1
  C  C48  1  0.61223964  0.34891720  0.90569565  1
  C  C49  1  0.38282999  0.92860123  0.28781406  1
  C  C50  1  0.61717001  0.07139877  0.71218594  1
  C  C51  1  0.17578778  0.64022350  0.90786188  1
  C  C52  1  0.82421222  0.35977650  0.09213812  1
  C  C53  1  0.17142948  0.91751777  0.10033396  1
  C  C54  1  0.82857052  0.08248223  0.89966604  1
  C  C55  1  0.17136711  0.72092816  0.18257779  1
  C  C56  1  0.82863289  0.27907184  0.81742221  1
  N  N57  1  0.33214516  0.95817738  0.15293793  1
  N  N58  1  0.66785484  0.04182262  0.84706207  1
  N  N59  1  0.33672717  0.67535222  0.95567049  1
  N  N60  1  0.66327283  0.32464778  0.04432951  1
  N  N61  1  0.33224524  0.75743255  0.23610349  1
  N  N62  1  0.66775476  0.24256745  0.76389651  1
  N  N63  1  0.11569913  0.74627856  0.04554502  1
  N  N64  1  0.88430087  0.25372144  0.95445498  1
  Cl  Cl65  1  0.18346365  0.94452993  0.67497160  1
  Cl  Cl66  1  0.81653635  0.05547007  0.32502840  1
  O  O67  1  0.37000964  0.44493580  0.63859406  1
  O  O68  1  0.62999036  0.55506420  0.36140594  1
  O  O69  1  0.37892578  0.29225877  0.26228169  1
  O  O70  1  0.62107422  0.70774123  0.73771831  1
  O  O71  1  0.36222039  0.66759633  0.47376864  1
  O  O72  1  0.63777961  0.33240367  0.52623136  1
  O  O73  1  0.19683622  0.27641692  0.00292224  1
  O  O74  1  0.80316378  0.72358308  0.99707776  1
  O  O75  1  0.15416631  0.19230009  0.54678966  1
  O  O76  1  0.84583369  0.80769991  0.45321034  1
