# generated using pymatgen
data_Ba2Er2Zn8O13
_symmetry_space_group_name_H-M   'P 1'
_cell_length_a   6.42447127
_cell_length_b   6.39516882
_cell_length_c   10.57047112
_cell_angle_alpha   90.00000005
_cell_angle_beta   90.54469709
_cell_angle_gamma   60.15075914
_symmetry_Int_Tables_number   1
_chemical_formula_structural   Ba2Er2Zn8O13
_chemical_formula_sum   'Ba2 Er2 Zn8 O13'
_cell_volume   376.65700358
_cell_formula_units_Z   1
loop_
 _symmetry_equiv_pos_site_id
 _symmetry_equiv_pos_as_xyz
  1  'x, y, z'
loop_
 _atom_site_type_symbol
 _atom_site_label
 _atom_site_symmetry_multiplicity
 _atom_site_fract_x
 _atom_site_fract_y
 _atom_site_fract_z
 _atom_site_occupancy
  Ba  Ba0  1  0.30825366  0.84587317  0.93826364  1
  Ba  Ba1  1  0.66595754  0.16702123  0.50874984  1
  Er  Er2  1  0.36883643  0.81558178  0.37385873  1
  Er  Er3  1  0.66507382  0.16746309  0.85764777  1
  Zn  Zn4  1  0.78652046  0.82211086  0.15330828  1
  Zn  Zn5  1  0.78652046  0.39136868  0.15330828  1
  Zn  Zn6  1  0.16622075  0.16214960  0.66294374  1
  Zn  Zn7  1  0.16622075  0.67162965  0.66294374  1
  Zn  Zn8  1  0.01762628  0.49118686  0.91680523  1
  Zn  Zn9  1  0.00670515  0.49664743  0.42039990  1
  Zn  Zn10  1  0.33912479  0.33043760  0.16647102  1
  Zn  Zn11  1  0.66495175  0.66752412  0.67356891  1
  O  O12  1  0.00476963  0.49761518  0.72983267  1
  O  O13  1  -0.00053700  0.50026850  0.22971059  1
  O  O14  1  0.86393454  0.30634723  0.98290298  1
  O  O15  1  0.86393454  0.82971823  0.98290298  1
  O  O16  1  0.15416995  0.68662610  0.47554549  1
  O  O17  1  0.15416995  0.15920395  0.47554549  1
  O  O18  1  0.50263697  0.00257118  0.24443904  1
  O  O19  1  0.50263697  0.49479185  0.24443904  1
  O  O20  1  0.49942643  0.00391831  0.73368864  1
  O  O21  1  0.49942643  0.49665525  0.73368864  1
  O  O22  1  0.35025900  0.32487050  0.98206168  1
  O  O23  1  0.67327920  0.66336040  0.48697065  1
  O  O24  1  0.99808154  0.00095923  0.73600302  1
