# generated using pymatgen
data_Ba3Nd3Co6O17
_symmetry_space_group_name_H-M   'P 1'
_cell_length_a   8.65017855
_cell_length_b   11.04274276
_cell_length_c   8.87369834
_cell_angle_alpha   108.66693091
_cell_angle_beta   101.58970198
_cell_angle_gamma   107.14799941
_symmetry_Int_Tables_number   1
_chemical_formula_structural   Ba3Nd3Co6O17
_chemical_formula_sum   'Ba6 Nd6 Co12 O34'
_cell_volume   725.37937256
_cell_formula_units_Z   2
loop_
 _symmetry_equiv_pos_site_id
 _symmetry_equiv_pos_as_xyz
  1  'x, y, z'
loop_
 _atom_site_type_symbol
 _atom_site_label
 _atom_site_symmetry_multiplicity
 _atom_site_fract_x
 _atom_site_fract_y
 _atom_site_fract_z
 _atom_site_occupancy
  Ba  Ba0  1  0.58586983  0.58632368  0.24970380  1
  Ba  Ba1  1  0.24788488  0.24728938  0.24732834  1
  Ba  Ba2  1  0.91449312  0.91607793  0.25097481  1
  Ba  Ba3  1  0.75217388  0.75058907  0.74902519  1
  Ba  Ba4  1  0.41878212  0.41937762  0.75267166  1
  Ba  Ba5  1  0.08079617  0.08034232  0.75029620  1
  Nd  Nd6  1  0.92357099  0.42270809  0.27224819  1
  Nd  Nd7  1  0.58038073  0.07897076  0.25716127  1
  Nd  Nd8  1  0.25809814  0.76122806  0.25848203  1
  Nd  Nd9  1  0.08628627  0.58769624  0.74283873  1
  Nd  Nd10  1  0.74309601  0.24395891  0.72775181  1
  Nd  Nd11  1  0.40856786  0.90543794  0.74151797  1
  Co  Co12  1  0.16172910  0.41611190  0.00071801  1
  Co  Co13  1  0.82911117  0.08787225  0.99882590  1
  Co  Co14  1  0.49655056  0.75237110  0.00163024  1
  Co  Co15  1  0.83755583  0.57879475  0.00117410  1
  Co  Co16  1  0.50493790  0.25055510  0.99928199  1
  Co  Co17  1  0.17011544  0.91429490  0.99836976  1
  Co  Co18  1  0.99787434  0.25020002  0.49926028  1
  Co  Co19  1  0.66471320  0.91842366  0.50256408  1
  Co  Co20  1  0.33529799  0.58431536  0.50155005  1
  Co  Co21  1  0.66879266  0.41646698  0.50073972  1
  Co  Co22  1  0.33136801  0.08235064  0.49844995  1
  Co  Co23  1  0.00195380  0.74824334  0.49743592  1
  O  O24  1  0.95783904  0.26487829  0.99919091  1
  O  O25  1  0.64460762  0.94200284  0.99967061  1
  O  O26  1  0.29364936  0.59465639  0.00067141  1
  O  O27  1  0.70882696  0.40178771  0.00080909  1
  O  O28  1  0.37301764  0.07201061  0.99932859  1
  O  O29  1  0.02205938  0.72466416  0.00032939  1
  O  O30  1  0.15333608  0.42113591  0.49995362  1
  O  O31  1  0.82068301  0.09103985  0.50346637  1
  O  O32  1  0.48665240  0.75846435  0.49901846  1
  O  O33  1  0.84598399  0.57562715  0.49653363  1
  O  O34  1  0.51332992  0.24553009  0.50004638  1
  O  O35  1  0.18001460  0.90820265  0.50098154  1
  O  O36  1  0.21241610  0.50559051  0.22911055  1
  O  O37  1  0.88384836  0.17510647  0.23472225  1
  O  O38  1  0.56478199  0.84372365  0.25022199  1
  O  O39  1  0.05986091  0.35523602  0.77416364  1
  O  O40  1  0.72489833  0.01761047  0.76030241  1
  O  O41  1  0.39979770  0.67740607  0.75133087  1
  O  O42  1  0.78281864  0.49156053  0.76527775  1
  O  O43  1  0.45424990  0.16107549  0.77088945  1
  O  O44  1  0.10188501  0.82294335  0.74977801  1
  O  O45  1  0.94176867  0.64905653  0.23969759  1
  O  O46  1  0.60680609  0.31143098  0.22583636  1
  O  O47  1  0.26686830  0.98925993  0.24866913  1
  O  O48  1  0.65159711  0.67319024  0.00070888  1
  O  O49  1  0.33333300  0.33333300  0.00000000  1
  O  O50  1  0.01506989  0.99347676  0.99929112  1
  O  O51  1  0.83333300  0.33333300  0.50000000  1
  O  O52  1  0.49721500  0.00267750  0.49799090  1
  O  O53  1  0.16945200  0.66398950  0.50200910  1
  O  O54  1  0.49344832  0.50070102  0.49338193  1
  O  O55  1  0.17321868  0.16596598  0.50661807  1
  O  O56  1  0.83333300  0.83333300  0.50000000  1
  O  O57  1  0.33333300  0.83333300  0.00000000  1
