# generated using pymatgen
data_Ba2NdGaS5
_symmetry_space_group_name_H-M   'P 1'
_cell_length_a   8.22204012
_cell_length_b   8.22204012
_cell_length_c   8.91794119
_cell_angle_alpha   63.31657793
_cell_angle_beta   63.31657793
_cell_angle_gamma   91.48203562
_symmetry_Int_Tables_number   1
_chemical_formula_structural   Ba2NdGaS5
_chemical_formula_sum   'Ba4 Nd2 Ga2 S10'
_cell_volume   461.33923275
_cell_formula_units_Z   2
loop_
 _symmetry_equiv_pos_site_id
 _symmetry_equiv_pos_as_xyz
  1  'x, y, z'
loop_
 _atom_site_type_symbol
 _atom_site_label
 _atom_site_symmetry_multiplicity
 _atom_site_fract_x
 _atom_site_fract_y
 _atom_site_fract_z
 _atom_site_occupancy
  Ba  Ba0  1  0.25000000  0.25000000  0.50000000  1
  Ba  Ba1  1  0.75000000  0.75000000  0.50000000  1
  Ba  Ba2  1  0.84166849  0.65833151  -0.00000000  1
  Ba  Ba3  1  0.15833151  0.34166849  -0.00000000  1
  Nd  Nd4  1  0.66640770  0.16640770  0.00000000  1
  Nd  Nd5  1  0.33359230  0.83359230  1.00000000  1
  Ga  Ga6  1  0.75239216  0.25239216  0.49521567  1
  Ga  Ga7  1  0.24760784  0.74760784  0.50478433  1
  S  S8  1  0.22272985  0.00068091  0.27658923  1
  S  S9  1  0.50068091  0.72272985  0.27658923  1
  S  S10  1  0.01191966  0.51191966  0.29202036  1
  S  S11  1  0.69605997  0.19605997  0.29202036  1
  S  S12  1  0.77727015  -0.00068091  0.72341077  1
  S  S13  1  0.49931909  0.27727015  0.72341077  1
  S  S14  1  0.98808034  0.48808034  0.70797964  1
  S  S15  1  0.30394003  0.80394003  0.70797964  1
  S  S16  1  0.50000000  0.50000000  -0.00000000  1
  S  S17  1  0.00000000  0.00000000  -0.00000000  1
