# generated using pymatgen
data_BaCa(Fe12O19)2
_symmetry_space_group_name_H-M   'P 1'
_cell_length_a   6.00964215
_cell_length_b   6.00952697
_cell_length_c   23.33094901
_cell_angle_alpha   90.00000000
_cell_angle_beta   90.00000000
_cell_angle_gamma   60.00011857
_symmetry_Int_Tables_number   1
_chemical_formula_structural   BaCa(Fe12O19)2
_chemical_formula_sum   'Ba1 Ca1 Fe24 O38'
_cell_volume   729.71362563
_cell_formula_units_Z   1
loop_
 _symmetry_equiv_pos_site_id
 _symmetry_equiv_pos_as_xyz
  1  'x, y, z'
loop_
 _atom_site_type_symbol
 _atom_site_label
 _atom_site_symmetry_multiplicity
 _atom_site_fract_x
 _atom_site_fract_y
 _atom_site_fract_z
 _atom_site_occupancy
  Ba  Ba0  1  0.66662546  0.66663881  0.75000000  1
  Ca  Ca1  1  0.33342490  0.33379278  0.25000000  1
  Fe  Fe2  1  0.16843900  0.66333357  0.38861193  1
  Fe  Fe3  1  0.66346582  0.16824362  0.38861729  1
  Fe  Fe4  1  0.16836433  0.16832851  0.38862134  1
  Fe  Fe5  1  0.83182427  0.33607200  0.60740114  1
  Fe  Fe6  1  0.33591543  0.83201221  0.60740177  1
  Fe  Fe7  1  0.83190625  0.83193968  0.60739699  1
  Fe  Fe8  1  0.83182427  0.33607200  0.89259886  1
  Fe  Fe9  1  0.33591543  0.83201221  0.89259823  1
  Fe  Fe10  1  0.83190625  0.83193968  0.89260301  1
  Fe  Fe11  1  0.16843900  0.66333357  0.11138807  1
  Fe  Fe12  1  0.66346582  0.16824362  0.11138271  1
  Fe  Fe13  1  0.16836433  0.16832851  0.11137866  1
  Fe  Fe14  1  0.33328067  0.33336453  0.52621018  1
  Fe  Fe15  1  0.66674404  0.66666161  0.47030286  1
  Fe  Fe16  1  0.66674404  0.66666161  0.02969714  1
  Fe  Fe17  1  0.33328067  0.33336453  0.97378982  1
  Fe  Fe18  1  0.00004626  0.00002298  0.49770808  1
  Fe  Fe19  1  0.00004626  0.00002298  0.00229192  1
  Fe  Fe20  1  0.33325608  0.33331281  0.68994895  1
  Fe  Fe21  1  0.66675184  0.66667761  0.30824632  1
  Fe  Fe22  1  0.66675184  0.66667761  0.19175368  1
  Fe  Fe23  1  0.33325608  0.33331281  0.81005105  1
  Fe  Fe24  1  -0.00005998  0.99996275  0.75000000  1
  Fe  Fe25  1  0.00004736  0.00000393  0.25000000  1
  O  O26  1  0.50374305  0.99233603  0.64863168  1
  O  O27  1  0.99222047  0.50381280  0.64862818  1
  O  O28  1  0.50371003  0.50386594  0.64863443  1
  O  O29  1  0.49198551  0.01611497  0.34605987  1
  O  O30  1  0.01637212  0.49186000  0.34603064  1
  O  O31  1  0.49193524  0.49174131  0.34601109  1
  O  O32  1  0.49198551  0.01611497  0.15394013  1
  O  O33  1  0.01637212  0.49186000  0.15396936  1
  O  O34  1  0.49193524  0.49174131  0.15398891  1
  O  O35  1  0.50374305  0.99233603  0.85136832  1
  O  O36  1  0.99222047  0.50381280  0.85137182  1
  O  O37  1  0.50371003  0.50386594  0.85136557  1
  O  O38  1  0.99989162  -0.00000033  0.65082160  1
  O  O39  1  0.00009514  0.99999693  0.34642644  1
  O  O40  1  0.00009514  0.99999693  0.15357356  1
  O  O41  1  0.99989162  -0.00000033  0.84917840  1
  O  O42  1  0.18266565  0.63439244  0.75000000  1
  O  O43  1  0.63438992  0.18276320  0.75000000  1
  O  O44  1  0.18276597  0.18271206  0.75000000  1
  O  O45  1  0.81733868  0.36567282  0.25000000  1
  O  O46  1  0.36557687  0.81716089  0.25000000  1
  O  O47  1  0.81727560  0.81749257  0.25000000  1
  O  O48  1  0.33340031  0.33333082  0.44306210  1
  O  O49  1  0.66657755  0.66667180  0.55352989  1
  O  O50  1  0.66657755  0.66667180  0.94647011  1
  O  O51  1  0.33340031  0.33333082  0.05693790  1
  O  O52  1  0.15489619  0.69006911  0.55094604  1
  O  O53  1  0.69000921  0.15495776  0.55093859  1
  O  O54  1  0.15491508  0.15499274  0.55094964  1
  O  O55  1  0.84424479  0.31162493  0.44471414  1
  O  O56  1  0.31168179  0.84416649  0.44472303  1
  O  O57  1  0.84430269  0.84419343  0.44471721  1
  O  O58  1  0.84424479  0.31162493  0.05528586  1
  O  O59  1  0.31168179  0.84416649  0.05527697  1
  O  O60  1  0.84430269  0.84419343  0.05528279  1
  O  O61  1  0.15489619  0.69006911  0.94905396  1
  O  O62  1  0.69000921  0.15495776  0.94906141  1
  O  O63  1  0.15491508  0.15499274  0.94905036  1
