# generated using pymatgen
data_Ba3LaV3O12
_symmetry_space_group_name_H-M   'P 1'
_cell_length_a   5.76645709
_cell_length_b   9.69917751
_cell_length_c   11.46887964
_cell_angle_alpha   94.24694175
_cell_angle_beta   104.56012402
_cell_angle_gamma   90.00000103
_symmetry_Int_Tables_number   1
_chemical_formula_structural   Ba3LaV3O12
_chemical_formula_sum   'Ba6 La2 V6 O24'
_cell_volume   619.03255947
_cell_formula_units_Z   2
loop_
 _symmetry_equiv_pos_site_id
 _symmetry_equiv_pos_as_xyz
  1  'x, y, z'
loop_
 _atom_site_type_symbol
 _atom_site_label
 _atom_site_symmetry_multiplicity
 _atom_site_fract_x
 _atom_site_fract_y
 _atom_site_fract_z
 _atom_site_occupancy
  Ba  Ba0  1  0.33818724  0.32488861  0.67637548  1
  Ba  Ba1  1  0.99612177  0.01373764  0.99224354  1
  Ba  Ba2  1  0.66745937  0.65991637  0.33491773  1
  Ba  Ba3  1  0.19863582  0.99417088  0.39727264  1
  Ba  Ba4  1  0.86274955  0.66216440  0.72549910  1
  Ba  Ba5  1  0.80431455  0.01035657  0.60862811  1
  La  La6  1  0.48504940  0.63429967  0.97009979  1
  La  La7  1  0.12237790  0.33216764  0.24475580  1
  V  V8  1  0.39678631  0.98082182  0.79357362  1
  V  V9  1  0.06227490  0.66163632  0.12454980  1
  V  V10  1  0.72601025  0.32146889  0.45201950  1
  V  V11  1  0.26600779  0.66504982  0.53201658  1
  V  V12  1  0.94522644  0.36226236  0.89045288  1
  V  V13  1  0.60284914  0.01481763  0.20569728  1
  O  O14  1  0.01902465  0.77115660  0.52153745  1
  O  O15  1  0.69083273  0.46726392  0.86511458  1
  O  O16  1  0.34521693  0.11385902  0.20056944  1
  O  O17  1  0.50251280  0.77115660  0.52153745  1
  O  O18  1  0.17428285  0.46726392  0.86511458  1
  O  O19  1  0.85535150  0.11385902  0.20056944  1
  O  O20  1  0.33801184  0.60588367  0.67602367  1
  O  O21  1  0.01697604  0.30046949  0.03395108  1
  O  O22  1  0.67365991  0.94962149  0.34732081  1
  O  O23  1  0.65499446  0.88246459  0.80931903  1
  O  O24  1  0.31776956  0.56029309  0.13402524  1
  O  O25  1  0.98381484  0.22153620  0.47399493  1
  O  O26  1  0.15432558  0.88246459  0.80931903  1
  O  O27  1  0.81625469  0.56029309  0.13402524  1
  O  O28  1  0.49018009  0.22153620  0.47399493  1
  O  O29  1  0.32428472  0.04560375  0.64856844  1
  O  O30  1  0.99153906  0.72397334  0.98307911  1
  O  O31  1  0.65387453  0.38013522  0.30774905  1
  O  O32  1  0.77924892  0.46036886  0.55849883  1
  O  O33  1  0.44954220  0.11706263  0.89908441  1
  O  O34  1  0.11832481  0.79102189  0.23664863  1
  O  O35  1  0.89110716  0.22531018  0.78221531  1
  O  O36  1  0.54820700  0.87191643  0.09641401  1
  O  O37  1  0.20622572  0.53176059  0.41245044  1
