# generated using pymatgen
data_BaCa2Tm10O18
_symmetry_space_group_name_H-M   'P 1'
_cell_length_a   3.34108335
_cell_length_b   17.62517043
_cell_length_c   17.61012727
_cell_angle_alpha   60.04974665
_cell_angle_beta   89.97168550
_cell_angle_gamma   90.00864304
_symmetry_Int_Tables_number   1
_chemical_formula_structural   BaCa2Tm10O18
_chemical_formula_sum   'Ba2 Ca4 Tm20 O36'
_cell_volume   898.52703278
_cell_formula_units_Z   2
loop_
 _symmetry_equiv_pos_site_id
 _symmetry_equiv_pos_as_xyz
  1  'x, y, z'
loop_
 _atom_site_type_symbol
 _atom_site_label
 _atom_site_symmetry_multiplicity
 _atom_site_fract_x
 _atom_site_fract_y
 _atom_site_fract_z
 _atom_site_occupancy
  Ba  Ba0  1  0.34135255  0.33577638  0.33060586  1
  Ba  Ba1  1  0.84250666  0.66728899  0.66892574  1
  Ca  Ca2  1  0.78461486  0.67450388  0.32873492  1
  Ca  Ca3  1  0.78401690  0.99440424  0.67469998  1
  Ca  Ca4  1  0.78259935  0.33271572  0.99429265  1
  Ca  Ca5  1  0.28354151  0.67211890  0.00361263  1
  Tm  Tm6  1  0.28630390  0.43665670  0.77945393  1
  Tm  Tm7  1  0.28578939  0.78363932  0.43742236  1
  Tm  Tm8  1  0.28625590  0.77960942  0.78594158  1
  Tm  Tm9  1  0.78655353  0.56590914  0.22022831  1
  Tm  Tm10  1  0.78665994  0.21388375  0.56433522  1
  Tm  Tm11  1  0.78710073  0.22198873  0.21317772  1
  Tm  Tm12  1  0.28126116  0.10189701  0.44634889  1
  Tm  Tm13  1  0.28028126  0.45317223  0.10032918  1
  Tm  Tm14  1  0.28062116  0.44785131  0.45058300  1
  Tm  Tm15  1  0.77877869  0.89894493  0.55236323  1
  Tm  Tm16  1  0.78109481  0.54881469  0.89988013  1
  Tm  Tm17  1  0.77868772  0.55244679  0.54910083  1
  Tm  Tm18  1  0.28234857  0.76843790  0.11708184  1
  Tm  Tm19  1  0.28105888  0.11054682  0.76917536  1
  Tm  Tm20  1  0.28065651  0.11908999  0.11078411  1
  Tm  Tm21  1  0.78253206  0.23235738  0.88166194  1
  Tm  Tm22  1  0.78298070  0.88452443  0.23260913  1
  Tm  Tm23  1  0.78171606  0.88141955  0.88636606  1
  Tm  Tm24  1  0.28630903  0.32282384  0.67183389  1
  Tm  Tm25  1  0.28598217  0.00435907  0.32233384  1
  O  O26  1  0.28309179  0.78341384  0.31272381  1
  O  O27  1  0.28316684  0.90843693  0.77952590  1
  O  O28  1  0.28251928  0.31070202  0.90526487  1
  O  O29  1  0.78472564  0.22764286  0.68424034  1
  O  O30  1  0.78466605  0.08809291  0.22637190  1
  O  O31  1  0.78321688  0.68766243  0.09373563  1
  O  O32  1  0.28629517  0.30501474  0.50857804  1
  O  O33  1  0.28641067  0.18759168  0.30408445  1
  O  O34  1  0.28612593  0.50081054  0.19486860  1
  O  O35  1  0.78501118  0.69581868  0.49678663  1
  O  O36  1  0.78581144  0.80836215  0.69399404  1
  O  O37  1  0.78590230  0.49444973  0.80909378  1
  O  O38  1  0.28222408  0.44673770  0.97497943  1
  O  O39  1  0.28006039  0.57448212  0.45052670  1
  O  O40  1  0.28035325  0.97706418  0.57329915  1
  O  O41  1  0.78211718  0.55106097  0.02577688  1
  O  O42  1  0.77968905  0.41649208  0.56160950  1
  O  O43  1  0.78096464  0.02355546  0.41526655  1
  O  O44  1  0.28335281  0.97631028  0.19601961  1
  O  O45  1  0.28162169  0.84159300  0.97468920  1
  O  O46  1  0.28282412  0.19500819  0.82810072  1
  O  O47  1  0.78116326  0.02608077  0.81948570  1
  O  O48  1  0.78118884  0.15160484  0.02470262  1
  O  O49  1  0.78236644  0.81864560  0.15751839  1
  O  O50  1  0.28440876  0.63703638  0.81842417  1
  O  O51  1  0.28103852  0.54097284  0.63873120  1
  O  O52  1  0.28092955  0.82139659  0.54055908  1
  O  O53  1  0.78343987  0.36096376  0.18141681  1
  O  O54  1  0.78265838  0.45574036  0.36485024  1
  O  O55  1  0.78351668  0.17945254  0.45707808  1
  O  O56  1  0.28396353  0.11355686  0.63927342  1
  O  O57  1  0.28411114  0.24661109  0.11188337  1
  O  O58  1  0.28392759  0.63683056  0.25210500  1
  O  O59  1  0.78298167  0.89539958  0.36162849  1
  O  O60  1  0.78335428  0.74959394  0.88712949  1
  O  O61  1  0.78319707  0.36063069  0.74379591  1
