# generated using pymatgen
data_BaCa2Er10O18
_symmetry_space_group_name_H-M   'P 1'
_cell_length_a   3.35915701
_cell_length_b   17.70440730
_cell_length_c   17.69088567
_cell_angle_alpha   59.96796875
_cell_angle_beta   89.98172476
_cell_angle_gamma   89.97326905
_symmetry_Int_Tables_number   1
_chemical_formula_structural   BaCa2Er10O18
_chemical_formula_sum   'Ba2 Ca4 Er20 O36'
_cell_volume   910.85990742
_cell_formula_units_Z   2
loop_
 _symmetry_equiv_pos_site_id
 _symmetry_equiv_pos_as_xyz
  1  'x, y, z'
loop_
 _atom_site_type_symbol
 _atom_site_label
 _atom_site_symmetry_multiplicity
 _atom_site_fract_x
 _atom_site_fract_y
 _atom_site_fract_z
 _atom_site_occupancy
  Ba  Ba0  1  0.29948260  0.33595069  0.33353039  1
  Ba  Ba1  1  0.25092930  0.99730608  0.00320038  1
  Ca  Ca2  1  0.75132151  0.67030110  0.34418042  1
  Ca  Ca3  1  0.25389462  0.33160153  0.66410641  1
  Ca  Ca4  1  0.25241047  0.00259816  0.33017629  1
  Ca  Ca5  1  0.25410465  0.66539682  0.00643284  1
  Er  Er6  1  0.25089469  0.43239477  0.77929604  1
  Er  Er7  1  0.25101301  0.78568565  0.43293766  1
  Er  Er8  1  0.25103434  0.77993783  0.78683943  1
  Er  Er9  1  0.75897347  0.56753678  0.22260805  1
  Er  Er10  1  0.75989456  0.21225253  0.56605574  1
  Er  Er11  1  0.75846952  0.22292320  0.21171444  1
  Er  Er12  1  0.25394650  0.76787314  0.12136213  1
  Er  Er13  1  0.25360021  0.11124619  0.76928490  1
  Er  Er14  1  0.25348057  0.11913407  0.11231523  1
  Er  Er15  1  0.75195120  0.22719760  0.88235801  1
  Er  Er16  1  0.75185405  0.88743360  0.23075753  1
  Er  Er17  1  0.75232027  0.88082675  0.89063932  1
  Er  Er18  1  0.25294165  0.10349938  0.44458592  1
  Er  Er19  1  0.25206707  0.45250671  0.10252634  1
  Er  Er20  1  0.25472253  0.44654673  0.45212497  1
  Er  Er21  1  0.75151909  0.89680003  0.54853408  1
  Er  Er22  1  0.75180300  0.55434434  0.89533079  1
  Er  Er23  1  0.75212545  0.55146916  0.55089556  1
  Er  Er24  1  0.75034490  0.98526139  0.67024109  1
  Er  Er25  1  0.75030271  0.34451288  0.98483263  1
  O  O26  1  0.25130313  0.43914976  0.98132273  1
  O  O27  1  0.25244956  0.57287860  0.44650582  1
  O  O28  1  0.25147512  0.98326971  0.57914964  1
  O  O29  1  0.75310896  0.55192024  0.02367406  1
  O  O30  1  0.75497596  0.41881599  0.55291535  1
  O  O31  1  0.75359064  0.02651262  0.42329739  1
  O  O32  1  0.25193566  0.97766976  0.16588365  1
  O  O33  1  0.25226537  0.85582594  0.97583898  1
  O  O34  1  0.25221619  0.16520657  0.85848475  1
  O  O35  1  0.75312271  0.02310584  0.84876383  1
  O  O36  1  0.75306930  0.12775232  0.02433638  1
  O  O37  1  0.75306409  0.85252153  0.12243540  1
  O  O38  1  0.25153432  0.63941389  0.83632655  1
  O  O39  1  0.25188290  0.51799908  0.64040081  1
  O  O40  1  0.25160387  0.84079330  0.52106947  1
  O  O41  1  0.75442743  0.36260851  0.18152993  1
  O  O42  1  0.75844637  0.45253692  0.36148945  1
  O  O43  1  0.75497367  0.18232706  0.45620177  1
  O  O44  1  0.25937564  0.29955533  0.50915182  1
  O  O45  1  0.25798362  0.19187205  0.30037203  1
  O  O46  1  0.25882865  0.50985287  0.18800025  1
  O  O47  1  0.75122160  0.69591853  0.47281748  1
  O  O48  1  0.75103371  0.84187682  0.69424925  1
  O  O49  1  0.75071903  0.46323717  0.84161975  1
  O  O50  1  0.25596866  0.09940556  0.64435192  1
  O  O51  1  0.25528789  0.25771338  0.09993924  1
  O  O52  1  0.25716284  0.64137969  0.25029826  1
  O  O53  1  0.75135726  0.89345854  0.35464934  1
  O  O54  1  0.75129376  0.75474879  0.88869962  1
  O  O55  1  0.75144464  0.35355423  0.75663313  1
  O  O56  1  0.25163221  0.78605345  0.30064911  1
  O  O57  1  0.25120492  0.91783454  0.77825383  1
  O  O58  1  0.25124801  0.30234069  0.91925244  1
  O  O59  1  0.75433048  0.21116907  0.69409762  1
  O  O60  1  0.75397694  0.09626309  0.21194372  1
  O  O61  1  0.75508291  0.69432144  0.09182865  1
