# generated using pymatgen
data_Ca8ScFe7(SiO3)20
_symmetry_space_group_name_H-M   'P 1'
_cell_length_a   6.72085709
_cell_length_b   15.04436166
_cell_length_c   11.90105318
_cell_angle_alpha   103.57730797
_cell_angle_beta   93.02984855
_cell_angle_gamma   93.82279288
_symmetry_Int_Tables_number   1
_chemical_formula_structural   Ca8ScFe7(SiO3)20
_chemical_formula_sum   'Ca8 Sc1 Fe7 Si20 O60'
_cell_volume   1164.18167958
_cell_formula_units_Z   1
loop_
 _symmetry_equiv_pos_site_id
 _symmetry_equiv_pos_as_xyz
  1  'x, y, z'
loop_
 _atom_site_type_symbol
 _atom_site_label
 _atom_site_symmetry_multiplicity
 _atom_site_fract_x
 _atom_site_fract_y
 _atom_site_fract_z
 _atom_site_occupancy
  Ca  Ca0  1  0.83842244  0.10716450  0.04504187  1
  Ca  Ca1  1  0.84158857  0.60796275  0.04872682  1
  Ca  Ca2  1  0.16190446  0.39221407  0.95567812  1
  Ca  Ca3  1  0.16160841  0.89495281  0.95513778  1
  Ca  Ca4  1  0.70695594  0.38534553  0.47873099  1
  Ca  Ca5  1  0.70599429  0.88515209  0.48119924  1
  Ca  Ca6  1  0.29433319  0.11427987  0.51832787  1
  Ca  Ca7  1  0.29378087  0.61464213  0.51845196  1
  Sc  Sc8  1  0.80994270  0.47628069  0.77145163  1
  Fe  Fe9  1  0.93410099  0.20379125  0.34951360  1
  Fe  Fe10  1  0.93491385  0.70446555  0.34966707  1
  Fe  Fe11  1  0.06482060  0.29430478  0.64983279  1
  Fe  Fe12  1  0.06676798  0.79650086  0.65106594  1
  Fe  Fe13  1  0.81025125  0.97572571  0.76961088  1
  Fe  Fe14  1  0.18978638  0.02400616  0.23013493  1
  Fe  Fe15  1  0.18953268  0.52390232  0.22943660  1
  Si  Si16  1  0.88465142  0.33863784  0.16434878  1
  Si  Si17  1  0.88489955  0.83932094  0.16358160  1
  Si  Si18  1  0.11481162  0.16072911  0.83641910  1
  Si  Si19  1  0.11842937  0.66342826  0.83840124  1
  Si  Si20  1  0.78860045  0.09663796  0.55695216  1
  Si  Si21  1  0.78870852  0.59809281  0.55384303  1
  Si  Si22  1  0.21017959  0.40265322  0.44237973  1
  Si  Si23  1  0.21127613  0.90294658  0.44293479  1
  Si  Si24  1  0.65426964  0.35495494  0.94891828  1
  Si  Si25  1  0.65413920  0.85629416  0.94590931  1
  Si  Si26  1  0.34564219  0.14355961  0.05393454  1
  Si  Si27  1  0.34951672  0.64366796  0.05411774  1
  Si  Si28  1  0.68653010  0.00968238  0.28819980  1
  Si  Si29  1  0.68553247  0.50986457  0.28678076  1
  Si  Si30  1  0.30707453  0.49006574  0.71076071  1
  Si  Si31  1  0.31368370  0.99059421  0.71154780  1
  Si  Si32  1  0.57540513  0.26674672  0.68625436  1
  Si  Si33  1  0.57663534  0.76789212  0.68629190  1
  Si  Si34  1  0.42346666  0.23196392  0.31350226  1
  Si  Si35  1  0.42444832  0.73218736  0.31364913  1
  O  O36  1  0.64530929  0.22602255  0.37623926  1
  O  O37  1  0.64594855  0.72631752  0.37696811  1
  O  O38  1  0.35318556  0.27254720  0.62371173  1
  O  O39  1  0.35506549  0.77382791  0.62300090  1
  O  O40  1  0.93786579  0.24913928  0.21222899  1
  O  O41  1  0.93662371  0.74931451  0.21110585  1
  O  O42  1  0.06312036  0.25091603  0.78931061  1
  O  O43  1  0.06756151  0.75314441  0.79022229  1
  O  O44  1  0.87525231  0.07343223  0.25649238  1
  O  O45  1  0.87510799  0.57367947  0.25586761  1
  O  O46  1  0.12027471  0.42532227  0.74191141  1
  O  O47  1  0.12498478  0.92695977  0.74336805  1
  O  O48  1  0.51763546  0.47201273  0.76291371  1
  O  O49  1  0.52693935  0.97299101  0.76201843  1
  O  O50  1  0.47335497  0.02717483  0.23744676  1
  O  O51  1  0.47269248  0.52666538  0.23505823  1
  O  O52  1  0.84988359  0.01621848  0.61761523  1
  O  O53  1  0.85213255  0.51791674  0.61360181  1
  O  O54  1  0.15089098  0.48309475  0.38111809  1
  O  O55  1  0.15125934  0.98329666  0.38183392  1
  O  O56  1  0.92149564  0.09582735  0.85374805  1
  O  O57  1  0.92346191  0.60113275  0.85768804  1
  O  O58  1  0.07675742  0.40372778  0.14594130  1
  O  O59  1  0.07834030  0.90403994  0.14600275  1
  O  O60  1  0.46880113  0.39742452  0.00912141  1
  O  O61  1  0.47030490  0.90013780  0.00668409  1
  O  O62  1  0.52932229  0.09975211  0.99284199  1
  O  O63  1  0.53317387  0.59894553  0.99408409  1
  O  O64  1  0.74471551  0.40164739  0.26080008  1
  O  O65  1  0.74485539  0.90149783  0.26040969  1
  O  O66  1  0.25545046  0.09878105  0.73972789  1
  O  O67  1  0.25189190  0.59869950  0.73942763  1
  O  O68  1  0.58553372  0.27830638  0.82453193  1
  O  O69  1  0.58360292  0.77749095  0.82398575  1
  O  O70  1  0.41640791  0.22218385  0.17570608  1
  O  O71  1  0.41958006  0.72239724  0.17606062  1
  O  O72  1  0.76059852  0.33110711  0.65024075  1
  O  O73  1  0.76349157  0.83336565  0.65312758  1
  O  O74  1  0.23704829  0.16658570  0.34705606  1
  O  O75  1  0.23759427  0.66664023  0.34660524  1
  O  O76  1  0.77586100  0.29706833  0.03351120  1
  O  O77  1  0.77755180  0.80028607  0.03200263  1
  O  O78  1  0.22196775  0.19978914  0.96817922  1
  O  O79  1  0.23102001  0.70142096  0.96852936  1
  O  O80  1  0.61503221  0.15762638  0.62227509  1
  O  O81  1  0.61676049  0.65910309  0.62118000  1
  O  O82  1  0.38401914  0.34096185  0.37843346  1
  O  O83  1  0.38434565  0.84108133  0.37843342  1
  O  O84  1  0.96896962  0.16739524  0.53075429  1
  O  O85  1  0.96905555  0.66910862  0.52838985  1
  O  O86  1  0.03032019  0.33169452  0.46859510  1
  O  O87  1  0.03065180  0.83244452  0.46898373  1
  O  O88  1  0.82729456  0.43005984  0.92228718  1
  O  O89  1  0.82631096  0.93037345  0.91465083  1
  O  O90  1  0.17316016  0.06951704  0.08497005  1
  O  O91  1  0.17504377  0.57021994  0.08484583  1
  O  O92  1  0.67297761  0.03494565  0.43289457  1
  O  O93  1  0.66909030  0.53638840  0.43110898  1
  O  O94  1  0.32367810  0.46512734  0.56656334  1
  O  O95  1  0.32676733  0.96509241  0.56685235  1
