# generated using pymatgen
data_BaFe5Bi4O15
_symmetry_space_group_name_H-M   'P 1'
_cell_length_a   5.65194839
_cell_length_b   12.64305210
_cell_length_c   9.92412911
_cell_angle_alpha   97.90287082
_cell_angle_beta   73.45562214
_cell_angle_gamma   77.08413965
_symmetry_Int_Tables_number   1
_chemical_formula_structural   BaFe5Bi4O15
_chemical_formula_sum   'Ba2 Fe10 Bi8 O30'
_cell_volume   647.06247699
_cell_formula_units_Z   2
loop_
 _symmetry_equiv_pos_site_id
 _symmetry_equiv_pos_as_xyz
  1  'x, y, z'
loop_
 _atom_site_type_symbol
 _atom_site_label
 _atom_site_symmetry_multiplicity
 _atom_site_fract_x
 _atom_site_fract_y
 _atom_site_fract_z
 _atom_site_occupancy
  Ba  Ba0  1  0.52916893  0.84844299  0.08057115  1
  Ba  Ba1  1  0.04181693  0.34844299  0.58057115  1
  Fe  Fe2  1  0.67899348  0.89507136  0.73695740  1
  Fe  Fe3  1  0.28009063  0.10224866  0.33091035  1
  Fe  Fe4  1  0.89110682  0.29279446  0.93064909  1
  Fe  Fe5  1  0.49548252  0.49530868  0.52167565  1
  Fe  Fe6  1  0.08947590  0.69310921  0.12960904  1
  Fe  Fe7  1  0.98753315  0.99530868  0.02167565  1
  Fe  Fe8  1  0.58780585  0.19310921  0.62960904  1
  Fe  Fe9  1  0.18897776  0.39507136  0.23695740  1
  Fe  Fe10  1  0.78675037  0.60224866  0.83091035  1
  Fe  Fe11  1  0.38544962  0.79279446  0.43064909  1
  Bi  Bi12  1  0.16327053  0.04211633  0.64003580  1
  Bi  Bi13  1  0.76634492  0.25054146  0.24002237  1
  Bi  Bi14  1  0.35526843  0.45840120  0.84071828  1
  Bi  Bi15  1  0.94548032  0.65089198  0.44047895  1
  Bi  Bi16  1  0.84561210  0.95840120  0.34071828  1
  Bi  Bi17  1  0.46314875  0.15089198  0.94047895  1
  Bi  Bi18  1  0.65457734  0.54211633  0.14003580  1
  Bi  Bi19  1  0.24309124  0.75054146  0.74002237  1
  O  O20  1  0.19473625  0.54810023  0.20186264  1
  O  O21  1  0.55713119  0.34975695  0.60698002  1
  O  O22  1  0.99317348  0.15122861  0.00719526  1
  O  O23  1  0.39090160  0.94372638  0.39957038  1
  O  O24  1  0.80429333  0.74947328  0.79383599  1
  O  O25  1  0.72757979  0.70950776  0.28393662  1
  O  O26  1  0.13683846  0.52891082  0.69705075  1
  O  O27  1  0.52992366  0.30897987  0.08303306  1
  O  O28  1  0.93744699  0.11390257  0.49118588  1
  O  O29  1  0.31255481  0.91868961  0.87090704  1
  O  O30  1  0.16585416  0.76703325  0.31150597  1
  O  O31  1  0.58770203  0.56028191  0.70658904  1
  O  O32  1  0.95750465  0.36781547  0.11596447  1
  O  O33  1  0.39495480  0.15185952  0.50339191  1
  O  O34  1  0.76865157  0.97780745  0.90336289  1
  O  O35  1  0.44979377  0.65185952  0.00339191  1
  O  O36  1  0.85017809  0.47780745  0.40336289  1
  O  O37  1  0.25560662  0.26703325  0.81150597  1
  O  O38  1  0.64542702  0.06028191  0.20658904  1
  O  O39  1  0.05871542  0.86781547  0.61596447  1
  O  O40  1  0.95746457  0.61390257  0.99118588  1
  O  O41  1  0.39784854  0.41868961  0.37090704  1
  O  O42  1  0.77897584  0.20950776  0.78393662  1
  O  O43  1  0.13719998  0.02891082  0.19705075  1
  O  O44  1  0.57806342  0.80897987  0.58303306  1
  O  O45  1  0.98613184  0.84975695  0.10698002  1
  O  O46  1  0.34840265  0.65122861  0.50719526  1
  O  O47  1  0.76580164  0.44372638  0.89957038  1
  O  O48  1  0.15239741  0.24947328  0.29383599  1
  O  O49  1  0.55530088  0.04810023  0.70186264  1
