# generated using pymatgen
data_Ag15S5I4Br
_symmetry_space_group_name_H-M   'P 1'
_cell_length_a   6.99391320
_cell_length_b   8.55899481
_cell_length_c   10.98724287
_cell_angle_alpha   105.12331136
_cell_angle_beta   72.02611683
_cell_angle_gamma   89.56576007
_symmetry_Int_Tables_number   1
_chemical_formula_structural   Ag15S5I4Br
_chemical_formula_sum   'Ag15 S5 I4 Br1'
_cell_volume   601.15580155
_cell_formula_units_Z   1
loop_
 _symmetry_equiv_pos_site_id
 _symmetry_equiv_pos_as_xyz
  1  'x, y, z'
loop_
 _atom_site_type_symbol
 _atom_site_label
 _atom_site_symmetry_multiplicity
 _atom_site_fract_x
 _atom_site_fract_y
 _atom_site_fract_z
 _atom_site_occupancy
  Ag  Ag0  1  0.27447048  0.24389762  0.86724411  1
  Ag  Ag1  1  0.67852486  0.64586533  0.06418537  1
  Ag  Ag2  1  0.07845174  0.04505595  0.26053949  1
  Ag  Ag3  1  0.47634880  0.44432769  0.46550163  1
  Ag  Ag4  1  0.87676330  0.84532515  0.66680440  1
  Ag  Ag5  1  0.44617705  0.05542846  0.01223105  1
  Ag  Ag6  1  0.84461542  0.45541690  0.21178693  1
  Ag  Ag7  1  0.24284182  0.85815940  0.41309441  1
  Ag  Ag8  1  0.64302510  0.25703636  0.61321249  1
  Ag  Ag9  1  0.04526328  0.66081624  0.81523004  1
  Ag  Ag10  1  0.39517642  0.88595373  0.75031900  1
  Ag  Ag11  1  0.80168329  0.28104498  0.94901210  1
  Ag  Ag12  1  0.19791334  0.68557654  0.14855798  1
  Ag  Ag13  1  0.59966945  0.08497745  0.34694673  1
  Ag  Ag14  1  0.99789334  0.48415210  0.54973854  1
  S  S15  1  0.84458503  0.30494824  0.38387837  1
  S  S16  1  0.24210879  0.70787676  0.58710494  1
  S  S17  1  0.64169614  0.10634461  0.78775666  1
  S  S18  1  0.04228921  0.50700952  0.98570331  1
  S  S19  1  0.44295461  0.90706224  0.18442145  1
  I  I20  1  0.39550366  0.40070877  0.20245687  1
  I  I21  1  0.79507066  0.80025600  0.40089010  1
  I  I22  1  0.19464458  0.19945784  0.60243854  1
  I  I23  1  0.59586727  0.59896217  0.80050448  1
  Br  Br24  1  0.00846234  0.00133995  0.99644102  1
