# generated using pymatgen
data_KHCS2N
_symmetry_space_group_name_H-M   'P 1'
_cell_length_a   6.96362533
_cell_length_b   11.03440093
_cell_length_c   13.26253908
_cell_angle_alpha   90.00000000
_cell_angle_beta   90.00000000
_cell_angle_gamma   90.00000000
_symmetry_Int_Tables_number   1
_chemical_formula_structural   KHCS2N
_chemical_formula_sum   'K8 H8 C8 S16 N8'
_cell_volume   1019.08599389
_cell_formula_units_Z   8
loop_
 _symmetry_equiv_pos_site_id
 _symmetry_equiv_pos_as_xyz
  1  'x, y, z'
loop_
 _atom_site_type_symbol
 _atom_site_label
 _atom_site_symmetry_multiplicity
 _atom_site_fract_x
 _atom_site_fract_y
 _atom_site_fract_z
 _atom_site_occupancy
  K  K0  1  0.80424800  0.55187762  0.14690962  1
  K  K1  1  0.69575200  0.05187762  0.35309038  1
  K  K2  1  0.69575200  0.44812238  0.64690962  1
  K  K3  1  0.80424800  0.94812238  0.85309038  1
  K  K4  1  0.19575200  0.44812238  0.85309038  1
  K  K5  1  0.30424800  0.94812238  0.64690962  1
  K  K6  1  0.30424800  0.55187762  0.35309038  1
  K  K7  1  0.19575200  0.05187762  0.14690962  1
  H  H8  1  0.47747649  0.62772768  0.97473952  1
  H  H9  1  0.02252351  0.12772768  0.52526048  1
  H  H10  1  0.02252351  0.37227232  0.47473952  1
  H  H11  1  0.47747649  0.87227232  0.02526048  1
  H  H12  1  0.52252351  0.37227232  0.02526048  1
  H  H13  1  0.97747649  0.87227232  0.47473952  1
  H  H14  1  0.97747649  0.62772768  0.52526048  1
  H  H15  1  0.52252351  0.12772768  0.97473952  1
  C  C16  1  0.28754669  0.65191656  0.09336545  1
  C  C17  1  0.21245331  0.15191656  0.40663455  1
  C  C18  1  0.21245331  0.34808344  0.59336545  1
  C  C19  1  0.28754669  0.84808344  0.90663455  1
  C  C20  1  0.71245331  0.34808344  0.90663455  1
  C  C21  1  0.78754669  0.84808344  0.59336545  1
  C  C22  1  0.78754669  0.65191656  0.40663455  1
  C  C23  1  0.71245331  0.15191656  0.09336545  1
  S  S24  1  0.29222481  0.49770241  0.11532758  1
  S  S25  1  0.20777519  0.99770241  0.38467242  1
  S  S26  1  0.20777519  0.50229759  0.61532758  1
  S  S27  1  0.29222481  0.00229759  0.88467242  1
  S  S28  1  0.70777519  0.50229759  0.88467242  1
  S  S29  1  0.79222481  0.00229759  0.61532758  1
  S  S30  1  0.79222481  0.49770241  0.38467242  1
  S  S31  1  0.70777519  0.99770241  0.11532758  1
  S  S32  1  0.15111598  0.74981592  0.16041927  1
  S  S33  1  0.34888402  0.24981592  0.33958073  1
  S  S34  1  0.34888402  0.25018408  0.66041927  1
  S  S35  1  0.15111598  0.75018408  0.83958073  1
  S  S36  1  0.84888402  0.25018408  0.83958073  1
  S  S37  1  0.65111598  0.75018408  0.66041927  1
  S  S38  1  0.65111598  0.74981592  0.33958073  1
  S  S39  1  0.84888402  0.24981592  0.16041927  1
  N  N40  1  0.40499169  0.69100355  0.01768723  1
  N  N41  1  0.09500831  0.19100355  0.48231277  1
  N  N42  1  0.09500831  0.30899645  0.51768723  1
  N  N43  1  0.40499169  0.80899645  0.98231277  1
  N  N44  1  0.59500831  0.30899645  0.98231277  1
  N  N45  1  0.90499169  0.80899645  0.51768723  1
  N  N46  1  0.90499169  0.69100355  0.48231277  1
  N  N47  1  0.59500831  0.19100355  0.01768723  1
