# generated using pymatgen
data_YbH7C4O11
_symmetry_space_group_name_H-M   'P 1'
_cell_length_a   8.88828055
_cell_length_b   8.88828055
_cell_length_c   12.99625170
_cell_angle_alpha   90.00000000
_cell_angle_beta   90.00000000
_cell_angle_gamma   90.00000000
_symmetry_Int_Tables_number   1
_chemical_formula_structural   YbH7C4O11
_chemical_formula_sum   'Yb4 H28 C16 O44'
_cell_volume   1026.72378332
_cell_formula_units_Z   4
loop_
 _symmetry_equiv_pos_site_id
 _symmetry_equiv_pos_as_xyz
  1  'x, y, z'
loop_
 _atom_site_type_symbol
 _atom_site_label
 _atom_site_symmetry_multiplicity
 _atom_site_fract_x
 _atom_site_fract_y
 _atom_site_fract_z
 _atom_site_occupancy
  Yb  Yb0  1  0.25000000  0.75000000  0.21028686  1
  Yb  Yb1  1  0.25000000  0.75000000  0.71028686  1
  Yb  Yb2  1  0.75000000  0.25000000  0.78971314  1
  Yb  Yb3  1  0.75000000  0.25000000  0.28971314  1
  H  H4  1  0.25000000  0.25000000  0.97819443  1
  H  H5  1  0.75000000  0.75000000  0.47819443  1
  H  H6  1  0.75000000  0.75000000  0.02180557  1
  H  H7  1  0.25000000  0.25000000  0.52180557  1
  H  H8  1  0.25828265  0.44482973  0.92490617  1
  H  H9  1  0.24171735  0.05517027  0.92490617  1
  H  H10  1  0.94482973  0.74171735  0.42490617  1
  H  H11  1  0.55517027  0.75828265  0.42490617  1
  H  H12  1  0.74171735  0.55517027  0.07509383  1
  H  H13  1  0.75828265  0.94482973  0.07509383  1
  H  H14  1  0.05517027  0.25828265  0.57509383  1
  H  H15  1  0.44482973  0.24171735  0.57509383  1
  H  H16  1  0.18634049  0.43168126  0.04175077  1
  H  H17  1  0.31365951  0.06831874  0.04175077  1
  H  H18  1  0.93168126  0.81365951  0.54175077  1
  H  H19  1  0.56831874  0.68634049  0.54175077  1
  H  H20  1  0.81365951  0.56831874  0.95824923  1
  H  H21  1  0.68634049  0.93168126  0.95824923  1
  H  H22  1  0.06831874  0.18634049  0.45824923  1
  H  H23  1  0.43168126  0.31365951  0.45824923  1
  H  H24  1  0.33134269  0.78280739  0.97449973  1
  H  H25  1  0.16865731  0.71719261  0.97449973  1
  H  H26  1  0.28280739  0.66865731  0.47449973  1
  H  H27  1  0.21719261  0.83134269  0.47449973  1
  H  H28  1  0.66865731  0.21719261  0.02550027  1
  H  H29  1  0.83134269  0.28280739  0.02550027  1
  H  H30  1  0.71719261  0.33134269  0.52550027  1
  H  H31  1  0.78280739  0.16865731  0.52550027  1
  C  C32  1  0.53594608  0.52647097  0.19754671  1
  C  C33  1  0.96405392  0.97352903  0.19754671  1
  C  C34  1  0.02647097  0.46405392  0.69754671  1
  C  C35  1  0.47352903  0.03594608  0.69754671  1
  C  C36  1  0.46405392  0.47352903  0.80245329  1
  C  C37  1  0.03594608  0.02647097  0.80245329  1
  C  C38  1  0.97352903  0.53594608  0.30245329  1
  C  C39  1  0.52647097  0.96405392  0.30245329  1
  C  C40  1  0.45303923  0.47504047  0.30513272  1
  C  C41  1  0.04696077  0.02495953  0.30513272  1
  C  C42  1  0.97504047  0.54696077  0.80513272  1
  C  C43  1  0.52495953  0.95303923  0.80513272  1
  C  C44  1  0.54696077  0.52495953  0.69486728  1
  C  C45  1  0.95303923  0.97504047  0.69486728  1
  C  C46  1  0.02495953  0.45303923  0.19486728  1
  C  C47  1  0.47504047  0.04696077  0.19486728  1
  O  O48  1  0.20347066  0.37810831  0.97445345  1
  O  O49  1  0.29652934  0.12189169  0.97445345  1
  O  O50  1  0.87810831  0.79652934  0.47445345  1
  O  O51  1  0.62189169  0.70347066  0.47445345  1
  O  O52  1  0.79652934  0.62189169  0.02554655  1
  O  O53  1  0.70347066  0.87810831  0.02554655  1
  O  O54  1  0.12189169  0.20347066  0.52554655  1
  O  O55  1  0.37810831  0.29652934  0.52554655  1
  O  O56  1  0.25000000  0.75000000  0.01978323  1
  O  O57  1  0.25000000  0.75000000  0.51978323  1
  O  O58  1  0.75000000  0.25000000  0.98021677  1
  O  O59  1  0.75000000  0.25000000  0.48021677  1
  O  O60  1  0.46498039  0.62104801  0.14641252  1
  O  O61  1  0.03501961  0.87895199  0.14641252  1
  O  O62  1  0.12104801  0.53501961  0.64641252  1
  O  O63  1  0.37895199  0.96498039  0.64641252  1
  O  O64  1  0.53501961  0.37895199  0.85358748  1
  O  O65  1  0.96498039  0.12104801  0.85358748  1
  O  O66  1  0.87895199  0.46498039  0.35358748  1
  O  O67  1  0.62104801  0.03501961  0.35358748  1
  O  O68  1  0.66173336  0.46617092  0.18153615  1
  O  O69  1  0.83826664  0.03382908  0.18153615  1
  O  O70  1  0.96617092  0.33826664  0.68153615  1
  O  O71  1  0.53382908  0.16173336  0.68153615  1
  O  O72  1  0.33826664  0.53382908  0.81846385  1
  O  O73  1  0.16173336  0.96617092  0.81846385  1
  O  O74  1  0.03382908  0.66173336  0.31846385  1
  O  O75  1  0.46617092  0.83826664  0.31846385  1
  O  O76  1  0.51281458  0.36291984  0.34785061  1
  O  O77  1  0.98718542  0.13708016  0.34785061  1
  O  O78  1  0.86291984  0.48718542  0.84785061  1
  O  O79  1  0.63708016  0.01281458  0.84785061  1
  O  O80  1  0.48718542  0.63708016  0.65214939  1
  O  O81  1  0.01281458  0.86291984  0.65214939  1
  O  O82  1  0.13708016  0.51281458  0.15214939  1
  O  O83  1  0.36291984  0.98718542  0.15214939  1
  O  O84  1  0.34335695  0.55381283  0.33133143  1
  O  O85  1  0.15664305  0.94618717  0.33133143  1
  O  O86  1  0.05381283  0.65664305  0.83133143  1
  O  O87  1  0.44618717  0.84335695  0.83133143  1
  O  O88  1  0.65664305  0.44618717  0.66866857  1
  O  O89  1  0.84335695  0.05381283  0.66866857  1
  O  O90  1  0.94618717  0.34335695  0.16866857  1
  O  O91  1  0.55381283  0.15664305  0.16866857  1
