# generated using pymatgen
data_Sr2CuGe2O7
_symmetry_space_group_name_H-M   'P 1'
_cell_length_a   5.28056556
_cell_length_b   8.38505755
_cell_length_c   8.38505755
_cell_angle_alpha   90.00000000
_cell_angle_beta   90.00000000
_cell_angle_gamma   90.00000000
_symmetry_Int_Tables_number   1
_chemical_formula_structural   Sr2CuGe2O7
_chemical_formula_sum   'Sr4 Cu2 Ge4 O14'
_cell_volume   371.27228788
_cell_formula_units_Z   2
loop_
 _symmetry_equiv_pos_site_id
 _symmetry_equiv_pos_as_xyz
  1  'x, y, z'
loop_
 _atom_site_type_symbol
 _atom_site_label
 _atom_site_symmetry_multiplicity
 _atom_site_fract_x
 _atom_site_fract_y
 _atom_site_fract_z
 _atom_site_occupancy
  O  O0  1  0.68757480  0.68055465  0.58635756  1
  O  O1  1  0.68757480  0.31944535  0.41364244  1
  O  O2  1  0.31242520  0.41364244  0.68055465  1
  O  O3  1  0.31242520  0.58635756  0.31944535  1
  O  O4  1  0.68757480  0.91364244  0.81944535  1
  O  O5  1  0.31242520  0.81944535  0.08635756  1
  O  O6  1  0.31242520  0.18055465  0.91364244  1
  O  O7  1  0.68757480  0.08635756  0.18055465  1
  O  O8  1  0.20314712  0.86551270  0.63448730  1
  O  O9  1  0.79685288  0.63448730  0.13448730  1
  O  O10  1  0.67436832  0.00000000  0.50000000  1
  O  O11  1  0.32563168  0.50000000  0.00000000  1
  O  O12  1  0.20314712  0.13448730  0.36551270  1
  O  O13  1  0.79685288  0.36551270  0.86551270  1
  Cu  Cu14  1  0.50000000  0.00000000  0.00000000  1
  Cu  Cu15  1  0.50000000  0.50000000  0.50000000  1
  Ge  Ge16  1  0.53249542  0.85928376  0.64071624  1
  Ge  Ge17  1  0.53249542  0.14071624  0.35928376  1
  Ge  Ge18  1  0.46750458  0.64071624  0.14071624  1
  Ge  Ge19  1  0.46750458  0.35928376  0.85928376  1
  Sr  Sr20  1  0.98909198  0.66526563  0.83473437  1
  Sr  Sr21  1  0.01090802  0.83473437  0.33473437  1
  Sr  Sr22  1  0.01090802  0.16526563  0.66526563  1
  Sr  Sr23  1  0.98909198  0.33473437  0.16526563  1
