# generated using pymatgen
data_Pu5Ru3
_symmetry_space_group_name_H-M   'P 1'
_cell_length_a   5.66909642
_cell_length_b   8.16100251
_cell_length_c   8.16100250
_cell_angle_alpha   83.07113064
_cell_angle_beta   69.67600306
_cell_angle_gamma   69.67600307
_symmetry_Int_Tables_number   1
_chemical_formula_structural   Pu5Ru3
_chemical_formula_sum   'Pu10 Ru6'
_cell_volume   332.02366139
_cell_formula_units_Z   2
loop_
 _symmetry_equiv_pos_site_id
 _symmetry_equiv_pos_as_xyz
  1  'x, y, z'
loop_
 _atom_site_type_symbol
 _atom_site_label
 _atom_site_symmetry_multiplicity
 _atom_site_fract_x
 _atom_site_fract_y
 _atom_site_fract_z
 _atom_site_occupancy
  Ru  Ru0  1  0.85277850  0.50000000  0.79444300  1
  Ru  Ru1  1  0.64722150  0.20555700  0.50000000  1
  Ru  Ru2  1  0.35277850  0.79444300  0.50000000  1
  Ru  Ru3  1  0.14722150  0.50000000  0.20555700  1
  Ru  Ru4  1  0.75000000  0.00000000  0.00000000  1
  Ru  Ru5  1  0.25000000  0.00000000  0.00000000  1
  Pu  Pu6  1  0.28191440  0.13012996  0.30604125  1
  Pu  Pu7  1  0.71808560  0.86987004  0.69395875  1
  Pu  Pu8  1  0.41204435  0.30604125  0.86987004  1
  Pu  Pu9  1  0.58795565  0.69395875  0.13012996  1
  Pu  Pu10  1  0.91204435  0.86987004  0.30604125  1
  Pu  Pu11  1  0.21808560  0.69395875  0.86987004  1
  Pu  Pu12  1  0.78191440  0.30604125  0.13012996  1
  Pu  Pu13  1  0.08795565  0.13012996  0.69395875  1
  Pu  Pu14  1  0.75000000  0.50000000  0.50000000  1
  Pu  Pu15  1  0.25000000  0.50000000  0.50000000  1
