# generated using pymatgen
data_BaNd2FeS5
_symmetry_space_group_name_H-M   'P 1'
_cell_length_a   7.89785391
_cell_length_b   7.89785391
_cell_length_c   8.76646829
_cell_angle_alpha   116.77308126
_cell_angle_beta   116.77308124
_cell_angle_gamma   89.99999994
_symmetry_Int_Tables_number   1
_chemical_formula_structural   BaNd2FeS5
_chemical_formula_sum   'Ba2 Nd4 Fe2 S10'
_cell_volume   421.50237184
_cell_formula_units_Z   2
loop_
 _symmetry_equiv_pos_site_id
 _symmetry_equiv_pos_as_xyz
  1  'x, y, z'
loop_
 _atom_site_type_symbol
 _atom_site_label
 _atom_site_symmetry_multiplicity
 _atom_site_fract_x
 _atom_site_fract_y
 _atom_site_fract_z
 _atom_site_occupancy
  S  S0  1  0.48766246  0.98766246  0.27074623  1
  S  S1  1  0.21691623  0.71691623  0.72925377  1
  S  S2  1  0.51233754  0.01233754  0.72925377  1
  S  S3  1  0.71691623  0.51233754  0.72925377  1
  S  S4  1  0.01233754  0.21691623  0.72925377  1
  S  S5  1  0.28308377  0.48766246  0.27074623  1
  S  S6  1  0.98766246  0.78308377  0.27074623  1
  S  S7  1  0.78308377  0.28308377  0.27074623  1
  S  S8  1  0.00000000  0.00000000  0.00000000  1
  S  S9  1  0.50000000  0.50000000  0.00000000  1
  Fe  Fe10  1  0.75000000  0.25000000  0.50000000  1
  Fe  Fe11  1  0.25000000  0.75000000  0.50000000  1
  Ba  Ba12  1  0.75000000  0.75000000  0.50000000  1
  Ba  Ba13  1  0.25000000  0.25000000  0.50000000  1
  Nd  Nd14  1  0.66190808  0.83809192  0.00000000  1
  Nd  Nd15  1  0.16190808  0.66190808  0.00000000  1
  Nd  Nd16  1  0.83809192  0.33809192  0.00000000  1
  Nd  Nd17  1  0.33809192  0.16190808  0.00000000  1
