# generated using pymatgen
data_SnWO4
_symmetry_space_group_name_H-M   'P 1'
_cell_length_a   5.05096369
_cell_length_b   5.63195667
_cell_length_c   12.07637040
_cell_angle_alpha   90.00001660
_cell_angle_beta   90.00000690
_cell_angle_gamma   90.00001157
_symmetry_Int_Tables_number   1
_chemical_formula_structural   SnWO4
_chemical_formula_sum   'Sn4 W4 O16'
_cell_volume   343.53419788
_cell_formula_units_Z   4
loop_
 _symmetry_equiv_pos_site_id
 _symmetry_equiv_pos_as_xyz
  1  'x, y, z'
loop_
 _atom_site_type_symbol
 _atom_site_label
 _atom_site_symmetry_multiplicity
 _atom_site_fract_x
 _atom_site_fract_y
 _atom_site_fract_z
 _atom_site_occupancy
  O  O0  1  0.10199835  0.59622172  0.10379198  1
  O  O1  1  0.10199829  0.90377829  0.89620802  1
  O  O2  1  0.39800162  0.59622174  0.39620802  1
  O  O3  1  0.39800164  0.90377824  0.60379196  1
  O  O4  1  0.89800165  0.40377828  0.89620802  1
  O  O5  1  0.89800171  0.09622171  0.10379198  1
  O  O6  1  0.60199838  0.40377826  0.60379198  1
  O  O7  1  0.60199836  0.09622176  0.39620804  1
  O  O8  1  0.00190223  0.36080970  0.29542044  1
  O  O9  1  0.00190236  0.13919037  0.70457957  1
  O  O10  1  0.49809760  0.36080958  0.20457960  1
  O  O11  1  0.49809784  0.13919032  0.79542039  1
  O  O12  1  0.99809777  0.63919031  0.70457956  1
  O  O13  1  0.99809764  0.86080963  0.29542043  1
  O  O14  1  0.50190240  0.63919043  0.79542040  1
  O  O15  1  0.50190216  0.86080968  0.20457961  1
  Sn  Sn16  1  0.21632985  0.25000017  -0.00000002  1
  Sn  Sn17  1  0.28367031  0.24999990  0.49999999  1
  Sn  Sn18  1  0.78367015  0.74999983  0.00000002  1
  Sn  Sn19  1  0.71632969  0.75000010  0.50000001  1
  W  W20  1  0.25000002  0.63125477  0.25000000  1
  W  W21  1  0.24999997  0.86874521  0.74999999  1
  W  W22  1  0.74999998  0.36874522  0.75000000  1
  W  W23  1  0.75000003  0.13125479  0.25000001  1
