# generated using pymatgen
data_Sr2PrO4
_symmetry_space_group_name_H-M   'P 1'
_cell_length_a   3.72792035
_cell_length_b   6.28146553
_cell_length_c   10.37433861
_cell_angle_alpha   90.00000000
_cell_angle_beta   90.00000000
_cell_angle_gamma   90.00000000
_symmetry_Int_Tables_number   1
_chemical_formula_structural   Sr2PrO4
_chemical_formula_sum   'Sr4 Pr2 O8'
_cell_volume   242.93384532
_cell_formula_units_Z   2
loop_
 _symmetry_equiv_pos_site_id
 _symmetry_equiv_pos_as_xyz
  1  'x, y, z'
loop_
 _atom_site_type_symbol
 _atom_site_label
 _atom_site_symmetry_multiplicity
 _atom_site_fract_x
 _atom_site_fract_y
 _atom_site_fract_z
 _atom_site_occupancy
  Sr  Sr0  1  0.50000000  0.56498529  0.82330879  1
  Sr  Sr1  1  0.50000000  0.43501471  0.17669121  1
  Sr  Sr2  1  0.50000000  0.06498529  0.67669121  1
  Sr  Sr3  1  0.50000000  0.93501471  0.32330879  1
  Pr  Pr4  1  -0.00000000  0.50000000  0.50000000  1
  Pr  Pr5  1  -0.00000000  -0.00000000  -0.00000000  1
  O  O6  1  -0.00000000  0.35103385  0.70577699  1
  O  O7  1  -0.00000000  0.64896615  0.29422301  1
  O  O8  1  -0.00000000  0.85103385  0.79422301  1
  O  O9  1  0.00000000  0.14896615  0.20577699  1
  O  O10  1  0.50000000  0.73697791  0.54315783  1
  O  O11  1  0.50000000  0.26302209  0.45684217  1
  O  O12  1  0.50000000  0.23697791  0.95684217  1
  O  O13  1  0.50000000  0.76302209  0.04315783  1
