# generated using pymatgen
data_Gd2O3
_symmetry_space_group_name_H-M   'P 1'
_cell_length_a   3.74655631
_cell_length_b   3.74655631
_cell_length_c   5.95228761
_cell_angle_alpha   90.00000000
_cell_angle_beta   90.00000000
_cell_angle_gamma   119.99999994
_symmetry_Int_Tables_number   1
_chemical_formula_structural   Gd2O3
_chemical_formula_sum   'Gd2 O3'
_cell_volume   72.35675272
_cell_formula_units_Z   1
loop_
 _symmetry_equiv_pos_site_id
 _symmetry_equiv_pos_as_xyz
  1  'x, y, z'
loop_
 _atom_site_type_symbol
 _atom_site_label
 _atom_site_symmetry_multiplicity
 _atom_site_fract_x
 _atom_site_fract_y
 _atom_site_fract_z
 _atom_site_occupancy
  O  O0  1  0.00000000  0.00000000  0.00000000  1
  O  O1  1  0.66666667  0.33333333  0.35451733  1
  O  O2  1  0.33333333  0.66666667  0.64548267  1
  Gd  Gd3  1  0.66666667  0.33333333  0.75131336  1
  Gd  Gd4  1  0.33333333  0.66666667  0.24868664  1
