# generated using pymatgen
data_K3Fe(CN)6
_symmetry_space_group_name_H-M   'P 1'
_cell_length_a   8.46244137
_cell_length_b   10.61790422
_cell_length_c   14.24893691
_cell_angle_alpha   90.00000000
_cell_angle_beta   107.21359181
_cell_angle_gamma   90.00000000
_symmetry_Int_Tables_number   1
_chemical_formula_structural   K3Fe(CN)6
_chemical_formula_sum   'K12 Fe4 C24 N24'
_cell_volume   1222.96766881
_cell_formula_units_Z   4
loop_
 _symmetry_equiv_pos_site_id
 _symmetry_equiv_pos_as_xyz
  1  'x, y, z'
loop_
 _atom_site_type_symbol
 _atom_site_label
 _atom_site_symmetry_multiplicity
 _atom_site_fract_x
 _atom_site_fract_y
 _atom_site_fract_z
 _atom_site_occupancy
  K  K0  1  0.99684636  0.48892033  0.74390409  1
  K  K1  1  0.49684636  0.01107967  0.24390409  1
  K  K2  1  0.00315364  0.51107967  0.25609591  1
  K  K3  1  0.50315364  0.98892033  0.75609591  1
  K  K4  1  0.62532597  0.74931734  0.00111916  1
  K  K5  1  0.12532597  0.75068266  0.50111916  1
  K  K6  1  0.37467403  0.25068266  0.99888084  1
  K  K7  1  0.87467403  0.24931734  0.49888084  1
  K  K8  1  0.87604422  0.28199961  0.99966386  1
  K  K9  1  0.37604422  0.21800039  0.49966386  1
  K  K10  1  0.12395578  0.71800039  0.00033614  1
  K  K11  1  0.62395578  0.78199961  0.50033614  1
  Fe  Fe12  1  0.49842836  0.49021111  0.74670937  1
  Fe  Fe13  1  0.99842836  0.00978889  0.24670937  1
  Fe  Fe14  1  0.50157164  0.50978889  0.25329063  1
  Fe  Fe15  1  0.00157164  0.99021111  0.75329063  1
  C  C16  1  0.52811990  0.32716672  0.80649449  1
  C  C17  1  0.02811990  0.17283328  0.30649449  1
  C  C18  1  0.47188010  0.67283328  0.19350551  1
  C  C19  1  0.97188010  0.82716672  0.69350551  1
  C  C20  1  0.70319296  0.54169792  0.83745871  1
  C  C21  1  0.20319296  0.95830208  0.33745871  1
  C  C22  1  0.29680704  0.45830208  0.16254129  1
  C  C23  1  0.79680704  0.04169792  0.66254129  1
  C  C24  1  0.38669110  0.54050495  0.83943332  1
  C  C25  1  0.88669110  0.95949505  0.33943332  1
  C  C26  1  0.61330890  0.45949505  0.16056668  1
  C  C27  1  0.11330890  0.04050495  0.66056668  1
  C  C28  1  0.47063558  0.65401854  0.68821829  1
  C  C29  1  0.97063558  0.84598146  0.18821829  1
  C  C30  1  0.52936442  0.34598146  0.31178171  1
  C  C31  1  0.02936442  0.15401854  0.81178171  1
  C  C32  1  0.29520093  0.43418074  0.65674043  1
  C  C33  1  0.79520093  0.06581926  0.15674043  1
  C  C34  1  0.70479907  0.56581926  0.34325957  1
  C  C35  1  0.20479907  0.93418074  0.84325957  1
  C  C36  1  0.61018465  0.43505742  0.65501798  1
  C  C37  1  0.11018465  0.06494258  0.15501798  1
  C  C38  1  0.38981535  0.56494258  0.34498202  1
  C  C39  1  0.88981535  0.93505742  0.84498202  1
  N  N40  1  0.55042062  0.22939113  0.84730385  1
  N  N41  1  0.05042062  0.27060887  0.34730385  1
  N  N42  1  0.44957938  0.77060887  0.15269615  1
  N  N43  1  0.94957938  0.72939113  0.65269615  1
  N  N44  1  0.83142394  0.57008806  0.89320393  1
  N  N45  1  0.33142394  0.92991194  0.39320393  1
  N  N46  1  0.16857606  0.42991194  0.10679607  1
  N  N47  1  0.66857606  0.07008806  0.60679607  1
  N  N48  1  0.31531464  0.57042542  0.89549343  1
  N  N49  1  0.81531464  0.92957458  0.39549343  1
  N  N50  1  0.68468536  0.42957458  0.10450657  1
  N  N51  1  0.18468536  0.07042542  0.60450657  1
  N  N52  1  0.45106305  0.75394548  0.65071579  1
  N  N53  1  0.95106305  0.74605452  0.15071579  1
  N  N54  1  0.54893695  0.24605452  0.34928421  1
  N  N55  1  0.04893695  0.25394548  0.84928421  1
  N  N56  1  0.16818814  0.39925731  0.60336817  1
  N  N57  1  0.66818814  0.10074269  0.10336817  1
  N  N58  1  0.83181186  0.60074269  0.39663183  1
  N  N59  1  0.33181186  0.89925731  0.89663183  1
  N  N60  1  0.68232518  0.39837151  0.60128184  1
  N  N61  1  0.18232518  0.10162849  0.10128184  1
  N  N62  1  0.31767482  0.60162849  0.39871816  1
  N  N63  1  0.81767482  0.89837151  0.89871816  1
