# generated using pymatgen
data_Er2Cu2O5
_symmetry_space_group_name_H-M   'P 1'
_cell_length_a   3.48875179
_cell_length_b   10.84675181
_cell_length_c   12.48531718
_cell_angle_alpha   90.00000000
_cell_angle_beta   90.00000000
_cell_angle_gamma   90.00000000
_symmetry_Int_Tables_number   1
_chemical_formula_structural   Er2Cu2O5
_chemical_formula_sum   'Er8 Cu8 O20'
_cell_volume   472.46468814
_cell_formula_units_Z   4
loop_
 _symmetry_equiv_pos_site_id
 _symmetry_equiv_pos_as_xyz
  1  'x, y, z'
loop_
 _atom_site_type_symbol
 _atom_site_label
 _atom_site_symmetry_multiplicity
 _atom_site_fract_x
 _atom_site_fract_y
 _atom_site_fract_z
 _atom_site_occupancy
  O  O0  1  0.27448807  0.92179957  0.03050048  1
  O  O1  1  0.72551193  0.07820043  0.53050048  1
  O  O2  1  0.22551193  0.42179957  0.03050048  1
  O  O3  1  0.77448807  0.57820043  0.53050048  1
  O  O4  1  0.72338100  0.93023493  0.23946741  1
  O  O5  1  0.27661900  0.06976507  0.73946741  1
  O  O6  1  0.77661900  0.43023493  0.23946741  1
  O  O7  1  0.22338100  0.56976507  0.73946741  1
  O  O8  1  0.16218645  0.62614141  0.33687111  1
  O  O9  1  0.83781355  0.37385859  0.83687111  1
  O  O10  1  0.33781355  0.12614141  0.33687111  1
  O  O11  1  0.66218645  0.87385859  0.83687111  1
  O  O12  1  0.78312436  0.82336019  0.43660846  1
  O  O13  1  0.21687564  0.17663981  0.93660846  1
  O  O14  1  0.71687564  0.32336019  0.43660846  1
  O  O15  1  0.28312436  0.67663981  0.93660846  1
  O  O16  1  0.27649220  0.82624379  0.64495646  1
  O  O17  1  0.72350780  0.17375621  0.14495646  1
  O  O18  1  0.22350780  0.32624379  0.64495646  1
  O  O19  1  0.77649220  0.67375621  0.14495646  1
  Cu  Cu20  1  0.84584142  0.76336325  0.28433222  1
  Cu  Cu21  1  0.15415858  0.23663675  0.78433222  1
  Cu  Cu22  1  0.65415858  0.26336325  0.28433222  1
  Cu  Cu23  1  0.34584142  0.73663675  0.78433222  1
  Cu  Cu24  1  0.84060174  0.49029383  0.39054717  1
  Cu  Cu25  1  0.15939826  0.50970617  0.89054717  1
  Cu  Cu26  1  0.65939826  0.99029383  0.39054717  1
  Cu  Cu27  1  0.34060174  0.00970617  0.89054717  1
  Er  Er28  1  0.27788885  0.54316125  0.17292307  1
  Er  Er29  1  0.72211115  0.45683875  0.67292307  1
  Er  Er30  1  0.22211115  0.04316125  0.17292307  1
  Er  Er31  1  0.77788885  0.95683875  0.67292307  1
  Er  Er32  1  0.28048268  0.70855462  0.50059362  1
  Er  Er33  1  0.71951732  0.29144538  0.00059362  1
  Er  Er34  1  0.21951732  0.20855462  0.50059362  1
  Er  Er35  1  0.78048268  0.79144538  0.00059362  1
