# generated using pymatgen
data_CaTi4(CuO4)3
_symmetry_space_group_name_H-M   'P 1'
_cell_length_a   7.46006743
_cell_length_b   7.46006743
_cell_length_c   7.46006743
_cell_angle_alpha   90.00094898
_cell_angle_beta   90.00094898
_cell_angle_gamma   90.00094898
_symmetry_Int_Tables_number   1
_chemical_formula_structural   CaTi4(CuO4)3
_chemical_formula_sum   'Ca2 Ti8 Cu6 O24'
_cell_volume   415.17219378
_cell_formula_units_Z   2
loop_
 _symmetry_equiv_pos_site_id
 _symmetry_equiv_pos_as_xyz
  1  'x, y, z'
loop_
 _atom_site_type_symbol
 _atom_site_label
 _atom_site_symmetry_multiplicity
 _atom_site_fract_x
 _atom_site_fract_y
 _atom_site_fract_z
 _atom_site_occupancy
  Ca  Ca0  1  0.50000000  0.50000000  0.50000000  1
  Ca  Ca1  1  0.00000000  0.00000000  0.00000000  1
  Ti  Ti2  1  0.75086786  0.75086786  0.75086786  1
  Ti  Ti3  1  0.75095411  0.25122700  0.74946425  1
  Ti  Ti4  1  0.25053575  0.24904589  0.74877300  1
  Ti  Ti5  1  0.24913214  0.24913214  0.24913214  1
  Ti  Ti6  1  0.24904589  0.74877300  0.25053575  1
  Ti  Ti7  1  0.74877300  0.25053575  0.24904589  1
  Ti  Ti8  1  0.74946425  0.75095411  0.25122700  1
  Ti  Ti9  1  0.25122700  0.74946425  0.75095411  1
  Cu  Cu10  1  0.50000000  0.00000000  0.50000000  1
  Cu  Cu11  1  0.50000000  0.50000000  0.00000000  1
  Cu  Cu12  1  0.00000000  0.00000000  0.50000000  1
  Cu  Cu13  1  0.00000000  0.50000000  0.50000000  1
  Cu  Cu14  1  0.00000000  0.50000000  0.00000000  1
  Cu  Cu15  1  0.50000000  0.00000000  0.00000000  1
  O  O16  1  0.50037536  0.19761040  0.67663780  1
  O  O17  1  0.30247240  0.17669460  0.99965700  1
  O  O18  1  0.49962464  0.80238960  0.32336220  1
  O  O19  1  0.80238960  0.32336220  0.49962464  1
  O  O20  1  0.50033479  0.80321761  0.67797300  1
  O  O21  1  0.30300637  0.82227159  0.00040031  1
  O  O22  1  0.99965700  0.30247240  0.17669460  1
  O  O23  1  0.82227159  0.00040031  0.30300637  1
  O  O24  1  0.32202700  0.49966521  0.19678239  1
  O  O25  1  0.19761040  0.67663780  0.50037536  1
  O  O26  1  0.82330540  0.00034300  0.69752760  1
  O  O27  1  0.49966521  0.19678239  0.32202700  1
  O  O28  1  0.00034300  0.69752760  0.82330540  1
  O  O29  1  0.17669460  0.99965700  0.30247240  1
  O  O30  1  0.67663780  0.50037536  0.19761040  1
  O  O31  1  0.99959969  0.69699363  0.17772841  1
  O  O32  1  0.32336220  0.49962464  0.80238960  1
  O  O33  1  0.00040031  0.30300637  0.82227159  1
  O  O34  1  0.80321761  0.67797300  0.50033479  1
  O  O35  1  0.67797300  0.50033479  0.80321761  1
  O  O36  1  0.69699363  0.17772841  0.99959969  1
  O  O37  1  0.69752760  0.82330540  0.00034300  1
  O  O38  1  0.19678239  0.32202700  0.49966521  1
  O  O39  1  0.17772841  0.99959969  0.69699363  1
