# generated using pymatgen
data_In5Bi3
_symmetry_space_group_name_H-M   'P 1'
_cell_length_a   8.42503266
_cell_length_b   8.42503266
_cell_length_c   8.99298772
_cell_angle_alpha   117.93193573
_cell_angle_beta   117.93193570
_cell_angle_gamma   89.99999996
_symmetry_Int_Tables_number   1
_chemical_formula_structural   In5Bi3
_chemical_formula_sum   'In10 Bi6'
_cell_volume   478.17948230
_cell_formula_units_Z   2
loop_
 _symmetry_equiv_pos_site_id
 _symmetry_equiv_pos_as_xyz
  1  'x, y, z'
loop_
 _atom_site_type_symbol
 _atom_site_label
 _atom_site_symmetry_multiplicity
 _atom_site_fract_x
 _atom_site_fract_y
 _atom_site_fract_z
 _atom_site_occupancy
  In  In0  1  0.00000000  0.00000000  0.00000000  1
  In  In1  1  0.50000000  0.50000000  0.00000000  1
  In  In2  1  0.31197509  0.81197509  0.33154693  1
  In  In3  1  0.51957184  0.31197509  0.33154693  1
  In  In4  1  0.81197509  0.01957184  0.33154693  1
  In  In5  1  0.48042816  0.68802491  0.66845307  1
  In  In6  1  0.18802491  0.98042816  0.66845307  1
  In  In7  1  0.98042816  0.48042816  0.66845307  1
  In  In8  1  0.68802491  0.18802491  0.66845307  1
  In  In9  1  0.01957184  0.51957184  0.33154693  1
  Bi  Bi10  1  0.25000000  0.25000000  0.50000000  1
  Bi  Bi11  1  0.75000000  0.75000000  0.50000000  1
  Bi  Bi12  1  0.35078111  0.85078111  0.00000000  1
  Bi  Bi13  1  0.14921889  0.35078111  0.00000000  1
  Bi  Bi14  1  0.85078111  0.64921889  0.00000000  1
  Bi  Bi15  1  0.64921889  0.14921889  0.00000000  1
