# generated using pymatgen
data_K2ZrSi3O10
_symmetry_space_group_name_H-M   'P 1'
_cell_length_a   6.67879013
_cell_length_b   11.86530495
_cell_length_c   13.26391612
_cell_angle_alpha   90.00000000
_cell_angle_beta   103.62653844
_cell_angle_gamma   90.00000000
_symmetry_Int_Tables_number   1
_chemical_formula_structural   K2ZrSi3O10
_chemical_formula_sum   'K8 Zr4 Si12 O40'
_cell_volume   1021.52404380
_cell_formula_units_Z   4
loop_
 _symmetry_equiv_pos_site_id
 _symmetry_equiv_pos_as_xyz
  1  'x, y, z'
loop_
 _atom_site_type_symbol
 _atom_site_label
 _atom_site_symmetry_multiplicity
 _atom_site_fract_x
 _atom_site_fract_y
 _atom_site_fract_z
 _atom_site_occupancy
  K  K0  1  0.22775448  0.95062815  0.40545094  1
  K  K1  1  0.27224552  0.45062815  0.09454906  1
  K  K2  1  0.77224552  0.04937185  0.59454906  1
  K  K3  1  0.72775448  0.54937185  0.90545094  1
  K  K4  1  0.29817051  0.61412341  0.62328691  1
  K  K5  1  0.20182949  0.11412341  0.87671309  1
  K  K6  1  0.70182949  0.38587659  0.37671309  1
  K  K7  1  0.79817051  0.88587659  0.12328691  1
  Zr  Zr8  1  0.40719535  0.71357499  0.27863822  1
  Zr  Zr9  1  0.09280465  0.21357499  0.22136178  1
  Zr  Zr10  1  0.59280465  0.28642501  0.72136178  1
  Zr  Zr11  1  0.90719535  0.78642501  0.77863822  1
  Si  Si12  1  0.18534777  0.47184724  0.34571897  1
  Si  Si13  1  0.31465223  0.97184724  0.15428103  1
  Si  Si14  1  0.81465223  0.52815276  0.65428103  1
  Si  Si15  1  0.68534777  0.02815276  0.84571897  1
  Si  Si16  1  0.94079702  0.68581269  0.34833718  1
  Si  Si17  1  0.55920298  0.18581269  0.15166282  1
  Si  Si18  1  0.05920298  0.31418731  0.65166282  1
  Si  Si19  1  0.44079702  0.81418731  0.84833718  1
  Si  Si20  1  0.27124855  0.26249187  0.48301695  1
  Si  Si21  1  0.22875145  0.76249187  0.01698305  1
  Si  Si22  1  0.72875145  0.73750813  0.51698305  1
  Si  Si23  1  0.77124855  0.23750813  0.98301695  1
  O  O24  1  0.10693465  0.75239249  0.29927430  1
  O  O25  1  0.39306535  0.25239249  0.20072570  1
  O  O26  1  0.89306535  0.24760751  0.70072570  1
  O  O27  1  0.60693465  0.74760751  0.79927430  1
  O  O28  1  0.36144061  0.54261414  0.30747886  1
  O  O29  1  0.13855939  0.04261414  0.19252114  1
  O  O30  1  0.63855939  0.45738586  0.69252114  1
  O  O31  1  0.86144061  0.95738586  0.80747886  1
  O  O32  1  0.71215751  0.68045200  0.27078975  1
  O  O33  1  0.78784249  0.18045200  0.22921025  1
  O  O34  1  0.28784249  0.31954800  0.72921025  1
  O  O35  1  0.21215751  0.81954800  0.77078975  1
  O  O36  1  0.28689002  0.68371024  0.11945769  1
  O  O37  1  0.21310998  0.18371024  0.38054231  1
  O  O38  1  0.71310998  0.31628976  0.88054231  1
  O  O39  1  0.78689002  0.81628976  0.61945769  1
  O  O40  1  0.44321283  0.88728377  0.24305311  1
  O  O41  1  0.05678717  0.38728377  0.25694689  1
  O  O42  1  0.55678717  0.11271623  0.75694689  1
  O  O43  1  0.94321283  0.61271623  0.74305311  1
  O  O44  1  0.51411355  0.76720210  0.43524678  1
  O  O45  1  0.98588645  0.26720210  0.06475322  1
  O  O46  1  0.48588645  0.23279790  0.56475322  1
  O  O47  1  0.01411355  0.73279790  0.93524678  1
  O  O48  1  0.02157129  0.55629327  0.38356004  1
  O  O49  1  0.47842871  0.05629327  0.11643996  1
  O  O50  1  0.97842871  0.44370673  0.61643996  1
  O  O51  1  0.52157129  0.94370673  0.88356004  1
  O  O52  1  0.29586596  0.39593656  0.44820626  1
  O  O53  1  0.20413404  0.89593656  0.05179374  1
  O  O54  1  0.70413404  0.60406344  0.55179374  1
  O  O55  1  0.79586596  0.10406344  0.94820626  1
  O  O56  1  0.92574160  0.74583508  0.45975545  1
  O  O57  1  0.57425840  0.24583508  0.04024455  1
  O  O58  1  0.07425840  0.25416492  0.54024455  1
  O  O59  1  0.42574160  0.75416492  0.95975545  1
  O  O60  1  0.75350654  0.00603109  0.35513244  1
  O  O61  1  0.74649346  0.50603109  0.14486756  1
  O  O62  1  0.24649346  0.99396891  0.64486756  1
  O  O63  1  0.25350654  0.49396891  0.85513244  1
