# generated using pymatgen
data_Li3Cu(PO4)2
_symmetry_space_group_name_H-M   'P 1'
_cell_length_a   8.29671663
_cell_length_b   10.25587376
_cell_length_c   8.30384692
_cell_angle_alpha   90.00000000
_cell_angle_beta   106.95583898
_cell_angle_gamma   90.00000000
_symmetry_Int_Tables_number   1
_chemical_formula_structural   Li3Cu(PO4)2
_chemical_formula_sum   'Li12 Cu4 P8 O32'
_cell_volume   675.86004220
_cell_formula_units_Z   4
loop_
 _symmetry_equiv_pos_site_id
 _symmetry_equiv_pos_as_xyz
  1  'x, y, z'
loop_
 _atom_site_type_symbol
 _atom_site_label
 _atom_site_symmetry_multiplicity
 _atom_site_fract_x
 _atom_site_fract_y
 _atom_site_fract_z
 _atom_site_occupancy
  Li  Li0  1  0.09868102  0.66514076  0.59982468  1
  Li  Li1  1  0.16718551  0.15749754  0.64664429  1
  Li  Li2  1  0.40131898  0.16514076  0.40017532  1
  Li  Li3  1  0.34585073  0.85019577  0.83957211  1
  Li  Li4  1  0.91039129  0.33422549  0.39922803  1
  Li  Li5  1  0.58960871  0.83422549  0.60077197  1
  Li  Li6  1  0.65995782  0.33980153  0.65394454  1
  Li  Li7  1  0.33281449  0.65749754  0.35335571  1
  Li  Li8  1  0.77709098  0.57855762  0.53621201  1
  Li  Li9  1  0.72290902  0.07855762  0.46378799  1
  Li  Li10  1  0.15414927  0.35019577  0.16042789  1
  Li  Li11  1  0.84004218  0.83980153  0.34605546  1
  Cu  Cu12  1  0.58859200  0.65173585  0.09738935  1
  Cu  Cu13  1  0.91140800  0.15173585  0.90261065  1
  Cu  Cu14  1  0.41570386  0.34783961  0.90362191  1
  Cu  Cu15  1  0.08429614  0.84783961  0.09637809  1
  P  P16  1  0.97114057  0.91177055  0.71184560  1
  P  P17  1  0.54492114  0.09174689  0.76973567  1
  P  P18  1  0.52885943  0.41177055  0.28815440  1
  P  P19  1  0.47229685  0.59047490  0.70629809  1
  P  P20  1  0.02770415  0.09047490  0.29370191  1
  P  P21  1  0.45841857  0.90506750  0.23091139  1
  P  P22  1  0.04158143  0.40506750  0.76908861  1
  P  P23  1  0.95507886  0.59174689  0.23026433  1
  O  O24  1  0.49311019  0.94928002  0.74051053  1
  O  O25  1  0.41758140  0.83173498  0.37439726  1
  O  O26  1  0.94136065  0.85041115  0.87291954  1
  O  O27  1  0.89436396  0.33280929  0.81786668  1
  O  O28  1  0.60563604  0.83280929  0.18213332  1
  O  O29  1  0.51307351  0.04496129  0.27930390  1
  O  O30  1  0.00688981  0.44928002  0.25948947  1
  O  O31  1  0.45433558  0.66587260  0.86540420  1
  O  O32  1  0.61799789  0.64344436  0.64830483  1
  O  O33  1  0.00428449  0.06269849  0.74531161  1
  O  O34  1  0.90783559  0.65456829  0.38024386  1
  O  O35  1  0.10146666  0.67069823  0.19300373  1
  O  O36  1  0.79660433  0.60033231  0.07020704  1
  O  O37  1  0.37762023  0.34858676  0.32580214  1
  O  O38  1  0.55863935  0.35041115  0.12708046  1
  O  O39  1  0.99272876  0.94145610  0.24822454  1
  O  O40  1  0.80743190  0.89770102  0.56453265  1
  O  O41  1  0.88200211  0.14344436  0.35169517  1
  O  O42  1  0.12237977  0.84858676  0.67419786  1
  O  O43  1  0.50727124  0.44145610  0.75177546  1
  O  O44  1  0.08241860  0.33173498  0.62560274  1
  O  O45  1  0.19568911  0.10629266  0.42980949  1
  O  O46  1  0.30163808  0.89818443  0.06693015  1
  O  O47  1  0.59216441  0.15456829  0.61975614  1
  O  O48  1  0.30431089  0.60629266  0.57019051  1
  O  O49  1  0.98692649  0.54496129  0.72069610  1
  O  O50  1  0.04566442  0.16587260  0.13459580  1
  O  O51  1  0.49571551  0.56269849  0.25468839  1
  O  O52  1  0.69256810  0.39770102  0.43546735  1
  O  O53  1  0.39853334  0.17069823  0.80699627  1
  O  O54  1  0.19836192  0.39818443  0.93306985  1
  O  O55  1  0.70339567  0.10033231  0.92979296  1
