# generated using pymatgen
data_LiCoPCO7
_symmetry_space_group_name_H-M   'P 1'
_cell_length_a   5.03185884
_cell_length_b   6.07114317
_cell_length_c   8.59965618
_cell_angle_alpha   90.00000000
_cell_angle_beta   85.79554136
_cell_angle_gamma   90.00000000
_symmetry_Int_Tables_number   1
_chemical_formula_structural   LiCoPCO7
_chemical_formula_sum   'Li2 Co2 P2 C2 O14'
_cell_volume   262.00504408
_cell_formula_units_Z   2
loop_
 _symmetry_equiv_pos_site_id
 _symmetry_equiv_pos_as_xyz
  1  'x, y, z'
loop_
 _atom_site_type_symbol
 _atom_site_label
 _atom_site_symmetry_multiplicity
 _atom_site_fract_x
 _atom_site_fract_y
 _atom_site_fract_z
 _atom_site_occupancy
  Li  Li0  1  0.21977901  0.99001359  0.22036295  1
  Li  Li1  1  0.78022099  0.49001359  0.77963705  1
  C  C2  1  0.72542006  0.74894220  0.06634883  1
  C  C3  1  0.27457994  0.24894220  0.93365117  1
  O  O4  1  0.18040035  0.56044373  0.67840471  1
  O  O5  1  0.95978822  0.75321637  0.12561986  1
  O  O6  1  0.46402124  0.26687425  0.81758493  1
  O  O7  1  0.53597876  0.76687425  0.18241507  1
  O  O8  1  0.79195456  0.44929580  0.31543873  1
  O  O9  1  0.13745862  0.76533576  0.41760441  1
  O  O10  1  0.20804544  0.94929580  0.68456127  1
  O  O11  1  0.86254138  0.26533576  0.58239559  1
  O  O12  1  0.81959965  0.06044373  0.32159529  1
  O  O13  1  0.41636672  0.23961153  0.46827269  1
  O  O14  1  0.68340761  0.72490792  0.92824257  1
  O  O15  1  0.31659239  0.22490792  0.07175743  1
  O  O16  1  0.58363328  0.73961153  0.53172731  1
  O  O17  1  0.04021178  0.25321637  0.87438014  1
  P  P18  1  0.72181552  0.25480017  0.42966381  1
  P  P19  1  0.27818448  0.75480017  0.57033619  1
  Co  Co20  1  0.79075817  0.74975868  0.33427381  1
  Co  Co21  1  0.20924183  0.24975868  0.66572619  1
