# generated using pymatgen
data_CaCrO3
_symmetry_space_group_name_H-M   'P 1'
_cell_length_a   5.33205647
_cell_length_b   5.47606350
_cell_length_c   7.53805618
_cell_angle_alpha   90.00000000
_cell_angle_beta   90.00000000
_cell_angle_gamma   90.00000000
_symmetry_Int_Tables_number   1
_chemical_formula_structural   CaCrO3
_chemical_formula_sum   'Ca4 Cr4 O12'
_cell_volume   220.10128883
_cell_formula_units_Z   4
loop_
 _symmetry_equiv_pos_site_id
 _symmetry_equiv_pos_as_xyz
  1  'x, y, z'
loop_
 _atom_site_type_symbol
 _atom_site_label
 _atom_site_symmetry_multiplicity
 _atom_site_fract_x
 _atom_site_fract_y
 _atom_site_fract_z
 _atom_site_occupancy
  O  O0  1  0.92159805  0.52257359  0.74999970  1
  O  O1  1  0.42159808  0.97742764  0.24999946  1
  O  O2  1  0.57840185  0.02257256  0.74999970  1
  O  O3  1  0.07840188  0.47742661  0.24999946  1
  O  O4  1  0.71204176  0.29735129  0.45956260  1
  O  O5  1  0.21204179  0.20264974  0.54043789  1
  O  O6  1  0.78795814  0.79735046  0.04043765  1
  O  O7  1  0.28795817  0.70264891  0.95956151  1
  O  O8  1  0.71204176  0.29735129  0.04043765  1
  O  O9  1  0.21204179  0.20264974  0.95956151  1
  O  O10  1  0.28795817  0.70264891  0.54043789  1
  O  O11  1  0.78795814  0.79735046  0.45956260  1
  Ca  Ca12  1  0.99187853  0.04501056  0.24999946  1
  Ca  Ca13  1  0.49187857  0.45498861  0.74999970  1
  Ca  Ca14  1  0.50812136  0.54501159  0.24999946  1
  Ca  Ca15  1  0.00812140  0.95498964  0.74999970  1
  Cr  Cr16  1  0.49999996  0.00000000  0.00000000  1
  Cr  Cr17  1  0.00000000  0.49999917  0.00000000  1
  Cr  Cr18  1  0.00000000  0.49999917  0.50000024  1
  Cr  Cr19  1  0.49999996  0.00000000  0.50000024  1
