# generated using pymatgen
data_Ba2Nd2Co4O11
_symmetry_space_group_name_H-M   'P 1'
_cell_length_a   3.96822408
_cell_length_b   7.75571386
_cell_length_c   7.94938184
_cell_angle_alpha   90.00000000
_cell_angle_beta   90.00000000
_cell_angle_gamma   90.00000000
_symmetry_Int_Tables_number   1
_chemical_formula_structural   Ba2Nd2Co4O11
_chemical_formula_sum   'Ba2 Nd2 Co4 O11'
_cell_volume   244.65343870
_cell_formula_units_Z   1
loop_
 _symmetry_equiv_pos_site_id
 _symmetry_equiv_pos_as_xyz
  1  'x, y, z'
loop_
 _atom_site_type_symbol
 _atom_site_label
 _atom_site_symmetry_multiplicity
 _atom_site_fract_x
 _atom_site_fract_y
 _atom_site_fract_z
 _atom_site_occupancy
  O  O0  1  0.00000000  0.29594492  0.77264171  1
  O  O1  1  0.00000000  0.70405602  0.22735853  1
  O  O2  1  0.00000000  0.29594492  0.22735853  1
  O  O3  1  0.00000000  0.70405602  0.77264171  1
  O  O4  1  0.50000009  0.27117024  0.49999950  1
  O  O5  1  0.50000009  0.72883070  0.49999950  1
  O  O6  1  0.50000009  0.30957242  0.00000000  1
  O  O7  1  0.50000009  0.69042721  0.00000000  1
  O  O8  1  0.00000000  0.00000000  0.00000000  1
  O  O9  1  0.00000000  0.49999981  0.49999950  1
  O  O10  1  0.00000000  0.00000000  0.49999950  1
  Co  Co11  1  0.00000000  0.25494300  0.00000000  1
  Co  Co12  1  0.00000000  0.74505663  0.00000000  1
  Co  Co13  1  0.00000000  0.74772805  0.49999950  1
  Co  Co14  1  0.00000000  0.25227289  0.49999950  1
  Ba  Ba15  1  0.50000009  0.00000000  0.74974403  1
  Ba  Ba16  1  0.50000009  0.00000000  0.25025621  1
  Nd  Nd17  1  0.50000009  0.49999981  0.26868723  1
  Nd  Nd18  1  0.50000009  0.49999981  0.73131301  1
