# generated using pymatgen
data_Li2CuPO4
_symmetry_space_group_name_H-M   'P 1'
_cell_length_a   6.22843630
_cell_length_b   10.61615761
_cell_length_c   5.20837106
_cell_angle_alpha   90.00000000
_cell_angle_beta   90.00000000
_cell_angle_gamma   90.00000000
_symmetry_Int_Tables_number   1
_chemical_formula_structural   Li2CuPO4
_chemical_formula_sum   'Li8 Cu4 P4 O16'
_cell_volume   344.38823115
_cell_formula_units_Z   4
loop_
 _symmetry_equiv_pos_site_id
 _symmetry_equiv_pos_as_xyz
  1  'x, y, z'
loop_
 _atom_site_type_symbol
 _atom_site_label
 _atom_site_symmetry_multiplicity
 _atom_site_fract_x
 _atom_site_fract_y
 _atom_site_fract_z
 _atom_site_occupancy
  Li  Li0  1  1.00207448  0.66129242  0.80590623  1
  Li  Li1  1  1.00207448  0.16129242  0.69409377  1
  Li  Li2  1  0.49792552  0.66129242  0.80590623  1
  Li  Li3  1  0.49792552  0.16129242  0.69409377  1
  Li  Li4  1  -0.00207448  0.33870758  0.19409377  1
  Li  Li5  1  -0.00207448  0.83870758  0.30590623  1
  Li  Li6  1  0.50207448  0.33870758  0.19409377  1
  Li  Li7  1  0.50207448  0.83870758  0.30590623  1
  O  O8  1  0.75000000  0.55288192  0.76246011  1
  O  O9  1  0.75000000  0.89878559  0.11071560  1
  O  O10  1  0.95032356  0.34244206  0.80219385  1
  O  O11  1  0.25000000  0.60121441  0.61071560  1
  O  O12  1  0.04967644  0.15755794  0.30219385  1
  O  O13  1  0.75000000  0.39878559  0.38928440  1
  O  O14  1  0.25000000  0.10121441  0.88928440  1
  O  O15  1  0.25000000  0.44711808  0.23753989  1
  O  O16  1  0.04967644  0.65755794  0.19780615  1
  O  O17  1  0.25000000  0.94711808  0.26246011  1
  O  O18  1  0.45032356  0.15755794  0.30219385  1
  O  O19  1  0.45032356  0.65755794  0.19780615  1
  O  O20  1  0.54967644  0.34244206  0.80219385  1
  O  O21  1  0.54967644  0.84244206  0.69780615  1
  O  O22  1  0.75000000  0.05288192  0.73753989  1
  O  O23  1  0.95032356  0.84244206  0.69780615  1
  P  P24  1  0.25000000  0.08740323  0.18609264  1
  P  P25  1  0.25000000  0.58740323  0.31390736  1
  P  P26  1  0.75000000  0.41259677  0.68609264  1
  P  P27  1  0.75000000  0.91259677  0.81390736  1
  Cu  Cu28  1  0.75000000  0.60751205  0.24652071  1
  Cu  Cu29  1  0.75000000  0.10751205  0.25347929  1
  Cu  Cu30  1  0.25000000  0.89248795  0.74652071  1
  Cu  Cu31  1  0.25000000  0.39248795  0.75347929  1
