# generated using pymatgen
data_MoH8(NO2)2
_symmetry_space_group_name_H-M   'P 1'
_cell_length_a   7.20467362
_cell_length_b   7.04366886
_cell_length_c   7.95869650
_cell_angle_alpha   112.47105150
_cell_angle_beta   90.00000000
_cell_angle_gamma   120.75906442
_symmetry_Int_Tables_number   1
_chemical_formula_structural   MoH8(NO2)2
_chemical_formula_sum   'Mo2 H16 N4 O8'
_cell_volume   310.84556707
_cell_formula_units_Z   2
loop_
 _symmetry_equiv_pos_site_id
 _symmetry_equiv_pos_as_xyz
  1  'x, y, z'
loop_
 _atom_site_type_symbol
 _atom_site_label
 _atom_site_symmetry_multiplicity
 _atom_site_fract_x
 _atom_site_fract_y
 _atom_site_fract_z
 _atom_site_occupancy
  H  H0  1  0.53122604  0.06245208  0.18284794  1
  H  H1  1  0.46877396  0.93754792  0.81715206  1
  H  H2  1  0.33168609  0.66337219  0.10452469  1
  H  H3  1  0.66831391  0.33662781  0.89547531  1
  H  H4  1  0.50042090  0.77367958  0.61717337  1
  H  H5  1  0.72674132  0.22632042  0.38282663  1
  H  H6  1  0.49957910  0.22632042  0.38282663  1
  H  H7  1  0.27325868  0.77367958  0.61717337  1
  H  H8  1  0.86783750  0.73567501  0.91531569  1
  H  H9  1  0.13216250  0.26432499  0.08468431  1
  H  H10  1  0.31935028  0.40575532  0.29360873  1
  H  H11  1  0.91359496  0.59424468  0.70639127  1
  H  H12  1  0.68064972  0.59424468  0.70639127  1
  H  H13  1  0.08640504  0.40575532  0.29360873  1
  H  H14  1  0.06572547  0.13145094  0.23289516  1
  H  H15  1  0.93427453  0.86854906  0.76710484  1
  N  N16  1  0.61277925  0.22555850  0.30423570  1
  N  N17  1  0.38722075  0.77444150  0.69576430  1
  N  N18  1  0.84960871  0.69921742  0.77230101  1
  N  N19  1  0.15039129  0.30078258  0.22769899  1
  O  O20  1  0.89665778  0.79331557  0.14438107  1
  O  O21  1  0.10334222  0.20668443  0.85561893  1
  O  O22  1  0.37733482  0.34404428  0.61345367  1
  O  O23  1  0.03329054  0.65595572  0.38654633  1
  O  O24  1  0.62266518  0.65595572  0.38654633  1
  O  O25  1  0.96670946  0.34404428  0.61345367  1
  O  O26  1  0.64563775  0.29127550  0.99853623  1
  O  O27  1  0.35436225  0.70872450  0.00146377  1
  Mo  Mo28  1  0.79165415  0.58330830  0.24869812  1
  Mo  Mo29  1  0.20834585  0.41669170  0.75130188  1
