# generated using pymatgen
data_Na2B29
_symmetry_space_group_name_H-M   'P 1'
_cell_length_a   5.81268168
_cell_length_b   7.24953224
_cell_length_c   7.24953225
_cell_angle_alpha   91.08957668
_cell_angle_beta   113.63447703
_cell_angle_gamma   113.63447702
_symmetry_Int_Tables_number   1
_chemical_formula_structural   Na2B29
_chemical_formula_sum   'Na2 B29'
_cell_volume   250.44261123
_cell_formula_units_Z   1
loop_
 _symmetry_equiv_pos_site_id
 _symmetry_equiv_pos_as_xyz
  1  'x, y, z'
loop_
 _atom_site_type_symbol
 _atom_site_label
 _atom_site_symmetry_multiplicity
 _atom_site_fract_x
 _atom_site_fract_y
 _atom_site_fract_z
 _atom_site_occupancy
  B  B0  1  0.24415948  0.74135819  0.74135819  1
  B  B1  1  0.63831183  0.50682618  0.76351791  1
  B  B2  1  0.16285882  0.81405933  0.50533839  1
  B  B3  1  0.16285882  0.50533839  0.81405933  1
  B  B4  1  0.83989838  0.99010807  0.68321933  1
  B  B5  1  0.83989838  0.68321933  0.99010807  1
  B  B6  1  0.67897201  0.53360851  0.14035817  1
  B  B7  1  0.67897201  0.14035817  0.53360851  1
  B  B8  1  0.32905976  0.36164620  0.96870962  1
  B  B9  1  0.32905976  0.96870962  0.36164620  1
  B  B10  1  0.00130766  0.14033949  0.53356782  1
  B  B11  1  0.00130766  0.53356782  0.14033949  1
  B  B12  1  0.00762731  0.96872664  0.36157335  1
  B  B13  1  0.00762731  0.36157335  0.96872664  1
  B  B14  1  0.96458448  0.54533630  0.37740951  1
  B  B15  1  0.96458448  0.37740951  0.54533630  1
  B  B16  1  0.04070629  0.12147211  0.95345740  1
  B  B17  1  0.04070629  0.95345740  0.12147211  1
  B  B18  1  0.79633284  0.71034724  0.37115579  1
  B  B19  1  0.79633284  0.37115579  0.71034724  1
  B  B20  1  0.29160301  0.37123732  0.71032127  1
  B  B21  1  0.29160301  0.71032127  0.37123732  1
  B  B22  1  0.21072708  0.13110187  0.78993426  1
  B  B23  1  0.21072708  0.78993426  0.13110187  1
  B  B24  1  0.71662546  0.79000100  0.13098606  1
  B  B25  1  0.71662546  0.13098606  0.79000100  1
  B  B26  1  0.39024088  0.98713797  0.78691937  1
  B  B27  1  0.39024088  0.78691937  0.98713797  1
  B  B28  1  0.63831183  0.76351791  0.50682618  1
  Na  Na29  1  0.66299245  0.16078748  0.16078748  1
  Na  Na30  1  0.35993646  0.35723784  0.35723784  1
