# generated using pymatgen
data_CuPNO5
_symmetry_space_group_name_H-M   'P 1'
_cell_length_a   7.93777876
_cell_length_b   7.62841304
_cell_length_c   8.65406221
_cell_angle_alpha   90.00000000
_cell_angle_beta   100.91955309
_cell_angle_gamma   90.00000000
_symmetry_Int_Tables_number   1
_chemical_formula_structural   CuPNO5
_chemical_formula_sum   'Cu4 P4 N4 O20'
_cell_volume   514.53848526
_cell_formula_units_Z   4
loop_
 _symmetry_equiv_pos_site_id
 _symmetry_equiv_pos_as_xyz
  1  'x, y, z'
loop_
 _atom_site_type_symbol
 _atom_site_label
 _atom_site_symmetry_multiplicity
 _atom_site_fract_x
 _atom_site_fract_y
 _atom_site_fract_z
 _atom_site_occupancy
  Cu  Cu0  1  0.58761853  0.72710653  0.98633225  1
  Cu  Cu1  1  0.91238147  0.22710653  0.01366775  1
  Cu  Cu2  1  0.41238147  0.27289347  0.01366775  1
  Cu  Cu3  1  0.08761853  0.77289347  0.98633225  1
  P  P4  1  0.82290681  0.53170204  0.80365440  1
  P  P5  1  0.67709319  0.03170204  0.19634560  1
  P  P6  1  0.17709319  0.46829796  0.19634560  1
  P  P7  1  0.32290681  0.96829796  0.80365440  1
  N  N8  1  0.62709788  0.30698747  0.56472318  1
  N  N9  1  0.87290212  0.80698747  0.43527682  1
  N  N10  1  0.37290212  0.69301253  0.43527682  1
  N  N11  1  0.12709788  0.19301253  0.56472318  1
  O  O12  1  0.56303568  0.86599115  0.15760800  1
  O  O13  1  0.93696432  0.36599115  0.84239200  1
  O  O14  1  0.43696432  0.13400885  0.84239200  1
  O  O15  1  0.06303568  0.63400885  0.15760800  1
  O  O16  1  0.71950625  0.51328721  0.62936831  1
  O  O17  1  0.78049375  0.01328721  0.37063169  1
  O  O18  1  0.28049375  0.48671279  0.37063169  1
  O  O19  1  0.21950625  0.98671279  0.62936831  1
  O  O20  1  0.69682855  0.53375056  0.92098862  1
  O  O21  1  0.80317145  0.03375056  0.07901138  1
  O  O22  1  0.30317145  0.46624944  0.07901138  1
  O  O23  1  0.19682855  0.96624944  0.92098862  1
  O  O24  1  0.92805886  0.70137935  0.80394653  1
  O  O25  1  0.57194114  0.20137935  0.19605347  1
  O  O26  1  0.07194114  0.29862065  0.19605347  1
  O  O27  1  0.42805886  0.79862065  0.80394653  1
  O  O28  1  0.82785537  0.69102917  0.35528912  1
  O  O29  1  0.67214463  0.19102917  0.64471088  1
  O  O30  1  0.17214463  0.30897083  0.64471088  1
  O  O31  1  0.32785537  0.80897083  0.35528912  1
