# generated using pymatgen
data_CsCrI3
_symmetry_space_group_name_H-M   'P 1'
_cell_length_a   8.25884196
_cell_length_b   8.25884196
_cell_length_c   6.91991784
_cell_angle_alpha   90.00000000
_cell_angle_beta   90.00000000
_cell_angle_gamma   120.00000001
_symmetry_Int_Tables_number   1
_chemical_formula_structural   CsCrI3
_chemical_formula_sum   'Cs2 Cr2 I6'
_cell_volume   408.76140271
_cell_formula_units_Z   2
loop_
 _symmetry_equiv_pos_site_id
 _symmetry_equiv_pos_as_xyz
  1  'x, y, z'
loop_
 _atom_site_type_symbol
 _atom_site_label
 _atom_site_symmetry_multiplicity
 _atom_site_fract_x
 _atom_site_fract_y
 _atom_site_fract_z
 _atom_site_occupancy
  Cr  Cr0  1  0.00000000  0.00000000  0.49981655  1
  Cr  Cr1  1  0.00000000  0.00000000  0.99981655  1
  I  I2  1  0.67868319  0.83934159  0.25000040  1
  I  I3  1  0.83934159  0.16065841  0.75000040  1
  I  I4  1  0.16065841  0.83934159  0.25000040  1
  I  I5  1  0.32131681  0.16065841  0.75000040  1
  I  I6  1  0.83934159  0.67868319  0.75000040  1
  I  I7  1  0.16065841  0.32131681  0.25000040  1
  Cs  Cs8  1  0.33333333  0.66666667  0.75018225  1
  Cs  Cs9  1  0.66666667  0.33333333  0.25018225  1
