# generated using pymatgen
data_BaGe2O5
_symmetry_space_group_name_H-M   'P 1'
_cell_length_a   5.61680960
_cell_length_b   5.74273467
_cell_length_c   14.61231301
_cell_angle_alpha   90.00000000
_cell_angle_beta   90.00000000
_cell_angle_gamma   119.27724958
_symmetry_Int_Tables_number   1
_chemical_formula_structural   BaGe2O5
_chemical_formula_sum   'Ba4 Ge8 O20'
_cell_volume   411.12617800
_cell_formula_units_Z   4
loop_
 _symmetry_equiv_pos_site_id
 _symmetry_equiv_pos_as_xyz
  1  'x, y, z'
loop_
 _atom_site_type_symbol
 _atom_site_label
 _atom_site_symmetry_multiplicity
 _atom_site_fract_x
 _atom_site_fract_y
 _atom_site_fract_z
 _atom_site_occupancy
  O  O0  1  0.15276004  0.81770153  0.40619514  1
  O  O1  1  0.33505851  0.18229847  0.59380486  1
  O  O2  1  0.34723996  0.18229847  0.90619514  1
  O  O3  1  0.16494149  0.81770153  0.09380486  1
  O  O4  1  0.84723996  0.18229847  0.59380486  1
  O  O5  1  0.66494149  0.81770153  0.40619514  1
  O  O6  1  0.65276004  0.81770153  0.09380486  1
  O  O7  1  0.83505851  0.18229847  0.90619514  1
  O  O8  1  0.49833131  0.49666263  0.75000000  1
  O  O9  1  0.00166869  0.50333737  0.25000000  1
  O  O10  1  0.50166869  0.50333737  0.25000000  1
  O  O11  1  0.99833131  0.49666263  0.75000000  1
  O  O12  1  0.50611499  0.01222999  0.76124548  1
  O  O13  1  0.49388501  0.98777001  0.23875452  1
  O  O14  1  0.99388501  0.98777001  0.26124548  1
  O  O15  1  0.00611499  0.01222999  0.73875452  1
  O  O16  1  0.83387739  0.66775478  0.89867532  1
  O  O17  1  0.16612261  0.33224522  0.10132468  1
  O  O18  1  0.66612261  0.33224522  0.39867532  1
  O  O19  1  0.33387739  0.66775478  0.60132468  1
  Ge  Ge20  1  0.50524294  0.01048588  0.64152634  1
  Ge  Ge21  1  0.49475706  0.98951412  0.35847366  1
  Ge  Ge22  1  0.99475706  0.98951412  0.14152634  1
  Ge  Ge23  1  0.00524294  0.01048588  0.85847366  1
  Ge  Ge24  1  0.17283182  0.34566363  0.68327054  1
  Ge  Ge25  1  0.82716818  0.65433637  0.31672946  1
  Ge  Ge26  1  0.32716818  0.65433637  0.18327054  1
  Ge  Ge27  1  0.67283182  0.34566363  0.81672946  1
  Ba  Ba28  1  0.83794325  0.67588651  0.58122859  1
  Ba  Ba29  1  0.16205675  0.32411349  0.41877141  1
  Ba  Ba30  1  0.66205675  0.32411349  0.08122859  1
  Ba  Ba31  1  0.33794325  0.67588651  0.91877141  1
