# generated using pymatgen
data_LaCO
_symmetry_space_group_name_H-M   'P 1'
_cell_length_a   4.01114854
_cell_length_b   4.07349984
_cell_length_c   7.36727267
_cell_angle_alpha   94.60973591
_cell_angle_beta   90.00000000
_cell_angle_gamma   119.49494150
_symmetry_Int_Tables_number   1
_chemical_formula_structural   LaCO
_chemical_formula_sum   'La2 C2 O2'
_cell_volume   104.32835948
_cell_formula_units_Z   2
loop_
 _symmetry_equiv_pos_site_id
 _symmetry_equiv_pos_as_xyz
  1  'x, y, z'
loop_
 _atom_site_type_symbol
 _atom_site_label
 _atom_site_symmetry_multiplicity
 _atom_site_fract_x
 _atom_site_fract_y
 _atom_site_fract_z
 _atom_site_occupancy
  C  C0  1  0.03924810  0.07849621  0.92668292  1
  C  C1  1  0.96075190  0.92150379  0.07331708  1
  O  O2  1  0.65264796  0.30529592  0.37930233  1
  O  O3  1  0.34735204  0.69470408  0.62069767  1
  La  La4  1  0.31643278  0.63286555  0.29245486  1
  La  La5  1  0.68356722  0.36713445  0.70754514  1
