# generated using pymatgen
data_Y2Cu2O5
_symmetry_space_group_name_H-M   'P 1'
_cell_length_a   3.54321188
_cell_length_b   10.92873359
_cell_length_c   12.58126509
_cell_angle_alpha   90.00000000
_cell_angle_beta   90.00000000
_cell_angle_gamma   90.00000000
_symmetry_Int_Tables_number   1
_chemical_formula_structural   Y2Cu2O5
_chemical_formula_sum   'Y8 Cu8 O20'
_cell_volume   487.18204696
_cell_formula_units_Z   4
loop_
 _symmetry_equiv_pos_site_id
 _symmetry_equiv_pos_as_xyz
  1  'x, y, z'
loop_
 _atom_site_type_symbol
 _atom_site_label
 _atom_site_symmetry_multiplicity
 _atom_site_fract_x
 _atom_site_fract_y
 _atom_site_fract_z
 _atom_site_occupancy
  O  O0  1  0.27138416  0.07618034  0.02773868  1
  O  O1  1  0.72861584  0.92381966  0.52773868  1
  O  O2  1  0.22861584  0.57618034  0.02773868  1
  O  O3  1  0.77138416  0.42381966  0.52773868  1
  O  O4  1  0.72582855  0.07199884  0.23845678  1
  O  O5  1  0.27417145  0.92800116  0.73845678  1
  O  O6  1  0.77417145  0.57199884  0.23845678  1
  O  O7  1  0.22582855  0.42800116  0.73845678  1
  O  O8  1  0.14613576  0.37533179  0.33597700  1
  O  O9  1  0.85386424  0.62466821  0.83597700  1
  O  O10  1  0.35386424  0.87533179  0.33597700  1
  O  O11  1  0.64613576  0.12466821  0.83597700  1
  O  O12  1  0.77984995  0.17757748  0.43416289  1
  O  O13  1  0.22015005  0.82242252  0.93416289  1
  O  O14  1  0.72015005  0.67757748  0.43416289  1
  O  O15  1  0.27984995  0.32242252  0.93416289  1
  O  O16  1  0.27355647  0.17400394  0.64460312  1
  O  O17  1  0.72644353  0.82599606  0.14460312  1
  O  O18  1  0.22644353  0.67400394  0.64460312  1
  O  O19  1  0.77355647  0.32599606  0.14460312  1
  Cu  Cu20  1  0.84170717  0.23794346  0.28337532  1
  Cu  Cu21  1  0.15829283  0.76205654  0.78337532  1
  Cu  Cu22  1  0.65829283  0.73794346  0.28337532  1
  Cu  Cu23  1  0.34170717  0.26205654  0.78337532  1
  Cu  Cu24  1  0.66231165  0.01177554  0.38888795  1
  Cu  Cu25  1  0.33768835  0.98822446  0.88888795  1
  Cu  Cu26  1  0.83768835  0.51177554  0.38888795  1
  Cu  Cu27  1  0.16231165  0.48822446  0.88888795  1
  Y  Y28  1  0.27723096  0.45738051  0.17236094  1
  Y  Y29  1  0.72276904  0.54261949  0.67236094  1
  Y  Y30  1  0.22276904  0.95738051  0.17236094  1
  Y  Y31  1  0.77723096  0.04261949  0.67236094  1
  Y  Y32  1  0.27851065  0.29246554  0.49943733  1
  Y  Y33  1  0.72148935  0.70753446  0.99943733  1
  Y  Y34  1  0.22148935  0.79246554  0.49943733  1
  Y  Y35  1  0.77851065  0.20753446  0.99943733  1
