# generated using pymatgen
data_K3FeO2
_symmetry_space_group_name_H-M   'P 1'
_cell_length_a   6.19052063
_cell_length_b   6.19052063
_cell_length_c   14.63524857
_cell_angle_alpha   90.00000000
_cell_angle_beta   90.00000000
_cell_angle_gamma   90.00000000
_symmetry_Int_Tables_number   1
_chemical_formula_structural   K3FeO2
_chemical_formula_sum   'K12 Fe4 O8'
_cell_volume   560.85998172
_cell_formula_units_Z   4
loop_
 _symmetry_equiv_pos_site_id
 _symmetry_equiv_pos_as_xyz
  1  'x, y, z'
loop_
 _atom_site_type_symbol
 _atom_site_label
 _atom_site_symmetry_multiplicity
 _atom_site_fract_x
 _atom_site_fract_y
 _atom_site_fract_z
 _atom_site_occupancy
  O  O0  1  0.78692056  0.79712309  0.25700165  1
  O  O1  1  0.21308048  0.20287632  0.75700201  1
  O  O2  1  0.79712309  0.78692056  0.74299839  1
  O  O3  1  0.29712257  0.71307938  0.00700215  1
  O  O4  1  0.28692004  0.70287684  0.49299821  1
  O  O5  1  0.20287632  0.21308048  0.24299803  1
  O  O6  1  0.70287684  0.28692004  0.50700183  1
  O  O7  1  0.71307938  0.29712257  0.99299788  1
  K  K8  1  0.51140284  0.01561552  0.12517580  1
  K  K9  1  0.96847984  0.96847984  0.49999968  1
  K  K10  1  0.51561604  0.98859709  0.87517566  1
  K  K11  1  0.01140395  0.48438337  0.62482405  1
  K  K12  1  0.53152009  0.46847932  0.74999986  1
  K  K13  1  0.48859657  0.98438389  0.62517616  1
  K  K14  1  0.01561552  0.51140284  0.87482423  1
  K  K15  1  0.98438389  0.48859657  0.37482387  1
  K  K16  1  0.46847932  0.53152009  0.25000018  1
  K  K17  1  0.03152120  0.03152120  0.00000000  1
  K  K18  1  0.48438337  0.01140395  0.37517598  1
  K  K19  1  0.98859709  0.51561604  0.12482369  1
  Fe  Fe20  1  0.49586609  0.49586609  0.49999968  1
  Fe  Fe21  1  0.00413443  0.99586661  0.74999986  1
  Fe  Fe22  1  0.99586661  0.00413443  0.25000018  1
  Fe  Fe23  1  0.50413495  0.50413495  0.00000000  1
