# generated using pymatgen
data_Mn(PO3)4
_symmetry_space_group_name_H-M   'P 1'
_cell_length_a   5.11062382
_cell_length_b   10.53761485
_cell_length_c   10.53761486
_cell_angle_alpha   72.54931727
_cell_angle_beta   99.04918269
_cell_angle_gamma   99.04918271
_symmetry_Int_Tables_number   1
_chemical_formula_structural   Mn(PO3)4
_chemical_formula_sum   'Mn2 P8 O24'
_cell_volume   530.96931951
_cell_formula_units_Z   2
loop_
 _symmetry_equiv_pos_site_id
 _symmetry_equiv_pos_as_xyz
  1  'x, y, z'
loop_
 _atom_site_type_symbol
 _atom_site_label
 _atom_site_symmetry_multiplicity
 _atom_site_fract_x
 _atom_site_fract_y
 _atom_site_fract_z
 _atom_site_occupancy
  O  O0  1  0.39351182  0.16541487  0.16541519  1
  O  O1  1  0.01948895  0.57724777  0.14219431  1
  O  O2  1  0.98051117  0.42275197  0.85780502  1
  O  O3  1  0.98051242  0.85780513  0.42275188  1
  O  O4  1  0.00000050  0.22772759  0.77227253  1
  O  O5  1  0.99999963  0.77227216  0.22772775  1
  O  O6  1  0.23417272  0.65614182  0.90935134  1
  O  O7  1  0.23417293  0.90935173  0.65614118  1
  O  O8  1  0.31901799  0.68742013  0.44704343  1
  O  O9  1  0.31901724  0.44704344  0.68741987  1
  O  O10  1  0.37236399  0.92712142  0.28417483  1
  O  O11  1  0.37236340  0.28417458  0.92712070  1
  O  O12  1  0.60648831  0.83458488  0.83458510  1
  O  O13  1  0.30615331  0.09175575  0.40981585  1
  O  O14  1  0.30615373  0.40981638  0.09175586  1
  O  O15  1  0.76582542  0.34385792  0.09064881  1
  O  O16  1  0.69384681  0.90824399  0.59018348  1
  O  O17  1  0.01948771  0.14219462  0.57724841  1
  O  O18  1  0.62763635  0.07287933  0.71582516  1
  O  O19  1  0.62763673  0.71582516  0.07287864  1
  O  O20  1  0.68098234  0.31258061  0.55295561  1
  O  O21  1  0.68098090  0.55295630  0.31258028  1
  O  O22  1  0.76582720  0.09064801  0.34385815  1
  O  O23  1  0.69384660  0.59018437  0.90824319  1
  P  P24  1  0.46521335  0.31068677  0.06659385  1
  P  P25  1  0.82955410  0.20396248  0.63673497  1
  P  P26  1  0.17044682  0.36326543  0.79603756  1
  P  P27  1  0.17044623  0.79603827  0.36326502  1
  P  P28  1  0.53478479  0.68931297  0.93340630  1
  P  P29  1  0.53478533  0.93340580  0.68931304  1
  P  P30  1  0.46521479  0.06659394  0.31068630  1
  P  P31  1  0.82955351  0.63673533  0.20396243  1
  Mn  Mn32  1  0.99999932  0.49999957  0.99999968  1
  Mn  Mn33  1  0.00000041  0.99999993  0.49999971  1
