# generated using pymatgen
data_Na2S2O5
_symmetry_space_group_name_H-M   'P 1'
_cell_length_a   5.52025024
_cell_length_b   9.31636935
_cell_length_c   22.20558300
_cell_angle_alpha   95.59537632
_cell_angle_beta   90.00000000
_cell_angle_gamma   90.00000000
_symmetry_Int_Tables_number   1
_chemical_formula_structural   Na2S2O5
_chemical_formula_sum   'Na16 S16 O40'
_cell_volume   1136.56270772
_cell_formula_units_Z   8
loop_
 _symmetry_equiv_pos_site_id
 _symmetry_equiv_pos_as_xyz
  1  'x, y, z'
loop_
 _atom_site_type_symbol
 _atom_site_label
 _atom_site_symmetry_multiplicity
 _atom_site_fract_x
 _atom_site_fract_y
 _atom_site_fract_z
 _atom_site_occupancy
  O  O0  1  0.60406581  0.65925610  0.02420627  1
  O  O1  1  0.10406581  0.84074390  0.47579373  1
  O  O2  1  0.39593419  0.34074390  0.97579373  1
  O  O3  1  0.89593419  0.15925610  0.52420627  1
  O  O4  1  0.50424711  0.59494845  0.15486385  1
  O  O5  1  0.00424711  0.90505155  0.34513615  1
  O  O6  1  0.49575289  0.40505155  0.84513615  1
  O  O7  1  0.99575289  0.09494845  0.65486385  1
  O  O8  1  0.86185602  0.72154081  0.20156483  1
  O  O9  1  0.36185602  0.77845919  0.29843517  1
  O  O10  1  0.13814398  0.27845919  0.79843517  1
  O  O11  1  0.63814398  0.22154081  0.70156483  1
  O  O12  1  0.96303474  0.90993464  0.77431862  1
  O  O13  1  0.46303474  0.59006536  0.72568138  1
  O  O14  1  0.03696526  0.09006536  0.22568138  1
  O  O15  1  0.53696526  0.40993464  0.27431862  1
  O  O16  1  0.62430059  0.73370740  0.88449867  1
  O  O17  1  0.12430059  0.76629260  0.61550133  1
  O  O18  1  0.37569941  0.26629260  0.11550133  1
  O  O19  1  0.87569941  0.23370740  0.38449867  1
  O  O20  1  0.67581417  0.96052671  0.94867865  1
  O  O21  1  0.17581417  0.53947329  0.55132135  1
  O  O22  1  0.32418583  0.03947329  0.05132135  1
  O  O23  1  0.82418583  0.46052671  0.44867865  1
  O  O24  1  0.03676275  0.83137387  0.90554276  1
  O  O25  1  0.53676275  0.66862613  0.59445724  1
  O  O26  1  0.96323725  0.16862613  0.09445724  1
  O  O27  1  0.46323725  0.33137387  0.40554276  1
  O  O28  1  0.51934239  0.93194608  0.78648578  1
  O  O29  1  0.01934239  0.56805392  0.71351422  1
  O  O30  1  0.48065761  0.06805392  0.21351422  1
  O  O31  1  0.98065761  0.43194608  0.28648578  1
  O  O32  1  0.04599309  0.68949383  0.04033080  1
  O  O33  1  0.54599309  0.81050617  0.45966920  1
  O  O34  1  0.95400691  0.31050617  0.95966920  1
  O  O35  1  0.45400691  0.18949383  0.54033080  1
  O  O36  1  0.91504922  0.49166818  0.13953550  1
  O  O37  1  0.41504922  0.00833182  0.36046450  1
  O  O38  1  0.08495078  0.50833182  0.86046450  1
  O  O39  1  0.58495078  0.99166818  0.63953550  1
  Na  Na40  1  0.26886473  0.07979532  0.73360436  1
  Na  Na41  1  0.76886473  0.42020468  0.76639564  1
  Na  Na42  1  0.73113527  0.92020468  0.26639564  1
  Na  Na43  1  0.23113527  0.57979532  0.23360436  1
  Na  Na44  1  0.23346074  0.23342985  0.31600910  1
  Na  Na45  1  0.73346074  0.26657015  0.18399090  1
  Na  Na46  1  0.76653926  0.76657015  0.68399090  1
  Na  Na47  1  0.26653926  0.73342985  0.81600910  1
  Na  Na48  1  0.22546477  0.99020383  0.56940575  1
  Na  Na49  1  0.72546477  0.50979617  0.93059425  1
  Na  Na50  1  0.77453523  0.00979617  0.43059425  1
  Na  Na51  1  0.27453523  0.49020383  0.06940575  1
  Na  Na52  1  0.18247783  0.32926544  0.48481849  1
  Na  Na53  1  0.68247783  0.17073456  0.01518151  1
  Na  Na54  1  0.81752217  0.67073456  0.51518151  1
  Na  Na55  1  0.31752217  0.82926544  0.98481849  1
  S  S56  1  0.73884883  0.48654014  0.31046190  1
  S  S57  1  0.23884883  0.01345986  0.18953810  1
  S  S58  1  0.26115117  0.51345986  0.68953810  1
  S  S59  1  0.76115117  0.98654014  0.81046190  1
  S  S60  1  0.73312318  0.12579344  0.64945858  1
  S  S61  1  0.23312318  0.37420656  0.85054142  1
  S  S62  1  0.26687682  0.87420656  0.35054142  1
  S  S63  1  0.76687682  0.62579344  0.14945858  1
  S  S64  1  0.70091469  0.24108233  0.56111389  1
  S  S65  1  0.20091469  0.25891767  0.93888611  1
  S  S66  1  0.29908531  0.75891767  0.43888611  1
  S  S67  1  0.79908531  0.74108233  0.06111389  1
  S  S68  1  0.72296440  0.36543996  0.39719141  1
  S  S69  1  0.22296440  0.13456004  0.10280859  1
  S  S70  1  0.27703560  0.63456004  0.60280859  1
  S  S71  1  0.77703560  0.86543996  0.89719141  1
