# generated using pymatgen
data_Cr2P3O10
_symmetry_space_group_name_H-M   'P 1'
_cell_length_a   4.72121889
_cell_length_b   8.57069481
_cell_length_c   9.09829163
_cell_angle_alpha   90.00000000
_cell_angle_beta   99.86274663
_cell_angle_gamma   90.00000000
_symmetry_Int_Tables_number   1
_chemical_formula_structural   Cr2P3O10
_chemical_formula_sum   'Cr4 P6 O20'
_cell_volume   362.71343218
_cell_formula_units_Z   2
loop_
 _symmetry_equiv_pos_site_id
 _symmetry_equiv_pos_as_xyz
  1  'x, y, z'
loop_
 _atom_site_type_symbol
 _atom_site_label
 _atom_site_symmetry_multiplicity
 _atom_site_fract_x
 _atom_site_fract_y
 _atom_site_fract_z
 _atom_site_occupancy
  Cr  Cr0  1  0.05094857  0.43327820  0.32410608  1
  Cr  Cr1  1  0.05094857  0.06672180  0.32410608  1
  Cr  Cr2  1  0.94905143  0.56672180  0.67589392  1
  Cr  Cr3  1  0.94905143  0.93327820  0.67589392  1
  P  P4  1  0.47031979  0.25000000  0.14372002  1
  P  P5  1  0.60010298  0.25000000  0.54091432  1
  P  P6  1  0.52968021  0.75000000  0.85627998  1
  P  P7  1  0.67352702  0.75000000  0.18266105  1
  P  P8  1  0.39989702  0.75000000  0.45908568  1
  P  P9  1  0.32647298  0.25000000  0.81733895  1
  O  O10  1  0.23390057  0.90043902  0.48207021  1
  O  O11  1  0.16162443  0.39950227  0.79708259  1
  O  O12  1  0.83837557  0.89950227  0.20291741  1
  O  O13  1  0.78544705  0.25000000  0.23396917  1
  O  O14  1  0.53337638  0.25000000  0.97390498  1
  O  O15  1  0.76609943  0.09956098  0.51792979  1
  O  O16  1  0.16162443  0.10049773  0.79708259  1
  O  O17  1  0.21455295  0.75000000  0.76603083  1
  O  O18  1  0.43246931  0.75000000  0.28807103  1
  O  O19  1  0.83837557  0.60049773  0.20291741  1
  O  O20  1  0.68479597  0.90006607  0.83129284  1
  O  O21  1  0.76609943  0.40043902  0.51792979  1
  O  O22  1  0.31520403  0.09993393  0.16870716  1
  O  O23  1  0.68479597  0.59993393  0.83129284  1
  O  O24  1  0.29382951  0.25000000  0.44447293  1
  O  O25  1  0.46662362  0.75000000  0.02609502  1
  O  O26  1  0.23390057  0.59956098  0.48207021  1
  O  O27  1  0.56753069  0.25000000  0.71192897  1
  O  O28  1  0.70617049  0.75000000  0.55552707  1
  O  O29  1  0.31520403  0.40006607  0.16870716  1
