# generated using pymatgen
data_H34C19
_symmetry_space_group_name_H-M   'P 1'
_cell_length_a   7.76520056
_cell_length_b   11.34637934
_cell_length_c   11.06337932
_cell_angle_alpha   104.76350856
_cell_angle_beta   90.00000000
_cell_angle_gamma   90.00000000
_symmetry_Int_Tables_number   1
_chemical_formula_structural   H34C19
_chemical_formula_sum   'H68 C38'
_cell_volume   942.57933468
_cell_formula_units_Z   2
loop_
 _symmetry_equiv_pos_site_id
 _symmetry_equiv_pos_as_xyz
  1  'x, y, z'
loop_
 _atom_site_type_symbol
 _atom_site_label
 _atom_site_symmetry_multiplicity
 _atom_site_fract_x
 _atom_site_fract_y
 _atom_site_fract_z
 _atom_site_occupancy
  H  H0  1  0.23593492  0.33624662  0.22035700  1
  H  H1  1  0.73593492  0.66375338  0.77964300  1
  H  H2  1  0.62749649  0.14343865  0.68506158  1
  H  H3  1  0.12749649  0.85656135  0.31493842  1
  H  H4  1  0.78283188  0.04593126  0.59345915  1
  H  H5  1  0.28283188  0.95406874  0.40654085  1
  H  H6  1  0.82253030  0.11216194  0.75265675  1
  H  H7  1  0.32253030  0.88783806  0.24734325  1
  H  H8  1  0.90254156  0.35509565  0.04517125  1
  H  H9  1  0.40254156  0.64490435  0.95482875  1
  H  H10  1  0.70451964  0.33388932  0.96339266  1
  H  H11  1  0.20451964  0.66611068  0.03660734  1
  H  H12  1  0.86484323  0.21888567  0.92853291  1
  H  H13  1  0.36484323  0.78111433  0.07146709  1
  H  H14  1  0.20122224  0.18424259  0.23103050  1
  H  H15  1  0.70122224  0.81575741  0.76896950  1
  H  H16  1  0.19502649  0.21921930  0.08410145  1
  H  H17  1  0.69502649  0.78078070  0.91589855  1
  H  H18  1  0.42935349  0.01744391  0.06747733  1
  H  H19  1  0.92935349  0.98255609  0.93252267  1
  H  H20  1  0.41911238  0.11327822  0.96363726  1
  H  H21  1  0.91911238  0.88672178  0.03636274  1
  H  H22  1  0.62035428  0.08303915  0.02432398  1
  H  H23  1  0.12035428  0.91696085  0.97567602  1
  H  H24  1  0.01732688  0.70878609  0.86794325  1
  H  H25  1  0.51732688  0.29121391  0.13205675  1
  H  H26  1  0.58423230  0.39042938  0.36630090  1
  H  H27  1  0.08423230  0.60957062  0.63369910  1
  H  H28  1  0.38168823  0.33796089  0.40224630  1
  H  H29  1  0.88168823  0.66203911  0.59775370  1
  H  H30  1  0.97232789  0.87774959  0.69550373  1
  H  H31  1  0.47232789  0.12225041  0.30449627  1
  H  H32  1  0.25619460  0.91606220  0.80476199  1
  H  H33  1  0.75619460  0.08393780  0.19523801  1
  H  H34  1  0.80506740  0.24088831  0.24514069  1
  H  H35  1  0.30506740  0.75911169  0.75485931  1
  H  H36  1  0.94107253  0.12214315  0.37998289  1
  H  H37  1  0.44107253  0.87785685  0.62001711  1
  H  H38  1  0.60923873  0.71867286  0.42457030  1
  H  H39  1  0.10923873  0.28132714  0.57542970  1
  H  H40  1  0.07483457  0.12376708  0.55879653  1
  H  H41  1  0.57483457  0.87623292  0.44120347  1
  H  H42  1  0.28087656  0.20872569  0.72832028  1
  H  H43  1  0.78087656  0.79127431  0.27167972  1
  H  H44  1  0.59874220  0.84757303  0.21191642  1
  H  H45  1  0.09874220  0.15242697  0.78808358  1
  H  H46  1  0.17449834  0.42007450  0.79500563  1
  H  H47  1  0.67449834  0.57992550  0.20499437  1
  H  H48  1  0.18051831  0.35610106  0.92411080  1
  H  H49  1  0.68051831  0.64389894  0.07588920  1
  H  H50  1  0.91416639  0.47936514  0.90196321  1
  H  H51  1  0.41416639  0.52063486  0.09803679  1
  H  H52  1  0.38962176  0.56884385  0.31089422  1
  H  H53  1  0.88962176  0.43115615  0.68910578  1
  H  H54  1  0.12243970  0.51179835  0.18517261  1
  H  H55  1  0.62243970  0.48820165  0.81482739  1
  H  H56  1  0.55999399  0.33419816  0.77889425  1
  H  H57  1  0.05999399  0.66580184  0.22110575  1
  H  H58  1  0.62509544  0.48997548  0.59355700  1
  H  H59  1  0.12509544  0.51002452  0.40644300  1
  H  H60  1  0.42459008  0.43537204  0.62957351  1
  H  H61  1  0.92459008  0.56462796  0.37042649  1
  H  H62  1  0.51167707  0.22289816  0.53769582  1
  H  H63  1  0.01167707  0.77710184  0.46230418  1
  H  H64  1  0.35371808  0.66808467  0.51473401  1
  H  H65  1  0.85371808  0.33191533  0.48526599  1
  H  H66  1  0.73960706  0.06441662  0.40955137  1
  H  H67  1  0.23960706  0.93558338  0.59044863  1
  C  C68  1  0.76637808  0.13020238  0.66815133  1
  C  C69  1  0.26637808  0.86979762  0.33184867  1
  C  C70  1  0.84389158  0.31781469  0.95273586  1
  C  C71  1  0.34389158  0.68218531  0.04726414  1
  C  C72  1  0.48386645  0.10044558  0.04780514  1
  C  C73  1  0.98386645  0.89955442  0.95219486  1
  C  C74  1  0.26206787  0.24015390  0.17464953  1
  C  C75  1  0.76206787  0.75984610  0.82535047  1
  C  C76  1  0.45628077  0.21296875  0.15755042  1
  C  C77  1  0.95628077  0.78703125  0.84244958  1
  C  C78  1  0.51826697  0.31257428  0.38981634  1
  C  C79  1  0.01826697  0.68742572  0.61018366  1
  C  C80  1  0.54050777  0.19893279  0.28041864  1
  C  C81  1  0.04050777  0.80106721  0.71958136  1
  C  C82  1  0.73285487  0.16653115  0.27020291  1
  C  C83  1  0.23285487  0.83346885  0.72979709  1
  C  C84  1  0.80392040  0.14546987  0.39268411  1
  C  C85  1  0.30392040  0.85453013  0.60731589  1
  C  C86  1  0.85345565  0.23894065  0.63250974  1
  C  C87  1  0.35345565  0.76105935  0.36749026  1
  C  C88  1  0.77928823  0.25570682  0.50529298  1
  C  C89  1  0.27928823  0.74429318  0.49470702  1
  C  C90  1  0.58866126  0.29620587  0.51472265  1
  C  C91  1  0.08866126  0.70379413  0.48527735  1
  C  C92  1  0.56246255  0.41244785  0.61962326  1
  C  C93  1  0.06246255  0.58755215  0.38037674  1
  C  C94  1  0.63626766  0.40067649  0.74439358  1
  C  C95  1  0.13626766  0.59932351  0.25560642  1
  C  C96  1  0.82646927  0.36341862  0.73113127  1
  C  C97  1  0.32646927  0.63658138  0.26886873  1
  C  C98  1  0.92172278  0.38069528  0.85797755  1
  C  C99  1  0.42172278  0.61930472  0.14202245  1
  C  C100  1  0.11412092  0.35025835  0.83486447  1
  C  C101  1  0.61412092  0.64974165  0.16513553  1
  C  C102  1  0.14218816  0.22491935  0.74530092  1
  C  C103  1  0.64218816  0.77508065  0.25469908  1
  C  C104  1  0.05003273  0.21470224  0.62040401  1
  C  C105  1  0.55003273  0.78529776  0.37959599  1
