# generated using pymatgen
data_V5H28C8N13O17
_symmetry_space_group_name_H-M   'P 1'
_cell_length_a   10.74074129
_cell_length_b   11.18226205
_cell_length_c   13.36996901
_cell_angle_alpha   85.33584663
_cell_angle_beta   67.08396922
_cell_angle_gamma   88.41727794
_symmetry_Int_Tables_number   1
_chemical_formula_structural   V5H28C8N13O17
_chemical_formula_sum   'V10 H56 C16 N26 O34'
_cell_volume   1474.16209523
_cell_formula_units_Z   2
loop_
 _symmetry_equiv_pos_site_id
 _symmetry_equiv_pos_as_xyz
  1  'x, y, z'
loop_
 _atom_site_type_symbol
 _atom_site_label
 _atom_site_symmetry_multiplicity
 _atom_site_fract_x
 _atom_site_fract_y
 _atom_site_fract_z
 _atom_site_occupancy
  V  V0  1  0.54898110  0.37947198  0.55400804  1
  V  V1  1  0.45101890  0.62052802  0.44599196  1
  V  V2  1  0.73755301  0.61382974  0.46310222  1
  V  V3  1  0.26244699  0.38617026  0.53689778  1
  V  V4  1  0.69268003  0.45372919  0.29813623  1
  V  V5  1  0.30731997  0.54627081  0.70186377  1
  V  V6  1  0.49863234  0.22784653  0.38643489  1
  V  V7  1  0.50136766  0.77215347  0.61356511  1
  V  V8  1  0.59562206  0.54103717  0.71777905  1
  V  V9  1  0.40437794  0.45896283  0.28222095  1
  H  H10  1  0.33080389  0.12258362  0.13594062  1
  H  H11  1  0.66919611  0.87741638  0.86405938  1
  H  H12  1  0.41806608  0.11022804  0.22303557  1
  H  H13  1  0.58193392  0.88977196  0.77696443  1
  H  H14  1  0.42348941  0.92445804  0.31246470  1
  H  H15  1  0.57651059  0.07554196  0.68753530  1
  H  H16  1  0.36785013  0.79447614  0.27850211  1
  H  H17  1  0.63214987  0.20552386  0.72149789  1
  H  H18  1  0.05004651  0.72055443  0.28322340  1
  H  H19  1  0.94995349  0.27944557  0.71677660  1
  H  H20  1  0.08719390  0.86081724  0.30886133  1
  H  H21  1  0.91280610  0.13918276  0.69113867  1
  H  H22  1  0.01455301  0.68097842  0.14031629  1
  H  H23  1  0.98544699  0.31902158  0.85968371  1
  H  H24  1  0.12873205  0.61049307  0.02544791  1
  H  H25  1  0.87126795  0.38950693  0.97455209  1
  H  H26  1  0.12809391  0.57024505  0.15742870  1
  H  H27  1  0.87190609  0.42975495  0.84257130  1
  H  H28  1  0.40480909  0.66474775  0.98282292  1
  H  H29  1  0.59519091  0.33525225  0.01717708  1
  H  H30  1  0.30655865  0.73017477  0.91148840  1
  H  H31  1  0.69344135  0.26982523  0.08851160  1
  H  H32  1  0.39162232  0.82420908  0.96710318  1
  H  H33  1  0.60837768  0.17579092  0.03289682  1
  H  H34  1  0.76245517  0.94493653  0.27383239  1
  H  H35  1  0.23754483  0.05506347  0.72616761  1
  H  H36  1  0.71117567  0.79333563  0.30288831  1
  H  H37  1  0.28882433  0.20666437  0.69711169  1
  H  H38  1  0.83024937  0.03173457  0.09634925  1
  H  H39  1  0.16975063  0.96826543  0.90365075  1
  H  H40  1  0.80687649  0.94512342  0.99607374  1
  H  H41  1  0.19312351  0.05487658  0.00392626  1
  H  H42  1  0.68719226  0.68908368  0.17968252  1
  H  H43  1  0.31280774  0.31091632  0.82031748  1
  H  H44  1  0.69342688  0.59692812  0.93586351  1
  H  H45  1  0.30657312  0.40307188  0.06413649  1
  H  H46  1  0.64948823  0.56448998  0.07810910  1
  H  H47  1  0.35051177  0.43551002  0.92189090  1
  H  H48  1  0.20842461  0.24611623  0.36906455  1
  H  H49  1  0.79157539  0.75388377  0.63093545  1
  H  H50  1  0.12763451  0.10716731  0.37068667  1
  H  H51  1  0.87236549  0.89283269  0.62931333  1
  H  H52  1  0.90082174  0.40720622  0.41938108  1
  H  H53  1  0.09917826  0.59279378  0.58061892  1
  H  H54  1  0.07523401  0.41696984  0.40056173  1
  H  H55  1  0.92476599  0.58303016  0.59943827  1
  H  H56  1  0.80717404  0.22973877  0.42899874  1
  H  H57  1  0.19282596  0.77026123  0.57100126  1
  H  H58  1  0.75143322  0.92180078  0.46143837  1
  H  H59  1  0.24856678  0.07819922  0.53856163  1
  H  H60  1  0.68415057  0.06681953  0.47353294  1
  H  H61  1  0.31584943  0.93318047  0.52646706  1
  H  H62  1  0.81187992  0.19865592  0.21240874  1
  H  H63  1  0.18812008  0.80134408  0.78759126  1
  H  H64  1  0.96611143  0.16775240  0.14657732  1
  H  H65  1  0.03388857  0.83224760  0.85342268  1
  C  C66  1  0.34642519  0.95218577  0.19326506  1
  C  C67  1  0.65357481  0.04781423  0.80673494  1
  C  C68  1  0.21085949  0.81196615  0.15846066  1
  C  C69  1  0.78914051  0.18803385  0.84153934  1
  C  C70  1  0.11710407  0.64514568  0.10285771  1
  C  C71  1  0.88289593  0.35485432  0.89714229  1
  C  C72  1  0.33713774  0.73945401  0.97975203  1
  C  C73  1  0.66286226  0.26054599  0.02024797  1
  C  C74  1  0.76018737  0.86069405  0.14479398  1
  C  C75  1  0.23981263  0.13930595  0.85520602  1
  C  C76  1  0.74005172  0.72892070  0.01202154  1
  C  C77  1  0.25994828  0.27107930  0.98797846  1
  C  C78  1  0.00821450  0.25123938  0.39639333  1
  C  C79  1  0.99178550  0.74876062  0.60360667  1
  C  C80  1  0.89235918  0.05856304  0.41342882  1
  C  C81  1  0.10764082  0.94143696  0.58657118  1
  N  N82  1  0.37719891  0.07026633  0.17724693  1
  N  N83  1  0.62280109  0.92973367  0.82275307  1
  N  N84  1  0.37997075  0.88532306  0.26800905  1
  N  N85  1  0.62002925  0.11467694  0.73199095  1
  N  N86  1  0.29202121  0.90893016  0.12976557  1
  N  N87  1  0.70797879  0.09106984  0.87023443  1
  N  N88  1  0.11633470  0.79119109  0.25993321  1
  N  N89  1  0.88366530  0.20880891  0.74006679  1
  N  N90  1  0.21796635  0.73876763  0.08103892  1
  N  N91  1  0.78203365  0.26123237  0.91896108  1
  N  N92  1  0.74561228  0.86617908  0.24803666  1
  N  N93  1  0.25438772  0.13382092  0.75196334  1
  N  N94  1  0.80452734  0.95369029  0.07237024  1
  N  N95  1  0.19547266  0.04630971  0.92762976  1
  N  N96  1  0.72694412  0.75425253  0.11724796  1
  N  N97  1  0.27305588  0.24574747  0.88275204  1
  N  N98  1  0.69101600  0.62142350  0.00849266  1
  N  N99  1  0.30898400  0.37857650  0.99150734  1
  N  N100  1  0.12643485  0.19810304  0.37468134  1
  N  N101  1  0.87356515  0.80189696  0.62531866  1
  N  N102  1  0.99333948  0.36852498  0.40424495  1
  N  N103  1  0.00666052  0.63147502  0.59575505  1
  N  N104  1  0.89598271  0.18419117  0.41165629  1
  N  N105  1  0.10401729  0.81580883  0.58834371  1
  N  N106  1  0.76668602  0.01303169  0.44602419  1
  N  N107  1  0.23331398  0.98696831  0.55397581  1
  O  O108  1  0.52024940  0.56716280  0.56766508  1
  O  O109  1  0.47975060  0.43283720  0.43233492  1
  O  O110  1  0.71962707  0.43881905  0.43981088  1
  O  O111  1  0.28037293  0.56118095  0.56018912  1
  O  O112  1  0.56455045  0.23446206  0.51196338  1
  O  O113  1  0.43544955  0.76553794  0.48803662  1
  O  O114  1  0.60341934  0.37716293  0.66070797  1
  O  O115  1  0.39658066  0.62283707  0.33929203  1
  O  O116  1  0.89386914  0.63699937  0.37647990  1
  O  O117  1  0.10613086  0.36300063  0.62352010  1
  O  O118  1  0.64224079  0.62222429  0.35728766  1
  O  O119  1  0.35775921  0.37777571  0.64271234  1
  O  O120  1  0.67565119  0.76593732  0.50063838  1
  O  O121  1  0.32434881  0.23406268  0.49936162  1
  O  O122  1  0.75713710  0.56843117  0.59156751  1
  O  O123  1  0.24286290  0.43156883  0.40843249  1
  O  O124  1  0.84664136  0.48102537  0.21149489  1
  O  O125  1  0.15335864  0.51897463  0.78850511  1
  O  O126  1  0.67581461  0.28967125  0.30173193  1
  O  O127  1  0.32418539  0.71032875  0.69826807  1
  O  O128  1  0.59114028  0.49058463  0.21467750  1
  O  O129  1  0.40885972  0.50941537  0.78532250  1
  O  O130  1  0.50989397  0.08484532  0.36414347  1
  O  O131  1  0.49010603  0.91515468  0.63585653  1
  O  O132  1  0.43438730  0.29366391  0.28552485  1
  O  O133  1  0.56561270  0.70633609  0.71447515  1
  O  O134  1  0.64869171  0.51686002  0.81691411  1
  O  O135  1  0.35130829  0.48313998  0.18308589  1
  O  O136  1  0.79266552  0.80262930  0.93132533  1
  O  O137  1  0.20733448  0.19737070  0.06867467  1
  O  O138  1  0.99711549  0.99707480  0.38654298  1
  O  O139  1  0.00288451  0.00292520  0.61345702  1
  O  O140  1  0.87418539  0.13672299  0.17075627  1
  O  O141  1  0.12581461  0.86327701  0.82924373  1
