# generated using pymatgen
data_BaMn2O8
_symmetry_space_group_name_H-M   'P 1'
_cell_length_a   7.14540094
_cell_length_b   7.14540094
_cell_length_c   8.44444439
_cell_angle_alpha   103.42531592
_cell_angle_beta   103.42531592
_cell_angle_gamma   116.82225275
_symmetry_Int_Tables_number   1
_chemical_formula_structural   BaMn2O8
_chemical_formula_sum   'Ba2 Mn4 O16'
_cell_volume   344.89948321
_cell_formula_units_Z   2
loop_
 _symmetry_equiv_pos_site_id
 _symmetry_equiv_pos_as_xyz
  1  'x, y, z'
loop_
 _atom_site_type_symbol
 _atom_site_label
 _atom_site_symmetry_multiplicity
 _atom_site_fract_x
 _atom_site_fract_y
 _atom_site_fract_z
 _atom_site_occupancy
  O  O0  1  0.13133087  0.93498185  0.41692161  1
  O  O1  1  0.51806024  0.21440926  0.08307839  1
  O  O2  1  0.06501815  0.86866913  0.08307839  1
  O  O3  1  0.78559074  0.48193976  0.41692161  1
  O  O4  1  0.86866913  0.06501815  0.58307839  1
  O  O5  1  0.48193976  0.78559074  0.91692161  1
  O  O6  1  0.44621538  0.94024844  0.29947923  1
  O  O7  1  0.64076921  0.64673615  0.20052077  1
  O  O8  1  0.05975156  0.55378462  0.20052077  1
  O  O9  1  0.35326385  0.35923079  0.29947923  1
  O  O10  1  0.55378462  0.05975156  0.70052077  1
  O  O11  1  0.35923079  0.35326385  0.79947923  1
  O  O12  1  0.94024844  0.44621538  0.79947923  1
  O  O13  1  0.64673615  0.64076921  0.70052077  1
  O  O14  1  0.21440926  0.51806024  0.58307839  1
  O  O15  1  0.93498185  0.13133087  0.91692161  1
  Mn  Mn16  1  0.82304448  0.17695552  0.75000000  1
  Mn  Mn17  1  0.42695552  0.57304448  0.75000000  1
  Mn  Mn18  1  0.17695552  0.82304448  0.25000000  1
  Mn  Mn19  1  0.57304448  0.42695552  0.25000000  1
  Ba  Ba20  1  0.12500000  0.87500000  0.75000000  1
  Ba  Ba21  1  0.87500000  0.12500000  0.25000000  1
