# generated using pymatgen
data_LiMn(PO3)4
_symmetry_space_group_name_H-M   'P 1'
_cell_length_a   7.32406405
_cell_length_b   9.29704454
_cell_length_c   7.50861380
_cell_angle_alpha   90.00000000
_cell_angle_beta   109.09565273
_cell_angle_gamma   90.00000000
_symmetry_Int_Tables_number   1
_chemical_formula_structural   LiMn(PO3)4
_chemical_formula_sum   'Li2 Mn2 P8 O24'
_cell_volume   483.14395546
_cell_formula_units_Z   2
loop_
 _symmetry_equiv_pos_site_id
 _symmetry_equiv_pos_as_xyz
  1  'x, y, z'
loop_
 _atom_site_type_symbol
 _atom_site_label
 _atom_site_symmetry_multiplicity
 _atom_site_fract_x
 _atom_site_fract_y
 _atom_site_fract_z
 _atom_site_occupancy
  Li  Li0  1  0.61853390  0.83415704  0.80262843  1
  Li  Li1  1  0.88146589  0.33415648  0.69737100  1
  O  O2  1  0.43308905  0.22860060  0.82029815  1
  O  O3  1  0.89815237  0.54945823  0.25767970  1
  O  O4  1  0.06691085  0.72860009  0.67970094  1
  O  O5  1  0.09459692  0.45636379  0.73591027  1
  O  O6  1  0.18545958  0.09914350  0.91305370  1
  O  O7  1  0.14322504  0.13312838  0.57833475  1
  O  O8  1  0.35677485  0.63312786  0.92166434  1
  O  O9  1  0.13162732  0.07641480  0.25136938  1
  O  O10  1  0.31454032  0.59914406  0.58694672  1
  O  O11  1  0.40540297  0.95636327  0.76408881  1
  O  O12  1  0.93877542  0.27476543  0.32003996  1
  O  O13  1  0.19071242  0.80584224  0.08580793  1
  O  O14  1  0.30928703  0.30584168  0.41419307  1
  O  O15  1  0.36837213  0.57641536  0.24863028  1
  O  O16  1  0.63393936  0.42299507  0.75157186  1
  O  O17  1  0.69374037  0.70119826  0.59969814  1
  O  O18  1  0.79831676  0.90056948  0.07197219  1
  O  O19  1  0.56122537  0.77476492  0.17996051  1
  O  O20  1  0.60184697  0.04945874  0.24232031  1
  O  O21  1  0.70168259  0.40056999  0.42802782  1
  O  O22  1  0.86606044  0.92299563  0.74842758  1
  O  O23  1  0.64015593  0.36390988  0.08339569  1
  O  O24  1  0.85984341  0.86391044  0.41660298  1
  O  O25  1  0.80625942  0.20119878  0.90030263  1
  P  P26  1  0.80301513  0.41450435  0.27775978  1
  P  P27  1  0.86025524  0.79914450  0.61191167  1
  P  P28  1  0.20131105  0.58896258  0.72301194  1
  P  P29  1  0.14689335  0.20282136  0.38227792  1
  P  P30  1  0.29868885  0.08896202  0.77698715  1
  P  P31  1  0.69698421  0.91450491  0.22224023  1
  P  P32  1  0.63974455  0.29914394  0.88808777  1
  P  P33  1  0.35310610  0.70282084  0.11772173  1
  Mn  Mn34  1  0.00769007  0.99473107  0.00522556  1
  Mn  Mn35  1  0.49230938  0.49473051  0.49477410  1
