# generated using pymatgen
data_SrLaMnWO6
_symmetry_space_group_name_H-M   'P 1'
_cell_length_a   5.80188552
_cell_length_b   5.80177453
_cell_length_c   5.76569752
_cell_angle_alpha   120.17186975
_cell_angle_beta   120.19923496
_cell_angle_gamma   90.00040644
_symmetry_Int_Tables_number   1
_chemical_formula_structural   SrLaMnWO6
_chemical_formula_sum   'Sr1 La1 Mn1 W1 O6'
_cell_volume   136.46171924
_cell_formula_units_Z   1
loop_
 _symmetry_equiv_pos_site_id
 _symmetry_equiv_pos_as_xyz
  1  'x, y, z'
loop_
 _atom_site_type_symbol
 _atom_site_label
 _atom_site_symmetry_multiplicity
 _atom_site_fract_x
 _atom_site_fract_y
 _atom_site_fract_z
 _atom_site_occupancy
  La  La0  1  0.74993851  0.25001090  0.50002602  1
  Mn  Mn1  1  0.99986271  0.99994244  0.99997459  1
  O  O2  1  0.26072243  0.26058947  0.52157819  1
  O  O3  1  0.18071045  0.30971209  0.97206815  1
  O  O4  1  0.33774524  0.81936162  0.02793380  1
  O  O5  1  0.73931951  0.73949624  0.47843207  1
  O  O6  1  0.69021337  0.20851164  0.02773758  1
  O  O7  1  0.79155695  0.66240352  0.97230614  1
  Sr  Sr8  1  0.25003287  0.75001312  0.50002367  1
  W  W9  1  0.49989796  0.49995895  0.99991978  1
