# generated using pymatgen
data_Sc3InS6
_symmetry_space_group_name_H-M   'P 1'
_cell_length_a   3.68268197
_cell_length_b   12.84213839
_cell_length_c   16.16754056
_cell_angle_alpha   90.00000000
_cell_angle_beta   90.00000000
_cell_angle_gamma   90.00000000
_symmetry_Int_Tables_number   1
_chemical_formula_structural   Sc3InS6
_chemical_formula_sum   'Sc12 In4 S24'
_cell_volume   764.61976548
_cell_formula_units_Z   4
loop_
 _symmetry_equiv_pos_site_id
 _symmetry_equiv_pos_as_xyz
  1  'x, y, z'
loop_
 _atom_site_type_symbol
 _atom_site_label
 _atom_site_symmetry_multiplicity
 _atom_site_fract_x
 _atom_site_fract_y
 _atom_site_fract_z
 _atom_site_occupancy
  Sc  Sc0  1  0.25229882  0.03495662  0.77368073  1
  Sc  Sc1  1  0.25229882  0.96504338  0.22631927  1
  Sc  Sc2  1  0.74770118  0.46504338  0.27368073  1
  Sc  Sc3  1  0.74770118  0.53495662  0.72631927  1
  Sc  Sc4  1  0.26797303  0.24685398  0.61360018  1
  Sc  Sc5  1  0.26797303  0.75314602  0.38639982  1
  Sc  Sc6  1  0.73202697  0.25314602  0.11360018  1
  Sc  Sc7  1  0.73202697  0.74685398  0.88639982  1
  Sc  Sc8  1  0.74871771  0.30869811  0.85560855  1
  Sc  Sc9  1  0.74871771  0.69130189  0.14439145  1
  Sc  Sc10  1  0.25128229  0.19130189  0.35560855  1
  Sc  Sc11  1  0.25128229  0.80869811  0.64439145  1
  In  In12  1  0.75529145  -0.00000000  0.50000000  1
  In  In13  1  0.24470855  0.50000000  0.00000000  1
  In  In14  1  0.36751993  0.50000000  0.50000000  1
  In  In15  1  0.63248007  -0.00000000  0.00000000  1
  S  S16  1  0.77257017  0.39579340  0.59803298  1
  S  S17  1  0.77257017  0.60420660  0.40196702  1
  S  S18  1  0.22742983  0.10420660  0.09803298  1
  S  S19  1  0.22742983  0.89579340  0.90196702  1
  S  S20  1  0.24911634  0.30114426  0.97740412  1
  S  S21  1  0.24911634  0.69885574  0.02259588  1
  S  S22  1  0.75088366  0.19885574  0.47740412  1
  S  S23  1  0.75088366  0.80114426  0.52259588  1
  S  S24  1  0.74853582  0.10856584  0.87758882  1
  S  S25  1  0.74853582  0.89143416  0.12241118  1
  S  S26  1  0.25146418  0.39143416  0.37758882  1
  S  S27  1  0.25146418  0.60856584  0.62241118  1
  S  S28  1  0.76233181  0.18056140  0.71630547  1
  S  S29  1  0.76233181  0.81943860  0.28369453  1
  S  S30  1  0.23766819  0.31943860  0.21630547  1
  S  S31  1  0.23766819  0.68056140  0.78369453  1
  S  S32  1  0.25177039  0.38179293  0.75651615  1
  S  S33  1  0.25177039  0.61820707  0.24348385  1
  S  S34  1  0.74822961  0.11820707  0.25651615  1
  S  S35  1  0.74822961  0.88179293  0.74348385  1
  S  S36  1  0.25420241  0.02148787  0.60973347  1
  S  S37  1  0.25420241  0.97851213  0.39026653  1
  S  S38  1  0.74579759  0.47851213  0.10973347  1
  S  S39  1  0.74579759  0.52148787  0.89026653  1
