# generated using pymatgen
data_Mg2TcO4
_symmetry_space_group_name_H-M   'P 1'
_cell_length_a   6.10768199
_cell_length_b   6.05622408
_cell_length_c   6.10768106
_cell_angle_alpha   60.27831048
_cell_angle_beta   60.67514988
_cell_angle_gamma   60.27831083
_symmetry_Int_Tables_number   1
_chemical_formula_structural   Mg2TcO4
_chemical_formula_sum   'Mg4 Tc2 O8'
_cell_volume   161.22769293
_cell_formula_units_Z   2
loop_
 _symmetry_equiv_pos_site_id
 _symmetry_equiv_pos_as_xyz
  1  'x, y, z'
loop_
 _atom_site_type_symbol
 _atom_site_label
 _atom_site_symmetry_multiplicity
 _atom_site_fract_x
 _atom_site_fract_y
 _atom_site_fract_z
 _atom_site_occupancy
  Mg  Mg0  1  0.01218623  0.98781377  0.01218623  1
  Mg  Mg1  1  0.23781377  0.26218623  0.23781377  1
  Mg  Mg2  1  0.62500000  0.12500000  0.62500000  1
  Mg  Mg3  1  0.62500000  0.62500000  0.62500000  1
  Tc  Tc4  1  0.12500000  0.62500000  0.62500000  1
  Tc  Tc5  1  0.62500000  0.62500000  0.12500000  1
  O  O6  1  0.37818385  0.39375709  0.37818385  1
  O  O7  1  0.37739950  0.39024003  0.84212045  1
  O  O8  1  0.37818385  0.84987522  0.37818385  1
  O  O9  1  0.84212045  0.39024003  0.37739950  1
  O  O10  1  0.40787955  0.85975997  0.87260050  1
  O  O11  1  0.87260050  0.85975997  0.40787955  1
  O  O12  1  0.87181615  0.40012478  0.87181615  1
  O  O13  1  0.87181615  0.85624291  0.87181615  1
