# generated using pymatgen
data_NaYTiNbO6F
_symmetry_space_group_name_H-M   'P 1'
_cell_length_a   7.33528292
_cell_length_b   14.66700983
_cell_length_c   12.70113808
_cell_angle_alpha   30.00744959
_cell_angle_beta   54.72302674
_cell_angle_gamma   59.99197952
_symmetry_Int_Tables_number   1
_chemical_formula_structural   NaYTiNbO6F
_chemical_formula_sum   'Na4 Y4 Ti4 Nb4 O24 F4'
_cell_volume   557.89926945
_cell_formula_units_Z   4
loop_
 _symmetry_equiv_pos_site_id
 _symmetry_equiv_pos_as_xyz
  1  'x, y, z'
loop_
 _atom_site_type_symbol
 _atom_site_label
 _atom_site_symmetry_multiplicity
 _atom_site_fract_x
 _atom_site_fract_y
 _atom_site_fract_z
 _atom_site_occupancy
  F  F0  1  0.12228377  0.00273689  0.12227256  1
  F  F1  1  0.12774552  0.49726379  0.12772443  1
  F  F2  1  0.87772195  0.00273621  0.87227557  1
  F  F3  1  0.87230267  0.49726311  0.87772744  1
  Na  Na4  1  0.50003028  0.98398961  0.01596964  1
  Na  Na5  1  -0.00005122  0.51601039  0.98403036  1
  Na  Na6  1  0.98409394  0.75000000  0.00000000  1
  Na  Na7  1  0.01586543  0.75000000  0.50000000  1
  Nb  Nb8  1  0.48916442  0.75000000  0.00000000  1
  Nb  Nb9  1  -0.00002982  0.01100178  0.48897921  1
  Nb  Nb10  1  0.49993217  0.48899822  0.51102079  1
  Nb  Nb11  1  0.51076507  0.75000000  0.50000000  1
  O  O12  1  0.18420300  0.20391156  0.16281325  1
  O  O13  1  0.17536975  0.02824424  0.54739096  1
  O  O14  1  0.57895113  0.20395896  0.17105967  1
  O  O15  1  0.16284508  0.69907937  0.18417331  1
  O  O16  1  0.42101240  0.20396210  0.42104419  1
  O  O17  1  0.17102497  0.29603790  0.57895581  1
  O  O18  1  0.54740434  0.49900620  0.17533866  1
  O  O19  1  0.39609405  0.00099380  0.82466134  1
  O  O20  1  0.17334161  0.47172970  0.60393080  1
  O  O21  1  0.58236277  0.29611604  0.57061869  1
  O  O22  1  0.81583223  0.20388396  0.42938131  1
  O  O23  1  0.56056282  0.68560790  0.18942280  1
  O  O24  1  0.41765261  0.29608844  0.83718675  1
  O  O25  1  0.43942743  0.68558927  0.43940432  1
  O  O26  1  0.18941460  0.81441073  0.56059568  1
  O  O27  1  0.60392514  0.00098522  0.17336916  1
  O  O28  1  0.82664013  0.47175576  0.45260904  1
  O  O29  1  0.45263391  0.49901478  0.82663084  1
  O  O30  1  0.57067498  0.80091151  0.58234503  1
  O  O31  1  0.82898839  0.29604104  0.82894033  1
  O  O32  1  0.83718806  0.69908849  0.41765497  1
  O  O33  1  0.42935045  0.80092063  0.81582669  1
  O  O34  1  0.82466261  0.02827030  0.39606920  1
  O  O35  1  0.81062423  0.81439210  0.81057720  1
  Ti  Ti36  1  0.51679718  0.25000000  0.00000000  1
  Ti  Ti37  1  0.49996992  0.01660247  0.48340587  1
  Ti  Ti38  1  0.48316382  0.25000000  0.50000000  1
  Ti  Ti39  1  0.99998661  0.48339753  0.51659413  1
  Y  Y40  1  -0.00001132  0.96631194  0.03369584  1
  Y  Y41  1  0.50000424  0.53368806  0.96630416  1
  Y  Y42  1  0.03371338  0.25000000  0.00000000  1
  Y  Y43  1  0.96636530  0.25000000  0.50000000  1
