# generated using pymatgen
data_NdTi3Fe(CuO4)3
_symmetry_space_group_name_H-M   'P 1'
_cell_length_a   6.49458014
_cell_length_b   6.50204363
_cell_length_c   6.50204307
_cell_angle_alpha   109.49446193
_cell_angle_beta   109.44796833
_cell_angle_gamma   109.44796664
_symmetry_Int_Tables_number   1
_chemical_formula_structural   NdTi3Fe(CuO4)3
_chemical_formula_sum   'Nd1 Ti3 Fe1 Cu3 O12'
_cell_volume   211.42360416
_cell_formula_units_Z   1
loop_
 _symmetry_equiv_pos_site_id
 _symmetry_equiv_pos_as_xyz
  1  'x, y, z'
loop_
 _atom_site_type_symbol
 _atom_site_label
 _atom_site_symmetry_multiplicity
 _atom_site_fract_x
 _atom_site_fract_y
 _atom_site_fract_z
 _atom_site_occupancy
  Cu  Cu0  1  0.00000000  0.50000000  0.50000000  1
  Cu  Cu1  1  0.50000000  0.00000000  0.50000000  1
  Cu  Cu2  1  0.50000000  0.50000000  0.00000000  1
  Fe  Fe3  1  0.50000000  0.00000000  0.00000000  1
  Nd  Nd4  1  0.00000000  0.00000000  0.00000000  1
  O  O5  1  0.16870835  0.69299464  0.87295447  1
  O  O6  1  0.12489956  0.82408228  0.30009684  1
  O  O7  1  0.17519728  0.30009684  0.47601456  1
  O  O8  1  0.29575388  0.12704553  0.82004017  1
  O  O9  1  0.52428629  0.82004017  0.69299464  1
  O  O10  1  0.30081728  0.47601456  0.17591772  1
  O  O11  1  0.69918272  0.52398544  0.82408228  1
  O  O12  1  0.47571371  0.17995983  0.30700536  1
  O  O13  1  0.70424612  0.87295447  0.17995983  1
  O  O14  1  0.82480272  0.69990316  0.52398544  1
  O  O15  1  0.87510044  0.17591772  0.69990316  1
  O  O16  1  0.83129165  0.30700536  0.12704553  1
  Ti  Ti17  1  0.50000000  0.50000000  0.50000000  1
  Ti  Ti18  1  0.00000000  0.00000000  0.50000000  1
  Ti  Ti19  1  0.00000000  0.50000000  0.00000000  1
