# generated using pymatgen
data_Mn2CuO4
_symmetry_space_group_name_H-M   'P 1'
_cell_length_a   6.01782546
_cell_length_b   6.01782576
_cell_length_c   6.01782631
_cell_angle_alpha   60.49657479
_cell_angle_beta   60.49657334
_cell_angle_gamma   60.49657029
_symmetry_Int_Tables_number   1
_chemical_formula_structural   Mn2CuO4
_chemical_formula_sum   'Mn4 Cu2 O8'
_cell_volume   155.82985842
_cell_formula_units_Z   2
loop_
 _symmetry_equiv_pos_site_id
 _symmetry_equiv_pos_as_xyz
  1  'x, y, z'
loop_
 _atom_site_type_symbol
 _atom_site_label
 _atom_site_symmetry_multiplicity
 _atom_site_fract_x
 _atom_site_fract_y
 _atom_site_fract_z
 _atom_site_occupancy
  Cu  Cu0  1  0.24727137  0.24727137  0.24727137  1
  Cu  Cu1  1  0.62441280  0.62441280  0.62441280  1
  Mn  Mn2  1  0.00468650  0.00468650  0.00468650  1
  Mn  Mn3  1  0.12684924  0.62448579  0.62448579  1
  Mn  Mn4  1  0.62448579  0.62448579  0.12684924  1
  Mn  Mn5  1  0.62448579  0.12684924  0.62448579  1
  O  O6  1  0.38099373  0.38099373  0.38099373  1
  O  O7  1  0.38041926  0.83687838  0.38041926  1
  O  O8  1  0.38041926  0.38041926  0.83687838  1
  O  O9  1  0.83687838  0.38041926  0.38041926  1
  O  O10  1  0.41653778  0.86767780  0.86767780  1
  O  O11  1  0.86767780  0.41653778  0.86767780  1
  O  O12  1  0.86767780  0.86767780  0.41653778  1
  O  O13  1  0.86720448  0.86720448  0.86720448  1
