# generated using pymatgen
data_Li3MoP2O9
_symmetry_space_group_name_H-M   'P 1'
_cell_length_a   7.17504630
_cell_length_b   8.05776568
_cell_length_c   7.21596797
_cell_angle_alpha   88.48755950
_cell_angle_beta   86.93983847
_cell_angle_gamma   63.22341218
_symmetry_Int_Tables_number   1
_chemical_formula_structural   Li3MoP2O9
_chemical_formula_sum   'Li6 Mo2 P4 O18'
_cell_volume   371.92235648
_cell_formula_units_Z   2
loop_
 _symmetry_equiv_pos_site_id
 _symmetry_equiv_pos_as_xyz
  1  'x, y, z'
loop_
 _atom_site_type_symbol
 _atom_site_label
 _atom_site_symmetry_multiplicity
 _atom_site_fract_x
 _atom_site_fract_y
 _atom_site_fract_z
 _atom_site_occupancy
  Li  Li0  1  0.09919353  0.81128550  0.25090827  1
  Li  Li1  1  0.49585510  0.50175108  0.50441547  1
  Li  Li2  1  0.66134480  0.74899619  0.67130334  1
  Li  Li3  1  0.33261046  0.24958914  0.33443694  1
  Li  Li4  1  0.96056700  0.19021984  0.74240955  1
  Li  Li5  1  0.76885242  0.00091336  0.00006152  1
  Mo  Mo6  1  0.00076199  0.49015847  0.99676414  1
  Mo  Mo7  1  0.49213237  0.50998923  0.00429839  1
  P  P8  1  0.12254811  0.75489627  0.70366795  1
  P  P9  1  0.42303681  0.19649079  0.75789119  1
  P  P10  1  0.85530245  0.24435374  0.29701565  1
  P  P11  1  0.58933964  0.80509830  0.24378895  1
  O  O12  1  0.76747708  0.46790434  0.89214159  1
  O  O13  1  0.35809010  0.63812956  0.77028768  1
  O  O14  1  0.85420333  0.24957364  0.50467784  1
  O  O15  1  0.39796018  0.29789195  0.57391639  1
  O  O16  1  0.01271354  0.93946972  0.80360757  1
  O  O17  1  0.00138810  0.33693527  0.21606486  1
  O  O18  1  0.49553599  0.01356464  0.24008225  1
  O  O19  1  0.45272304  0.74134868  0.11771474  1
  O  O20  1  0.54367117  0.26647804  0.89437251  1
  O  O21  1  0.80923749  0.73305633  0.12993013  1
  O  O22  1  0.54199736  0.98800034  0.76206552  1
  O  O23  1  0.99758640  0.63996305  0.77078797  1
  O  O24  1  0.61207853  0.70449677  0.42739252  1
  O  O25  1  0.92053455  0.06257528  0.19658478  1
  O  O26  1  0.15008283  0.74730931  0.49564045  1
  O  O27  1  0.19490426  0.25834332  0.85442585  1
  O  O28  1  0.62160077  0.38196408  0.24142708  1
  O  O29  1  0.22484761  0.52925177  0.10191690  1
