# generated using pymatgen
data_LiPWCO7
_symmetry_space_group_name_H-M   'P 1'
_cell_length_a   5.09154253
_cell_length_b   6.51844790
_cell_length_c   9.48014550
_cell_angle_alpha   90.00000000
_cell_angle_beta   84.69801651
_cell_angle_gamma   90.00000000
_symmetry_Int_Tables_number   1
_chemical_formula_structural   LiPWCO7
_chemical_formula_sum   'Li2 P2 W2 C2 O14'
_cell_volume   313.28994923
_cell_formula_units_Z   2
loop_
 _symmetry_equiv_pos_site_id
 _symmetry_equiv_pos_as_xyz
  1  'x, y, z'
loop_
 _atom_site_type_symbol
 _atom_site_label
 _atom_site_symmetry_multiplicity
 _atom_site_fract_x
 _atom_site_fract_y
 _atom_site_fract_z
 _atom_site_occupancy
  Li  Li0  1  0.21951560  0.98533730  0.15467495  1
  Li  Li1  1  0.78048440  0.48533730  0.84532505  1
  C  C2  1  0.71732534  0.75855593  0.07464623  1
  C  C3  1  0.28267466  0.25855593  0.92535377  1
  O  O4  1  0.16348612  0.56343546  0.67320942  1
  O  O5  1  0.95527835  0.76230083  0.12160611  1
  O  O6  1  0.47285915  0.28713494  0.81587534  1
  O  O7  1  0.52714085  0.78713494  0.18412466  1
  O  O8  1  0.79595831  0.44047579  0.32764774  1
  O  O9  1  0.11947106  0.75504071  0.44370592  1
  O  O10  1  0.20404169  0.94047579  0.67235226  1
  O  O11  1  0.88052894  0.25504071  0.55629408  1
  O  O12  1  0.83651388  0.06343546  0.32679058  1
  O  O13  1  0.43727750  0.22832883  0.46289384  1
  O  O14  1  0.66810058  0.72491892  0.95194315  1
  O  O15  1  0.33189942  0.22491892  0.04805685  1
  O  O16  1  0.56272250  0.72832883  0.53710616  1
  O  O17  1  0.04472165  0.26230083  0.87839389  1
  P  P18  1  0.73497782  0.24801248  0.42026016  1
  P  P19  1  0.26502218  0.74801248  0.57973984  1
  W  W20  1  0.78821661  0.74965880  0.33848303  1
  W  W21  1  0.21178339  0.24965880  0.66151697  1
