# generated using pymatgen
data_Ba2Tb2Ti2Cu2O11
_symmetry_space_group_name_H-M   'P 1'
_cell_length_a   3.90689936
_cell_length_b   3.90689936
_cell_length_c   15.95595149
_cell_angle_alpha   90.00000000
_cell_angle_beta   90.00000000
_cell_angle_gamma   90.00000000
_symmetry_Int_Tables_number   1
_chemical_formula_structural   Ba2Tb2Ti2Cu2O11
_chemical_formula_sum   'Ba2 Tb2 Ti2 Cu2 O11'
_cell_volume   243.54945134
_cell_formula_units_Z   1
loop_
 _symmetry_equiv_pos_site_id
 _symmetry_equiv_pos_as_xyz
  1  'x, y, z'
loop_
 _atom_site_type_symbol
 _atom_site_label
 _atom_site_symmetry_multiplicity
 _atom_site_fract_x
 _atom_site_fract_y
 _atom_site_fract_z
 _atom_site_occupancy
  Tb  Tb0  1  0.50000000  0.50000000  0.00000000  1
  Ba  Ba1  1  0.50000000  0.50000000  0.23264631  1
  Ba  Ba2  1  0.50000000  0.50000000  0.76735369  1
  Tb  Tb3  1  0.50000000  0.50000000  0.50000000  1
  Ti  Ti4  1  0.00000000  0.00000000  0.37655571  1
  Ti  Ti5  1  0.00000000  0.00000000  0.62344429  1
  Cu  Cu6  1  0.00000000  0.00000000  0.10218664  1
  Cu  Cu7  1  0.00000000  0.00000000  0.89781336  1
  O  O8  1  0.00000000  0.00000000  0.50000000  1
  O  O9  1  0.00000000  0.50000000  0.39109214  1
  O  O10  1  0.50000000  0.00000000  0.39109214  1
  O  O11  1  0.00000000  0.50000000  0.60890786  1
  O  O12  1  0.50000000  0.00000000  0.60890786  1
  O  O13  1  0.00000000  0.00000000  0.25896752  1
  O  O14  1  0.00000000  0.00000000  0.74103248  1
  O  O15  1  0.00000000  0.50000000  0.09123802  1
  O  O16  1  0.50000000  0.00000000  0.09123802  1
  O  O17  1  0.00000000  0.50000000  0.90876198  1
  O  O18  1  0.50000000  0.00000000  0.90876198  1
