# generated using pymatgen
data_MgH20C4(N5O6)2
_symmetry_space_group_name_H-M   'P 1'
_cell_length_a   6.70893039
_cell_length_b   8.03787782
_cell_length_c   17.76277741
_cell_angle_alpha   90.00000000
_cell_angle_beta   90.00000000
_cell_angle_gamma   95.18223986
_symmetry_Int_Tables_number   1
_chemical_formula_structural   MgH20C4(N5O6)2
_chemical_formula_sum   'Mg2 H40 C8 N20 O24'
_cell_volume   953.95243003
_cell_formula_units_Z   2
loop_
 _symmetry_equiv_pos_site_id
 _symmetry_equiv_pos_as_xyz
  1  'x, y, z'
loop_
 _atom_site_type_symbol
 _atom_site_label
 _atom_site_symmetry_multiplicity
 _atom_site_fract_x
 _atom_site_fract_y
 _atom_site_fract_z
 _atom_site_occupancy
  Mg  Mg0  1  0.50000000  0.00000000  0.00000000  1
  Mg  Mg1  1  0.00000000  0.50000000  0.50000000  1
  H  H2  1  0.42467618  0.29080779  0.92561998  1
  H  H3  1  0.92467618  0.79080779  0.57438002  1
  H  H4  1  0.57532382  0.70919221  0.07438002  1
  H  H5  1  0.07532382  0.20919221  0.42561998  1
  H  H6  1  0.35433733  0.30275110  0.00990963  1
  H  H7  1  0.85433733  0.80275110  0.49009037  1
  H  H8  1  0.64566267  0.69724890  0.99009037  1
  H  H9  1  0.14566267  0.19724890  0.50990963  1
  H  H10  1  0.79078936  0.94057702  0.76940324  1
  H  H11  1  0.29078936  0.44057702  0.73059676  1
  H  H12  1  0.20921064  0.05942298  0.23059676  1
  H  H13  1  0.70921064  0.55942298  0.26940324  1
  H  H14  1  0.58775753  0.91276602  0.83451890  1
  H  H15  1  0.08775753  0.41276602  0.66548110  1
  H  H16  1  0.41224247  0.08723398  0.16548110  1
  H  H17  1  0.91224247  0.58723398  0.33451890  1
  H  H18  1  0.09619987  0.17873709  0.89940670  1
  H  H19  1  0.59619987  0.67873709  0.60059330  1
  H  H20  1  0.90380013  0.82126291  0.10059330  1
  H  H21  1  0.40380013  0.32126291  0.39940670  1
  H  H22  1  0.07844741  0.10619183  0.80782310  1
  H  H23  1  0.57844741  0.60619183  0.69217690  1
  H  H24  1  0.92155259  0.89380817  0.19217690  1
  H  H25  1  0.42155259  0.39380817  0.30782310  1
  H  H26  1  0.99570001  0.61408710  0.93458178  1
  H  H27  1  0.49570001  0.11408710  0.56541822  1
  H  H28  1  0.00429999  0.38591290  0.06541822  1
  H  H29  1  0.50429999  0.88591290  0.43458178  1
  H  H30  1  0.16024099  0.71979693  0.00010789  1
  H  H31  1  0.66024099  0.21979693  0.49989211  1
  H  H32  1  0.83975901  0.28020307  0.99989211  1
  H  H33  1  0.33975901  0.78020307  0.50010789  1
  H  H34  1  0.22330587  0.82485705  0.78107419  1
  H  H35  1  0.72330587  0.32485705  0.71892581  1
  H  H36  1  0.77669413  0.17514295  0.21892581  1
  H  H37  1  0.27669413  0.67514295  0.28107419  1
  H  H38  1  0.04485760  0.66631108  0.80833912  1
  H  H39  1  0.54485760  0.16631108  0.69166088  1
  H  H40  1  0.95514240  0.33368892  0.19166088  1
  H  H41  1  0.45514240  0.83368892  0.30833912  1
  C  C42  1  0.82486865  0.06038181  0.87253179  1
  C  C43  1  0.32486865  0.56038181  0.62746821  1
  C  C44  1  0.17513135  0.93961819  0.12746821  1
  C  C45  1  0.67513135  0.43961819  0.37253179  1
  C  C46  1  0.22994583  0.76756883  0.89202640  1
  C  C47  1  0.72994583  0.26756883  0.60797360  1
  C  C48  1  0.77005417  0.23243117  0.10797360  1
  C  C49  1  0.27005417  0.73243117  0.39202640  1
  N  N50  1  0.72858088  0.96248553  0.82020056  1
  N  N51  1  0.22858088  0.46248553  0.67979944  1
  N  N52  1  0.27141912  0.03751447  0.17979944  1
  N  N53  1  0.77141912  0.53751447  0.32020056  1
  N  N54  1  0.00667235  0.13950108  0.85528446  1
  N  N55  1  0.50667235  0.63950108  0.64471554  1
  N  N56  1  0.99332765  0.86049892  0.14471554  1
  N  N57  1  0.49332765  0.36049892  0.35528446  1
  N  N58  1  0.13060812  0.67834463  0.94659110  1
  N  N59  1  0.63060812  0.17834463  0.55340890  1
  N  N60  1  0.86939188  0.32165537  0.05340890  1
  N  N61  1  0.36939188  0.82165537  0.44659110  1
  N  N62  1  0.17609415  0.73576447  0.81957711  1
  N  N63  1  0.67609415  0.23576447  0.68042289  1
  N  N64  1  0.82390585  0.26423553  0.18042289  1
  N  N65  1  0.32390585  0.76423553  0.31957711  1
  N  N66  1  0.65741221  0.48502001  0.84666766  1
  N  N67  1  0.15741221  0.98502001  0.65333234  1
  N  N68  1  0.34258779  0.51497999  0.15333234  1
  N  N69  1  0.84258779  0.01497999  0.34666766  1
  O  O70  1  0.36382906  0.22363183  0.96829406  1
  O  O71  1  0.86382906  0.72363183  0.53170594  1
  O  O72  1  0.63617094  0.77636817  0.03170594  1
  O  O73  1  0.13617094  0.27636817  0.46829406  1
  O  O74  1  0.74704096  0.08330426  0.93653464  1
  O  O75  1  0.24704096  0.58330426  0.56346536  1
  O  O76  1  0.25295904  0.91669574  0.06346536  1
  O  O77  1  0.75295904  0.41669574  0.43653464  1
  O  O78  1  0.37716743  0.87452910  0.90641834  1
  O  O79  1  0.87716743  0.37452910  0.59358166  1
  O  O80  1  0.62283257  0.12547090  0.09358166  1
  O  O81  1  0.12283257  0.62547090  0.40641834  1
  O  O82  1  0.49427275  0.39277971  0.83905761  1
  O  O83  1  0.99427275  0.89277971  0.66094239  1
  O  O84  1  0.50572725  0.60722029  0.16094239  1
  O  O85  1  0.00572725  0.10722029  0.33905761  1
  O  O86  1  0.75568871  0.53533953  0.78844958  1
  O  O87  1  0.25568871  0.03533953  0.71155042  1
  O  O88  1  0.24431129  0.46466047  0.21155042  1
  O  O89  1  0.74431129  0.96466047  0.28844958  1
  O  O90  1  0.72185013  0.52466076  0.91182367  1
  O  O91  1  0.22185013  0.02466076  0.58817633  1
  O  O92  1  0.27814987  0.47533924  0.08817633  1
  O  O93  1  0.77814987  0.97533924  0.41182367  1
