# generated using pymatgen
data_Ba2LaCu3O8
_symmetry_space_group_name_H-M   'P 1'
_cell_length_a   3.96970901
_cell_length_b   3.97749084
_cell_length_c   11.79772323
_cell_angle_alpha   89.99697011
_cell_angle_beta   90.00169273
_cell_angle_gamma   89.95931852
_symmetry_Int_Tables_number   1
_chemical_formula_structural   Ba2LaCu3O8
_chemical_formula_sum   'Ba2 La1 Cu3 O8'
_cell_volume   186.27988205
_cell_formula_units_Z   1
loop_
 _symmetry_equiv_pos_site_id
 _symmetry_equiv_pos_as_xyz
  1  'x, y, z'
loop_
 _atom_site_type_symbol
 _atom_site_label
 _atom_site_symmetry_multiplicity
 _atom_site_fract_x
 _atom_site_fract_y
 _atom_site_fract_z
 _atom_site_occupancy
  Ba  Ba0  1  0.50000146  0.49982480  0.16716433  1
  Ba  Ba1  1  0.49999725  0.50017604  0.83284832  1
  La  La2  1  0.50000113  0.49999505  0.49994338  1
  Cu  Cu3  1  0.99999871  0.99998866  0.99996675  1
  Cu  Cu4  1  0.99999022  0.99992763  0.33821140  1
  Cu  Cu5  1  0.00000905  0.00007701  0.66189068  1
  O  O6  1  0.49999912  0.99996991  0.00000807  1
  O  O7  1  0.99999661  0.49997960  0.99994085  1
  O  O8  1  0.00000783  0.99975541  0.16707647  1
  O  O9  1  0.99999573  0.00026177  0.83278619  1
  O  O10  1  0.49999410  0.99997294  0.36885180  1
  O  O11  1  0.50000710  0.00004100  0.63117217  1
  O  O12  1  0.99996635  0.49993957  0.36691753  1
  O  O13  1  0.00003534  0.50009062  0.63322207  1
