# generated using pymatgen
data_BaV13O18
_symmetry_space_group_name_H-M   'P 1'
_cell_length_a   8.01713615
_cell_length_b   8.01713580
_cell_length_c   8.01713587
_cell_angle_alpha   110.73457688
_cell_angle_beta   110.73457573
_cell_angle_gamma   110.73458396
_symmetry_Int_Tables_number   1
_chemical_formula_structural   BaV13O18
_chemical_formula_sum   'Ba1 V13 O18'
_cell_volume   376.98315054
_cell_formula_units_Z   1
loop_
 _symmetry_equiv_pos_site_id
 _symmetry_equiv_pos_as_xyz
  1  'x, y, z'
loop_
 _atom_site_type_symbol
 _atom_site_label
 _atom_site_symmetry_multiplicity
 _atom_site_fract_x
 _atom_site_fract_y
 _atom_site_fract_z
 _atom_site_occupancy
  O  O0  1  0.05199419  0.59706520  0.38298099  1
  O  O1  1  0.59706620  0.38298099  0.05199319  1
  O  O2  1  0.38298099  0.05199319  0.59706520  1
  O  O3  1  0.94800681  0.40293480  0.61701901  1
  O  O4  1  0.40293480  0.61701901  0.94800581  1
  O  O5  1  0.61702001  0.94800681  0.40293580  1
  O  O6  1  0.17403914  0.73810526  0.12192264  1
  O  O7  1  0.73810626  0.12192264  0.17403814  1
  O  O8  1  0.12192364  0.17403914  0.73810526  1
  O  O9  1  0.82595986  0.26189374  0.87807636  1
  O  O10  1  0.26189374  0.87807736  0.82596086  1
  O  O11  1  0.87807736  0.82596086  0.26189374  1
  O  O12  1  0.77252551  0.66756958  0.49534619  1
  O  O13  1  0.66757058  0.49534619  0.77252551  1
  O  O14  1  0.50465381  0.22747449  0.33243042  1
  O  O15  1  0.33243042  0.50465381  0.22747449  1
  O  O16  1  0.49534619  0.77252551  0.66756958  1
  O  O17  1  0.22747549  0.33243042  0.50465381  1
  V  V18  1  0.34257733  0.76717512  0.39913843  1
  V  V19  1  0.76717412  0.39913943  0.34257733  1
  V  V20  1  0.39913843  0.34257733  0.76717512  1
  V  V21  1  0.65742367  0.23282488  0.60086157  1
  V  V22  1  0.23282488  0.60086057  0.65742367  1
  V  V23  1  0.60086057  0.65742267  0.23282488  1
  V  V24  1  0.12056859  0.43667359  0.92740807  1
  V  V25  1  0.50000100  0.50000000  0.50000000  1
  V  V26  1  0.92740907  0.12056959  0.43667459  1
  V  V27  1  0.87943041  0.56332641  0.07259193  1
  V  V28  1  0.56332441  0.07259193  0.87943141  1
  V  V29  1  0.07259193  0.87943041  0.56332541  1
  V  V30  1  0.43667459  0.92740907  0.12056959  1
  Ba  Ba31  1  0.00000000  0.00000000  0.00000000  1
