# generated using pymatgen
data_Cr2(PO4)3
_symmetry_space_group_name_H-M   'P 1'
_cell_length_a   8.79415979
_cell_length_b   8.79415982
_cell_length_c   8.79416004
_cell_angle_alpha   57.12694506
_cell_angle_beta   57.12694483
_cell_angle_gamma   57.12694617
_symmetry_Int_Tables_number   1
_chemical_formula_structural   Cr2(PO4)3
_chemical_formula_sum   'Cr4 P6 O24'
_cell_volume   449.07614300
_cell_formula_units_Z   2
loop_
 _symmetry_equiv_pos_site_id
 _symmetry_equiv_pos_as_xyz
  1  'x, y, z'
loop_
 _atom_site_type_symbol
 _atom_site_label
 _atom_site_symmetry_multiplicity
 _atom_site_fract_x
 _atom_site_fract_y
 _atom_site_fract_z
 _atom_site_occupancy
  O  O0  1  0.90364193  0.26827812  0.09630411  1
  O  O1  1  0.83841328  0.76554913  0.48670792  1
  O  O2  1  0.76554913  0.48670692  0.83841228  1
  O  O3  1  0.48670692  0.83841128  0.76555013  1
  O  O4  1  0.16158772  0.23444987  0.51329308  1
  O  O5  1  0.23445087  0.51329308  0.16158672  1
  O  O6  1  0.51329208  0.16158772  0.23445087  1
  O  O7  1  0.18763513  0.54986990  0.47430937  1
  O  O8  1  0.09630411  0.90364193  0.26827812  1
  O  O9  1  0.00410083  0.79721073  0.62658768  1
  O  O10  1  0.26827812  0.09630411  0.90364193  1
  O  O11  1  0.47430937  0.18763513  0.54986990  1
  O  O12  1  0.54987090  0.47430937  0.18763413  1
  O  O13  1  0.20278927  0.37341232  0.99589917  1
  O  O14  1  0.90369589  0.09635807  0.73172088  1
  O  O15  1  0.37341032  0.99589917  0.20279027  1
  O  O16  1  0.62658768  0.00410083  0.79720973  1
  O  O17  1  0.81236487  0.45012910  0.52569063  1
  O  O18  1  0.79721073  0.62658868  0.00410083  1
  O  O19  1  0.45012910  0.52569163  0.81236487  1
  O  O20  1  0.52569063  0.81236487  0.45012910  1
  O  O21  1  0.73172188  0.90369589  0.09635807  1
  O  O22  1  0.99589917  0.20279027  0.37341132  1
  O  O23  1  0.09635807  0.73172088  0.90369589  1
  P  P24  1  0.46583118  0.03060591  0.75191811  1
  P  P25  1  0.75191811  0.46583018  0.03060691  1
  P  P26  1  0.24808189  0.53416882  0.96939309  1
  P  P27  1  0.53416882  0.96939309  0.24808189  1
  P  P28  1  0.03060691  0.75191811  0.46583118  1
  P  P29  1  0.96939309  0.24808089  0.53416982  1
  Cr  Cr30  1  0.85862912  0.85862812  0.85862912  1
  Cr  Cr31  1  0.64430275  0.64430175  0.64430375  1
  Cr  Cr32  1  0.35569725  0.35569725  0.35569725  1
  Cr  Cr33  1  0.14137188  0.14137088  0.14137088  1
