# generated using pymatgen
data_LiMg6Ti
_symmetry_space_group_name_H-M   'P 1'
_cell_length_a   6.29384179
_cell_length_b   6.39249419
_cell_length_c   4.99187611
_cell_angle_alpha   90.00000000
_cell_angle_beta   90.00000000
_cell_angle_gamma   120.51988024
_symmetry_Int_Tables_number   1
_chemical_formula_structural   LiMg6Ti
_chemical_formula_sum   'Li1 Mg6 Ti1'
_cell_volume   173.01412191
_cell_formula_units_Z   1
loop_
 _symmetry_equiv_pos_site_id
 _symmetry_equiv_pos_as_xyz
  1  'x, y, z'
loop_
 _atom_site_type_symbol
 _atom_site_label
 _atom_site_symmetry_multiplicity
 _atom_site_fract_x
 _atom_site_fract_y
 _atom_site_fract_z
 _atom_site_occupancy
  Li  Li0  1  0.16902554  0.83451227  0.25000000  1
  Mg  Mg1  1  0.66544982  0.33042842  0.25000000  1
  Mg  Mg2  1  0.66544982  0.83502040  0.25000000  1
  Mg  Mg3  1  0.32649867  0.16688648  0.75000000  1
  Mg  Mg4  1  0.32649867  0.65961319  0.75000000  1
  Mg  Mg5  1  0.84196639  0.17098369  0.75000000  1
  Mg  Mg6  1  0.83694533  0.66847316  0.75000000  1
  Ti  Ti7  1  0.16816577  0.33408238  0.25000000  1
