# generated using pymatgen
data_AsPCl3OF5
_symmetry_space_group_name_H-M   'P 1'
_cell_length_a   6.17431889
_cell_length_b   7.91728170
_cell_length_c   20.05813373
_cell_angle_alpha   90.00000000
_cell_angle_beta   90.00000000
_cell_angle_gamma   107.39057911
_symmetry_Int_Tables_number   1
_chemical_formula_structural   AsPCl3OF5
_chemical_formula_sum   'As4 P4 Cl12 O4 F20'
_cell_volume   935.69824528
_cell_formula_units_Z   4
loop_
 _symmetry_equiv_pos_site_id
 _symmetry_equiv_pos_as_xyz
  1  'x, y, z'
loop_
 _atom_site_type_symbol
 _atom_site_label
 _atom_site_symmetry_multiplicity
 _atom_site_fract_x
 _atom_site_fract_y
 _atom_site_fract_z
 _atom_site_occupancy
  As  As0  1  0.04693062  0.18167993  0.87708858  1
  As  As1  1  0.54693062  0.68167993  0.62291142  1
  As  As2  1  0.95306938  0.81832007  0.12291142  1
  As  As3  1  0.45306938  0.31832007  0.37708858  1
  P  P4  1  0.13541670  0.31773550  0.61018244  1
  P  P5  1  0.86458330  0.68226450  0.38981756  1
  P  P6  1  0.63541670  0.81773550  0.88981756  1
  P  P7  1  0.36458330  0.18226450  0.11018244  1
  Cl  Cl8  1  0.96836386  0.34169840  0.69129661  1
  Cl  Cl9  1  0.20538875  0.35881583  0.12928912  1
  Cl  Cl10  1  0.46836386  0.84169840  0.80870339  1
  Cl  Cl11  1  0.29461125  0.14118417  0.62928912  1
  Cl  Cl12  1  0.79461125  0.64118417  0.87071088  1
  Cl  Cl13  1  0.08877113  0.78024564  0.46016024  1
  Cl  Cl14  1  0.41122887  0.71975436  0.96016024  1
  Cl  Cl15  1  0.91122887  0.21975436  0.53983976  1
  Cl  Cl16  1  0.03163614  0.65830160  0.30870339  1
  Cl  Cl17  1  0.53163614  0.15830160  0.19129661  1
  Cl  Cl18  1  0.58877113  0.28024564  0.03983976  1
  Cl  Cl19  1  0.70538875  0.85881583  0.37071088  1
  O  O20  1  0.20854772  0.00792973  0.08456139  1
  O  O21  1  0.70854772  0.50792973  0.41543861  1
  O  O22  1  0.79145228  0.99207027  0.91543861  1
  O  O23  1  0.29145228  0.49207027  0.58456139  1
  F  F24  1  0.47019774  0.45085891  0.30535559  1
  F  F25  1  0.22890409  0.07604548  0.91440153  1
  F  F26  1  0.22961111  0.14585436  0.34510410  1
  F  F27  1  0.72961111  0.64585436  0.15489590  1
  F  F28  1  0.53674982  0.79425104  0.54786418  1
  F  F29  1  0.65952401  0.23046839  0.34268427  1
  F  F30  1  0.15952401  0.73046839  0.15731573  1
  F  F31  1  0.97019774  0.95085891  0.19464441  1
  F  F32  1  0.27038889  0.35414564  0.84510410  1
  F  F33  1  0.96325018  0.70574896  0.04786418  1
  F  F34  1  0.27109591  0.42395452  0.41440153  1
  F  F35  1  0.72890409  0.57604548  0.58559847  1
  F  F36  1  0.52980226  0.54914109  0.69464441  1
  F  F37  1  0.02980226  0.04914109  0.80535559  1
  F  F38  1  0.77109591  0.92395452  0.08559847  1
  F  F39  1  0.84047599  0.26953161  0.84268427  1
  F  F40  1  0.03674982  0.29425104  0.95213582  1
  F  F41  1  0.46325018  0.20574896  0.45213582  1
  F  F42  1  0.34047599  0.76953161  0.65731573  1
  F  F43  1  0.77038889  0.85414564  0.65489590  1
