# generated using pymatgen
data_SrZrO3
_symmetry_space_group_name_H-M   'P 1'
_cell_length_a   8.39667255
_cell_length_b   8.39667255
_cell_length_c   8.39667255
_cell_angle_alpha   90.00000000
_cell_angle_beta   90.00000000
_cell_angle_gamma   90.00000000
_symmetry_Int_Tables_number   1
_chemical_formula_structural   SrZrO3
_chemical_formula_sum   'Sr8 Zr8 O24'
_cell_volume   591.99992436
_cell_formula_units_Z   8
loop_
 _symmetry_equiv_pos_site_id
 _symmetry_equiv_pos_as_xyz
  1  'x, y, z'
loop_
 _atom_site_type_symbol
 _atom_site_label
 _atom_site_symmetry_multiplicity
 _atom_site_fract_x
 _atom_site_fract_y
 _atom_site_fract_z
 _atom_site_occupancy
  Sr  Sr0  1  0.75470373  0.74529627  0.25470373  1
  Sr  Sr1  1  0.23099466  0.76900534  0.26900534  1
  Sr  Sr2  1  0.26900534  0.23099466  0.76900534  1
  Sr  Sr3  1  0.74529627  0.25470373  0.75470373  1
  Sr  Sr4  1  0.76900534  0.26900534  0.23099466  1
  Sr  Sr5  1  0.73099466  0.73099466  0.73099466  1
  Sr  Sr6  1  0.24529627  0.24529627  0.24529627  1
  Sr  Sr7  1  0.25470373  0.75470373  0.74529627  1
  Zr  Zr8  1  0.49655301  0.99655301  0.50344699  1
  Zr  Zr9  1  0.99655301  0.50344699  0.49655301  1
  Zr  Zr10  1  0.00344699  0.00344699  0.00344699  1
  Zr  Zr11  1  0.00632368  0.50632368  0.99367632  1
  Zr  Zr12  1  0.50344699  0.49655301  0.99655301  1
  Zr  Zr13  1  0.99367632  0.00632368  0.50632368  1
  Zr  Zr14  1  0.49367632  0.49367632  0.49367632  1
  Zr  Zr15  1  0.50632368  0.99367632  0.00632368  1
  O  O16  1  0.48933710  0.74379858  0.51249432  1
  O  O17  1  0.51249432  0.48933710  0.74379858  1
  O  O18  1  0.97924525  0.25593815  0.49055759  1
  O  O19  1  0.24406185  0.50944241  0.47924525  1
  O  O20  1  0.75593815  0.00944241  0.02075475  1
  O  O21  1  0.74406185  0.99055759  0.52075475  1
  O  O22  1  0.74379858  0.51249432  0.48933710  1
  O  O23  1  0.25620142  0.01249432  0.01066290  1
  O  O24  1  0.50944241  0.47924525  0.24406185  1
  O  O25  1  0.98933710  0.75620142  0.48750568  1
  O  O26  1  0.99055759  0.52075475  0.74406185  1
  O  O27  1  0.47924525  0.24406185  0.50944241  1
  O  O28  1  0.01066290  0.25620142  0.01249432  1
  O  O29  1  0.48750568  0.98933710  0.75620142  1
  O  O30  1  0.49055759  0.97924525  0.25593815  1
  O  O31  1  0.02075475  0.75593815  0.00944241  1
  O  O32  1  0.52075475  0.74406185  0.99055759  1
  O  O33  1  0.00944241  0.02075475  0.75593815  1
  O  O34  1  0.24379858  0.98750568  0.51066290  1
  O  O35  1  0.01249432  0.01066290  0.25620142  1
  O  O36  1  0.25593815  0.49055759  0.97924525  1
  O  O37  1  0.98750568  0.51066290  0.24379858  1
  O  O38  1  0.51066290  0.24379858  0.98750568  1
  O  O39  1  0.75620142  0.48750568  0.98933710  1
