# generated using pymatgen
data_NaFe3O5
_symmetry_space_group_name_H-M   'P 1'
_cell_length_a   3.03135175
_cell_length_b   10.91893105
_cell_length_c   11.88504724
_cell_angle_alpha   90.00000000
_cell_angle_beta   90.00000000
_cell_angle_gamma   90.00000000
_symmetry_Int_Tables_number   1
_chemical_formula_structural   NaFe3O5
_chemical_formula_sum   'Na4 Fe12 O20'
_cell_volume   393.38461368
_cell_formula_units_Z   4
loop_
 _symmetry_equiv_pos_site_id
 _symmetry_equiv_pos_as_xyz
  1  'x, y, z'
loop_
 _atom_site_type_symbol
 _atom_site_label
 _atom_site_symmetry_multiplicity
 _atom_site_fract_x
 _atom_site_fract_y
 _atom_site_fract_z
 _atom_site_occupancy
  Fe  Fe0  1  0.50000000  0.20572094  0.11762670  1
  Fe  Fe1  1  0.50000000  0.79427906  0.88237330  1
  Fe  Fe2  1  0.00000000  0.70572094  0.38237330  1
  Fe  Fe3  1  0.00000000  0.29427906  0.61762670  1
  Fe  Fe4  1  0.00000000  0.22015040  0.38177793  1
  Fe  Fe5  1  0.00000000  0.77984960  0.61822207  1
  Fe  Fe6  1  0.50000000  0.72015040  0.11822207  1
  Fe  Fe7  1  0.50000000  0.27984960  0.88177793  1
  Fe  Fe8  1  0.00000000  0.00000000  0.00000000  1
  Fe  Fe9  1  0.50000000  0.50000000  0.50000000  1
  Fe  Fe10  1  0.00000000  0.50000000  0.00000000  1
  Fe  Fe11  1  0.50000000  0.00000000  0.50000000  1
  Na  Na12  1  0.50000000  0.95795539  0.24903171  1
  Na  Na13  1  0.50000000  0.04204461  0.75096829  1
  Na  Na14  1  0.00000000  0.45795539  0.25096829  1
  Na  Na15  1  0.00000000  0.54204461  0.74903171  1
  O  O16  1  0.00000000  0.08922101  0.14774585  1
  O  O17  1  0.00000000  0.91077899  0.85225415  1
  O  O18  1  0.50000000  0.58922101  0.35225415  1
  O  O19  1  0.50000000  0.41077899  0.64774585  1
  O  O20  1  0.00000000  0.04229203  0.39109305  1
  O  O21  1  0.00000000  0.95770797  0.60890695  1
  O  O22  1  0.50000000  0.54229203  0.10890695  1
  O  O23  1  0.50000000  0.45770797  0.89109305  1
  O  O24  1  0.00000000  0.31405852  0.04092796  1
  O  O25  1  0.00000000  0.68594148  0.95907204  1
  O  O26  1  0.50000000  0.81405852  0.45907204  1
  O  O27  1  0.50000000  0.18594148  0.54092796  1
  O  O28  1  0.50000000  0.26353038  0.28078579  1
  O  O29  1  0.50000000  0.73646962  0.71921421  1
  O  O30  1  0.00000000  0.76353038  0.21921421  1
  O  O31  1  0.00000000  0.23646962  0.78078579  1
  O  O32  1  0.00000000  0.38331112  0.45700670  1
  O  O33  1  0.00000000  0.61668888  0.54299330  1
  O  O34  1  0.50000000  0.88331112  0.04299330  1
  O  O35  1  0.50000000  0.11668888  0.95700670  1
