# generated using pymatgen
data_Sr2UZnO6
_symmetry_space_group_name_H-M   'P 1'
_cell_length_a   5.91875165
_cell_length_b   5.84787266
_cell_length_c   8.26580254
_cell_angle_alpha   89.99655116
_cell_angle_beta   90.00000000
_cell_angle_gamma   90.00000000
_symmetry_Int_Tables_number   1
_chemical_formula_structural   Sr2UZnO6
_chemical_formula_sum   'Sr4 U2 Zn2 O12'
_cell_volume   286.09683258
_cell_formula_units_Z   2
loop_
 _symmetry_equiv_pos_site_id
 _symmetry_equiv_pos_as_xyz
  1  'x, y, z'
loop_
 _atom_site_type_symbol
 _atom_site_label
 _atom_site_symmetry_multiplicity
 _atom_site_fract_x
 _atom_site_fract_y
 _atom_site_fract_z
 _atom_site_occupancy
  Sr  Sr0  1  0.03810161  0.00498371  0.25095142  1
  Sr  Sr1  1  0.53810161  0.49501629  0.24904858  1
  Sr  Sr2  1  0.96189839  0.99501629  0.74904858  1
  Sr  Sr3  1  0.46189839  0.50498371  0.75095142  1
  U  U4  1  0.50000000  0.00000000  0.00000000  1
  U  U5  1  0.00000000  0.50000000  0.50000000  1
  Zn  Zn6  1  0.00000000  0.50000000  0.00000000  1
  Zn  Zn7  1  0.50000000  0.00000000  0.50000000  1
  O  O8  1  0.52132426  0.07328531  0.75208330  1
  O  O9  1  0.78793058  0.20032655  0.03945254  1
  O  O10  1  0.29927196  0.28927989  0.03603814  1
  O  O11  1  0.21206942  0.79967345  0.96054746  1
  O  O12  1  0.70072804  0.71072011  0.96396186  1
  O  O13  1  0.47867574  0.92671469  0.24791670  1
  O  O14  1  0.02132426  0.42671469  0.74791670  1
  O  O15  1  0.28793058  0.29967345  0.46054746  1
  O  O16  1  0.79927196  0.21072011  0.46396186  1
  O  O17  1  0.97867574  0.57328531  0.25208330  1
  O  O18  1  0.71206942  0.70032655  0.53945254  1
  O  O19  1  0.20072804  0.78927989  0.53603814  1
