# generated using pymatgen
data_La2CoO4
_symmetry_space_group_name_H-M   'P 1'
_cell_length_a   5.49734985
_cell_length_b   5.75486978
_cell_length_c   6.84778664
_cell_angle_alpha   90.00000000
_cell_angle_beta   113.66548527
_cell_angle_gamma   90.00000000
_symmetry_Int_Tables_number   1
_chemical_formula_structural   La2CoO4
_chemical_formula_sum   'La4 Co2 O8'
_cell_volume   198.42176967
_cell_formula_units_Z   2
loop_
 _symmetry_equiv_pos_site_id
 _symmetry_equiv_pos_as_xyz
  1  'x, y, z'
loop_
 _atom_site_type_symbol
 _atom_site_label
 _atom_site_symmetry_multiplicity
 _atom_site_fract_x
 _atom_site_fract_y
 _atom_site_fract_z
 _atom_site_occupancy
  O  O0  1  0.31782822  0.57327257  0.63565645  1
  O  O1  1  0.68217178  0.42672743  0.36434355  1
  O  O2  1  0.18217178  0.07327257  0.36434355  1
  O  O3  1  0.81782822  0.92672743  0.63565645  1
  O  O4  1  0.73002280  0.25000000  0.96004561  1
  O  O5  1  0.76997720  0.75000000  0.03995439  1
  O  O6  1  0.23002280  0.25000000  0.96004561  1
  O  O7  1  0.26997720  0.75000000  0.03995439  1
  Co  Co8  1  0.50000000  0.50000000  0.00000000  1
  Co  Co9  1  0.00000000  0.00000000  0.00000000  1
  La  La10  1  0.13798678  0.48201368  0.27597357  1
  La  La11  1  0.86201322  0.51798632  0.72402643  1
  La  La12  1  0.36201322  0.98201368  0.72402643  1
  La  La13  1  0.63798678  0.01798632  0.27597357  1
