# generated using pymatgen
data_FeH21C7S3N
_symmetry_space_group_name_H-M   'P 1'
_cell_length_a   9.90137750
_cell_length_b   10.30225090
_cell_length_c   16.04866434
_cell_angle_alpha   92.10414035
_cell_angle_beta   90.00000000
_cell_angle_gamma   90.00000000
_symmetry_Int_Tables_number   1
_chemical_formula_structural   FeH21C7S3N
_chemical_formula_sum   'Fe4 H84 C28 S12 N4'
_cell_volume   1635.96387725
_cell_formula_units_Z   4
loop_
 _symmetry_equiv_pos_site_id
 _symmetry_equiv_pos_as_xyz
  1  'x, y, z'
loop_
 _atom_site_type_symbol
 _atom_site_label
 _atom_site_symmetry_multiplicity
 _atom_site_fract_x
 _atom_site_fract_y
 _atom_site_fract_z
 _atom_site_occupancy
  Fe  Fe0  1  0.39472594  0.56827755  0.55375249  1
  Fe  Fe1  1  0.10527406  0.06827755  0.05375249  1
  Fe  Fe2  1  0.60527406  0.43172245  0.44624751  1
  Fe  Fe3  1  0.89472594  0.93172245  0.94624751  1
  H  H4  1  0.46112256  0.60728366  0.75541360  1
  H  H5  1  0.03887744  0.10728366  0.25541360  1
  H  H6  1  0.53887744  0.39271634  0.24458640  1
  H  H7  1  0.96112256  0.89271634  0.74458640  1
  H  H8  1  0.28725791  0.64283275  0.77420632  1
  H  H9  1  0.21274209  0.14283275  0.27420632  1
  H  H10  1  0.71274209  0.35716725  0.22579368  1
  H  H11  1  0.78725791  0.85716725  0.72579368  1
  H  H12  1  0.36135563  0.50231233  0.81652857  1
  H  H13  1  0.13864437  0.00231233  0.31652857  1
  H  H14  1  0.63864437  0.49768767  0.18347143  1
  H  H15  1  0.86135563  0.99768767  0.68347143  1
  H  H16  1  0.08655309  0.85119819  0.50208132  1
  H  H17  1  0.41344691  0.35119819  0.00208132  1
  H  H18  1  0.91344691  0.14880181  0.49791868  1
  H  H19  1  0.58655309  0.64880181  0.99791868  1
  H  H20  1  0.08307673  0.68005167  0.51589840  1
  H  H21  1  0.41692327  0.18005167  0.01589840  1
  H  H22  1  0.91692327  0.31994833  0.48410160  1
  H  H23  1  0.58307673  0.81994833  0.98410160  1
  H  H24  1  0.09540585  0.78912236  0.60400943  1
  H  H25  1  0.40459415  0.28912236  0.10400943  1
  H  H26  1  0.90459415  0.21087764  0.39599057  1
  H  H27  1  0.59540585  0.71087764  0.89599057  1
  H  H28  1  0.27514376  0.27394437  0.54279252  1
  H  H29  1  0.22485624  0.77394437  0.04279252  1
  H  H30  1  0.72485624  0.72605563  0.45720748  1
  H  H31  1  0.77514376  0.22605563  0.95720748  1
  H  H32  1  0.21573177  0.23458535  0.43969337  1
  H  H33  1  0.28426823  0.73458535  0.93969337  1
  H  H34  1  0.78426823  0.76541465  0.56030663  1
  H  H35  1  0.71573177  0.26541465  0.06030663  1
  H  H36  1  0.38246468  0.18794063  0.46995046  1
  H  H37  1  0.11753532  0.68794063  0.96995046  1
  H  H38  1  0.61753532  0.81205937  0.53004954  1
  H  H39  1  0.88246468  0.31205937  0.03004954  1
  H  H40  1  0.48051974  0.85915820  0.16372635  1
  H  H41  1  0.01948026  0.35915820  0.66372635  1
  H  H42  1  0.51948026  0.14084180  0.83627365  1
  H  H43  1  0.98051974  0.64084180  0.33627365  1
  H  H44  1  0.60463769  0.74839095  0.20363925  1
  H  H45  1  0.89536231  0.24839095  0.70363925  1
  H  H46  1  0.39536231  0.25160905  0.79636075  1
  H  H47  1  0.10463769  0.75160905  0.29636075  1
  H  H48  1  0.65743108  0.87936320  0.13954038  1
  H  H49  1  0.84256892  0.37936320  0.63954038  1
  H  H50  1  0.34256892  0.12063680  0.86045962  1
  H  H51  1  0.15743108  0.62063680  0.36045962  1
  H  H52  1  0.63989900  0.10146349  0.19486739  1
  H  H53  1  0.86010100  0.60146349  0.69486739  1
  H  H54  1  0.36010100  0.89853651  0.80513261  1
  H  H55  1  0.13989900  0.39853651  0.30513261  1
  H  H56  1  0.58149175  0.13297861  0.30030507  1
  H  H57  1  0.91850825  0.63297861  0.80030507  1
  H  H58  1  0.41850825  0.86702139  0.69969493  1
  H  H59  1  0.08149175  0.36702139  0.19969493  1
  H  H60  1  0.46448339  0.07533261  0.21988370  1
  H  H61  1  0.03551661  0.57533261  0.71988370  1
  H  H62  1  0.53551661  0.92466739  0.78011630  1
  H  H63  1  0.96448339  0.42466739  0.28011630  1
  H  H64  1  0.51693407  0.95447230  0.38468320  1
  H  H65  1  0.98306593  0.45447230  0.88468320  1
  H  H66  1  0.48306593  0.04552770  0.61531680  1
  H  H67  1  0.01693407  0.54552770  0.11531680  1
  H  H68  1  0.40133419  0.89756562  0.30463798  1
  H  H69  1  0.09866581  0.39756562  0.80463798  1
  H  H70  1  0.59866581  0.10243438  0.69536202  1
  H  H71  1  0.90133419  0.60243438  0.19536202  1
  H  H72  1  0.52895787  0.78965136  0.34309014  1
  H  H73  1  0.97104213  0.28965136  0.84309014  1
  H  H74  1  0.47104213  0.21034864  0.65690986  1
  H  H75  1  0.02895787  0.71034864  0.15690986  1
  H  H76  1  0.76171312  0.82398852  0.30850428  1
  H  H77  1  0.73828688  0.32398852  0.80850428  1
  H  H78  1  0.23828688  0.17601148  0.69149572  1
  H  H79  1  0.26171312  0.67601148  0.19149572  1
  H  H80  1  0.75028656  0.98894376  0.35100637  1
  H  H81  1  0.74971344  0.48894376  0.85100637  1
  H  H82  1  0.24971344  0.01105624  0.64899363  1
  H  H83  1  0.25028656  0.51105624  0.14899363  1
  H  H84  1  0.81008804  0.95849566  0.24571639  1
  H  H85  1  0.68991196  0.45849566  0.74571639  1
  H  H86  1  0.18991196  0.04150434  0.75428361  1
  H  H87  1  0.31008804  0.54150434  0.25428361  1
  C  C88  1  0.36038657  0.56406740  0.76209967  1
  C  C89  1  0.13961343  0.06406740  0.26209967  1
  C  C90  1  0.63961343  0.43593260  0.23790033  1
  C  C91  1  0.86038657  0.93593260  0.73790033  1
  C  C92  1  0.12746531  0.77228668  0.53892215  1
  C  C93  1  0.37253469  0.27228668  0.03892215  1
  C  C94  1  0.87253469  0.22771332  0.46107785  1
  C  C95  1  0.62746531  0.72771332  0.96107785  1
  C  C96  1  0.30443654  0.26323702  0.47697724  1
  C  C97  1  0.19556346  0.76323702  0.97697724  1
  C  C98  1  0.69556346  0.73676298  0.52302276  1
  C  C99  1  0.80443654  0.23676298  0.02302276  1
  C  C100  1  0.58444239  0.84853267  0.18628154  1
  C  C101  1  0.91555761  0.34853267  0.68628154  1
  C  C102  1  0.41555761  0.15146733  0.81371846  1
  C  C103  1  0.08444239  0.65146733  0.31371846  1
  C  C104  1  0.56869821  0.07235307  0.24311573  1
  C  C105  1  0.93130179  0.57235307  0.74311573  1
  C  C106  1  0.43130179  0.92764693  0.75688427  1
  C  C107  1  0.06869821  0.42764693  0.25688427  1
  C  C108  1  0.50425386  0.89045803  0.32924168  1
  C  C109  1  0.99574614  0.39045803  0.82924168  1
  C  C110  1  0.49574614  0.10954197  0.67075832  1
  C  C111  1  0.00425386  0.60954197  0.17075832  1
  C  C112  1  0.74211848  0.92581363  0.29468521  1
  C  C113  1  0.75788152  0.42581363  0.79468521  1
  C  C114  1  0.25788152  0.07418637  0.70531479  1
  C  C115  1  0.24211848  0.57418637  0.20531479  1
  S  S116  1  0.31424177  0.46669076  0.66858667  1
  S  S117  1  0.18575823  0.96669076  0.16858667  1
  S  S118  1  0.68575823  0.53330924  0.33141333  1
  S  S119  1  0.81424177  0.03330924  0.83141333  1
  S  S120  1  0.31245008  0.77172277  0.53110253  1
  S  S121  1  0.18754992  0.27172277  0.03110253  1
  S  S122  1  0.68754992  0.22827723  0.46889747  1
  S  S123  1  0.81245008  0.72827723  0.96889747  1
  S  S124  1  0.36736029  0.41842157  0.44033254  1
  S  S125  1  0.13263971  0.91842157  0.94033254  1
  S  S126  1  0.63263971  0.58157843  0.55966746  1
  S  S127  1  0.86736029  0.08157843  0.05966746  1
  N  N128  1  0.59990716  0.93439929  0.26325830  1
  N  N129  1  0.90009284  0.43439929  0.76325830  1
  N  N130  1  0.40009284  0.06560071  0.73674170  1
  N  N131  1  0.09990716  0.56560071  0.23674170  1
