# generated using pymatgen
data_Rb2AgC3(SN)3
_symmetry_space_group_name_H-M   'P 1'
_cell_length_a   7.97564301
_cell_length_b   9.51346702
_cell_length_c   16.35561462
_cell_angle_alpha   90.00000000
_cell_angle_beta   90.00000000
_cell_angle_gamma   107.79124984
_symmetry_Int_Tables_number   1
_chemical_formula_structural   Rb2AgC3(SN)3
_chemical_formula_sum   'Rb8 Ag4 C12 S12 N12'
_cell_volume   1181.64944122
_cell_formula_units_Z   4
loop_
 _symmetry_equiv_pos_site_id
 _symmetry_equiv_pos_as_xyz
  1  'x, y, z'
loop_
 _atom_site_type_symbol
 _atom_site_label
 _atom_site_symmetry_multiplicity
 _atom_site_fract_x
 _atom_site_fract_y
 _atom_site_fract_z
 _atom_site_occupancy
  Rb  Rb0  1  0.32247186  0.64130645  0.00757966  1
  Rb  Rb1  1  0.95973700  0.80995972  0.15630783  1
  Rb  Rb2  1  0.54026300  0.19004028  0.65630783  1
  Rb  Rb3  1  0.45973700  0.80995972  0.34369217  1
  Rb  Rb4  1  0.67752814  0.35869355  0.99242034  1
  Rb  Rb5  1  0.04026300  0.19004028  0.84369217  1
  Rb  Rb6  1  0.82247186  0.64130645  0.49242034  1
  Rb  Rb7  1  0.17752814  0.35869355  0.50757966  1
  Ag  Ag8  1  0.22878784  0.24541148  0.24108271  1
  Ag  Ag9  1  0.72878784  0.24541148  0.25891729  1
  Ag  Ag10  1  0.77121216  0.75458852  0.75891729  1
  Ag  Ag11  1  0.27121216  0.75458852  0.74108271  1
  C  C12  1  0.49420379  0.94575154  0.15231780  1
  C  C13  1  0.38103257  0.74599194  0.54809034  1
  C  C14  1  0.57271201  0.51587383  0.18708456  1
  C  C15  1  0.88103257  0.74599194  0.95190966  1
  C  C16  1  0.92728799  0.48412617  0.68708456  1
  C  C17  1  0.00579621  0.05424846  0.65231780  1
  C  C18  1  0.42728799  0.48412617  0.81291544  1
  C  C19  1  0.11896743  0.25400806  0.04809034  1
  C  C20  1  0.99420379  0.94575154  0.34768220  1
  C  C21  1  0.61896743  0.25400806  0.45190966  1
  C  C22  1  0.50579621  0.05424846  0.84768220  1
  C  C23  1  0.07271201  0.51587383  0.31291544  1
  S  S24  1  0.95800151  0.56358865  0.77775985  1
  S  S25  1  0.76380867  0.84013063  0.90805743  1
  S  S26  1  0.69012329  0.06636154  0.13941183  1
  S  S27  1  0.04199849  0.43641135  0.22224015  1
  S  S28  1  0.19012329  0.06636154  0.36058817  1
  S  S29  1  0.54199849  0.43641135  0.27775985  1
  S  S30  1  0.73619133  0.15986937  0.40805743  1
  S  S31  1  0.23619133  0.15986937  0.09194257  1
  S  S32  1  0.26380867  0.84013063  0.59194257  1
  S  S33  1  0.80987671  0.93363846  0.63941183  1
  S  S34  1  0.45800151  0.56358865  0.72224015  1
  S  S35  1  0.30987671  0.93363846  0.86058817  1
  N  N36  1  0.14567962  0.14408891  0.66051076  1
  N  N37  1  0.53569531  0.32094869  0.48564566  1
  N  N38  1  0.85432038  0.85591109  0.33948924  1
  N  N39  1  0.35432038  0.85591109  0.16051076  1
  N  N40  1  0.59592582  0.57505572  0.12239463  1
  N  N41  1  0.03569531  0.32094869  0.01435434  1
  N  N42  1  0.96430469  0.67905131  0.98564566  1
  N  N43  1  0.09592582  0.57505572  0.37760537  1
  N  N44  1  0.64567962  0.14408891  0.83948924  1
  N  N45  1  0.90407418  0.42494428  0.62239463  1
  N  N46  1  0.46430469  0.67905131  0.51435434  1
  N  N47  1  0.40407418  0.42494428  0.87760537  1
