# generated using pymatgen
data_Pr5O9
_symmetry_space_group_name_H-M   'P 1'
_cell_length_a   6.94847320
_cell_length_b   13.41515949
_cell_length_c   20.29862930
_cell_angle_alpha   90.00000000
_cell_angle_beta   90.00000000
_cell_angle_gamma   101.01889181
_symmetry_Int_Tables_number   1
_chemical_formula_structural   Pr5O9
_chemical_formula_sum   'Pr40 O72'
_cell_volume   1857.25123784
_cell_formula_units_Z   8
loop_
 _symmetry_equiv_pos_site_id
 _symmetry_equiv_pos_as_xyz
  1  'x, y, z'
loop_
 _atom_site_type_symbol
 _atom_site_label
 _atom_site_symmetry_multiplicity
 _atom_site_fract_x
 _atom_site_fract_y
 _atom_site_fract_z
 _atom_site_occupancy
  Pr  Pr0  1  0.12916690  0.87708791  0.10559701  1
  Pr  Pr1  1  0.87844046  0.12980299  0.50597361  1
  Pr  Pr2  1  0.91032523  0.61876888  0.39787166  1
  Pr  Pr3  1  0.08967477  0.88123112  0.89787166  1
  Pr  Pr4  1  0.38399179  0.62115031  0.70457279  1
  Pr  Pr5  1  0.36091570  0.61694872  0.50895939  1
  Pr  Pr6  1  0.08967477  0.38123112  0.60212834  1
  Pr  Pr7  1  0.88460334  0.64295130  0.80165543  1
  Pr  Pr8  1  0.36091570  0.11694872  0.99104061  1
  Pr  Pr9  1  0.12916690  0.37708791  0.39440299  1
  Pr  Pr10  1  0.16365817  0.36908023  0.80003474  1
  Pr  Pr11  1  0.63908430  0.88305128  0.00895939  1
  Pr  Pr12  1  0.61289755  0.86563998  0.58788849  1
  Pr  Pr13  1  0.61289755  0.36563998  0.91211151  1
  Pr  Pr14  1  0.91032523  0.11876888  0.10212834  1
  Pr  Pr15  1  0.12155954  0.87019701  0.49402639  1
  Pr  Pr16  1  0.83634183  0.13091977  0.30003474  1
  Pr  Pr17  1  0.63289413  0.89301579  0.39838192  1
  Pr  Pr18  1  0.12155954  0.37019701  0.00597361  1
  Pr  Pr19  1  0.38399179  0.12115031  0.79542721  1
  Pr  Pr20  1  0.63289413  0.39301579  0.10161808  1
  Pr  Pr21  1  0.88460334  0.14295130  0.69834457  1
  Pr  Pr22  1  0.87083310  0.12291209  0.89440299  1
  Pr  Pr23  1  0.11539666  0.35704870  0.19834457  1
  Pr  Pr24  1  0.38710245  0.13436002  0.41211151  1
  Pr  Pr25  1  0.36710587  0.10698421  0.60161808  1
  Pr  Pr26  1  0.63908430  0.38305128  0.49104061  1
  Pr  Pr27  1  0.11539666  0.85704870  0.30165543  1
  Pr  Pr28  1  0.87083310  0.62291209  0.60559701  1
  Pr  Pr29  1  0.36710587  0.60698421  0.89838192  1
  Pr  Pr30  1  0.37201723  0.12306275  0.19973044  1
  Pr  Pr31  1  0.83634183  0.63091977  0.19996526  1
  Pr  Pr32  1  0.38710245  0.63436002  0.08788849  1
  Pr  Pr33  1  0.37201723  0.62306275  0.30026956  1
  Pr  Pr34  1  0.16365817  0.86908023  0.69996526  1
  Pr  Pr35  1  0.61600821  0.87884969  0.20457279  1
  Pr  Pr36  1  0.62798277  0.87693725  0.80026956  1
  Pr  Pr37  1  0.61600821  0.37884969  0.29542721  1
  Pr  Pr38  1  0.87844046  0.62980299  0.99402639  1
  Pr  Pr39  1  0.62798277  0.37693725  0.69973044  1
  O  O40  1  0.17896000  0.56230990  0.60531339  1
  O  O41  1  0.06997549  0.18023671  0.39176490  1
  O  O42  1  0.06740063  0.67449326  0.29063099  1
  O  O43  1  0.05159052  0.68447060  0.50412373  1
  O  O44  1  0.17911254  0.56075248  0.99808503  1
  O  O45  1  0.68139038  0.57409986  0.48940813  1
  O  O46  1  0.43523296  0.81802677  0.10360680  1
  O  O47  1  0.22256944  0.06612368  0.09702183  1
  O  O48  1  0.17911254  0.06075248  0.50191497  1
  O  O49  1  0.51988210  0.67979757  0.19747684  1
  O  O50  1  0.45057630  0.30542787  0.18967516  1
  O  O51  1  0.93259937  0.32550674  0.70936901  1
  O  O52  1  0.05159052  0.18447060  0.99587627  1
  O  O53  1  0.92077543  0.31188616  0.29849742  1
  O  O54  1  0.29649507  0.94892476  0.39416381  1
  O  O55  1  0.67675359  0.07174661  0.19281146  1
  O  O56  1  0.16070377  0.54786626  0.79956973  1
  O  O57  1  0.06997549  0.68023671  0.10823510  1
  O  O58  1  0.69937771  0.55776339  0.71300039  1
  O  O59  1  0.93259937  0.82550674  0.79063099  1
  O  O60  1  0.69323412  0.57402639  0.09380079  1
  O  O61  1  0.43523296  0.31802677  0.39639320  1
  O  O62  1  0.77743056  0.93387632  0.90297817  1
  O  O63  1  0.83929623  0.95213374  0.29956973  1
  O  O64  1  0.70350493  0.55107524  0.89416381  1
  O  O65  1  0.30062229  0.94223661  0.21300039  1
  O  O66  1  0.94840948  0.31552940  0.49587627  1
  O  O67  1  0.90509150  0.79862850  0.39699762  1
  O  O68  1  0.54942370  0.69457213  0.81032484  1
  O  O69  1  0.31860962  0.92590014  0.98940813  1
  O  O70  1  0.29649507  0.44892476  0.10583619  1
  O  O71  1  0.44305796  0.29975497  0.01204680  1
  O  O72  1  0.67675359  0.57174661  0.30718854  1
  O  O73  1  0.82104000  0.43769010  0.39468661  1
  O  O74  1  0.93002451  0.31976329  0.89176490  1
  O  O75  1  0.69937771  0.05776339  0.78699961  1
  O  O76  1  0.90509150  0.29862850  0.10300238  1
  O  O77  1  0.32324641  0.92825339  0.80718854  1
  O  O78  1  0.55694204  0.70024503  0.98795320  1
  O  O79  1  0.82088746  0.93924752  0.49808503  1
  O  O80  1  0.54942370  0.19457213  0.68967516  1
  O  O81  1  0.94840948  0.81552940  0.00412373  1
  O  O82  1  0.82088746  0.43924752  0.00191497  1
  O  O83  1  0.56476704  0.68197323  0.60360680  1
  O  O84  1  0.55694204  0.20024503  0.51204680  1
  O  O85  1  0.56476704  0.18197323  0.89639320  1
  O  O86  1  0.83929623  0.45213374  0.20043027  1
  O  O87  1  0.48011790  0.32020243  0.80252316  1
  O  O88  1  0.45057630  0.80542787  0.31032484  1
  O  O89  1  0.77743056  0.43387632  0.59702183  1
  O  O90  1  0.70350493  0.05107524  0.60583619  1
  O  O91  1  0.31860962  0.42590014  0.51059187  1
  O  O92  1  0.09490850  0.20137150  0.60300238  1
  O  O93  1  0.69323412  0.07402639  0.40619921  1
  O  O94  1  0.82104000  0.93769010  0.10531339  1
  O  O95  1  0.07922457  0.68811384  0.70150258  1
  O  O96  1  0.93002451  0.81976329  0.60823510  1
  O  O97  1  0.48011790  0.82020243  0.69747684  1
  O  O98  1  0.30676588  0.42597361  0.90619921  1
  O  O99  1  0.17896000  0.06230990  0.89468661  1
  O  O100  1  0.68139038  0.07409986  0.01059187  1
  O  O101  1  0.22256944  0.56612368  0.40297817  1
  O  O102  1  0.92077543  0.81188616  0.20150258  1
  O  O103  1  0.30062229  0.44223661  0.28699961  1
  O  O104  1  0.09490850  0.70137150  0.89699762  1
  O  O105  1  0.30676588  0.92597361  0.59380079  1
  O  O106  1  0.07922457  0.18811384  0.79849742  1
  O  O107  1  0.51988210  0.17979757  0.30252316  1
  O  O108  1  0.44305796  0.79975497  0.48795320  1
  O  O109  1  0.06740063  0.17449326  0.20936901  1
  O  O110  1  0.32324641  0.42825339  0.69281146  1
  O  O111  1  0.16070377  0.04786626  0.70043027  1
