# generated using pymatgen
data_SnH4C2NO4F
_symmetry_space_group_name_H-M   'P 1'
_cell_length_a   7.80460138
_cell_length_b   8.65014158
_cell_length_c   9.84124325
_cell_angle_alpha   90.00000000
_cell_angle_beta   90.00000000
_cell_angle_gamma   110.03207661
_symmetry_Int_Tables_number   1
_chemical_formula_structural   SnH4C2NO4F
_chemical_formula_sum   'Sn4 H16 C8 N4 O16 F4'
_cell_volume   624.19624772
_cell_formula_units_Z   4
loop_
 _symmetry_equiv_pos_site_id
 _symmetry_equiv_pos_as_xyz
  1  'x, y, z'
loop_
 _atom_site_type_symbol
 _atom_site_label
 _atom_site_symmetry_multiplicity
 _atom_site_fract_x
 _atom_site_fract_y
 _atom_site_fract_z
 _atom_site_occupancy
  Sn  Sn0  1  0.99444862  0.62312849  0.18684130  1
  Sn  Sn1  1  0.50555138  0.37687151  0.68684130  1
  Sn  Sn2  1  0.00555138  0.37687151  0.81315870  1
  Sn  Sn3  1  0.49444862  0.62312849  0.31315870  1
  H  H4  1  0.27881567  0.99979290  0.24824379  1
  H  H5  1  0.22118433  0.00020710  0.74824379  1
  H  H6  1  0.97171566  0.16258421  0.26303117  1
  H  H7  1  0.45786876  0.01208192  0.35024214  1
  H  H8  1  0.16829498  0.86028949  0.87408400  1
  H  H9  1  0.72118433  0.00020710  0.75175621  1
  H  H10  1  0.33170502  0.13971051  0.37408400  1
  H  H11  1  0.52828434  0.83741579  0.76303117  1
  H  H12  1  0.83170502  0.13971051  0.12591600  1
  H  H13  1  0.02828434  0.83741579  0.73696883  1
  H  H14  1  0.47171566  0.16258421  0.23696883  1
  H  H15  1  0.04213124  0.98791808  0.85024214  1
  H  H16  1  0.77881567  0.99979290  0.25175621  1
  H  H17  1  0.95786876  0.01208192  0.14975786  1
  H  H18  1  0.66829498  0.86028949  0.62591600  1
  H  H19  1  0.54213124  0.98791808  0.64975786  1
  C  C20  1  0.37793314  0.29949011  0.98957691  1
  C  C21  1  0.06946479  0.27891387  0.51604367  1
  C  C22  1  0.12206686  0.70050989  0.48957691  1
  C  C23  1  0.56946479  0.27891387  0.98395633  1
  C  C24  1  0.62206686  0.70050989  0.01042309  1
  C  C25  1  0.93053521  0.72108613  0.48395633  1
  C  C26  1  0.43053521  0.72108613  0.01604367  1
  C  C27  1  0.87793314  0.29949011  0.51042309  1
  N  N28  1  0.61429106  0.92097424  0.69506296  1
  N  N29  1  0.88570894  0.07902576  0.19506296  1
  N  N30  1  0.38570894  0.07902576  0.30493704  1
  N  N31  1  0.11429106  0.92097424  0.80493704  1
  O  O32  1  0.79766461  0.28828474  0.40062510  1
  O  O33  1  0.84712470  0.68675049  0.36849994  1
  O  O34  1  0.36979869  0.76747362  0.91248455  1
  O  O35  1  0.65287530  0.31324951  0.86849994  1
  O  O36  1  0.29766461  0.28828474  0.09937490  1
  O  O37  1  0.15287530  0.31324951  0.63150006  1
  O  O38  1  0.86979869  0.76747362  0.58751545  1
  O  O39  1  0.18243322  0.67177694  0.37205456  1
  O  O40  1  0.70233539  0.71171526  0.90062510  1
  O  O41  1  0.13020131  0.23252638  0.41248455  1
  O  O42  1  0.63020131  0.23252638  0.08751545  1
  O  O43  1  0.81756678  0.32822306  0.62794544  1
  O  O44  1  0.34712470  0.68675049  0.13150006  1
  O  O45  1  0.31756678  0.32822306  0.87205456  1
  O  O46  1  0.68243322  0.67177694  0.12794544  1
  O  O47  1  0.20233539  0.71171526  0.59937490  1
  F  F48  1  0.59265012  0.87803600  0.35202284  1
  F  F49  1  0.90734988  0.12196400  0.85202284  1
  F  F50  1  0.09265012  0.87803600  0.14797716  1
  F  F51  1  0.40734988  0.12196400  0.64797716  1
