# generated using pymatgen
data_AsS3(NF3)2
_symmetry_space_group_name_H-M   'P 1'
_cell_length_a   8.50337944
_cell_length_b   8.63183807
_cell_length_c   11.41727996
_cell_angle_alpha   95.68319366
_cell_angle_beta   90.00000000
_cell_angle_gamma   90.00000000
_symmetry_Int_Tables_number   1
_chemical_formula_structural   AsS3(NF3)2
_chemical_formula_sum   'As4 S12 N8 F24'
_cell_volume   833.90681838
_cell_formula_units_Z   4
loop_
 _symmetry_equiv_pos_site_id
 _symmetry_equiv_pos_as_xyz
  1  'x, y, z'
loop_
 _atom_site_type_symbol
 _atom_site_label
 _atom_site_symmetry_multiplicity
 _atom_site_fract_x
 _atom_site_fract_y
 _atom_site_fract_z
 _atom_site_occupancy
  As  As0  1  0.10481375  0.26811848  0.12663877  1
  As  As1  1  0.60481375  0.73188152  0.37336123  1
  As  As2  1  0.89518625  0.73188152  0.87336123  1
  As  As3  1  0.39518625  0.26811848  0.62663877  1
  S  S4  1  0.65049565  0.03806079  0.11349865  1
  S  S5  1  0.43140781  0.64937503  0.85867097  1
  S  S6  1  0.34950435  0.96193921  0.88650135  1
  S  S7  1  0.63081692  0.14568310  0.94442387  1
  S  S8  1  0.13081692  0.85431690  0.55557613  1
  S  S9  1  0.36918308  0.85431690  0.05557613  1
  S  S10  1  0.93140781  0.35062497  0.64132903  1
  S  S11  1  0.84950435  0.03806079  0.61349865  1
  S  S12  1  0.86918308  0.14568310  0.44442387  1
  S  S13  1  0.56859219  0.35062497  0.14132903  1
  S  S14  1  0.15049565  0.96193921  0.38650135  1
  S  S15  1  0.06859219  0.64937503  0.35867097  1
  N  N16  1  0.91281648  0.31573116  0.50335192  1
  N  N17  1  0.58718352  0.31573116  0.00335192  1
  N  N18  1  0.38961917  0.80593308  0.80502631  1
  N  N19  1  0.08718352  0.68426884  0.49664808  1
  N  N20  1  0.88961917  0.19406692  0.69497369  1
  N  N21  1  0.11038083  0.80593308  0.30502631  1
  N  N22  1  0.41281648  0.68426884  0.99664808  1
  N  N23  1  0.61038083  0.19406692  0.19497369  1
  F  F24  1  0.71883704  0.84064509  0.92207735  1
  F  F25  1  0.21883704  0.15935491  0.57792265  1
  F  F26  1  0.97950928  0.90947798  0.83694844  1
  F  F27  1  0.81272937  0.70607098  0.72981687  1
  F  F28  1  0.52049072  0.90947798  0.33694844  1
  F  F29  1  0.28116296  0.15935491  0.07792265  1
  F  F30  1  0.56607661  0.37134362  0.67704255  1
  F  F31  1  0.93392339  0.37134362  0.17704255  1
  F  F32  1  0.52847967  0.76440018  0.51652199  1
  F  F33  1  0.47152033  0.23559982  0.48347801  1
  F  F34  1  0.47950928  0.09052202  0.66305156  1
  F  F35  1  0.97152033  0.76440018  0.01652199  1
  F  F36  1  0.30162203  0.44068417  0.59323204  1
  F  F37  1  0.19837797  0.44068417  0.09323204  1
  F  F38  1  0.18727063  0.29392902  0.27018313  1
  F  F39  1  0.68727063  0.70607098  0.22981687  1
  F  F40  1  0.78116296  0.84064509  0.42207735  1
  F  F41  1  0.43392339  0.62865638  0.32295745  1
  F  F42  1  0.80162203  0.55931583  0.90676796  1
  F  F43  1  0.02847967  0.23559982  0.98347801  1
  F  F44  1  0.06607661  0.62865638  0.82295745  1
  F  F45  1  0.31272937  0.29392902  0.77018313  1
  F  F46  1  0.02049072  0.09052202  0.16305156  1
  F  F47  1  0.69837797  0.55931583  0.40676796  1
