# generated using pymatgen
data_Ba2CuSi2O7
_symmetry_space_group_name_H-M   'P 1'
_cell_length_a   6.85472182
_cell_length_b   6.85472209
_cell_length_c   8.65954150
_cell_angle_alpha   102.55294583
_cell_angle_beta   102.55294632
_cell_angle_gamma   101.63962417
_symmetry_Int_Tables_number   1
_chemical_formula_structural   Ba2CuSi2O7
_chemical_formula_sum   'Ba4 Si4 Cu2 O14'
_cell_volume   374.19496601
_cell_formula_units_Z   2
loop_
 _symmetry_equiv_pos_site_id
 _symmetry_equiv_pos_as_xyz
  1  'x, y, z'
loop_
 _atom_site_type_symbol
 _atom_site_label
 _atom_site_symmetry_multiplicity
 _atom_site_fract_x
 _atom_site_fract_y
 _atom_site_fract_z
 _atom_site_occupancy
  Ba  Ba0  1  0.18734140  0.26715347  0.97259483  1
  Ba  Ba1  1  0.26715347  0.18734140  0.47259483  1
  Ba  Ba2  1  0.73284653  0.81265860  0.52740517  1
  Ba  Ba3  1  0.81265860  0.73284653  0.02740517  1
  Si  Si4  1  0.38451008  0.84006518  0.14020611  1
  Si  Si5  1  0.61548992  0.15993482  0.85979389  1
  Si  Si6  1  0.15993482  0.61548992  0.35979389  1
  Si  Si7  1  0.84006518  0.38451008  0.64020611  1
  Cu  Cu8  1  0.73685161  0.26314839  0.25000000  1
  Cu  Cu9  1  0.26314839  0.73685161  0.75000000  1
  O  O10  1  0.37301324  0.03474615  0.76472207  1
  O  O11  1  0.62698676  0.96525385  0.23527793  1
  O  O12  1  0.98352278  0.22376999  0.63681810  1
  O  O13  1  0.33055617  0.66944383  0.25000000  1
  O  O14  1  0.68833260  0.37253031  0.46094477  1
  O  O15  1  0.22376999  0.98352278  0.13681810  1
  O  O16  1  0.37253031  0.68833260  0.96094477  1
  O  O17  1  0.01647722  0.77623001  0.36318190  1
  O  O18  1  0.66944383  0.33055617  0.75000000  1
  O  O19  1  0.31166740  0.62746969  0.53905523  1
  O  O20  1  0.96525385  0.62698676  0.73527793  1
  O  O21  1  0.03474615  0.37301324  0.26472207  1
  O  O22  1  0.77623001  0.01647722  0.86318190  1
  O  O23  1  0.62746969  0.31166740  0.03905523  1
