# generated using pymatgen
data_KU2(B5O12)2
_symmetry_space_group_name_H-M   'P 1'
_cell_length_a   6.52879474
_cell_length_b   6.52879474
_cell_length_c   25.72660622
_cell_angle_alpha   93.47453554
_cell_angle_beta   93.47453554
_cell_angle_gamma   119.63057166
_symmetry_Int_Tables_number   1
_chemical_formula_structural   KU2(B5O12)2
_chemical_formula_sum   'K2 U4 B20 O48'
_cell_volume   946.24963656
_cell_formula_units_Z   2
loop_
 _symmetry_equiv_pos_site_id
 _symmetry_equiv_pos_as_xyz
  1  'x, y, z'
loop_
 _atom_site_type_symbol
 _atom_site_label
 _atom_site_symmetry_multiplicity
 _atom_site_fract_x
 _atom_site_fract_y
 _atom_site_fract_z
 _atom_site_occupancy
  K  K0  1  0.24514953  0.75485047  0.25000000  1
  K  K1  1  0.75485047  0.24514953  0.75000000  1
  U  U2  1  0.77191388  0.06362605  0.40321300  1
  U  U3  1  0.93637395  0.22808612  0.09678700  1
  U  U4  1  0.22808612  0.93637395  0.59678700  1
  U  U5  1  0.06362605  0.77191388  0.90321300  1
  B  B6  1  0.09330318  0.71878885  0.40124146  1
  B  B7  1  0.28121115  0.90669682  0.09875854  1
  B  B8  1  0.90669682  0.28121115  0.59875854  1
  B  B9  1  0.71878885  0.09330318  0.90124146  1
  B  B10  1  0.30254002  0.27976606  0.29693937  1
  B  B11  1  0.72023394  0.69745998  0.20306063  1
  B  B12  1  0.69745998  0.72023394  0.70306063  1
  B  B13  1  0.27976606  0.30254002  0.79693937  1
  B  B14  1  0.34200441  0.53453907  0.37444615  1
  B  B15  1  0.46546093  0.65799559  0.12555385  1
  B  B16  1  0.65799559  0.46546093  0.62555385  1
  B  B17  1  0.53453907  0.34200441  0.87444615  1
  B  B18  1  0.66688007  0.47871626  0.42405828  1
  B  B19  1  0.52128374  0.33311993  0.07594172  1
  B  B20  1  0.33311993  0.52128374  0.57594172  1
  B  B21  1  0.47871626  0.66688007  0.92405828  1
  B  B22  1  0.26762120  0.14003150  0.38429151  1
  B  B23  1  0.85996850  0.73237880  0.11570849  1
  B  B24  1  0.73237880  0.85996850  0.61570849  1
  B  B25  1  0.14003150  0.26762120  0.88429151  1
  O  O26  1  0.80205769  0.08068395  0.47294973  1
  O  O27  1  0.91931605  0.19794231  0.02705027  1
  O  O28  1  0.19794231  0.91931605  0.52705027  1
  O  O29  1  0.08068395  0.80205769  0.97294973  1
  O  O30  1  0.73325143  0.05017728  0.33343545  1
  O  O31  1  0.94982272  0.26674857  0.16656455  1
  O  O32  1  0.26674857  0.94982272  0.66656455  1
  O  O33  1  0.05017728  0.73325143  0.83343545  1
  O  O34  1  0.50570494  0.22378391  0.41152779  1
  O  O35  1  0.77621609  0.49429506  0.08847221  1
  O  O36  1  0.49429506  0.77621609  0.58847221  1
  O  O37  1  0.22378391  0.50570494  0.91152779  1
  O  O38  1  0.68385850  0.56093630  0.47913418  1
  O  O39  1  0.43906370  0.31614150  0.02086582  1
  O  O40  1  0.31614150  0.43906370  0.52086582  1
  O  O41  1  0.56093630  0.68385850  0.97913418  1
  O  O42  1  0.19056407  0.31412747  0.39622705  1
  O  O43  1  0.68587253  0.80943593  0.10377295  1
  O  O44  1  0.80943593  0.68587253  0.60377295  1
  O  O45  1  0.31412747  0.19056407  0.89622705  1
  O  O46  1  0.89132425  0.71345967  0.17221044  1
  O  O47  1  0.28654033  0.10867575  0.32778956  1
  O  O48  1  0.10867575  0.28654033  0.82778956  1
  O  O49  1  0.71345967  0.89132425  0.67221044  1
  O  O50  1  0.29988077  0.72899503  0.38883152  1
  O  O51  1  0.27100497  0.70011923  0.11116848  1
  O  O52  1  0.70011923  0.27100497  0.61116848  1
  O  O53  1  0.72899503  0.29988077  0.88883152  1
  O  O54  1  0.08003393  0.92232855  0.40179486  1
  O  O55  1  0.07767145  0.91996607  0.09820514  1
  O  O56  1  0.91996607  0.07767145  0.59820514  1
  O  O57  1  0.92232855  0.08003393  0.90179486  1
  O  O58  1  0.89969077  0.50941481  0.41124023  1
  O  O59  1  0.49058519  0.10030923  0.08875977  1
  O  O60  1  0.10030923  0.49058519  0.58875977  1
  O  O61  1  0.50941481  0.89969077  0.91124023  1
  O  O62  1  0.59740260  0.62878821  0.39643785  1
  O  O63  1  0.37121179  0.40259740  0.10356215  1
  O  O64  1  0.40259740  0.37121179  0.60356215  1
  O  O65  1  0.62878821  0.59740260  0.89643785  1
  O  O66  1  0.32800345  0.49290545  0.31716872  1
  O  O67  1  0.50709455  0.67199655  0.18283128  1
  O  O68  1  0.67199655  0.50709455  0.68283128  1
  O  O69  1  0.49290545  0.32800345  0.81716872  1
  O  O70  1  0.28565041  0.22044084  0.24432167  1
  O  O71  1  0.77955916  0.71434959  0.25567833  1
  O  O72  1  0.71434959  0.77955916  0.75567833  1
  O  O73  1  0.22044084  0.28565041  0.74432167  1
