# generated using pymatgen
data_H11C4NO10
_symmetry_space_group_name_H-M   'P 1'
_cell_length_a   6.61338617
_cell_length_b   7.28334274
_cell_length_c   10.61084191
_cell_angle_alpha   92.37605581
_cell_angle_beta   102.08228934
_cell_angle_gamma   100.01911956
_symmetry_Int_Tables_number   1
_chemical_formula_structural   H11C4NO10
_chemical_formula_sum   'H22 C8 N2 O20'
_cell_volume   490.54272569
_cell_formula_units_Z   2
loop_
 _symmetry_equiv_pos_site_id
 _symmetry_equiv_pos_as_xyz
  1  'x, y, z'
loop_
 _atom_site_type_symbol
 _atom_site_label
 _atom_site_symmetry_multiplicity
 _atom_site_fract_x
 _atom_site_fract_y
 _atom_site_fract_z
 _atom_site_occupancy
  H  H0  1  0.24233388  0.19534780  0.10627173  1
  H  H1  1  0.17275122  0.25797002  0.85041112  1
  H  H2  1  0.14353911  0.79782947  0.55902580  1
  H  H3  1  0.80227411  0.96330962  0.18970966  1
  H  H4  1  0.74820430  0.78788507  0.28706171  1
  H  H5  1  0.73985942  0.01863913  0.92658828  1
  H  H6  1  0.85646089  0.20217053  0.44097420  1
  H  H7  1  0.75766612  0.80465220  0.89372827  1
  H  H8  1  0.65322303  0.43595271  0.74608872  1
  H  H9  1  0.37294093  0.07166192  0.25183943  1
  H  H10  1  0.00246795  0.12826031  0.72115569  1
  H  H11  1  0.91205917  0.70083121  0.56991881  1
  H  H12  1  0.99753205  0.87173969  0.27884431  1
  H  H13  1  0.08794083  0.29916879  0.43008119  1
  H  H14  1  0.25179570  0.21211493  0.71293829  1
  H  H15  1  0.86540820  0.34200908  0.27402353  1
  H  H16  1  0.62705907  0.92833808  0.74816057  1
  H  H17  1  0.34677697  0.56404729  0.25391128  1
  H  H18  1  0.26014058  0.98136087  0.07341172  1
  H  H19  1  0.13459180  0.65799092  0.72597647  1
  H  H20  1  0.19772589  0.03669038  0.81029034  1
  H  H21  1  0.82724878  0.74202998  0.14958888  1
  C  C22  1  0.23774991  0.68028923  0.91877997  1
  C  C23  1  0.58168075  0.01002470  0.56512366  1
  C  C24  1  0.76225009  0.31971077  0.08122003  1
  C  C25  1  0.41831925  0.98997530  0.43487634  1
  C  C26  1  0.72638682  0.43771288  0.96203109  1
  C  C27  1  0.49180746  0.45293925  0.56344256  1
  C  C28  1  0.27361318  0.56228712  0.03796891  1
  C  C29  1  0.50819254  0.54706075  0.43655744  1
  N  N30  1  0.15675979  0.15826977  0.77398150  1
  N  N31  1  0.84324021  0.84173023  0.22601850  1
  O  O32  1  0.18124270  0.57940926  0.80854951  1
  O  O33  1  0.65670136  0.50799934  0.65576821  1
  O  O34  1  0.23873654  0.89551078  0.42357018  1
  O  O35  1  0.81875730  0.42059074  0.19145049  1
  O  O36  1  0.66760860  0.66324695  0.43147851  1
  O  O37  1  0.33239140  0.33675305  0.56852149  1
  O  O38  1  0.23671736  0.38672063  0.01710820  1
  O  O39  1  0.76126346  0.10448922  0.57642982  1
  O  O40  1  0.73883786  0.14655651  0.06728635  1
  O  O41  1  0.66463867  0.34216017  0.85339345  1
  O  O42  1  0.49147302  0.07877003  0.34583555  1
  O  O43  1  0.50852698  0.92122997  0.65416445  1
  O  O44  1  0.94444643  0.24790606  0.37953492  1
  O  O45  1  0.76223523  0.93005905  0.85861864  1
  O  O46  1  0.76328264  0.61327937  0.98289180  1
  O  O47  1  0.34329864  0.49200066  0.34423179  1
  O  O48  1  0.26116214  0.85344349  0.93271365  1
  O  O49  1  0.23776477  0.06994095  0.14138136  1
  O  O50  1  0.33536133  0.65783983  0.14660655  1
  O  O51  1  0.05555357  0.75209394  0.62046508  1
