# generated using pymatgen
data_KB(CO2)4
_symmetry_space_group_name_H-M   'P 1'
_cell_length_a   7.00813905
_cell_length_b   7.00813894
_cell_length_c   8.42215585
_cell_angle_alpha   90.00000000
_cell_angle_beta   90.00000000
_cell_angle_gamma   105.08855722
_symmetry_Int_Tables_number   1
_chemical_formula_structural   KB(CO2)4
_chemical_formula_sum   'K2 B2 C8 O16'
_cell_volume   399.38527381
_cell_formula_units_Z   2
loop_
 _symmetry_equiv_pos_site_id
 _symmetry_equiv_pos_as_xyz
  1  'x, y, z'
loop_
 _atom_site_type_symbol
 _atom_site_label
 _atom_site_symmetry_multiplicity
 _atom_site_fract_x
 _atom_site_fract_y
 _atom_site_fract_z
 _atom_site_occupancy
  K  K0  1  0.92846966  0.07153034  0.25000000  1
  K  K1  1  0.07153034  0.92846966  0.75000000  1
  B  B2  1  0.57176172  0.42823828  0.75000000  1
  B  B3  1  0.42823828  0.57176172  0.25000000  1
  C  C4  1  0.76652521  0.23347479  0.65834616  1
  C  C5  1  0.71402418  0.46695366  0.25000000  1
  C  C6  1  0.28597582  0.53304634  0.75000000  1
  C  C7  1  0.53304634  0.28597582  0.25000000  1
  C  C8  1  0.23347479  0.76652521  0.15834616  1
  C  C9  1  0.46695366  0.71402418  0.75000000  1
  C  C10  1  0.76652521  0.23347479  0.84165384  1
  C  C11  1  0.23347479  0.76652521  0.34165384  1
  O  O12  1  0.65241697  0.34758303  0.60978536  1
  O  O13  1  0.85514887  0.14485113  0.57330003  1
  O  O14  1  0.14485113  0.85514887  0.42669997  1
  O  O15  1  0.34758303  0.65241697  0.39021464  1
  O  O16  1  0.88589171  0.46045548  0.25000000  1
  O  O17  1  0.62969485  0.64840557  0.75000000  1
  O  O18  1  0.34758303  0.65241697  0.10978536  1
  O  O19  1  0.46045548  0.88589171  0.75000000  1
  O  O20  1  0.14485113  0.85514887  0.07330003  1
  O  O21  1  0.37030515  0.35159443  0.25000000  1
  O  O22  1  0.11410829  0.53954452  0.75000000  1
  O  O23  1  0.53954452  0.11410829  0.25000000  1
  O  O24  1  0.64840557  0.62969485  0.25000000  1
  O  O25  1  0.35159443  0.37030515  0.75000000  1
  O  O26  1  0.85514887  0.14485113  0.92669997  1
  O  O27  1  0.65241697  0.34758303  0.89021464  1
