# generated using pymatgen
data_Ba2Nd2Co4O11
_symmetry_space_group_name_H-M   'P 1'
_cell_length_a   3.95220012
_cell_length_b   7.65820109
_cell_length_c   8.00566977
_cell_angle_alpha   90.00231256
_cell_angle_beta   90.00694757
_cell_angle_gamma   90.00437961
_symmetry_Int_Tables_number   1
_chemical_formula_structural   Ba2Nd2Co4O11
_chemical_formula_sum   'Ba2 Nd2 Co4 O11'
_cell_volume   242.30554875
_cell_formula_units_Z   1
loop_
 _symmetry_equiv_pos_site_id
 _symmetry_equiv_pos_as_xyz
  1  'x, y, z'
loop_
 _atom_site_type_symbol
 _atom_site_label
 _atom_site_symmetry_multiplicity
 _atom_site_fract_x
 _atom_site_fract_y
 _atom_site_fract_z
 _atom_site_occupancy
  Ba  Ba0  1  0.50003136  0.00032372  0.75521140  1
  Ba  Ba1  1  0.49996982  0.00028869  0.24478299  1
  Nd  Nd2  1  0.50005297  0.49623260  0.73299194  1
  Nd  Nd3  1  0.50000159  0.49623547  0.26702246  1
  Co  Co4  1  0.00021186  0.73662449  -0.00005112  1
  Co  Co5  1  0.00014233  0.25037602  0.50001842  1
  Co  Co6  1  -0.00000498  0.74917038  0.50001847  1
  Co  Co7  1  -0.00002270  0.26186596  0.00004348  1
  O  O8  1  0.00008981  0.70789441  0.77366742  1
  O  O9  1  -0.00008000  0.70785962  0.22638432  1
  O  O10  1  0.50006754  0.27096602  0.49997657  1
  O  O11  1  0.49999876  0.73262746  0.50000555  1
  O  O12  1  0.99999471  0.49815477  0.49996252  1
  O  O13  1  0.99988985  0.29237047  0.76389112  1
  O  O14  1  0.99938360  -0.00386448  0.00004001  1
  O  O15  1  0.49998641  0.68922080  0.00000051  1
  O  O16  1  -0.00009278  0.29228555  0.23598882  1
  O  O17  1  0.50039840  0.31087548  0.00004789  1
  O  O18  1  0.99998145  0.01049256  0.49999824  1
