# generated using pymatgen
data_In2Cu2O5
_symmetry_space_group_name_H-M   'P 1'
_cell_length_a   3.32945713
_cell_length_b   10.71817789
_cell_length_c   13.55581925
_cell_angle_alpha   113.14013418
_cell_angle_beta   90.00000000
_cell_angle_gamma   90.00000000
_symmetry_Int_Tables_number   1
_chemical_formula_structural   In2Cu2O5
_chemical_formula_sum   'In8 Cu8 O20'
_cell_volume   444.82975497
_cell_formula_units_Z   4
loop_
 _symmetry_equiv_pos_site_id
 _symmetry_equiv_pos_as_xyz
  1  'x, y, z'
loop_
 _atom_site_type_symbol
 _atom_site_label
 _atom_site_symmetry_multiplicity
 _atom_site_fract_x
 _atom_site_fract_y
 _atom_site_fract_z
 _atom_site_occupancy
  In  In0  1  0.56226730  0.50511796  0.33453728  1
  In  In1  1  0.63448537  0.00609181  0.33501803  1
  In  In2  1  0.56226730  0.49488204  0.66546272  1
  In  In3  1  0.14366245  0.67081680  0.16445942  1
  In  In4  1  0.05641368  0.17055472  0.16511421  1
  In  In5  1  0.14366245  0.32918320  0.83554058  1
  In  In6  1  0.63448537  0.99390819  0.66498197  1
  In  In7  1  0.05641368  0.82944528  0.83488579  1
  Cu  Cu8  1  0.69444702  0.60493688  0.94562367  1
  Cu  Cu9  1  0.69444702  0.39506312  0.05437633  1
  Cu  Cu10  1  0.01879324  0.34237351  0.44742350  1
  Cu  Cu11  1  0.18973262  0.16018507  0.55330179  1
  Cu  Cu12  1  0.18973262  0.83981493  0.44669821  1
  Cu  Cu13  1  0.50706677  0.10734267  0.94696370  1
  Cu  Cu14  1  0.01879324  0.65762649  0.55257650  1
  Cu  Cu15  1  0.50706677  0.89265733  0.05303630  1
  O  O16  1  0.16337108  0.00000000  0.00000000  1
  O  O17  1  0.06604556  0.35228043  0.59641595  1
  O  O18  1  0.56849452  0.04918386  0.19222470  1
  O  O19  1  0.13245844  0.14813500  0.40304465  1
  O  O20  1  0.63118874  0.55088880  0.19323967  1
  O  O21  1  0.64966134  0.25568731  0.90498913  1
  O  O22  1  0.64966134  0.74431269  0.09501087  1
  O  O23  1  0.63118874  0.44911120  0.80676033  1
  O  O24  1  0.55104250  0.24660672  0.09740219  1
  O  O25  1  0.04581857  0.50000000  0.00000000  1
  O  O26  1  0.13589449  0.14247905  0.69346503  1
  O  O27  1  0.13589449  0.85752095  0.30653497  1
  O  O28  1  0.65046528  0.50000000  0.50000000  1
  O  O29  1  0.54046034  0.00000000  0.50000000  1
  O  O30  1  0.06118833  0.64239017  0.69282660  1
  O  O31  1  0.55104250  0.75339328  0.90259781  1
  O  O32  1  0.06118833  0.35760983  0.30717340  1
  O  O33  1  0.06604556  0.64771957  0.40358405  1
  O  O34  1  0.56849452  0.95081614  0.80777530  1
  O  O35  1  0.13245844  0.85186500  0.59695535  1
