# generated using pymatgen
data_PH9AuC3S3Cl
_symmetry_space_group_name_H-M   'P 1'
_cell_length_a   6.73761752
_cell_length_b   15.83362978
_cell_length_c   18.68921184
_cell_angle_alpha   90.00000000
_cell_angle_beta   90.00000000
_cell_angle_gamma   90.00000000
_symmetry_Int_Tables_number   1
_chemical_formula_structural   PH9AuC3S3Cl
_chemical_formula_sum   'P8 H72 Au8 C24 S24 Cl8'
_cell_volume   1993.78271332
_cell_formula_units_Z   8
loop_
 _symmetry_equiv_pos_site_id
 _symmetry_equiv_pos_as_xyz
  1  'x, y, z'
loop_
 _atom_site_type_symbol
 _atom_site_label
 _atom_site_symmetry_multiplicity
 _atom_site_fract_x
 _atom_site_fract_y
 _atom_site_fract_z
 _atom_site_occupancy
  P  P0  1  0.27664301  0.61825395  0.64507217  1
  P  P1  1  0.77664301  0.61825395  0.85492783  1
  P  P2  1  0.22335699  0.11825395  0.64507217  1
  P  P3  1  0.77664301  0.88174605  0.35492783  1
  P  P4  1  0.22335699  0.38174605  0.14507217  1
  P  P5  1  0.72335699  0.11825395  0.85492783  1
  P  P6  1  0.27664301  0.88174605  0.14507217  1
  P  P7  1  0.72335699  0.38174605  0.35492783  1
  H  H8  1  0.56317161  0.96249306  0.92613179  1
  H  H9  1  0.59543860  0.64975925  0.29509848  1
  H  H10  1  0.31498919  0.27309908  0.94300943  1
  H  H11  1  0.59543860  0.85024075  0.79509848  1
  H  H12  1  0.42049733  0.72231223  0.06447387  1
  H  H13  1  0.79198620  0.26782266  0.74378734  1
  H  H14  1  0.68563261  0.07541978  0.41178366  1
  H  H15  1  0.84021376  0.68573750  0.31814355  1
  H  H16  1  0.71726524  0.93583512  0.00136490  1
  H  H17  1  0.78273476  0.43583512  0.00136490  1
  H  H18  1  0.03423989  0.69835932  0.99099710  1
  H  H19  1  0.40456140  0.35024075  0.70490152  1
  H  H20  1  0.65978624  0.31426250  0.81814355  1
  H  H21  1  0.18563261  0.42458022  0.58821634  1
  H  H22  1  0.81436739  0.92458022  0.91178366  1
  H  H23  1  0.31436739  0.92458022  0.58821634  1
  H  H24  1  0.06317161  0.53750694  0.07386821  1
  H  H25  1  0.56317161  0.53750694  0.42613179  1
  H  H26  1  0.06317161  0.96249306  0.57386821  1
  H  H27  1  0.78273476  0.06416488  0.50136490  1
  H  H28  1  0.40456140  0.14975925  0.20490152  1
  H  H29  1  0.20801380  0.76782266  0.75621266  1
  H  H30  1  0.34021376  0.81426250  0.68185645  1
  H  H31  1  0.21726524  0.56416488  0.99863510  1
  H  H32  1  0.57950267  0.27768777  0.93552613  1
  H  H33  1  0.84021376  0.81426250  0.81814355  1
  H  H34  1  0.46576011  0.30164068  0.49099710  1
  H  H35  1  0.43682839  0.03750694  0.07386821  1
  H  H36  1  0.68501081  0.77309908  0.55699057  1
  H  H37  1  0.15978624  0.18573750  0.18185645  1
  H  H38  1  0.93682839  0.46249306  0.92613179  1
  H  H39  1  0.81436739  0.57541978  0.41178366  1
  H  H40  1  0.28273476  0.43583512  0.49863510  1
  H  H41  1  0.31436739  0.57541978  0.08821634  1
  H  H42  1  0.65978624  0.18573750  0.31814355  1
  H  H43  1  0.09543860  0.85024075  0.70490152  1
  H  H44  1  0.07950267  0.27768777  0.56447387  1
  H  H45  1  0.03423989  0.80164068  0.49099710  1
  H  H46  1  0.29198620  0.23217734  0.25621266  1
  H  H47  1  0.31498919  0.22690092  0.44300943  1
  H  H48  1  0.09543860  0.64975925  0.20490152  1
  H  H49  1  0.53423989  0.69835932  0.50900290  1
  H  H50  1  0.81498919  0.22690092  0.05699057  1
  H  H51  1  0.21726524  0.93583512  0.49863510  1
  H  H52  1  0.42049733  0.77768777  0.56447387  1
  H  H53  1  0.70801380  0.76782266  0.74378734  1
  H  H54  1  0.20801380  0.73217734  0.25621266  1
  H  H55  1  0.96576011  0.19835932  0.50900290  1
  H  H56  1  0.92049733  0.77768777  0.93552613  1
  H  H57  1  0.46576011  0.19835932  0.99099710  1
  H  H58  1  0.07950267  0.22231223  0.06447387  1
  H  H59  1  0.57950267  0.22231223  0.43552613  1
  H  H60  1  0.96576011  0.30164068  0.00900290  1
  H  H61  1  0.28273476  0.06416488  0.99863510  1
  H  H62  1  0.43682839  0.46249306  0.57386821  1
  H  H63  1  0.18501081  0.72690092  0.44300943  1
  H  H64  1  0.90456140  0.14975925  0.29509848  1
  H  H65  1  0.18501081  0.77309908  0.94300943  1
  H  H66  1  0.81498919  0.27309908  0.55699057  1
  H  H67  1  0.93682839  0.03750694  0.42613179  1
  H  H68  1  0.90456140  0.35024075  0.79509848  1
  H  H69  1  0.68563261  0.42458022  0.91178366  1
  H  H70  1  0.70801380  0.73217734  0.24378734  1
  H  H71  1  0.34021376  0.68573750  0.18185645  1
  H  H72  1  0.92049733  0.72231223  0.43552613  1
  H  H73  1  0.71726524  0.56416488  0.50136490  1
  H  H74  1  0.53423989  0.80164068  0.00900290  1
  H  H75  1  0.79198620  0.23217734  0.24378734  1
  H  H76  1  0.68501081  0.72690092  0.05699057  1
  H  H77  1  0.29198620  0.26782266  0.75621266  1
  H  H78  1  0.15978624  0.31426250  0.68185645  1
  H  H79  1  0.18563261  0.07541978  0.08821634  1
  Au  Au80  1  0.72334619  0.46766513  0.25781237  1
  Au  Au81  1  0.77665381  0.53233487  0.75781237  1
  Au  Au82  1  0.22334619  0.03233487  0.74218763  1
  Au  Au83  1  0.27665381  0.96766513  0.24218763  1
  Au  Au84  1  0.77665381  0.96766513  0.25781237  1
  Au  Au85  1  0.27665381  0.53233487  0.74218763  1
  Au  Au86  1  0.72334619  0.03233487  0.75781237  1
  Au  Au87  1  0.22334619  0.46766513  0.24218763  1
  C  C88  1  0.30488265  0.29532645  0.70258835  1
  C  C89  1  0.19511735  0.70467355  0.20258835  1
  C  C90  1  0.54819119  0.76439060  0.05822534  1
  C  C91  1  0.21536611  0.96123323  0.55343489  1
  C  C92  1  0.45180881  0.23560940  0.94177466  1
  C  C93  1  0.78463389  0.46123323  0.94656511  1
  C  C94  1  0.69511735  0.79532645  0.79741165  1
  C  C95  1  0.80488265  0.29532645  0.79741165  1
  C  C96  1  0.28463389  0.03876677  0.05343489  1
  C  C97  1  0.04819119  0.76439060  0.44177466  1
  C  C98  1  0.30488265  0.20467355  0.20258835  1
  C  C99  1  0.28463389  0.46123323  0.55343489  1
  C  C100  1  0.95180881  0.26439060  0.05822534  1
  C  C101  1  0.19511735  0.79532645  0.70258835  1
  C  C102  1  0.04819119  0.73560940  0.94177466  1
  C  C103  1  0.80488265  0.20467355  0.29741165  1
  C  C104  1  0.71536611  0.53876677  0.44656511  1
  C  C105  1  0.54819119  0.73560940  0.55822534  1
  C  C106  1  0.71536611  0.96123323  0.94656511  1
  C  C107  1  0.45180881  0.26439060  0.44177466  1
  C  C108  1  0.78463389  0.03876677  0.44656511  1
  C  C109  1  0.95180881  0.23560940  0.55822534  1
  C  C110  1  0.69511735  0.70467355  0.29741165  1
  C  C111  1  0.21536611  0.53876677  0.05343489  1
  S  S112  1  0.92353782  0.27897827  0.35780115  1
  S  S113  1  0.92353782  0.22102173  0.85780115  1
  S  S114  1  0.43410527  0.16613601  0.86466458  1
  S  S115  1  0.68812712  0.93179113  0.45392225  1
  S  S116  1  0.43410527  0.33386399  0.36466458  1
  S  S117  1  0.56589473  0.83386399  0.13533542  1
  S  S118  1  0.68812712  0.56820887  0.95392225  1
  S  S119  1  0.42353782  0.27897827  0.14219885  1
  S  S120  1  0.31187288  0.06820887  0.54607775  1
  S  S121  1  0.93410527  0.33386399  0.13533542  1
  S  S122  1  0.42353782  0.22102173  0.64219885  1
  S  S123  1  0.57646218  0.77897827  0.35780115  1
  S  S124  1  0.57646218  0.72102173  0.85780115  1
  S  S125  1  0.07646218  0.77897827  0.14219885  1
  S  S126  1  0.93410527  0.16613601  0.63533542  1
  S  S127  1  0.81187288  0.43179113  0.45392225  1
  S  S128  1  0.06589473  0.66613601  0.86466458  1
  S  S129  1  0.81187288  0.06820887  0.95392225  1
  S  S130  1  0.31187288  0.43179113  0.04607775  1
  S  S131  1  0.07646218  0.72102173  0.64219885  1
  S  S132  1  0.18812712  0.56820887  0.54607775  1
  S  S133  1  0.18812712  0.93179113  0.04607775  1
  S  S134  1  0.06589473  0.83386399  0.36466458  1
  S  S135  1  0.56589473  0.66613601  0.63533542  1
  Cl  Cl136  1  0.28322021  0.44163067  0.84120070  1
  Cl  Cl137  1  0.28322021  0.05836933  0.34120070  1
  Cl  Cl138  1  0.21677979  0.94163067  0.84120070  1
  Cl  Cl139  1  0.78322021  0.05836933  0.15879930  1
  Cl  Cl140  1  0.71677979  0.55836933  0.15879930  1
  Cl  Cl141  1  0.21677979  0.55836933  0.34120070  1
  Cl  Cl142  1  0.71677979  0.94163067  0.65879930  1
  Cl  Cl143  1  0.78322021  0.44163067  0.65879930  1
