# generated using pymatgen
data_Fe(PO3)4
_symmetry_space_group_name_H-M   'P 1'
_cell_length_a   5.26552728
_cell_length_b   13.60463051
_cell_length_c   7.48159072
_cell_angle_alpha   90.00000000
_cell_angle_beta   98.65770356
_cell_angle_gamma   90.00000000
_symmetry_Int_Tables_number   1
_chemical_formula_structural   Fe(PO3)4
_chemical_formula_sum   'Fe2 P8 O24'
_cell_volume   529.84091299
_cell_formula_units_Z   2
loop_
 _symmetry_equiv_pos_site_id
 _symmetry_equiv_pos_as_xyz
  1  'x, y, z'
loop_
 _atom_site_type_symbol
 _atom_site_label
 _atom_site_symmetry_multiplicity
 _atom_site_fract_x
 _atom_site_fract_y
 _atom_site_fract_z
 _atom_site_occupancy
  Fe  Fe0  1  0.50707797  0.76580653  0.51332493  1
  Fe  Fe1  1  0.49292203  0.26580653  0.48667507  1
  P  P2  1  0.86165084  0.82520570  0.89810133  1
  P  P3  1  0.98030389  0.40285244  0.43795513  1
  P  P4  1  0.01294834  0.12735733  0.55247941  1
  P  P5  1  0.01969611  0.90285244  0.56204487  1
  P  P6  1  0.13834916  0.32520570  0.10189867  1
  P  P7  1  0.98705166  0.62735733  0.44752059  1
  P  P8  1  0.79178414  0.18100532  0.87426456  1
  P  P9  1  0.20821586  0.68100532  0.12573544  1
  O  O10  1  0.71463195  0.38769334  0.48430446  1
  O  O11  1  0.97854106  0.64776118  0.23302788  1
  O  O12  1  0.02145894  0.14776118  0.76697212  1
  O  O13  1  0.05754040  0.73305916  0.95290794  1
  O  O14  1  0.03060103  0.88958495  0.77660087  1
  O  O15  1  0.06363246  0.51466019  0.46863214  1
  O  O16  1  0.17263360  0.38156863  0.93684227  1
  O  O17  1  0.19627534  0.34383886  0.53951892  1
  O  O18  1  0.20630664  0.68312098  0.55402878  1
  O  O19  1  0.27869589  0.14238377  0.50807979  1
  O  O20  1  0.28536805  0.88769334  0.51569554  1
  O  O21  1  0.36677641  0.28131776  0.22221887  1
  O  O22  1  0.38503840  0.75294755  0.23867205  1
  O  O23  1  0.35316256  0.59341631  0.06886186  1
  O  O24  1  0.64683744  0.09341631  0.93113814  1
  O  O25  1  0.96939897  0.38958495  0.22339913  1
  O  O26  1  0.63322359  0.78131776  0.77778113  1
  O  O27  1  0.61496160  0.25294755  0.76132795  1
  O  O28  1  0.72130411  0.64238377  0.49192021  1
  O  O29  1  0.79369336  0.18312098  0.44597122  1
  O  O30  1  0.80372466  0.84383886  0.46048108  1
  O  O31  1  0.82736640  0.88156863  0.06315773  1
  O  O32  1  0.93636754  0.01466019  0.53136786  1
  O  O33  1  0.94245960  0.23305916  0.04709206  1
