# generated using pymatgen
data_NaHgCl3
_symmetry_space_group_name_H-M   'P 1'
_cell_length_a   4.19756349
_cell_length_b   7.49083198
_cell_length_c   18.24062454
_cell_angle_alpha   90.00000000
_cell_angle_beta   90.00000000
_cell_angle_gamma   90.00000000
_symmetry_Int_Tables_number   1
_chemical_formula_structural   NaHgCl3
_chemical_formula_sum   'Na4 Hg4 Cl12'
_cell_volume   573.54438676
_cell_formula_units_Z   4
loop_
 _symmetry_equiv_pos_site_id
 _symmetry_equiv_pos_as_xyz
  1  'x, y, z'
loop_
 _atom_site_type_symbol
 _atom_site_label
 _atom_site_symmetry_multiplicity
 _atom_site_fract_x
 _atom_site_fract_y
 _atom_site_fract_z
 _atom_site_occupancy
  Na  Na0  1  0.25000000  0.59582505  0.12528872  1
  Na  Na1  1  0.75000000  0.90417495  0.62528872  1
  Na  Na2  1  0.75000000  0.40417495  0.87471128  1
  Na  Na3  1  0.25000000  0.09582505  0.37471128  1
  Hg  Hg4  1  0.25000000  0.61224778  0.40481306  1
  Hg  Hg5  1  0.75000000  0.88775222  0.90481306  1
  Hg  Hg6  1  0.75000000  0.38775222  0.59518694  1
  Hg  Hg7  1  0.25000000  0.11224778  0.09518694  1
  Cl  Cl8  1  0.75000000  0.08148138  0.80066535  1
  Cl  Cl9  1  0.75000000  0.58148138  0.69933465  1
  Cl  Cl10  1  0.25000000  0.64856869  0.86768150  1
  Cl  Cl11  1  0.25000000  0.41851862  0.30066535  1
  Cl  Cl12  1  0.25000000  0.21147485  0.96849518  1
  Cl  Cl13  1  0.25000000  0.71147485  0.53150482  1
  Cl  Cl14  1  0.75000000  0.85143131  0.36768150  1
  Cl  Cl15  1  0.25000000  0.14856869  0.63231850  1
  Cl  Cl16  1  0.75000000  0.28852515  0.46849518  1
  Cl  Cl17  1  0.75000000  0.35143131  0.13231850  1
  Cl  Cl18  1  0.75000000  0.78852515  0.03150482  1
  Cl  Cl19  1  0.25000000  0.91851862  0.19933465  1
