# generated using pymatgen
data_Nb2O5
_symmetry_space_group_name_H-M   'P 1'
_cell_length_a   4.98168906
_cell_length_b   5.68564434
_cell_length_c   6.95002565
_cell_angle_alpha   102.94399395
_cell_angle_beta   111.00157261
_cell_angle_gamma   89.99999995
_symmetry_Int_Tables_number   1
_chemical_formula_structural   Nb2O5
_chemical_formula_sum   'Nb4 O10'
_cell_volume   178.40804563
_cell_formula_units_Z   2
loop_
 _symmetry_equiv_pos_site_id
 _symmetry_equiv_pos_as_xyz
  1  'x, y, z'
loop_
 _atom_site_type_symbol
 _atom_site_label
 _atom_site_symmetry_multiplicity
 _atom_site_fract_x
 _atom_site_fract_y
 _atom_site_fract_z
 _atom_site_occupancy
  O  O0  1  0.72600805  0.37198434  0.58931555  1
  O  O1  1  0.13669251  0.12801566  0.41068445  1
  O  O2  1  0.27399195  0.62801566  0.41068445  1
  O  O3  1  0.86330749  0.87198434  0.58931555  1
  O  O4  1  0.88846776  0.75000000  0.00000000  1
  O  O5  1  0.11153224  0.25000000  0.00000000  1
  O  O6  1  0.33700742  0.52018627  0.77697273  1
  O  O7  1  0.56003469  0.97981373  0.22302727  1
  O  O8  1  0.66299258  0.47981373  0.22302727  1
  O  O9  1  0.43996531  0.02018627  0.77697273  1
  Nb  Nb10  1  0.38363511  0.25302192  0.28253030  1
  Nb  Nb11  1  0.10110481  0.24697808  0.71746970  1
  Nb  Nb12  1  0.61636489  0.74697808  0.71746970  1
  Nb  Nb13  1  0.89889519  0.75302192  0.28253030  1
