# generated using pymatgen
data_ZnSiO3
_symmetry_space_group_name_H-M   'P 1'
_cell_length_a   5.33636132
_cell_length_b   9.30085266
_cell_length_c   18.49296809
_cell_angle_alpha   90.00000000
_cell_angle_beta   90.00000000
_cell_angle_gamma   90.00000000
_symmetry_Int_Tables_number   1
_chemical_formula_structural   ZnSiO3
_chemical_formula_sum   'Zn16 Si16 O48'
_cell_volume   917.85612924
_cell_formula_units_Z   16
loop_
 _symmetry_equiv_pos_site_id
 _symmetry_equiv_pos_as_xyz
  1  'x, y, z'
loop_
 _atom_site_type_symbol
 _atom_site_label
 _atom_site_symmetry_multiplicity
 _atom_site_fract_x
 _atom_site_fract_y
 _atom_site_fract_z
 _atom_site_occupancy
  Zn  Zn0  1  0.59660580  0.14427695  0.62533632  1
  Zn  Zn1  1  0.59973434  0.49020397  0.62414756  1
  Zn  Zn2  1  0.90339420  0.64427695  0.37466368  1
  Zn  Zn3  1  0.09973434  0.00979603  0.62414756  1
  Zn  Zn4  1  0.90339420  0.14427695  0.12533632  1
  Zn  Zn5  1  0.09660580  0.85572305  0.87466368  1
  Zn  Zn6  1  0.40026566  0.00979603  0.12414756  1
  Zn  Zn7  1  0.59973434  0.99020397  0.87585244  1
  Zn  Zn8  1  0.40026566  0.50979603  0.37585244  1
  Zn  Zn9  1  0.90026566  0.49020397  0.12414756  1
  Zn  Zn10  1  0.40339420  0.35572305  0.12533632  1
  Zn  Zn11  1  0.59660580  0.64427695  0.87466368  1
  Zn  Zn12  1  0.09660580  0.35572305  0.62533632  1
  Zn  Zn13  1  0.90026566  0.99020397  0.37585244  1
  Zn  Zn14  1  0.09973434  0.50979603  0.87585244  1
  Zn  Zn15  1  0.40339420  0.85572305  0.37466368  1
  Si  Si16  1  0.28195626  0.16635869  0.47303095  1
  Si  Si17  1  0.21804374  0.66635869  0.52696905  1
  Si  Si18  1  0.91304782  0.66365927  0.72553900  1
  Si  Si19  1  0.28195626  0.66635869  0.02696905  1
  Si  Si20  1  0.08695218  0.33634073  0.27446100  1
  Si  Si21  1  0.91304782  0.16365927  0.77446100  1
  Si  Si22  1  0.41304782  0.83634073  0.72553900  1
  Si  Si23  1  0.41304782  0.33634073  0.77446100  1
  Si  Si24  1  0.58695218  0.66365927  0.22553900  1
  Si  Si25  1  0.21804374  0.16635869  0.97303095  1
  Si  Si26  1  0.58695218  0.16365927  0.27446100  1
  Si  Si27  1  0.78195626  0.33364131  0.47303095  1
  Si  Si28  1  0.08695218  0.83634073  0.22553900  1
  Si  Si29  1  0.71804374  0.33364131  0.97303095  1
  Si  Si30  1  0.78195626  0.83364131  0.02696905  1
  Si  Si31  1  0.71804374  0.83364131  0.52696905  1
  O  O32  1  0.58480345  0.66525092  0.31463971  1
  O  O33  1  0.71768406  0.83894132  0.43774790  1
  O  O34  1  0.91519655  0.66525092  0.81463971  1
  O  O35  1  0.08480345  0.33474908  0.18536029  1
  O  O36  1  0.66000829  0.74843061  0.69674343  1
  O  O37  1  0.08480345  0.83474908  0.31463971  1
  O  O38  1  0.20404046  0.01748296  0.43252041  1
  O  O39  1  0.78231594  0.33894132  0.56225210  1
  O  O40  1  0.42994949  0.28856149  0.94870946  1
  O  O41  1  0.79595954  0.98251704  0.56747959  1
  O  O42  1  0.89208007  0.00522820  0.81145257  1
  O  O43  1  0.21768406  0.16105868  0.06225210  1
  O  O44  1  0.78231594  0.83894132  0.93774790  1
  O  O45  1  0.79595954  0.48251704  0.93252041  1
  O  O46  1  0.58480345  0.16525092  0.18536029  1
  O  O47  1  0.39208007  0.99477180  0.68854743  1
  O  O48  1  0.21768406  0.66105868  0.43774790  1
  O  O49  1  0.29595954  0.01748296  0.93252041  1
  O  O50  1  0.92994949  0.71143851  0.55129054  1
  O  O51  1  0.57005051  0.71143851  0.05129054  1
  O  O52  1  0.92994949  0.21143851  0.94870946  1
  O  O53  1  0.10791993  0.99477180  0.18854743  1
  O  O54  1  0.42994949  0.78856149  0.55129054  1
  O  O55  1  0.16000829  0.75156939  0.69674343  1
  O  O56  1  0.57005051  0.21143851  0.44870946  1
  O  O57  1  0.33999171  0.75156939  0.19674343  1
  O  O58  1  0.60791993  0.00522820  0.31145257  1
  O  O59  1  0.41519655  0.33474908  0.68536029  1
  O  O60  1  0.39208007  0.49477180  0.81145257  1
  O  O61  1  0.60791993  0.50522820  0.18854743  1
  O  O62  1  0.28231594  0.16105868  0.56225210  1
  O  O63  1  0.70404046  0.48251704  0.43252041  1
  O  O64  1  0.10791993  0.49477180  0.31145257  1
  O  O65  1  0.16000829  0.25156939  0.80325657  1
  O  O66  1  0.07005051  0.28856149  0.44870946  1
  O  O67  1  0.28231594  0.66105868  0.93774790  1
  O  O68  1  0.89208007  0.50522820  0.68854743  1
  O  O69  1  0.91519655  0.16525092  0.68536029  1
  O  O70  1  0.07005051  0.78856149  0.05129054  1
  O  O71  1  0.66000829  0.24843061  0.80325657  1
  O  O72  1  0.83999171  0.24843061  0.30325657  1
  O  O73  1  0.70404046  0.98251704  0.06747959  1
  O  O74  1  0.41519655  0.83474908  0.81463971  1
  O  O75  1  0.20404046  0.51748296  0.06747959  1
  O  O76  1  0.29595954  0.51748296  0.56747959  1
  O  O77  1  0.33999171  0.25156939  0.30325657  1
  O  O78  1  0.83999171  0.74843061  0.19674343  1
  O  O79  1  0.71768406  0.33894132  0.06225210  1
