# generated using pymatgen
data_TlH12C4S2I3O2
_symmetry_space_group_name_H-M   'P 1'
_cell_length_a   9.35873304
_cell_length_b   9.35873304
_cell_length_c   13.12740107
_cell_angle_alpha   95.20693477
_cell_angle_beta   95.20693477
_cell_angle_gamma   119.53420254
_symmetry_Int_Tables_number   1
_chemical_formula_structural   TlH12C4S2I3O2
_chemical_formula_sum   'Tl2 H24 C8 S4 I6 O4'
_cell_volume   983.99183856
_cell_formula_units_Z   2
loop_
 _symmetry_equiv_pos_site_id
 _symmetry_equiv_pos_as_xyz
  1  'x, y, z'
loop_
 _atom_site_type_symbol
 _atom_site_label
 _atom_site_symmetry_multiplicity
 _atom_site_fract_x
 _atom_site_fract_y
 _atom_site_fract_z
 _atom_site_occupancy
  Tl  Tl0  1  0.78719848  0.21280152  0.25000000  1
  Tl  Tl1  1  0.21280152  0.78719848  0.75000000  1
  H  H2  1  0.80188333  0.09202050  0.88739422  1
  H  H3  1  0.90797950  0.19811667  0.61260578  1
  H  H4  1  0.19811667  0.90797950  0.11260578  1
  H  H5  1  0.09202050  0.80188333  0.38739422  1
  H  H6  1  0.93264660  0.30913124  0.87640411  1
  H  H7  1  0.69086876  0.06735340  0.62359589  1
  H  H8  1  0.06735340  0.69086876  0.12359589  1
  H  H9  1  0.30913124  0.93264660  0.37640411  1
  H  H10  1  0.01068133  0.16702876  0.86092351  1
  H  H11  1  0.83297124  0.98931867  0.63907649  1
  H  H12  1  0.98931867  0.83297124  0.13907649  1
  H  H13  1  0.16702876  0.01068133  0.36092351  1
  H  H14  1  0.27309140  0.46144586  0.11579875  1
  H  H15  1  0.53855414  0.72690860  0.38420125  1
  H  H16  1  0.72690860  0.53855414  0.88420125  1
  H  H17  1  0.46144586  0.27309140  0.61579875  1
  H  H18  1  0.27358646  0.37293949  0.98824182  1
  H  H19  1  0.62706051  0.72641354  0.51175818  1
  H  H20  1  0.72641354  0.62706051  0.01175818  1
  H  H21  1  0.37293949  0.27358646  0.48824182  1
  H  H22  1  0.19530800  0.51553112  0.00281583  1
  H  H23  1  0.48446888  0.80469200  0.49718417  1
  H  H24  1  0.80469200  0.48446888  0.99718417  1
  H  H25  1  0.51553112  0.19530800  0.50281583  1
  C  C26  1  0.92916805  0.19876962  0.90070918  1
  C  C27  1  0.80123038  0.07083195  0.59929082  1
  C  C28  1  0.07083195  0.80123038  0.09929082  1
  C  C29  1  0.19876962  0.92916805  0.40070918  1
  C  C30  1  0.20826608  0.41799251  0.03559537  1
  C  C31  1  0.58200749  0.79173392  0.46440463  1
  C  C32  1  0.79173392  0.58200749  0.96440463  1
  C  C33  1  0.41799251  0.20826608  0.53559537  1
  S  S34  1  0.00470172  0.24419013  0.03800169  1
  S  S35  1  0.75580987  0.99529828  0.46199831  1
  S  S36  1  0.99529828  0.75580987  0.96199831  1
  S  S37  1  0.24419013  0.00470172  0.53800169  1
  I  I38  1  0.11373992  0.37511933  0.35655494  1
  I  I39  1  0.62488067  0.88626008  0.14344506  1
  I  I40  1  0.88626008  0.62488067  0.64344506  1
  I  I41  1  0.37511933  0.11373992  0.85655494  1
  I  I42  1  0.61544816  0.38455184  0.25000000  1
  I  I43  1  0.38455184  0.61544816  0.75000000  1
  O  O44  1  0.90868010  0.31836187  0.08747379  1
  O  O45  1  0.68163813  0.09131990  0.41252621  1
  O  O46  1  0.09131990  0.68163813  0.91252621  1
  O  O47  1  0.31836187  0.90868010  0.58747379  1
