# generated using pymatgen
data_MnH8C2NCl3
_symmetry_space_group_name_H-M   'P 1'
_cell_length_a   6.49826908
_cell_length_b   9.02384144
_cell_length_c   13.39437665
_cell_angle_alpha   90.00000000
_cell_angle_beta   90.00000000
_cell_angle_gamma   100.17425066
_symmetry_Int_Tables_number   1
_chemical_formula_structural   MnH8C2NCl3
_chemical_formula_sum   'Mn4 H32 C8 N4 Cl12'
_cell_volume   773.08660499
_cell_formula_units_Z   4
loop_
 _symmetry_equiv_pos_site_id
 _symmetry_equiv_pos_as_xyz
  1  'x, y, z'
loop_
 _atom_site_type_symbol
 _atom_site_label
 _atom_site_symmetry_multiplicity
 _atom_site_fract_x
 _atom_site_fract_y
 _atom_site_fract_z
 _atom_site_occupancy
  Mn  Mn0  1  0.98133279  0.79680191  0.74555389  1
  Mn  Mn1  1  0.48133279  0.79680191  0.75444611  1
  Mn  Mn2  1  0.51866721  0.20319809  0.24555389  1
  Mn  Mn3  1  0.01866721  0.20319809  0.25444611  1
  H  H4  1  0.56922885  0.12941851  0.58065418  1
  H  H5  1  0.42865169  0.11204398  0.95818867  1
  H  H6  1  0.00523896  0.68779246  0.44179729  1
  H  H7  1  0.94375993  0.35927473  0.91005537  1
  H  H8  1  0.93077115  0.87058149  0.08065418  1
  H  H9  1  0.92865169  0.11204398  0.54181133  1
  H  H10  1  0.40301404  0.19188834  0.83751840  1
  H  H11  1  0.09698596  0.80811166  0.33751840  1
  H  H12  1  0.84270472  0.76571498  0.98132622  1
  H  H13  1  0.05624007  0.64072527  0.08994463  1
  H  H14  1  0.79361691  0.53902696  0.07856656  1
  H  H15  1  0.86930998  0.64912596  0.18756499  1
  H  H16  1  0.13069002  0.35087404  0.81243501  1
  H  H17  1  0.70638309  0.46097304  0.57856656  1
  H  H18  1  0.43077115  0.87058149  0.41934582  1
  H  H19  1  0.59698596  0.80811166  0.16248160  1
  H  H20  1  0.49476104  0.31220754  0.94179729  1
  H  H21  1  0.06922885  0.12941851  0.91934582  1
  H  H22  1  0.15729528  0.23428502  0.01867378  1
  H  H23  1  0.50523896  0.68779246  0.05820271  1
  H  H24  1  0.20638309  0.46097304  0.92143344  1
  H  H25  1  0.55624007  0.64072527  0.41005537  1
  H  H26  1  0.90301404  0.19188834  0.66248160  1
  H  H27  1  0.65729528  0.23428502  0.48132622  1
  H  H28  1  0.07134831  0.88795602  0.45818867  1
  H  H29  1  0.29361691  0.53902696  0.42143344  1
  H  H30  1  0.36930998  0.64912596  0.31243501  1
  H  H31  1  0.44375993  0.35927473  0.58994463  1
  H  H32  1  0.99476104  0.31220754  0.55820271  1
  H  H33  1  0.57134831  0.88795602  0.04181133  1
  H  H34  1  0.63069002  0.35087404  0.68756499  1
  H  H35  1  0.34270472  0.76571498  0.51867378  1
  C  C36  1  0.60883870  0.79075366  0.08195795  1
  C  C37  1  0.89116130  0.20924634  0.58195795  1
  C  C38  1  0.39116130  0.20924634  0.91804205  1
  C  C39  1  0.89181452  0.64150943  0.10687719  1
  C  C40  1  0.60818548  0.35849057  0.60687719  1
  C  C41  1  0.39181452  0.64150943  0.39312281  1
  C  C42  1  0.10818548  0.35849057  0.89312281  1
  C  C43  1  0.10883870  0.79075366  0.41804205  1
  N  N44  1  0.82782060  0.77481156  0.05811714  1
  N  N45  1  0.67217940  0.22518844  0.55811714  1
  N  N46  1  0.17217940  0.22518844  0.94188286  1
  N  N47  1  0.32782060  0.77481156  0.44188286  1
  Cl  Cl48  1  0.31048111  0.38760663  0.16712073  1
  Cl  Cl49  1  0.77572203  0.20048157  0.10698221  1
  Cl  Cl50  1  0.18951889  0.61239337  0.66712073  1
  Cl  Cl51  1  0.27572203  0.20048157  0.39301779  1
  Cl  Cl52  1  0.79131264  0.99429896  0.82880258  1
  Cl  Cl53  1  0.20868736  0.00570104  0.17119742  1
  Cl  Cl54  1  0.72427797  0.79951843  0.60698221  1
  Cl  Cl55  1  0.70868736  0.00570104  0.32880258  1
  Cl  Cl56  1  0.29131264  0.99429896  0.67119742  1
  Cl  Cl57  1  0.81048111  0.38760663  0.33287927  1
  Cl  Cl58  1  0.22427797  0.79951843  0.89301779  1
  Cl  Cl59  1  0.68951889  0.61239337  0.83287927  1
