# generated using pymatgen
data_Zr3(Al2C3)2
_symmetry_space_group_name_H-M   'P 1'
_cell_length_a   16.54893880
_cell_length_b   16.54893879
_cell_length_c   16.54893943
_cell_angle_alpha   11.64260826
_cell_angle_beta   11.64260832
_cell_angle_gamma   11.64260916
_symmetry_Int_Tables_number   1
_chemical_formula_structural   Zr3(Al2C3)2
_chemical_formula_sum   'Zr3 Al4 C6'
_cell_volume   160.39929441
_cell_formula_units_Z   1
loop_
 _symmetry_equiv_pos_site_id
 _symmetry_equiv_pos_as_xyz
  1  'x, y, z'
loop_
 _atom_site_type_symbol
 _atom_site_label
 _atom_site_symmetry_multiplicity
 _atom_site_fract_x
 _atom_site_fract_y
 _atom_site_fract_z
 _atom_site_occupancy
  Zr  Zr0  1  0.30399627  0.30399627  0.30399627  1
  Zr  Zr1  1  0.91572622  0.91572622  0.91572622  1
  Zr  Zr2  1  0.69221400  0.69221400  0.69221400  1
  Al  Al3  1  0.45155492  0.45155492  0.45155492  1
  Al  Al4  1  0.53548590  0.53548590  0.53548590  1
  Al  Al5  1  0.07227738  0.07227738  0.07227738  1
  Al  Al6  1  0.15603177  0.15603177  0.15603177  1
  C  C7  1  0.49586163  0.49586163  0.49586163  1
  C  C8  1  0.38771446  0.38771446  0.38771446  1
  C  C9  1  0.11187013  0.11187013  0.11187013  1
  C  C10  1  0.99851044  0.99851044  0.99851044  1
  C  C11  1  0.22018800  0.22018800  0.22018800  1
  C  C12  1  0.60946888  0.60946888  0.60946888  1
