# generated using pymatgen
data_Hg2H10C3NCl5
_symmetry_space_group_name_H-M   'P 1'
_cell_length_a   6.38613470
_cell_length_b   10.25317821
_cell_length_c   11.11142699
_cell_angle_alpha   94.24456482
_cell_angle_beta   104.62620747
_cell_angle_gamma   98.70362209
_symmetry_Int_Tables_number   1
_chemical_formula_structural   Hg2H10C3NCl5
_chemical_formula_sum   'Hg4 H20 C6 N2 Cl10'
_cell_volume   691.06506972
_cell_formula_units_Z   2
loop_
 _symmetry_equiv_pos_site_id
 _symmetry_equiv_pos_as_xyz
  1  'x, y, z'
loop_
 _atom_site_type_symbol
 _atom_site_label
 _atom_site_symmetry_multiplicity
 _atom_site_fract_x
 _atom_site_fract_y
 _atom_site_fract_z
 _atom_site_occupancy
  Hg  Hg0  1  0.08018230  0.89130183  0.16446963  1
  Hg  Hg1  1  0.31259709  0.12808703  0.56911580  1
  Hg  Hg2  1  0.68740291  0.87191297  0.43088420  1
  Hg  Hg3  1  0.91981770  0.10869817  0.83553037  1
  H  H4  1  0.73797341  0.40427971  0.41482073  1
  H  H5  1  0.44811083  0.27166067  0.03169819  1
  H  H6  1  0.27200674  0.64217150  0.92252713  1
  H  H7  1  0.72799326  0.35782850  0.07747287  1
  H  H8  1  0.15748372  0.72026467  0.66353602  1
  H  H9  1  0.89504347  0.44958393  0.30592048  1
  H  H10  1  0.33885982  0.80557325  0.87925613  1
  H  H11  1  0.55994339  0.49247585  0.70679875  1
  H  H12  1  0.55188917  0.72833933  0.96830181  1
  H  H13  1  0.10495653  0.55041607  0.69407952  1
  H  H14  1  0.68490031  0.55534905  0.86894831  1
  H  H15  1  0.41487905  0.45428795  0.82219321  1
  H  H16  1  0.31509969  0.44465095  0.13105169  1
  H  H17  1  0.66114018  0.19442675  0.12074387  1
  H  H18  1  0.45594273  0.27936448  0.24880238  1
  H  H19  1  0.26202659  0.59572029  0.58517927  1
  H  H20  1  0.58512095  0.54571205  0.17780679  1
  H  H21  1  0.84251628  0.27973533  0.33646398  1
  H  H22  1  0.44005661  0.50752415  0.29320125  1
  H  H23  1  0.54405727  0.72063552  0.75119762  1
  C  C24  1  0.60409422  0.28872731  0.10462352  1
  C  C25  1  0.39590578  0.71127269  0.89537648  1
  C  C26  1  0.22312613  0.62776543  0.67189987  1
  C  C27  1  0.77687387  0.37223457  0.32810013  1
  C  C28  1  0.46973049  0.47067164  0.20506718  1
  C  C29  1  0.53026951  0.52932836  0.79493282  1
  N  N30  1  0.43052146  0.65191869  0.77628491  1
  N  N31  1  0.56947854  0.34808131  0.22371509  1
  Cl  Cl32  1  0.32751492  0.32954355  0.47120300  1
  Cl  Cl33  1  0.00556149  0.65717228  0.12700216  1
  Cl  Cl34  1  0.10982523  0.12250024  0.15252188  1
  Cl  Cl35  1  0.59249018  0.91357645  0.20878132  1
  Cl  Cl36  1  0.67248508  0.67045645  0.52879700  1
  Cl  Cl37  1  0.89017477  0.87749976  0.84747812  1
  Cl  Cl38  1  0.40750982  0.08642355  0.79121868  1
  Cl  Cl39  1  0.99443851  0.34282772  0.87299784  1
  Cl  Cl40  1  0.80595787  0.10271049  0.55994638  1
  Cl  Cl41  1  0.19404213  0.89728951  0.44005362  1
