# generated using pymatgen
data_Ce3(AlI)2
_symmetry_space_group_name_H-M   'P 1'
_cell_length_a   4.21671621
_cell_length_b   9.97331104
_cell_length_c   11.09995957
_cell_angle_alpha   70.18293639
_cell_angle_beta   78.70161711
_cell_angle_gamma   77.90046677
_symmetry_Int_Tables_number   1
_chemical_formula_structural   Ce3(AlI)2
_chemical_formula_sum   'Ce6 Al4 I4'
_cell_volume   425.43054342
_cell_formula_units_Z   2
loop_
 _symmetry_equiv_pos_site_id
 _symmetry_equiv_pos_as_xyz
  1  'x, y, z'
loop_
 _atom_site_type_symbol
 _atom_site_label
 _atom_site_symmetry_multiplicity
 _atom_site_fract_x
 _atom_site_fract_y
 _atom_site_fract_z
 _atom_site_occupancy
  Ce  Ce0  1  0.17053039  0.05253421  0.60344062  1
  Ce  Ce1  1  0.46269376  0.37706613  0.69204904  1
  Ce  Ce2  1  0.24244186  0.31372256  0.19596881  1
  Ce  Ce3  1  0.75089640  0.69051142  0.80430714  1
  Ce  Ce4  1  0.53163759  0.62234833  0.30992728  1
  Ce  Ce5  1  0.82694439  0.94694500  0.40058632  1
  Al  Al6  1  0.92579181  0.61385123  0.53362943  1
  Al  Al7  1  0.07017997  0.38689868  0.46859232  1
  Al  Al8  1  0.65726198  0.26398537  0.41675025  1
  Al  Al9  1  0.33650209  0.73593057  0.58508264  1
  I  I10  1  0.85325655  0.34178197  0.94101694  1
  I  I11  1  0.57607685  0.01687694  0.83018802  1
  I  I12  1  0.13693991  0.66183571  0.05981452  1
  I  I13  1  0.42185745  0.98406187  0.17320866  1
