# generated using pymatgen
data_Fe5C2
_symmetry_space_group_name_H-M   'P 1'
_cell_length_a   4.52289405
_cell_length_b   5.00411725
_cell_length_c   11.56937438
_cell_angle_alpha   97.56252582
_cell_angle_beta   90.25233787
_cell_angle_gamma   90.04783811
_symmetry_Int_Tables_number   1
_chemical_formula_structural   Fe5C2
_chemical_formula_sum   'Fe20 C8'
_cell_volume   259.57031221
_cell_formula_units_Z   4
loop_
 _symmetry_equiv_pos_site_id
 _symmetry_equiv_pos_as_xyz
  1  'x, y, z'
loop_
 _atom_site_type_symbol
 _atom_site_label
 _atom_site_symmetry_multiplicity
 _atom_site_fract_x
 _atom_site_fract_y
 _atom_site_fract_z
 _atom_site_occupancy
  Fe  Fe0  1  0.83792843  0.58158122  0.15225652  1
  Fe  Fe1  1  0.16207157  0.41841878  0.84774348  1
  Fe  Fe2  1  0.16788467  0.19022826  0.03543182  1
  Fe  Fe3  1  0.83266100  0.69014206  0.53598506  1
  Fe  Fe4  1  0.67165543  0.41402805  0.34708928  1
  Fe  Fe5  1  0.16733900  0.30985794  0.46401494  1
  Fe  Fe6  1  0.16254315  0.08473989  0.65166819  1
  Fe  Fe7  1  0.81230157  0.75333715  0.75040807  1
  Fe  Fe8  1  0.83745685  0.91526011  0.34833181  1
  Fe  Fe9  1  0.67120923  0.08041709  0.15153345  1
  Fe  Fe10  1  0.32879077  0.91958291  0.84846655  1
  Fe  Fe11  1  0.33459336  0.68904527  0.03582746  1
  Fe  Fe12  1  0.83211533  0.80977174  0.96456818  1
  Fe  Fe13  1  0.66665445  0.19120467  0.53532656  1
  Fe  Fe14  1  0.66540664  0.31095473  0.96417254  1
  Fe  Fe15  1  0.33334555  0.80879533  0.46467344  1
  Fe  Fe16  1  0.18769843  0.24666285  0.24959193  1
  Fe  Fe17  1  0.32834457  0.58597195  0.65291072  1
  Fe  Fe18  1  0.32505029  0.74810739  0.25023009  1
  Fe  Fe19  1  0.67494971  0.25189261  0.74976991  1
  C  C20  1  0.55968101  0.92126843  0.63478111  1
  C  C21  1  0.55830943  0.58189570  0.86299907  1
  C  C22  1  0.06771348  0.91940455  0.13644933  1
  C  C23  1  0.93212559  0.42321633  0.63870874  1
  C  C24  1  0.06787441  0.57678367  0.36129126  1
  C  C25  1  0.44031899  0.07873157  0.36521889  1
  C  C26  1  0.93228652  0.08059545  0.86355067  1
  C  C27  1  0.44169057  0.41810430  0.13700093  1
