# generated using pymatgen
data_U2(Al3Co)3
_symmetry_space_group_name_H-M   'P 1'
_cell_length_a   7.43769939
_cell_length_b   7.43769965
_cell_length_c   9.19891927
_cell_angle_alpha   90.00000000
_cell_angle_beta   90.00000000
_cell_angle_gamma   119.24764903
_symmetry_Int_Tables_number   1
_chemical_formula_structural   U2(Al3Co)3
_chemical_formula_sum   'U4 Al18 Co6'
_cell_volume   444.00462404
_cell_formula_units_Z   2
loop_
 _symmetry_equiv_pos_site_id
 _symmetry_equiv_pos_as_xyz
  1  'x, y, z'
loop_
 _atom_site_type_symbol
 _atom_site_label
 _atom_site_symmetry_multiplicity
 _atom_site_fract_x
 _atom_site_fract_y
 _atom_site_fract_z
 _atom_site_occupancy
  U  U0  1  0.99486948  0.67411344  0.25000000  1
  U  U1  1  0.00513052  0.32588656  0.75000000  1
  U  U2  1  0.67411344  0.99486948  0.25000000  1
  U  U3  1  0.32588656  0.00513052  0.75000000  1
  Al  Al4  1  0.33323315  0.33323315  0.95242806  1
  Al  Al5  1  -0.00040920  0.33635524  0.42719927  1
  Al  Al6  1  0.66364476  0.00040920  0.92719927  1
  Al  Al7  1  0.65904498  0.44324242  0.75000000  1
  Al  Al8  1  0.00040920  0.66364476  0.57280073  1
  Al  Al9  1  0.34095502  0.55675758  0.25000000  1
  Al  Al10  1  0.66676685  0.66676685  0.04757194  1
  Al  Al11  1  -0.00040920  0.33635524  0.07280073  1
  Al  Al12  1  0.33635524  -0.00040920  0.42719927  1
  Al  Al13  1  0.66364476  0.00040920  0.57280073  1
  Al  Al14  1  0.00040920  0.66364476  0.92719927  1
  Al  Al15  1  0.12630053  0.12630053  0.25000000  1
  Al  Al16  1  0.55675758  0.34095502  0.25000000  1
  Al  Al17  1  0.33635524  -0.00040920  0.07280073  1
  Al  Al18  1  0.33323315  0.33323315  0.54757194  1
  Al  Al19  1  0.66676685  0.66676685  0.45242806  1
  Al  Al20  1  0.44324242  0.65904498  0.75000000  1
  Al  Al21  1  0.87369947  0.87369947  0.75000000  1
  Co  Co22  1  0.67331463  0.32668537  0.50000000  1
  Co  Co23  1  0.67331463  0.32668537  0.00000000  1
  Co  Co24  1  0.00000000  0.00000000  0.00000000  1
  Co  Co25  1  0.32668537  0.67331463  0.00000000  1
  Co  Co26  1  0.32668537  0.67331463  0.50000000  1
  Co  Co27  1  0.00000000  0.00000000  0.50000000  1
