# generated using pymatgen
data_Ba(H8O5)2
_symmetry_space_group_name_H-M   'P 1'
_cell_length_a   6.63625905
_cell_length_b   6.63664116
_cell_length_c   11.26091261
_cell_angle_alpha   90.09945217
_cell_angle_beta   91.72932779
_cell_angle_gamma   93.06695140
_symmetry_Int_Tables_number   1
_chemical_formula_structural   Ba(H8O5)2
_chemical_formula_sum   'Ba2 H32 O20'
_cell_volume   495.01969073
_cell_formula_units_Z   2
loop_
 _symmetry_equiv_pos_site_id
 _symmetry_equiv_pos_as_xyz
  1  'x, y, z'
loop_
 _atom_site_type_symbol
 _atom_site_label
 _atom_site_symmetry_multiplicity
 _atom_site_fract_x
 _atom_site_fract_y
 _atom_site_fract_z
 _atom_site_occupancy
  Ba  Ba0  1  0.00427300  0.99149731  0.50058520  1
  Ba  Ba1  1  0.01258478  0.00301804  0.00039834  1
  H  H2  1  0.61488291  0.56128943  0.57252790  1
  H  H3  1  0.34903957  0.57626091  0.04722708  1
  H  H4  1  0.25886539  0.40777403  0.37833842  1
  H  H5  1  0.10698670  0.31646319  0.27772965  1
  H  H6  1  0.93057270  0.56369271  0.35051677  1
  H  H7  1  0.70248719  0.61346282  0.37633060  1
  H  H8  1  0.63313508  0.24408681  0.33843964  1
  H  H9  1  0.62253778  0.11249329  0.45738145  1
  H  H10  1  0.40534897  0.95806395  0.34031466  1
  H  H11  1  0.37069636  0.72965616  0.37938048  1
  H  H12  1  0.74126715  0.39567641  0.87126347  1
  H  H13  1  0.90293900  0.38290472  0.97233235  1
  H  H14  1  0.21410932  0.72917163  0.78432206  1
  H  H15  1  0.05336228  0.57826206  0.85079425  1
  H  H16  1  0.36778052  0.08484010  0.80650451  1
  H  H17  1  0.37779497  0.31115605  0.86900972  1
  H  H18  1  0.61308226  0.89928951  0.79715009  1
  H  H19  1  0.59721589  0.69415004  0.87397552  1
  H  H20  1  0.81978897  0.69029862  0.71906400  1
  H  H21  1  0.93395075  0.53035800  0.64457446  1
  H  H22  1  0.16640444  0.28789125  0.71806267  1
  H  H23  1  0.24620650  0.39978804  0.60374405  1
  H  H24  1  0.46275022  0.96534653  0.62366517  1
  H  H25  1  0.37103778  0.73733910  0.60860591  1
  H  H26  1  0.61070599  0.22394006  0.61516530  1
  H  H27  1  0.19255821  0.71538955  0.20286440  1
  H  H28  1  0.04797695  0.54180692  0.12222180  1
  H  H29  1  0.78675472  0.39874212  0.12565314  1
  H  H30  1  0.71458495  0.81874484  0.20754360  1
  H  H31  1  0.60757444  0.76404295  0.08461033  1
  H  H32  1  0.40707954  0.27773321  0.10129957  1
  H  H33  1  0.46318356  0.06178080  0.14623696  1
  O  O34  1  0.47800658  0.52964985  0.41257930  1
  O  O35  1  0.49847722  0.48867116  0.90448623  1
  O  O36  1  0.47291724  0.51895745  0.54402586  1
  O  O37  1  0.48348997  0.51390736  0.03470829  1
  O  O38  1  0.11681655  0.34725485  0.36310494  1
  O  O39  1  0.83797359  0.67577872  0.35212569  1
  O  O40  1  0.64976076  0.10703015  0.36683292  1
  O  O41  1  0.29481075  0.85240112  0.34990413  1
  O  O42  1  0.88562253  0.36353742  0.88127348  1
  O  O43  1  0.11583802  0.71766715  0.84779797  1
  O  O44  1  0.28287008  0.18616373  0.83802023  1
  O  O45  1  0.68577510  0.82371486  0.85738731  1
  O  O46  1  0.83696283  0.64026459  0.63752692  1
  O  O47  1  0.12099698  0.34197956  0.63860341  1
  O  O48  1  0.33372012  0.86553660  0.64583383  1
  O  O49  1  0.63649421  0.08544713  0.59451060  1
  O  O50  1  0.15510092  0.67267658  0.12114131  1
  O  O51  1  0.92478524  0.36553960  0.10995949  1
  O  O52  1  0.67036592  0.87873980  0.13150154  1
  O  O53  1  0.34969753  0.15051616  0.13650803  1
