# generated using pymatgen
data_H4SO5
_symmetry_space_group_name_H-M   'P 1'
_cell_length_a   7.51292866
_cell_length_b   6.99884237
_cell_length_c   8.43967829
_cell_angle_alpha   90.00000000
_cell_angle_beta   104.08223447
_cell_angle_gamma   90.00000000
_symmetry_Int_Tables_number   1
_chemical_formula_structural   H4SO5
_chemical_formula_sum   'H16 S4 O20'
_cell_volume   430.43700366
_cell_formula_units_Z   4
loop_
 _symmetry_equiv_pos_site_id
 _symmetry_equiv_pos_as_xyz
  1  'x, y, z'
loop_
 _atom_site_type_symbol
 _atom_site_label
 _atom_site_symmetry_multiplicity
 _atom_site_fract_x
 _atom_site_fract_y
 _atom_site_fract_z
 _atom_site_occupancy
  H  H0  1  0.45250627  0.15095717  0.58710629  1
  H  H1  1  0.54749373  0.65095717  0.91289371  1
  H  H2  1  0.54749373  0.84904283  0.41289371  1
  H  H3  1  0.45250627  0.34904283  0.08710629  1
  H  H4  1  0.85910408  0.30775016  0.95579772  1
  H  H5  1  0.73936544  0.12974666  0.81345318  1
  H  H6  1  0.80320563  0.38924771  0.77624254  1
  H  H7  1  0.26063456  0.62974666  0.68654682  1
  H  H8  1  0.14089592  0.80775016  0.54420228  1
  H  H9  1  0.19679437  0.88924771  0.72375746  1
  H  H10  1  0.19679437  0.61075229  0.22375746  1
  H  H11  1  0.26063456  0.87025334  0.18654682  1
  H  H12  1  0.14089592  0.69224984  0.04420228  1
  H  H13  1  0.85910408  0.19224984  0.45579772  1
  H  H14  1  0.80320563  0.11075229  0.27624254  1
  H  H15  1  0.73936544  0.37025334  0.31345318  1
  S  S16  1  0.23848899  0.35837810  0.55043735  1
  S  S17  1  0.76151101  0.85837810  0.94956265  1
  S  S18  1  0.76151101  0.64162190  0.44956265  1
  S  S19  1  0.23848899  0.14162190  0.05043735  1
  O  O20  1  0.18147310  0.01025076  0.91639224  1
  O  O21  1  0.81852690  0.51025076  0.58360776  1
  O  O22  1  0.81852690  0.98974924  0.08360776  1
  O  O23  1  0.18147310  0.48974924  0.41639224  1
  O  O24  1  0.28226650  0.46785433  0.71195018  1
  O  O25  1  0.71773350  0.96785433  0.78804982  1
  O  O26  1  0.71773350  0.53214567  0.28804982  1
  O  O27  1  0.28226650  0.03214567  0.21195018  1
  O  O28  1  0.43264925  0.27715798  0.53495528  1
  O  O29  1  0.56735075  0.77715798  0.96504472  1
  O  O30  1  0.56735075  0.72284202  0.46504472  1
  O  O31  1  0.43264925  0.22284202  0.03495528  1
  O  O32  1  0.12252646  0.19519534  0.55949307  1
  O  O33  1  0.87747354  0.69519534  0.94050693  1
  O  O34  1  0.87747354  0.80480466  0.44050693  1
  O  O35  1  0.12252646  0.30480466  0.05949307  1
  O  O36  1  0.76102810  0.30558452  0.85415697  1
  O  O37  1  0.23897190  0.80558452  0.64584303  1
  O  O38  1  0.23897190  0.69441548  0.14584303  1
  O  O39  1  0.76102810  0.19441548  0.35415697  1
