# generated using pymatgen
data_Sc9Ni5Ge8
_symmetry_space_group_name_H-M   'P 1'
_cell_length_a   3.92279462
_cell_length_b   9.07353352
_cell_length_c   11.59667278
_cell_angle_alpha   112.98064171
_cell_angle_beta   99.76441613
_cell_angle_gamma   90.00316412
_symmetry_Int_Tables_number   1
_chemical_formula_structural   Sc9Ni5Ge8
_chemical_formula_sum   'Sc9 Ni5 Ge8'
_cell_volume   373.50355842
_cell_formula_units_Z   1
loop_
 _symmetry_equiv_pos_site_id
 _symmetry_equiv_pos_as_xyz
  1  'x, y, z'
loop_
 _atom_site_type_symbol
 _atom_site_label
 _atom_site_symmetry_multiplicity
 _atom_site_fract_x
 _atom_site_fract_y
 _atom_site_fract_z
 _atom_site_occupancy
  Sc  Sc0  1  0.91748010  0.71842310  0.82846887  1
  Sc  Sc1  1  0.22819688  0.22555920  0.45435754  1
  Sc  Sc2  1  0.91752560  0.11053556  0.83005816  1
  Sc  Sc3  1  0.60671954  0.60576642  0.21419637  1
  Sc  Sc4  1  0.08701296  0.27802543  0.17119142  1
  Sc  Sc5  1  0.08866360  0.88761312  0.17059519  1
  Sc  Sc6  1  0.39445276  0.39171143  0.78617019  1
  Sc  Sc7  1  0.77594650  0.76984977  0.54498197  1
  Sc  Sc8  1  0.50264644  0.99885555  0.99954214  1
  Ni  Ni9  1  0.30402255  0.57763132  0.60779140  1
  Ni  Ni10  1  0.70054485  0.41904693  0.39244628  1
  Ni  Ni11  1  0.30315720  0.02780819  0.60465896  1
  Ni  Ni12  1  0.00265853  0.49925119  0.00253465  1
  Ni  Ni13  1  0.70217220  0.96912795  0.39479990  1
  Ge  Ge14  1  0.80896958  0.16914471  0.61628668  1
  Ge  Ge15  1  0.50467071  0.68605884  -0.00006973  1
  Ge  Ge16  1  0.36940532  0.86657628  0.73177223  1
  Ge  Ge17  1  0.19613429  0.55122245  0.38467094  1
  Ge  Ge18  1  0.50276191  0.31206242  0.00122305  1
  Ge  Ge19  1  0.19633979  0.82757697  0.38390059  1
  Ge  Ge20  1  0.63474114  0.13049361  0.26699282  1
  Ge  Ge21  1  0.80788757  0.44526254  0.61507537  1
