# generated using pymatgen
data_KS2N(O2F)2
_symmetry_space_group_name_H-M   'P 1'
_cell_length_a   12.37786860
_cell_length_b   14.89337123
_cell_length_c   14.75844954
_cell_angle_alpha   90.00000000
_cell_angle_beta   90.00000000
_cell_angle_gamma   90.00000000
_symmetry_Int_Tables_number   1
_chemical_formula_structural   KS2N(O2F)2
_chemical_formula_sum   'K16 S32 N16 O64 F32'
_cell_volume   2720.69349084
_cell_formula_units_Z   16
loop_
 _symmetry_equiv_pos_site_id
 _symmetry_equiv_pos_as_xyz
  1  'x, y, z'
loop_
 _atom_site_type_symbol
 _atom_site_label
 _atom_site_symmetry_multiplicity
 _atom_site_fract_x
 _atom_site_fract_y
 _atom_site_fract_z
 _atom_site_occupancy
  K  K0  1  0.99343828  0.66031742  0.55436864  1
  K  K1  1  0.49343828  0.33968258  0.94563136  1
  K  K2  1  0.00656172  0.83968258  0.05436864  1
  K  K3  1  0.50656172  0.16031742  0.44563136  1
  K  K4  1  0.00656172  0.33968258  0.44563136  1
  K  K5  1  0.50656172  0.66031742  0.05436864  1
  K  K6  1  0.99343828  0.16031742  0.94563136  1
  K  K7  1  0.49343828  0.83968258  0.55436864  1
  K  K8  1  0.36624262  0.88615439  0.27559351  1
  K  K9  1  0.86624262  0.11384561  0.22440649  1
  K  K10  1  0.63375738  0.61384561  0.77559351  1
  K  K11  1  0.13375738  0.38615439  0.72440649  1
  K  K12  1  0.63375738  0.11384561  0.72440649  1
  K  K13  1  0.13375738  0.88615439  0.77559351  1
  K  K14  1  0.36624262  0.38615439  0.22440649  1
  K  K15  1  0.86624262  0.61384561  0.27559351  1
  S  S16  1  0.02459725  0.83102313  0.33757084  1
  S  S17  1  0.52459725  0.16897687  0.16242916  1
  S  S18  1  0.97540275  0.66897687  0.83757084  1
  S  S19  1  0.47540275  0.33102313  0.66242916  1
  S  S20  1  0.97540275  0.16897687  0.66242916  1
  S  S21  1  0.47540275  0.83102313  0.83757084  1
  S  S22  1  0.02459725  0.33102313  0.16242916  1
  S  S23  1  0.52459725  0.66897687  0.33757084  1
  S  S24  1  0.69819926  0.86471557  0.17410560  1
  S  S25  1  0.19819926  0.13528443  0.32589440  1
  S  S26  1  0.30180074  0.63528443  0.67410560  1
  S  S27  1  0.80180074  0.36471557  0.82589440  1
  S  S28  1  0.30180074  0.13528443  0.82589440  1
  S  S29  1  0.80180074  0.86471557  0.67410560  1
  S  S30  1  0.69819926  0.36471557  0.32589440  1
  S  S31  1  0.19819926  0.63528443  0.17410560  1
  S  S32  1  0.17887105  0.87092281  0.47025533  1
  S  S33  1  0.67887105  0.12907719  0.02974467  1
  S  S34  1  0.82112895  0.62907719  0.97025533  1
  S  S35  1  0.32112895  0.37092281  0.52974467  1
  S  S36  1  0.82112895  0.12907719  0.52974467  1
  S  S37  1  0.32112895  0.87092281  0.97025533  1
  S  S38  1  0.17887105  0.37092281  0.02974467  1
  S  S39  1  0.67887105  0.62907719  0.47025533  1
  S  S40  1  0.64522697  0.94899619  0.33804408  1
  S  S41  1  0.14522697  0.05100381  0.16195592  1
  S  S42  1  0.35477303  0.55100381  0.83804408  1
  S  S43  1  0.85477303  0.44899619  0.66195592  1
  S  S44  1  0.35477303  0.05100381  0.66195592  1
  S  S45  1  0.85477303  0.94899619  0.83804408  1
  S  S46  1  0.64522697  0.44899619  0.16195592  1
  S  S47  1  0.14522697  0.55100381  0.33804408  1
  N  N48  1  0.14208733  0.85856291  0.36821914  1
  N  N49  1  0.64208733  0.14143709  0.13178086  1
  N  N50  1  0.85791267  0.64143709  0.86821914  1
  N  N51  1  0.35791267  0.35856291  0.63178086  1
  N  N52  1  0.85791267  0.14143709  0.63178086  1
  N  N53  1  0.35791267  0.85856291  0.86821914  1
  N  N54  1  0.14208733  0.35856291  0.13178086  1
  N  N55  1  0.64208733  0.64143709  0.36821914  1
  N  N56  1  0.61421513  0.89494700  0.24975217  1
  N  N57  1  0.11421513  0.10505300  0.25024783  1
  N  N58  1  0.38578487  0.60505300  0.74975217  1
  N  N59  1  0.88578487  0.39494700  0.75024783  1
  N  N60  1  0.38578487  0.10505300  0.75024783  1
  N  N61  1  0.88578487  0.89494700  0.74975217  1
  N  N62  1  0.61421513  0.39494700  0.25024783  1
  N  N63  1  0.11421513  0.60505300  0.24975217  1
  O  O64  1  0.02349922  0.82541298  0.24046495  1
  O  O65  1  0.52349922  0.17458702  0.25953505  1
  O  O66  1  0.97650078  0.67458702  0.74046495  1
  O  O67  1  0.47650078  0.32541298  0.75953505  1
  O  O68  1  0.97650078  0.17458702  0.75953505  1
  O  O69  1  0.47650078  0.82541298  0.74046495  1
  O  O70  1  0.02349922  0.32541298  0.25953505  1
  O  O71  1  0.52349922  0.67458702  0.24046495  1
  O  O72  1  0.13176813  0.81232518  0.53693819  1
  O  O73  1  0.63176813  0.18767482  0.96306181  1
  O  O74  1  0.86823187  0.68767482  0.03693819  1
  O  O75  1  0.36823187  0.31232518  0.46306181  1
  O  O76  1  0.86823187  0.18767482  0.46306181  1
  O  O77  1  0.36823187  0.81232518  0.03693819  1
  O  O78  1  0.13176813  0.31232518  0.96306181  1
  O  O79  1  0.63176813  0.68767482  0.53693819  1
  O  O80  1  0.72291065  0.01988862  0.32920583  1
  O  O81  1  0.22291065  0.98011138  0.17079417  1
  O  O82  1  0.27708935  0.48011138  0.82920583  1
  O  O83  1  0.77708935  0.51988862  0.67079417  1
  O  O84  1  0.27708935  0.98011138  0.67079417  1
  O  O85  1  0.77708935  0.01988862  0.82920583  1
  O  O86  1  0.72291065  0.51988862  0.17079417  1
  O  O87  1  0.22291065  0.48011138  0.32920583  1
  O  O88  1  0.54534847  0.96726313  0.38559352  1
  O  O89  1  0.04534847  0.03273687  0.11440648  1
  O  O90  1  0.45465153  0.53273687  0.88559352  1
  O  O91  1  0.95465153  0.46726313  0.61440648  1
  O  O92  1  0.45465153  0.03273687  0.61440648  1
  O  O93  1  0.95465153  0.96726313  0.88559352  1
  O  O94  1  0.54534847  0.46726313  0.11440648  1
  O  O95  1  0.04534847  0.53273687  0.38559352  1
  O  O96  1  0.29442482  0.88248700  0.46820338  1
  O  O97  1  0.79442482  0.11751300  0.03179662  1
  O  O98  1  0.70557518  0.61751300  0.96820338  1
  O  O99  1  0.20557518  0.38248700  0.53179662  1
  O  O100  1  0.70557518  0.11751300  0.53179662  1
  O  O101  1  0.20557518  0.88248700  0.96820338  1
  O  O102  1  0.29442482  0.38248700  0.03179662  1
  O  O103  1  0.79442482  0.61751300  0.46820338  1
  O  O104  1  0.97334825  0.76021902  0.38856693  1
  O  O105  1  0.47334825  0.23978098  0.11143307  1
  O  O106  1  0.02665175  0.73978098  0.88856693  1
  O  O107  1  0.52665175  0.26021902  0.61143307  1
  O  O108  1  0.02665175  0.23978098  0.61143307  1
  O  O109  1  0.52665175  0.76021902  0.88856693  1
  O  O110  1  0.97334825  0.26021902  0.11143307  1
  O  O111  1  0.47334825  0.73978098  0.38856693  1
  O  O112  1  0.63846097  0.82508522  0.10142057  1
  O  O113  1  0.13846097  0.17491478  0.39857943  1
  O  O114  1  0.36153903  0.67491478  0.60142057  1
  O  O115  1  0.86153903  0.32508522  0.89857943  1
  O  O116  1  0.36153903  0.17491478  0.89857943  1
  O  O117  1  0.86153903  0.82508522  0.60142057  1
  O  O118  1  0.63846097  0.32508522  0.39857943  1
  O  O119  1  0.13846097  0.67491478  0.10142057  1
  O  O120  1  0.78610090  0.92525295  0.15602213  1
  O  O121  1  0.28610090  0.07474705  0.34397787  1
  O  O122  1  0.21389910  0.57474705  0.65602213  1
  O  O123  1  0.71389910  0.42525295  0.84397787  1
  O  O124  1  0.21389910  0.07474705  0.84397787  1
  O  O125  1  0.71389910  0.92525295  0.65602213  1
  O  O126  1  0.78610090  0.42525295  0.34397787  1
  O  O127  1  0.28610090  0.57474705  0.15602213  1
  F  F128  1  0.13173635  0.96802572  0.49523286  1
  F  F129  1  0.63173635  0.03197428  0.00476714  1
  F  F130  1  0.86826365  0.53197428  0.99523286  1
  F  F131  1  0.36826365  0.46802572  0.50476714  1
  F  F132  1  0.86826365  0.03197428  0.50476714  1
  F  F133  1  0.36826365  0.96802572  0.99523286  1
  F  F134  1  0.13173635  0.46802572  0.00476714  1
  F  F135  1  0.63173635  0.53197428  0.49523286  1
  F  F136  1  0.70425176  0.87496204  0.40075112  1
  F  F137  1  0.20425176  0.12503796  0.09924888  1
  F  F138  1  0.29574824  0.62503796  0.90075112  1
  F  F139  1  0.79574824  0.37496204  0.59924888  1
  F  F140  1  0.29574824  0.12503796  0.59924888  1
  F  F141  1  0.79574824  0.87496204  0.90075112  1
  F  F142  1  0.70425176  0.37496204  0.09924888  1
  F  F143  1  0.20425176  0.62503796  0.40075112  1
  F  F144  1  0.75852537  0.77979859  0.22346796  1
  F  F145  1  0.25852537  0.22020141  0.27653204  1
  F  F146  1  0.24147463  0.72020141  0.72346796  1
  F  F147  1  0.74147463  0.27979859  0.77653204  1
  F  F148  1  0.24147463  0.22020141  0.77653204  1
  F  F149  1  0.74147463  0.77979859  0.72346796  1
  F  F150  1  0.75852537  0.27979859  0.27653204  1
  F  F151  1  0.25852537  0.72020141  0.22346796  1
  F  F152  1  0.95388121  0.91900036  0.36070186  1
  F  F153  1  0.45388121  0.08099964  0.13929814  1
  F  F154  1  0.04611879  0.58099964  0.86070186  1
  F  F155  1  0.54611879  0.41900036  0.63929814  1
  F  F156  1  0.04611879  0.08099964  0.63929814  1
  F  F157  1  0.54611879  0.91900036  0.86070186  1
  F  F158  1  0.95388121  0.41900036  0.13929814  1
  F  F159  1  0.45388121  0.58099964  0.36070186  1
