# generated using pymatgen
data_LiH13(CN2)2
_symmetry_space_group_name_H-M   'P 1'
_cell_length_a   5.36978350
_cell_length_b   8.64683017
_cell_length_c   8.64683017
_cell_angle_alpha   90.00000000
_cell_angle_beta   90.00000000
_cell_angle_gamma   90.00000000
_symmetry_Int_Tables_number   1
_chemical_formula_structural   LiH13(CN2)2
_chemical_formula_sum   'Li2 H26 C4 N8'
_cell_volume   401.48621138
_cell_formula_units_Z   2
loop_
 _symmetry_equiv_pos_site_id
 _symmetry_equiv_pos_as_xyz
  1  'x, y, z'
loop_
 _atom_site_type_symbol
 _atom_site_label
 _atom_site_symmetry_multiplicity
 _atom_site_fract_x
 _atom_site_fract_y
 _atom_site_fract_z
 _atom_site_occupancy
  Li  Li0  1  0.50000000  0.75000000  0.25000000  1
  Li  Li1  1  0.50000000  0.25000000  0.75000000  1
  H  H2  1  0.01828990  0.75000000  0.75000000  1
  H  H3  1  0.98171010  0.25000000  0.25000000  1
  H  H4  1  0.36778718  0.83996918  0.97717983  1
  H  H5  1  0.36778718  0.66003082  0.52282017  1
  H  H6  1  0.36778718  0.97717983  0.66003082  1
  H  H7  1  0.36778718  0.52282017  0.83996918  1
  H  H8  1  0.63221282  0.16003082  0.02282017  1
  H  H9  1  0.63221282  0.33996918  0.47717983  1
  H  H10  1  0.63221282  0.02282017  0.33996918  1
  H  H11  1  0.63221282  0.47717983  0.16003082  1
  H  H12  1  0.29166349  0.97573829  0.10589790  1
  H  H13  1  0.29166349  0.52426171  0.39410210  1
  H  H14  1  0.29166349  0.10589790  0.52426171  1
  H  H15  1  0.29166349  0.39410210  0.97573829  1
  H  H16  1  0.70833651  0.02426171  0.89410210  1
  H  H17  1  0.70833651  0.47573829  0.60589790  1
  H  H18  1  0.70833651  0.89410210  0.47573829  1
  H  H19  1  0.70833651  0.60589790  0.02426171  1
  H  H20  1  0.10221223  0.83053590  0.07039169  1
  H  H21  1  0.10221223  0.66946410  0.42960831  1
  H  H22  1  0.10221223  0.07039169  0.66946410  1
  H  H23  1  0.10221223  0.42960831  0.83053590  1
  H  H24  1  0.89778777  0.16946410  0.92960831  1
  H  H25  1  0.89778777  0.33053590  0.57039169  1
  H  H26  1  0.89778777  0.92960831  0.33053590  1
  H  H27  1  0.89778777  0.57039169  0.16946410  1
  C  C28  1  0.58443194  0.75000000  0.75000000  1
  C  C29  1  0.41556806  0.25000000  0.25000000  1
  C  C30  1  0.81696324  0.75000000  0.75000000  1
  C  C31  1  0.18303676  0.25000000  0.25000000  1
  N  N32  1  0.28558765  0.85925270  0.08317020  1
  N  N33  1  0.28558765  0.64074730  0.41682980  1
  N  N34  1  0.28558765  0.08317020  0.64074730  1
  N  N35  1  0.28558765  0.41682980  0.85925270  1
  N  N36  1  0.71441235  0.14074730  0.91682980  1
  N  N37  1  0.71441235  0.35925270  0.58317020  1
  N  N38  1  0.71441235  0.91682980  0.35925270  1
  N  N39  1  0.71441235  0.58317020  0.14074730  1
