# generated using pymatgen
data_Sn(S4I)4
_symmetry_space_group_name_H-M   'P 1'
_cell_length_a   14.92695317
_cell_length_b   13.70136308
_cell_length_c   14.04421400
_cell_angle_alpha   73.17307067
_cell_angle_beta   57.89807346
_cell_angle_gamma   56.99412067
_symmetry_Int_Tables_number   1
_chemical_formula_structural   Sn(S4I)4
_chemical_formula_sum   'Sn2 S32 I8'
_cell_volume   2040.47652227
_cell_formula_units_Z   2
loop_
 _symmetry_equiv_pos_site_id
 _symmetry_equiv_pos_as_xyz
  1  'x, y, z'
loop_
 _atom_site_type_symbol
 _atom_site_label
 _atom_site_symmetry_multiplicity
 _atom_site_fract_x
 _atom_site_fract_y
 _atom_site_fract_z
 _atom_site_occupancy
  Sn  Sn0  1  0.99781870  0.00000000  0.00000000  1
  Sn  Sn1  1  0.74781870  0.50000000  0.50000000  1
  S  S2  1  0.46592560  0.35183765  0.00900665  1
  S  S3  1  0.48400058  0.12608914  0.18864022  1
  S  S4  1  0.55912515  0.87968583  0.82314105  1
  S  S5  1  0.20632918  0.47544761  0.66674266  1
  S  S6  1  0.48121752  0.82312094  0.98290651  1
  S  S7  1  0.42475460  0.11925492  0.59834466  1
  S  S8  1  0.58176081  0.17104437  0.03333936  1
  S  S9  1  0.05433846  0.67687906  0.48290651  1
  S  S10  1  0.79872993  0.87391086  0.81135978  1
  S  S11  1  0.14235418  0.88074508  0.40165534  1
  S  S12  1  0.18881098  0.62031417  0.32314105  1
  S  S13  1  0.99349565  0.85605854  0.48582376  1
  S  S14  1  0.34851946  0.52455239  0.33325734  1
  S  S15  1  0.82676990  0.64816235  0.99099335  1
  S  S16  1  0.62307184  0.97544762  0.83325734  1
  S  S17  1  0.56776325  0.14816235  0.50900665  1
  S  S18  1  0.13226620  0.37968583  0.67685895  1
  S  S19  1  0.43177679  0.02455238  0.16674266  1
  S  S20  1  0.26195203  0.12031417  0.17685895  1
  S  S21  1  0.21412403  0.32312094  0.51709349  1
  S  S22  1  0.59955419  0.64394146  0.98582376  1
  S  S23  1  0.50280518  0.32895563  0.53333936  1
  S  S24  1  0.36510017  0.67104437  0.46666064  1
  S  S25  1  0.29400952  0.38074508  0.09834466  1
  S  S26  1  0.77309926  0.61925492  0.90165534  1
  S  S27  1  0.28724497  0.17687906  0.01709349  1
  S  S28  1  0.22493225  0.85183765  0.49099335  1
  S  S29  1  0.33537795  0.14394146  0.51417624  1
  S  S30  1  0.36008972  0.37391086  0.68864022  1
  S  S31  1  0.78614454  0.82895563  0.96666064  1
  S  S32  1  0.42264079  0.62608914  0.31135978  1
  S  S33  1  0.22931941  0.35605854  0.01417624  1
  I  I34  1  0.99405012  0.19623170  0.01027110  1
  I  I35  1  0.75466064  0.48711992  0.30743500  1
  I  I36  1  0.20055291  0.80376830  0.98972890  1
  I  I37  1  0.81209565  0.98711992  0.19256500  1
  I  I38  1  0.75432122  0.69623170  0.48972890  1
  I  I39  1  0.94028182  0.30376830  0.51027110  1
  I  I40  1  0.54921557  0.51288008  0.69256500  1
  I  I41  1  0.99178056  0.01288008  0.80743500  1
