# generated using pymatgen
data_Ga12Ag2Te19
_symmetry_space_group_name_H-M   'P 1'
_cell_length_a   10.51814859
_cell_length_b   10.45494218
_cell_length_c   10.50234064
_cell_angle_alpha   90.43606255
_cell_angle_beta   90.87751219
_cell_angle_gamma   89.76662341
_symmetry_Int_Tables_number   1
_chemical_formula_structural   Ga12Ag2Te19
_chemical_formula_sum   'Ga12 Ag2 Te19'
_cell_volume   1154.72913228
_cell_formula_units_Z   1
loop_
 _symmetry_equiv_pos_site_id
 _symmetry_equiv_pos_as_xyz
  1  'x, y, z'
loop_
 _atom_site_type_symbol
 _atom_site_label
 _atom_site_symmetry_multiplicity
 _atom_site_fract_x
 _atom_site_fract_y
 _atom_site_fract_z
 _atom_site_occupancy
  Ga  Ga0  1  0.07776319  0.00885874  0.66795683  1
  Ga  Ga1  1  0.03139276  0.61371370  0.59242346  1
  Ga  Ga2  1  0.12682090  0.32499941  0.84066762  1
  Ga  Ga3  1  0.37967870  0.96311413  0.40288136  1
  Ga  Ga4  1  0.39983324  0.19101011  0.12249344  1
  Ga  Ga5  1  0.40866712  0.09412159  0.74877409  1
  Ga  Ga6  1  0.49667064  0.41808767  0.83361730  1
  Ga  Ga7  1  0.58023456  0.49717560  0.16935862  1
  Ga  Ga8  1  0.67160935  0.87483233  0.15914379  1
  Ga  Ga9  1  0.81530302  0.59732864  0.88140295  1
  Ga  Ga10  1  0.90969168  0.58773621  0.25297443  1
  Ga  Ga11  1  0.98952671  0.92256351  0.32804614  1
  Ag  Ag12  1  0.58150331  0.75884471  0.69591895  1
  Ag  Ag13  1  0.92585188  0.08191350  0.00293952  1
  Te  Te14  1  0.07953646  0.75082255  0.17565093  1
  Te  Te15  1  0.07573638  0.58445439  0.83653514  1
  Te  Te16  1  0.15739844  0.24823550  0.07773216  1
  Te  Te17  1  0.16525927  0.08664893  0.43269658  1
  Te  Te18  1  0.25149950  0.91617252  0.81928970  1
  Te  Te19  1  0.31556060  0.32378027  0.67015986  1
  Te  Te20  1  0.41605530  0.58323835  0.00044521  1
  Te  Te21  1  0.41412282  0.92341409  0.16013918  1
  Te  Te22  1  0.50269047  0.31368891  0.31691419  1
  Te  Te23  1  0.55920052  0.98953939  0.56927525  1
  Te  Te24  1  0.56851189  0.18540789  0.92988776  1
  Te  Te25  1  0.67857787  0.68252940  0.32591162  1
  Te  Te26  1  0.67581907  0.50968912  0.68304285  1
  Te  Te27  1  0.74882139  0.84071940  0.91974435  1
  Te  Te28  1  0.80617722  0.07420726  0.24392183  1
  Te  Te29  1  0.81362370  0.42889538  0.07093637  1
  Te  Te30  1  0.91461468  0.83433707  0.56399399  1
  Te  Te31  1  0.92720882  0.19147202  0.75459736  1
  Te  Te32  1  0.01063853  0.43664773  0.43042717  1
