# generated using pymatgen
data_Re2Te4Cl22O
_symmetry_space_group_name_H-M   'P 1'
_cell_length_a   9.61275650
_cell_length_b   12.20627449
_cell_length_c   18.04439057
_cell_angle_alpha   90.00000000
_cell_angle_beta   85.85243473
_cell_angle_gamma   90.00000000
_symmetry_Int_Tables_number   1
_chemical_formula_structural   Re2Te4Cl22O
_chemical_formula_sum   'Re4 Te8 Cl44 O2'
_cell_volume   2111.71069594
_cell_formula_units_Z   2
loop_
 _symmetry_equiv_pos_site_id
 _symmetry_equiv_pos_as_xyz
  1  'x, y, z'
loop_
 _atom_site_type_symbol
 _atom_site_label
 _atom_site_symmetry_multiplicity
 _atom_site_fract_x
 _atom_site_fract_y
 _atom_site_fract_z
 _atom_site_occupancy
  Re  Re0  1  0.35731759  0.06666581  0.05880990  1
  Re  Re1  1  0.85731759  0.43333419  0.55880990  1
  Re  Re2  1  0.64268241  0.93333419  0.94119010  1
  Re  Re3  1  0.14268241  0.56666581  0.44119010  1
  Te  Te4  1  0.18585744  0.22190674  0.50706829  1
  Te  Te5  1  0.81414256  0.77809326  0.49293171  1
  Te  Te6  1  0.16308156  0.55905525  0.67510033  1
  Te  Te7  1  0.31414256  0.72190674  0.99293171  1
  Te  Te8  1  0.68585744  0.27809326  0.00706829  1
  Te  Te9  1  0.33691844  0.05905525  0.82489967  1
  Te  Te10  1  0.66308156  0.94094475  0.17510033  1
  Te  Te11  1  0.83691844  0.44094475  0.32489967  1
  Cl  Cl12  1  0.80459957  0.98591806  0.02984788  1
  Cl  Cl13  1  0.15529338  0.09575937  0.41252147  1
  Cl  Cl14  1  0.21262345  0.22485145  0.80965709  1
  Cl  Cl15  1  0.17785969  0.13961670  0.13556448  1
  Cl  Cl16  1  0.84334309  0.04724480  0.21668972  1
  Cl  Cl17  1  0.39274061  0.24016002  0.99835783  1
  Cl  Cl18  1  0.43147632  0.19796610  0.50338956  1
  Cl  Cl19  1  0.69540043  0.48591806  0.47015212  1
  Cl  Cl20  1  0.71262345  0.27514855  0.30965709  1
  Cl  Cl21  1  0.78737655  0.77514855  0.19034291  1
  Cl  Cl22  1  0.06852368  0.69796610  0.99661044  1
  Cl  Cl23  1  0.34334309  0.45275520  0.71668972  1
  Cl  Cl24  1  0.14810531  0.09046130  0.60309051  1
  Cl  Cl25  1  0.67785969  0.36038330  0.63556448  1
  Cl  Cl26  1  0.34470662  0.59575937  0.08747853  1
  Cl  Cl27  1  0.53538529  0.93198050  0.29291954  1
  Cl  Cl28  1  0.85189469  0.90953870  0.39690949  1
  Cl  Cl29  1  0.30459957  0.51408194  0.52984788  1
  Cl  Cl30  1  0.98241300  0.63402116  0.35244690  1
  Cl  Cl31  1  0.03538529  0.56801950  0.79291954  1
  Cl  Cl32  1  0.51758700  0.13402116  0.14755310  1
  Cl  Cl33  1  0.46461471  0.06801950  0.70708046  1
  Cl  Cl34  1  0.84470662  0.90424063  0.58747853  1
  Cl  Cl35  1  0.82214031  0.86038330  0.86443552  1
  Cl  Cl36  1  0.89274061  0.25983998  0.49835783  1
  Cl  Cl37  1  0.19540043  0.01408194  0.97015212  1
  Cl  Cl38  1  0.67214028  0.10742944  0.88044148  1
  Cl  Cl39  1  0.60725939  0.75983998  0.00164217  1
  Cl  Cl40  1  0.64810531  0.40953870  0.10309051  1
  Cl  Cl41  1  0.15665691  0.95275520  0.78331028  1
  Cl  Cl42  1  0.48241300  0.86597884  0.85244690  1
  Cl  Cl43  1  0.65529338  0.40424063  0.91252147  1
  Cl  Cl44  1  0.93147632  0.30203390  0.00338956  1
  Cl  Cl45  1  0.01758700  0.36597884  0.64755310  1
  Cl  Cl46  1  0.65665691  0.54724480  0.28331028  1
  Cl  Cl47  1  0.17214028  0.39257056  0.38044148  1
  Cl  Cl48  1  0.32214031  0.63961670  0.36443552  1
  Cl  Cl49  1  0.56852368  0.80203390  0.49661044  1
  Cl  Cl50  1  0.35189469  0.59046130  0.89690949  1
  Cl  Cl51  1  0.96461471  0.43198050  0.20708046  1
  Cl  Cl52  1  0.10725939  0.74016002  0.50164217  1
  Cl  Cl53  1  0.82785972  0.60742944  0.61955852  1
  Cl  Cl54  1  0.32785972  0.89257056  0.11955852  1
  Cl  Cl55  1  0.28737655  0.72485145  0.69034291  1
  O  O56  1  0.50000000  0.00000000  -0.00000000  1
  O  O57  1  -0.00000000  0.50000000  0.50000000  1
