# generated using pymatgen
data_Sb(PO3)4
_symmetry_space_group_name_H-M   'P 1'
_cell_length_a   7.36318721
_cell_length_b   7.36232481
_cell_length_c   9.94600184
_cell_angle_alpha   79.87432600
_cell_angle_beta   71.17290928
_cell_angle_gamma   109.07672005
_symmetry_Int_Tables_number   1
_chemical_formula_structural   Sb(PO3)4
_chemical_formula_sum   'Sb2 P8 O24'
_cell_volume   457.83540573
_cell_formula_units_Z   2
loop_
 _symmetry_equiv_pos_site_id
 _symmetry_equiv_pos_as_xyz
  1  'x, y, z'
loop_
 _atom_site_type_symbol
 _atom_site_label
 _atom_site_symmetry_multiplicity
 _atom_site_fract_x
 _atom_site_fract_y
 _atom_site_fract_z
 _atom_site_occupancy
  Sb  Sb0  1  0.81101240  0.06094123  0.24998524  1
  Sb  Sb1  1  0.18898760  0.93905877  0.75001476  1
  P  P2  1  0.26294185  0.72055285  0.48049622  1
  P  P3  1  0.00898899  0.30813616  0.69937584  1
  P  P4  1  0.29906518  0.25657590  0.98044677  1
  P  P5  1  0.49240159  0.29147357  0.19942695  1
  P  P6  1  0.73705815  0.27944715  0.51950378  1
  P  P7  1  0.70093482  0.74342410  0.01955323  1
  P  P8  1  0.50759841  0.70852643  0.80057305  1
  P  P9  1  0.99101101  0.69186384  0.30062416  1
  O  O10  1  0.25456811  0.08849135  0.91257092  1
  O  O11  1  0.96489868  0.34757730  0.84273967  1
  O  O12  1  0.29902439  0.72589751  0.82002454  1
  O  O13  1  0.86577596  0.20123731  0.40985408  1
  O  O14  1  0.44840910  0.22665027  0.06008960  1
  O  O15  1  0.13422404  0.79876269  0.59014592  1
  O  O16  1  0.74543189  0.91150865  0.08742908  1
  O  O17  1  0.78676163  0.50855052  0.44001118  1
  O  O18  1  0.18446594  0.70483130  0.35033979  1
  O  O19  1  0.44501220  0.46535456  0.85031191  1
  O  O20  1  0.30941319  0.19201377  0.34288356  1
  O  O21  1  0.03510132  0.65242270  0.15726033  1
  O  O22  1  0.81553406  0.29516870  0.64966021  1
  O  O23  1  0.95431459  0.88111355  0.32011337  1
  O  O24  1  0.49892834  0.83290077  0.41272349  1
  O  O25  1  0.04568541  0.11888645  0.67988663  1
  O  O26  1  0.55498780  0.53464544  0.14968809  1
  O  O27  1  0.21323837  0.49144948  0.55998882  1
  O  O28  1  0.69058681  0.80798623  0.65711644  1
  O  O29  1  0.70097561  0.27410249  0.17997546  1
  O  O30  1  0.50107166  0.16709923  0.58727651  1
  O  O31  1  0.11107853  0.27559003  0.09001801  1
  O  O32  1  0.55159090  0.77334973  0.93991040  1
  O  O33  1  0.88892147  0.72440997  0.90998199  1
