# generated using pymatgen
data_K2PdN2(ClO2)2
_symmetry_space_group_name_H-M   'P 1'
_cell_length_a   4.22277506
_cell_length_b   7.76403539
_cell_length_c   7.94453716
_cell_angle_alpha   112.02484091
_cell_angle_beta   111.93223421
_cell_angle_gamma   96.23387318
_symmetry_Int_Tables_number   1
_chemical_formula_structural   K2PdN2(ClO2)2
_chemical_formula_sum   'K2 Pd1 N2 Cl2 O4'
_cell_volume   214.41555678
_cell_formula_units_Z   1
loop_
 _symmetry_equiv_pos_site_id
 _symmetry_equiv_pos_as_xyz
  1  'x, y, z'
loop_
 _atom_site_type_symbol
 _atom_site_label
 _atom_site_symmetry_multiplicity
 _atom_site_fract_x
 _atom_site_fract_y
 _atom_site_fract_z
 _atom_site_occupancy
  K  K0  1  0.21034298  0.65192957  0.31062977  1
  K  K1  1  0.78650519  0.34213294  0.68843678  1
  Pd  Pd2  1  0.49975605  0.99724709  0.99914640  1
  N  N3  1  0.98180058  0.13093166  0.26739120  1
  N  N4  1  0.02135546  0.86492547  0.73159181  1
  Cl  Cl5  1  0.49679833  0.70029049  0.01043367  1
  Cl  Cl6  1  0.50236110  0.29511938  0.99123531  1
  O  O7  1  0.11362796  0.31209781  0.35887346  1
  O  O8  1  0.85136297  0.96474455  0.66239946  1
  O  O9  1  0.14372717  0.03156477  0.34172255  1
  O  O10  1  0.90081222  0.68319127  0.63452659  1
