# generated using pymatgen
data_NdPb8F19
_symmetry_space_group_name_H-M   'P 1'
_cell_length_a   4.15197572
_cell_length_b   4.19893442
_cell_length_c   38.73770011
_cell_angle_alpha   60.75783260
_cell_angle_beta   61.42195830
_cell_angle_gamma   59.58833218
_symmetry_Int_Tables_number   1
_chemical_formula_structural   NdPb8F19
_chemical_formula_sum   'Nd1 Pb8 F19'
_cell_volume   483.65188687
_cell_formula_units_Z   1
loop_
 _symmetry_equiv_pos_site_id
 _symmetry_equiv_pos_as_xyz
  1  'x, y, z'
loop_
 _atom_site_type_symbol
 _atom_site_label
 _atom_site_symmetry_multiplicity
 _atom_site_fract_x
 _atom_site_fract_y
 _atom_site_fract_z
 _atom_site_occupancy
  Nd  Nd0  1  0.08024427  0.04471226  0.86962822  1
  Pb  Pb1  1  0.08121503  0.01875212  0.98685896  1
  Pb  Pb2  1  0.95150296  0.03822420  0.10801469  1
  Pb  Pb3  1  0.97603626  0.03062420  0.21806996  1
  Pb  Pb4  1  0.98264641  0.01863578  0.33108991  1
  Pb  Pb5  1  0.99667462  0.00853864  0.44288010  1
  Pb  Pb6  1  0.01198258  0.00490365  0.55310725  1
  Pb  Pb7  1  0.03717738  0.00069662  0.66239998  1
  Pb  Pb8  1  0.06929612  0.00113650  0.76989853  1
  F  F9  1  0.21066663  0.26710871  0.13944605  1
  F  F10  1  0.71112188  0.77293902  0.08264476  1
  F  F11  1  0.74538235  0.78242916  0.18777513  1
  F  F12  1  0.21660355  0.26810258  0.36074630  1
  F  F13  1  0.23320690  0.27178291  0.24700632  1
  F  F14  1  0.72322855  0.77407181  0.30314469  1
  F  F15  1  0.24454486  0.25255629  0.47217957  1
  F  F16  1  0.74670588  0.75995222  0.41481365  1
  F  F17  1  0.26190007  0.25312385  0.58126423  1
  F  F18  1  0.28575670  0.24322797  0.69197497  1
  F  F19  1  0.76024535  0.75512243  0.52551398  1
  F  F20  1  0.78328491  0.74689913  0.63591154  1
  F  F21  1  0.33438988  0.24556913  0.79706004  1
  F  F22  1  0.82694029  0.75240849  0.74091314  1
  F  F23  1  0.33369030  0.24902167  0.90782833  1
  F  F24  1  0.57786888  0.46776361  0.83164055  1
  F  F25  1  0.79099263  0.71862945  0.86328649  1
  F  F26  1  0.52895705  0.43282115  0.95667022  1
  F  F27  1  0.69973371  0.59424746  0.01267647  1
