# generated using pymatgen
data_AlNi3
_symmetry_space_group_name_H-M   'P 1'
_cell_length_a   4.00051206
_cell_length_b   4.00051340
_cell_length_c   4.00051594
_cell_angle_alpha   59.99965674
_cell_angle_beta   59.99970477
_cell_angle_gamma   59.99970541
_symmetry_Int_Tables_number   1
_chemical_formula_structural   AlNi3
_chemical_formula_sum   'Al1 Ni3'
_cell_volume   45.27195598
_cell_formula_units_Z   1
loop_
 _symmetry_equiv_pos_site_id
 _symmetry_equiv_pos_as_xyz
  1  'x, y, z'
loop_
 _atom_site_type_symbol
 _atom_site_label
 _atom_site_symmetry_multiplicity
 _atom_site_fract_x
 _atom_site_fract_y
 _atom_site_fract_z
 _atom_site_occupancy
  Al  Al0  1  0.00000023  0.00000008  0.99999983  1
  Ni  Ni1  1  0.75000046  0.74999984  0.75000114  1
  Ni  Ni2  1  0.49999991  0.50000004  0.49999983  1
  Ni  Ni3  1  0.24999939  0.25000004  0.24999919  1
