# generated using pymatgen
data_U17O31
_symmetry_space_group_name_H-M   'P 1'
_cell_length_a   3.83968288
_cell_length_b   65.45381023
_cell_length_c   10.18587214
_cell_angle_alpha   19.08199163
_cell_angle_beta   55.56651932
_cell_angle_gamma   60.09000257
_symmetry_Int_Tables_number   1
_chemical_formula_structural   U17O31
_chemical_formula_sum   'U17 O31'
_cell_volume   684.16700719
_cell_formula_units_Z   1
loop_
 _symmetry_equiv_pos_site_id
 _symmetry_equiv_pos_as_xyz
  1  'x, y, z'
loop_
 _atom_site_type_symbol
 _atom_site_label
 _atom_site_symmetry_multiplicity
 _atom_site_fract_x
 _atom_site_fract_y
 _atom_site_fract_z
 _atom_site_occupancy
  U  U0  1  0.99477466  0.00024857  0.00205790  1
  U  U1  1  0.00363769  0.06128885  0.98360780  1
  U  U2  1  0.99487958  0.17390534  0.01795043  1
  U  U3  1  0.00108659  0.11756441  0.99975776  1
  U  U4  1  0.00589619  0.23489449  0.99831920  1
  U  U5  1  0.98998275  0.35466017  0.99692185  1
  U  U6  1  0.01347854  0.29490606  0.98655055  1
  U  U7  1  0.99731561  0.41265379  0.99676245  1
  U  U8  1  0.00216415  0.47113795  0.99545102  1
  U  U9  1  0.99421568  0.52638983  0.02097979  1
  U  U10  1  0.00542905  0.58790810  0.99822580  1
  U  U11  1  0.98886565  0.70780350  0.99654503  1
  U  U12  1  0.01924635  0.64788331  0.98253254  1
  U  U13  1  0.00108601  0.76693334  0.98666717  1
  U  U14  1  0.99911295  0.82129840  0.01322995  1
  U  U15  1  0.01075622  0.88048712  0.00338114  1
  U  U16  1  0.98069533  0.94023068  0.01822322  1
  O  O17  1  0.25147214  0.03603698  0.29479889  1
  O  O18  1  0.25051978  0.10480370  0.23910351  1
  O  O19  1  0.24820781  0.16088116  0.25619028  1
  O  O20  1  0.73964271  0.01480342  0.75636053  1
  O  O21  1  0.75289434  0.07437019  0.74330032  1
  O  O22  1  0.26024247  0.22063000  0.24292022  1
  O  O23  1  0.75019517  0.13053595  0.76017071  1
  O  O24  1  0.75149982  0.20084510  0.69421222  1
  O  O25  1  0.24120378  0.33851845  0.25427208  1
  O  O26  1  0.77471385  0.25126118  0.72639137  1
  O  O27  1  0.24977920  0.39772006  0.24640765  1
  O  O28  1  0.72713926  0.30747975  0.77285226  1
  O  O29  1  0.24929998  0.45552570  0.25248080  1
  O  O30  1  0.74660149  0.35744347  0.81009338  1
  O  O31  1  0.24642283  0.51379199  0.25756166  1
  O  O32  1  0.26014592  0.57366772  0.24244329  1
  O  O33  1  0.75007392  0.42677123  0.74825332  1
  O  O34  1  0.74913000  0.48578465  0.74780448  1
  O  O35  1  0.23928488  0.69196412  0.25270030  1
  O  O36  1  0.74747584  0.55205421  0.70671866  1
  O  O37  1  0.25392187  0.75053296  0.24436233  1
  O  O38  1  0.77584982  0.60431459  0.72499694  1
  O  O39  1  0.24804165  0.80664875  0.26361626  1
  O  O40  1  0.73443323  0.66129079  0.76307969  1
  O  O41  1  0.25598836  0.87653087  0.19563948  1
  O  O42  1  0.74408854  0.71161191  0.80481910  1
  O  O43  1  0.75184991  0.78161485  0.73628229  1
  O  O44  1  0.26564603  0.92691267  0.23706149  1
  O  O45  1  0.74638615  0.83762529  0.75587451  1
  O  O46  1  0.22443521  0.98384847  0.27520996  1
  O  O47  1  0.76079106  0.89633894  0.74685841  1
