# generated using pymatgen
data_Li2Ti(PO3)5
_symmetry_space_group_name_H-M   'P 1'
_cell_length_a   5.20548058
_cell_length_b   13.49089422
_cell_length_c   8.90110682
_cell_angle_alpha   90.00000000
_cell_angle_beta   102.58386299
_cell_angle_gamma   90.00000000
_symmetry_Int_Tables_number   1
_chemical_formula_structural   Li2Ti(PO3)5
_chemical_formula_sum   'Li4 Ti2 P10 O30'
_cell_volume   610.07844505
_cell_formula_units_Z   2
loop_
 _symmetry_equiv_pos_site_id
 _symmetry_equiv_pos_as_xyz
  1  'x, y, z'
loop_
 _atom_site_type_symbol
 _atom_site_label
 _atom_site_symmetry_multiplicity
 _atom_site_fract_x
 _atom_site_fract_y
 _atom_site_fract_z
 _atom_site_occupancy
  Li  Li0  1  0.93371307  0.61341882  0.89623832  1
  Li  Li1  1  0.06628693  0.11341882  0.10376168  1
  Li  Li2  1  0.06628693  0.38658118  0.10376168  1
  Li  Li3  1  0.93371307  0.88658118  0.89623832  1
  Ti  Ti4  1  0.50000000  0.00000000  0.50000000  1
  Ti  Ti5  1  0.50000000  0.50000000  0.50000000  1
  P  P6  1  -0.00013936  0.35893861  0.51583794  1
  P  P7  1  0.65640183  0.92362332  0.18387431  1
  P  P8  1  0.65640183  0.57637668  0.18387431  1
  P  P9  1  0.00013936  0.85893861  0.48416206  1
  P  P10  1  -0.00013936  0.14106139  0.51583794  1
  P  P11  1  0.54448319  0.25000000  0.01223733  1
  P  P12  1  0.34359817  0.42362332  0.81612569  1
  P  P13  1  0.45551681  0.75000000  0.98776267  1
  P  P14  1  0.34359817  0.07637668  0.81612569  1
  P  P15  1  0.00013936  0.64106139  0.48416206  1
  O  O16  1  0.28577298  0.25000000  0.06093007  1
  O  O17  1  0.70898974  0.12580181  0.50315986  1
  O  O18  1  0.80641352  0.96810684  0.07541781  1
  O  O19  1  0.19472305  0.75000000  0.87738368  1
  O  O20  1  0.70898974  0.37419819  0.50315986  1
  O  O21  1  0.55474102  0.34250888  0.89440169  1
  O  O22  1  0.29101026  0.87419819  0.49684014  1
  O  O23  1  0.85853050  0.64473528  0.30727652  1
  O  O24  1  0.80641352  0.53189316  0.07541781  1
  O  O25  1  0.14143599  0.42608079  0.42417853  1
  O  O26  1  0.50922646  0.99094732  0.27219741  1
  O  O27  1  0.50922646  0.50905268  0.27219741  1
  O  O28  1  0.85856401  0.92608079  0.57582147  1
  O  O29  1  0.19358648  0.03189316  0.92458219  1
  O  O30  1  0.04486880  0.25000000  0.45881124  1
  O  O31  1  0.55474102  0.15749112  0.89440169  1
  O  O32  1  0.85856401  0.57391921  0.57582147  1
  O  O33  1  0.14146950  0.14473528  0.69272348  1
  O  O34  1  0.44525898  0.84250888  0.10559831  1
  O  O35  1  0.44525898  0.65749112  0.10559831  1
  O  O36  1  0.14146950  0.35526472  0.69272348  1
  O  O37  1  0.95513120  0.75000000  0.54118876  1
  O  O38  1  0.71422702  0.75000000  0.93906993  1
  O  O39  1  0.19358648  0.46810684  0.92458219  1
  O  O40  1  0.14143599  0.07391921  0.42417853  1
  O  O41  1  0.85853050  0.85526472  0.30727652  1
  O  O42  1  0.49077354  0.49094732  0.72780259  1
  O  O43  1  0.49077354  0.00905268  0.72780259  1
  O  O44  1  0.80527695  0.25000000  0.12261632  1
  O  O45  1  0.29101026  0.62580181  0.49684014  1
