# generated using pymatgen
data_K3(VS2)5
_symmetry_space_group_name_H-M   'P 1'
_cell_length_a   39.86596808
_cell_length_b   23.43974880
_cell_length_c   15.58300877
_cell_angle_alpha   11.02913475
_cell_angle_beta   12.25354078
_cell_angle_gamma   8.10737896
_symmetry_Int_Tables_number   1
_chemical_formula_structural   K3(VS2)5
_chemical_formula_sum   'K3 V5 S10'
_cell_volume   384.62551496
_cell_formula_units_Z   1
loop_
 _symmetry_equiv_pos_site_id
 _symmetry_equiv_pos_as_xyz
  1  'x, y, z'
loop_
 _atom_site_type_symbol
 _atom_site_label
 _atom_site_symmetry_multiplicity
 _atom_site_fract_x
 _atom_site_fract_y
 _atom_site_fract_z
 _atom_site_occupancy
  K  K0  1  0.06927094  0.82028834  0.84525435  1
  K  K1  1  0.24806515  0.85155731  0.84877525  1
  K  K2  1  0.45881415  0.84513866  0.83619487  1
  V  V3  1  0.98512085  0.01623978  0.01186089  1
  V  V4  1  0.20376530  0.00823867  0.97710865  1
  V  V5  1  0.42480945  0.93067398  0.04142567  1
  V  V6  1  0.60928116  0.95645676  0.04028201  1
  V  V7  1  0.78460444  0.06884906  0.93566163  1
  S  S8  1  0.04118803  0.40406464  0.37539259  1
  S  S9  1  0.24167316  0.39774102  0.38850518  1
  S  S10  1  0.16142661  0.60134116  0.60831386  1
  S  S11  1  0.44664594  0.38615211  0.39280698  1
  S  S12  1  0.36087687  0.58990782  0.62245186  1
  S  S13  1  0.64631749  0.37695879  0.41138412  1
  S  S14  1  0.56171890  0.60446772  0.59255495  1
  S  S15  1  0.84510422  0.40334264  0.37646102  1
  S  S16  1  0.75926744  0.62173088  0.57872159  1
  S  S17  1  0.95604989  0.60685068  0.60684454  1
