# generated using pymatgen
data_CaH24C6(BrO3)2
_symmetry_space_group_name_H-M   'P 1'
_cell_length_a   7.29520565
_cell_length_b   8.60601736
_cell_length_c   8.60610373
_cell_angle_alpha   120.00013343
_cell_angle_beta   90.00004929
_cell_angle_gamma   89.99993921
_symmetry_Int_Tables_number   1
_chemical_formula_structural   CaH24C6(BrO3)2
_chemical_formula_sum   'Ca1 H24 C6 Br2 O6'
_cell_volume   467.92514234
_cell_formula_units_Z   1
loop_
 _symmetry_equiv_pos_site_id
 _symmetry_equiv_pos_as_xyz
  1  'x, y, z'
loop_
 _atom_site_type_symbol
 _atom_site_label
 _atom_site_symmetry_multiplicity
 _atom_site_fract_x
 _atom_site_fract_y
 _atom_site_fract_z
 _atom_site_occupancy
  Ca  Ca0  1  0.50000000  0.00000000  -0.00000000  1
  H  H1  1  0.32345413  0.11674883  0.36269459  1
  H  H2  1  0.32345064  0.63731070  0.75405638  1
  H  H3  1  0.32345659  0.24595091  0.88325541  1
  H  H4  1  0.67654587  0.88325117  0.63730541  1
  H  H5  1  0.67654936  0.36268930  0.24594362  1
  H  H6  1  0.67654341  0.75404909  0.11674459  1
  H  H7  1  0.30817904  0.80636283  0.29258759  1
  H  H8  1  0.30818060  0.70741273  0.51377544  1
  H  H9  1  0.30817996  0.48622570  0.19363794  1
  H  H10  1  0.69182096  0.19363717  0.70741241  1
  H  H11  1  0.69181940  0.29258727  0.48622456  1
  H  H12  1  0.69182004  0.51377430  0.80636206  1
  H  H13  1  0.09420179  0.91762145  0.31161733  1
  H  H14  1  0.09420442  0.68838268  0.60600440  1
  H  H15  1  0.09420102  0.39399784  0.08238025  1
  H  H16  1  0.90579821  0.08237855  0.68838267  1
  H  H17  1  0.90579558  0.31161732  0.39399560  1
  H  H18  1  0.90579898  0.60600216  0.91761975  1
  H  H19  1  0.18963399  0.77105268  0.09595088  1
  H  H20  1  0.18963264  0.90405366  0.67510317  1
  H  H21  1  0.18963468  0.32489584  0.22894532  1
  H  H22  1  0.81036601  0.22894732  0.90404912  1
  H  H23  1  0.81036736  0.09594634  0.32489683  1
  H  H24  1  0.81036532  0.67510416  0.77105468  1
  C  C25  1  0.22207566  0.86964317  0.23563959  1
  C  C26  1  0.22207541  0.76436034  0.63400466  1
  C  C27  1  0.22207561  0.36599593  0.13035589  1
  C  C28  1  0.77792434  0.13035683  0.76436041  1
  C  C29  1  0.77792459  0.23563966  0.36599534  1
  C  C30  1  0.77792439  0.63400407  0.86964411  1
  Br  Br31  1  0.28300849  0.33333399  0.66666700  1
  Br  Br32  1  0.71699151  0.66666601  0.33333300  1
  O  O33  1  0.31971884  0.01675488  0.23670875  1
  O  O34  1  0.31971914  0.76329264  0.78004543  1
  O  O35  1  0.31971789  0.21995508  0.98324539  1
  O  O36  1  0.68028116  0.98324512  0.76329125  1
  O  O37  1  0.68028086  0.23670736  0.21995457  1
  O  O38  1  0.68028211  0.78004492  0.01675461  1
