# generated using pymatgen
data_InBi37Br48
_symmetry_space_group_name_H-M   'P 1'
_cell_length_a   22.91885571
_cell_length_b   22.91885591
_cell_length_c   13.38790990
_cell_angle_alpha   90.00000000
_cell_angle_beta   90.00000000
_cell_angle_gamma   119.99999973
_symmetry_Int_Tables_number   1
_chemical_formula_structural   InBi37Br48
_chemical_formula_sum   'In2 Bi74 Br96'
_cell_volume   6090.16807544
_cell_formula_units_Z   2
loop_
 _symmetry_equiv_pos_site_id
 _symmetry_equiv_pos_as_xyz
  1  'x, y, z'
loop_
 _atom_site_type_symbol
 _atom_site_label
 _atom_site_symmetry_multiplicity
 _atom_site_fract_x
 _atom_site_fract_y
 _atom_site_fract_z
 _atom_site_occupancy
  In  In0  1  0.66666700  0.33333300  0.98840483  1
  In  In1  1  0.33333300  0.66666700  0.48840483  1
  Bi  Bi2  1  0.69274014  0.19303845  0.76828356  1
  Bi  Bi3  1  0.25951868  0.24261035  0.71520906  1
  Bi  Bi4  1  0.76211832  0.56330316  0.58555260  1
  Bi  Bi5  1  0.71664911  0.88602251  0.19827640  1
  Bi  Bi6  1  0.47801856  0.19360976  0.19497917  1
  Bi  Bi7  1  0.19881516  0.76211832  0.08555260  1
  Bi  Bi8  1  0.49970169  0.69274014  0.26828356  1
  Bi  Bi9  1  0.71559121  0.52198144  0.19497917  1
  Bi  Bi10  1  0.88220653  0.67069634  0.89611120  1
  Bi  Bi11  1  0.11397749  0.83062659  0.19827640  1
  Bi  Bi12  1  0.73457734  0.58296844  0.81706655  1
  Bi  Bi13  1  0.98309167  0.74048132  0.71520906  1
  Bi  Bi14  1  0.44635074  0.40751197  0.16485208  1
  Bi  Bi15  1  0.59248803  0.03883877  0.16485208  1
  Bi  Bi16  1  0.16937341  0.28335089  0.19827640  1
  Bi  Bi17  1  0.24261035  0.98309167  0.21520906  1
  Bi  Bi18  1  0.39743810  0.35912445  0.79899372  1
  Bi  Bi19  1  0.96168635  0.60256190  0.79899372  1
  Bi  Bi20  1  0.80118484  0.23788168  0.58555260  1
  Bi  Bi21  1  0.95666117  0.87216976  0.05589337  1
  Bi  Bi22  1  0.41703156  0.15160890  0.81706655  1
  Bi  Bi23  1  0.35912445  0.96168635  0.29899372  1
  Bi  Bi24  1  0.12783024  0.08449141  0.05589337  1
  Bi  Bi25  1  0.56330316  0.80118484  0.08555260  1
  Bi  Bi26  1  0.30725986  0.80696155  0.26828356  1
  Bi  Bi27  1  0.26542266  0.41703156  0.31706655  1
  Bi  Bi28  1  0.58296844  0.84839110  0.31706655  1
  Bi  Bi29  1  0.80696155  0.49970169  0.76828356  1
  Bi  Bi30  1  0.78624087  0.09811841  0.51406325  1
  Bi  Bi31  1  0.96116123  0.55364926  0.16485208  1
  Bi  Bi32  1  0.19360976  0.71559121  0.69497917  1
  Bi  Bi33  1  0.40751197  0.96116123  0.66485208  1
  Bi  Bi34  1  0.84839110  0.26542266  0.81706655  1
  Bi  Bi35  1  0.23788168  0.43669684  0.08555260  1
  Bi  Bi36  1  0.88602251  0.16937341  0.69827640  1
  Bi  Bi37  1  0.75738965  0.01690833  0.71520906  1
  Bi  Bi38  1  0.64087555  0.03831365  0.79899372  1
  Bi  Bi39  1  0.83062659  0.71664911  0.69827640  1
  Bi  Bi40  1  0.03883877  0.44635074  0.66485208  1
  Bi  Bi41  1  0.28440879  0.47801856  0.69497917  1
  Bi  Bi42  1  0.65408873  0.09610307  0.58156099  1
  Bi  Bi43  1  0.08449141  0.95666117  0.55589337  1
  Bi  Bi44  1  0.31187754  0.21375913  0.51406325  1
  Bi  Bi45  1  0.60256190  0.64087555  0.29899372  1
  Bi  Bi46  1  0.87216976  0.91550859  0.55589337  1
  Bi  Bi47  1  0.74048132  0.75738965  0.21520906  1
  Bi  Bi48  1  0.67069634  0.78848981  0.39611120  1
  Bi  Bi49  1  0.55364926  0.59248803  0.66485208  1
  Bi  Bi50  1  0.66666700  0.33333300  0.43844125  1
  Bi  Bi51  1  0.33333300  0.66666700  0.93844125  1
  Bi  Bi52  1  0.68812246  0.78624087  0.01406325  1
  Bi  Bi53  1  0.43669684  0.19881516  0.58555260  1
  Bi  Bi54  1  0.90389693  0.55798565  0.58156099  1
  Bi  Bi55  1  0.32930366  0.21151019  0.89611120  1
  Bi  Bi56  1  0.80639024  0.28440879  0.19497917  1
  Bi  Bi57  1  0.34591127  0.90389693  0.08156099  1
  Bi  Bi58  1  0.21151019  0.88220653  0.39611120  1
  Bi  Bi59  1  0.15160890  0.73457734  0.31706655  1
  Bi  Bi60  1  0.44201435  0.34591127  0.58156099  1
  Bi  Bi61  1  0.52198144  0.80639024  0.69497917  1
  Bi  Bi62  1  0.01690833  0.25951868  0.21520906  1
  Bi  Bi63  1  0.11779347  0.32930366  0.39611120  1
  Bi  Bi64  1  0.19303845  0.50029831  0.26828356  1
  Bi  Bi65  1  0.91550859  0.04333883  0.05589337  1
  Bi  Bi66  1  0.55798565  0.65408873  0.08156099  1
  Bi  Bi67  1  0.09811841  0.31187754  0.01406325  1
  Bi  Bi68  1  0.50029831  0.30725986  0.76828356  1
  Bi  Bi69  1  0.04333883  0.12783024  0.55589337  1
  Bi  Bi70  1  0.21375913  0.90188159  0.01406325  1
  Bi  Bi71  1  0.09610307  0.44201435  0.08156099  1
  Bi  Bi72  1  0.90188159  0.68812246  0.51406325  1
  Bi  Bi73  1  0.03831365  0.39743810  0.29899372  1
  Bi  Bi74  1  0.28335089  0.11397749  0.69827640  1
  Bi  Bi75  1  0.78848981  0.11779347  0.89611120  1
  Br  Br76  1  0.92110999  0.76529511  0.17693733  1
  Br  Br77  1  0.15967285  0.19904045  0.94222948  1
  Br  Br78  1  0.42735126  0.51161862  0.23818253  1
  Br  Br79  1  0.71075461  0.61393252  0.06068182  1
  Br  Br80  1  0.76669470  0.63078430  0.32164040  1
  Br  Br81  1  0.47687045  0.70763963  0.86330157  1
  Br  Br82  1  0.58916160  0.22187172  0.55975695  1
  Br  Br83  1  0.48858882  0.51115902  0.50482367  1
  Br  Br84  1  0.48884098  0.97742980  0.50482367  1
  Br  Br85  1  0.76529511  0.84418512  0.67693733  1
  Br  Br86  1  0.47817946  0.89281521  0.77842700  1
  Br  Br87  1  0.97395415  0.32779649  0.55244190  1
  Br  Br88  1  0.20392495  0.04399604  0.93539477  1
  Br  Br89  1  0.02257020  0.51141118  0.50482367  1
  Br  Br90  1  0.97742980  0.48858882  0.00482367  1
  Br  Br91  1  0.04399604  0.84007108  0.43539477  1
  Br  Br92  1  0.33333300  0.66666700  0.68917421  1
  Br  Br93  1  0.19904045  0.03936761  0.44222948  1
  Br  Br94  1  0.79607505  0.95600396  0.43539477  1
  Br  Br95  1  0.36921570  0.13591039  0.32164040  1
  Br  Br96  1  0.00000000  0.00000000  0.42881649  1
  Br  Br97  1  0.15992892  0.20392495  0.43539477  1
  Br  Br98  1  0.66666700  0.33333300  0.18917421  1
  Br  Br99  1  0.61393252  0.90317791  0.56068182  1
  Br  Br100  1  0.02604585  0.67220351  0.05244190  1
  Br  Br101  1  0.80095955  0.96063239  0.94222948  1
  Br  Br102  1  0.23330530  0.36921570  0.82164040  1
  Br  Br103  1  0.32901619  0.97295485  0.83590041  1
  Br  Br104  1  0.70943739  0.16481252  0.07694194  1
  Br  Br105  1  0.15581488  0.92110999  0.67693733  1
  Br  Br106  1  0.95600396  0.15992892  0.93539477  1
  Br  Br107  1  0.07689990  0.95938414  0.18434008  1
  Br  Br108  1  0.77812828  0.36728988  0.55975695  1
  Br  Br109  1  0.67220351  0.64615766  0.55244190  1
  Br  Br110  1  0.92310010  0.04061586  0.68434008  1
  Br  Br111  1  0.83518748  0.54462487  0.07694194  1
  Br  Br112  1  0.89281521  0.41463576  0.27842700  1
  Br  Br113  1  0.97295485  0.64393865  0.33590041  1
  Br  Br114  1  0.11751575  0.07689990  0.68434008  1
  Br  Br115  1  0.36728988  0.58916160  0.05975695  1
  Br  Br116  1  0.38606748  0.09682209  0.06068182  1
  Br  Br117  1  0.96063239  0.15967285  0.44222948  1
  Br  Br118  1  0.64615766  0.97395415  0.05244190  1
  Br  Br119  1  0.08426736  0.57264874  0.23818253  1
  Br  Br120  1  0.63271012  0.41083840  0.55975695  1
  Br  Br121  1  0.91573264  0.42735126  0.73818253  1
  Br  Br122  1  0.84007108  0.79607505  0.93539477  1
  Br  Br123  1  0.43489648  0.78955137  0.48880176  1
  Br  Br124  1  0.64393865  0.67098381  0.83590041  1
  Br  Br125  1  0.84032715  0.80095955  0.44222948  1
  Br  Br126  1  0.07889001  0.23470489  0.67693733  1
  Br  Br127  1  0.03936761  0.84032715  0.94222948  1
  Br  Br128  1  0.00000000  0.00000000  0.92881649  1
  Br  Br129  1  0.52312955  0.29236037  0.36330157  1
  Br  Br130  1  0.13591039  0.76669470  0.82164040  1
  Br  Br131  1  0.67098381  0.02704515  0.33590041  1
  Br  Br132  1  0.76923082  0.47687045  0.36330157  1
  Br  Br133  1  0.32779649  0.35384234  0.05244190  1
  Br  Br134  1  0.56510352  0.21044863  0.98880176  1
  Br  Br135  1  0.45537513  0.29056261  0.07694194  1
  Br  Br136  1  0.21044863  0.64534511  0.48880176  1
  Br  Br137  1  0.16481252  0.45537513  0.57694194  1
  Br  Br138  1  0.86408961  0.23330530  0.32164040  1
  Br  Br139  1  0.29056261  0.83518748  0.57694194  1
  Br  Br140  1  0.57264874  0.48838138  0.73818253  1
  Br  Br141  1  0.51161862  0.08426736  0.73818253  1
  Br  Br142  1  0.09682209  0.71075461  0.56068182  1
  Br  Br143  1  0.51141118  0.48884098  0.00482367  1
  Br  Br144  1  0.41083840  0.77812828  0.05975695  1
  Br  Br145  1  0.35606135  0.32901619  0.33590041  1
  Br  Br146  1  0.23470489  0.15581488  0.17693733  1
  Br  Br147  1  0.54462487  0.70943739  0.57694194  1
  Br  Br148  1  0.90317791  0.28924539  0.06068182  1
  Br  Br149  1  0.66666700  0.33333300  0.78794255  1
  Br  Br150  1  0.29236037  0.76923082  0.86330157  1
  Br  Br151  1  0.35465489  0.56510352  0.48880176  1
  Br  Br152  1  0.28924539  0.38606748  0.56068182  1
  Br  Br153  1  0.70763963  0.23076918  0.36330157  1
  Br  Br154  1  0.41463576  0.52182054  0.77842700  1
  Br  Br155  1  0.48838138  0.91573264  0.23818253  1
  Br  Br156  1  0.22187172  0.63271012  0.05975695  1
  Br  Br157  1  0.58536424  0.47817946  0.27842700  1
  Br  Br158  1  0.64534511  0.43489648  0.98880176  1
  Br  Br159  1  0.33333300  0.66666700  0.28794255  1
  Br  Br160  1  0.02704515  0.35606135  0.83590041  1
  Br  Br161  1  0.51115902  0.02257020  0.00482367  1
  Br  Br162  1  0.52182054  0.10718479  0.27842700  1
  Br  Br163  1  0.84418512  0.07889001  0.17693733  1
  Br  Br164  1  0.63078430  0.86408961  0.82164040  1
  Br  Br165  1  0.10718479  0.58536424  0.77842700  1
  Br  Br166  1  0.23076918  0.52312955  0.86330157  1
  Br  Br167  1  0.78955137  0.35465489  0.98880176  1
  Br  Br168  1  0.95938414  0.88248425  0.68434008  1
  Br  Br169  1  0.88248425  0.92310010  0.18434008  1
  Br  Br170  1  0.04061586  0.11751575  0.18434008  1
  Br  Br171  1  0.35384234  0.02604585  0.55244190  1
