# generated using pymatgen
data_TiSi4(NCl7)2
_symmetry_space_group_name_H-M   'P 1'
_cell_length_a   12.56449364
_cell_length_b   12.87873705
_cell_length_c   14.97232329
_cell_angle_alpha   90.00000000
_cell_angle_beta   90.00000000
_cell_angle_gamma   90.00000000
_symmetry_Int_Tables_number   1
_chemical_formula_structural   TiSi4(NCl7)2
_chemical_formula_sum   'Ti4 Si16 N8 Cl56'
_cell_volume   2422.74364478
_cell_formula_units_Z   4
loop_
 _symmetry_equiv_pos_site_id
 _symmetry_equiv_pos_as_xyz
  1  'x, y, z'
loop_
 _atom_site_type_symbol
 _atom_site_label
 _atom_site_symmetry_multiplicity
 _atom_site_fract_x
 _atom_site_fract_y
 _atom_site_fract_z
 _atom_site_occupancy
  Ti  Ti0  1  0.26556680  0.79046196  0.20803339  1
  Ti  Ti1  1  0.73443320  0.29046196  0.29196661  1
  Ti  Ti2  1  0.76556680  0.70953804  0.79196661  1
  Ti  Ti3  1  0.23443320  0.20953804  0.70803339  1
  Si  Si4  1  0.42447091  0.93215979  0.33542472  1
  Si  Si5  1  0.92447091  0.56784021  0.66457528  1
  Si  Si6  1  0.48045513  0.22171018  0.72214923  1
  Si  Si7  1  0.88526915  0.13819559  0.41942680  1
  Si  Si8  1  0.57552909  0.43215979  0.16457528  1
  Si  Si9  1  0.61473085  0.86180441  0.91942680  1
  Si  Si10  1  0.07552909  0.06784021  0.83542472  1
  Si  Si11  1  0.98045513  0.27828982  0.27785077  1
  Si  Si12  1  0.83340725  0.77102617  0.59726723  1
  Si  Si13  1  0.11473085  0.63819559  0.08057320  1
  Si  Si14  1  0.33340725  0.72897383  0.40273277  1
  Si  Si15  1  0.66659275  0.22897383  0.09726723  1
  Si  Si16  1  0.51954487  0.72171018  0.77785077  1
  Si  Si17  1  0.16659275  0.27102617  0.90273277  1
  Si  Si18  1  0.38526915  0.36180441  0.58057320  1
  Si  Si19  1  0.01954487  0.77828982  0.22214923  1
  N  N20  1  0.37313976  0.27393991  0.66748810  1
  N  N21  1  0.12686024  0.72606009  0.16748810  1
  N  N22  1  0.62686024  0.77393991  0.83251190  1
  N  N23  1  0.65643055  0.32427014  0.17713788  1
  N  N24  1  0.34356945  0.82427014  0.32286212  1
  N  N25  1  0.84356945  0.67572986  0.67713788  1
  N  N26  1  0.87313976  0.22606009  0.33251190  1
  N  N27  1  0.15643055  0.17572986  0.82286212  1
  Cl  Cl28  1  0.90905631  0.37266727  0.18283192  1
  Cl  Cl29  1  0.23972861  0.22427596  0.01772280  1
  Cl  Cl30  1  0.52629510  0.15713107  0.06752405  1
  Cl  Cl31  1  0.42617091  0.82649685  0.71225153  1
  Cl  Cl32  1  0.49863758  0.93107846  0.45755123  1
  Cl  Cl33  1  0.57343657  0.12778075  0.64483715  1
  Cl  Cl34  1  0.95994353  0.06584897  0.73918123  1
  Cl  Cl35  1  0.73236944  0.43681605  0.36749601  1
  Cl  Cl36  1  0.26763056  0.93681605  0.13250399  1
  Cl  Cl37  1  0.45994353  0.43415103  0.26081877  1
  Cl  Cl38  1  0.59094369  0.62733273  0.68283192  1
  Cl  Cl39  1  0.50136242  0.43107846  0.04244877  1
  Cl  Cl40  1  0.18386722  0.49900108  0.11216328  1
  Cl  Cl41  1  0.88307268  0.80435278  0.86275735  1
  Cl  Cl42  1  0.68138250  0.80687527  0.03462854  1
  Cl  Cl43  1  0.26027139  0.77572404  0.51772280  1
  Cl  Cl44  1  0.54005647  0.93415103  0.23918123  1
  Cl  Cl45  1  0.33923128  0.06758373  0.32947829  1
  Cl  Cl46  1  0.40905631  0.12733273  0.81716808  1
  Cl  Cl47  1  0.09094369  0.87266727  0.31716808  1
  Cl  Cl48  1  0.57382909  0.32649685  0.78774847  1
  Cl  Cl49  1  0.92656343  0.87221925  0.14483715  1
  Cl  Cl50  1  0.83923128  0.43241627  0.67052171  1
  Cl  Cl51  1  0.45736821  0.88958330  0.94688636  1
  Cl  Cl52  1  0.04263179  0.11041670  0.44688636  1
  Cl  Cl53  1  0.81861750  0.19312473  0.53462854  1
  Cl  Cl54  1  0.61692732  0.19564722  0.36275735  1
  Cl  Cl55  1  0.23632246  0.61867927  0.34323836  1
  Cl  Cl56  1  0.99863758  0.56892154  0.54244877  1
  Cl  Cl57  1  0.23236944  0.06318395  0.63250399  1
  Cl  Cl58  1  0.04005647  0.56584897  0.76081877  1
  Cl  Cl59  1  0.18138250  0.69312473  0.96537146  1
  Cl  Cl60  1  0.76027139  0.72427596  0.48227720  1
  Cl  Cl61  1  0.47370490  0.65713107  0.43247595  1
  Cl  Cl62  1  0.76367754  0.11867927  0.15676164  1
  Cl  Cl63  1  0.54263179  0.38958330  0.55311364  1
  Cl  Cl64  1  0.02629510  0.34286893  0.93247595  1
  Cl  Cl65  1  0.73632246  0.88132073  0.65676164  1
  Cl  Cl66  1  0.38307268  0.69564722  0.13724265  1
  Cl  Cl67  1  0.68386722  0.00099892  0.88783672  1
  Cl  Cl68  1  0.11692732  0.30435278  0.63724265  1
  Cl  Cl69  1  0.31861750  0.30687527  0.46537146  1
  Cl  Cl70  1  0.42656343  0.62778075  0.85516285  1
  Cl  Cl71  1  0.95736821  0.61041670  0.05311364  1
  Cl  Cl72  1  0.97370490  0.84286893  0.56752405  1
  Cl  Cl73  1  0.76763056  0.56318395  0.86749601  1
  Cl  Cl74  1  0.07382909  0.17350315  0.21225153  1
  Cl  Cl75  1  0.26367754  0.38132073  0.84323836  1
  Cl  Cl76  1  0.31613278  0.50099892  0.61216328  1
  Cl  Cl77  1  0.92617091  0.67350315  0.28774847  1
  Cl  Cl78  1  0.66076872  0.56758373  0.17052171  1
  Cl  Cl79  1  0.16076872  0.93241627  0.82947829  1
  Cl  Cl80  1  0.81613278  0.99900108  0.38783672  1
  Cl  Cl81  1  0.73972861  0.27572404  0.98227720  1
  Cl  Cl82  1  0.00136242  0.06892154  0.95755123  1
  Cl  Cl83  1  0.07343657  0.37221925  0.35516285  1
