# generated using pymatgen
data_Ce3Nd2O9
_symmetry_space_group_name_H-M   'P 1'
_cell_length_a   3.90021249
_cell_length_b   19.60847289
_cell_length_c   17.98946340
_cell_angle_alpha   10.84271727
_cell_angle_beta   57.21744000
_cell_angle_gamma   60.21514060
_symmetry_Int_Tables_number   1
_chemical_formula_structural   Ce3Nd2O9
_chemical_formula_sum   'Ce3 Nd2 O9'
_cell_volume   212.17644217
_cell_formula_units_Z   1
loop_
 _symmetry_equiv_pos_site_id
 _symmetry_equiv_pos_as_xyz
  1  'x, y, z'
loop_
 _atom_site_type_symbol
 _atom_site_label
 _atom_site_symmetry_multiplicity
 _atom_site_fract_x
 _atom_site_fract_y
 _atom_site_fract_z
 _atom_site_occupancy
  Ce  Ce0  1  0.99154254  0.39790115  0.00611462  1
  Ce  Ce1  1  0.00549321  0.59942134  0.00001680  1
  Ce  Ce2  1  0.01787633  0.80420009  0.99084522  1
  Nd  Nd3  1  0.04149519  0.02053171  0.96435816  1
  Nd  Nd4  1  0.96171085  0.18320487  0.03086270  1
  O  O5  1  0.20832921  0.03171070  0.28418117  1
  O  O6  1  0.26340463  0.25755478  0.23823109  1
  O  O7  1  0.24760671  0.44114388  0.26202647  1
  O  O8  1  0.29642356  0.67306040  0.21011447  1
  O  O9  1  0.74318285  0.14182117  0.76218432  1
  O  O10  1  0.74845745  0.35017282  0.74940410  1
  O  O11  1  0.76061230  0.56290092  0.73199812  1
  O  O12  1  0.73393100  0.73963548  0.76813563  1
  O  O13  1  0.77683819  0.95898369  0.73242014  1
