# generated using pymatgen
data_Ba3PrF9
_symmetry_space_group_name_H-M   'P 1'
_cell_length_a   4.23467237
_cell_length_b   4.37619371
_cell_length_c   17.71135070
_cell_angle_alpha   60.17805369
_cell_angle_beta   60.67591591
_cell_angle_gamma   61.29724308
_symmetry_Int_Tables_number   1
_chemical_formula_structural   Ba3PrF9
_chemical_formula_sum   'Ba3 Pr1 F9'
_cell_volume   235.79970289
_cell_formula_units_Z   1
loop_
 _symmetry_equiv_pos_site_id
 _symmetry_equiv_pos_as_xyz
  1  'x, y, z'
loop_
 _atom_site_type_symbol
 _atom_site_label
 _atom_site_symmetry_multiplicity
 _atom_site_fract_x
 _atom_site_fract_y
 _atom_site_fract_z
 _atom_site_occupancy
  Ba  Ba0  1  0.95614596  0.06998564  0.00184700  1
  Ba  Ba1  1  0.91923311  0.05461814  0.26038115  1
  Ba  Ba2  1  0.93056070  0.01521422  0.51955851  1
  Pr  Pr3  1  0.94434250  0.95279053  0.77228231  1
  F  F4  1  0.17542202  0.31020779  0.07749570  1
  F  F5  1  0.67607076  0.80461652  0.19516205  1
  F  F6  1  0.15694163  0.24108826  0.60124977  1
  F  F7  1  0.15590788  0.29531568  0.33121360  1
  F  F8  1  0.68249580  0.75899192  0.45773026  1
  F  F9  1  0.27424596  0.31713031  0.77943682  1
  F  F10  1  0.69695169  0.77850665  0.69810095  1
  F  F11  1  0.50836119  0.57899094  0.86984371  1
  F  F12  1  0.72732080  0.82254341  0.93569818  1
