# generated using pymatgen
data_Li2Ti(PO3)5
_symmetry_space_group_name_H-M   'P 1'
_cell_length_a   12.63774162
_cell_length_b   9.62162673
_cell_length_c   5.33307996
_cell_angle_alpha   90.00000000
_cell_angle_beta   94.50001615
_cell_angle_gamma   90.00000000
_symmetry_Int_Tables_number   1
_chemical_formula_structural   Li2Ti(PO3)5
_chemical_formula_sum   'Li4 Ti2 P10 O30'
_cell_volume   646.48017135
_cell_formula_units_Z   2
loop_
 _symmetry_equiv_pos_site_id
 _symmetry_equiv_pos_as_xyz
  1  'x, y, z'
loop_
 _atom_site_type_symbol
 _atom_site_label
 _atom_site_symmetry_multiplicity
 _atom_site_fract_x
 _atom_site_fract_y
 _atom_site_fract_z
 _atom_site_occupancy
  Li  Li0  1  0.93792663  0.39691935  0.87263467  1
  Li  Li1  1  0.07216713  0.58943057  0.12791902  1
  Li  Li2  1  0.43792663  0.60308065  0.37263467  1
  Li  Li3  1  0.57216713  0.41056943  0.62791902  1
  Ti  Ti4  1  0.99526776  0.00469806  0.00510207  1
  Ti  Ti5  1  0.49526776  0.99530194  0.50510207  1
  P  P6  1  0.86205373  0.52273619  0.37784007  1
  P  P7  1  0.24526630  0.01278406  0.26282503  1
  P  P8  1  0.74526630  0.98721594  0.76282503  1
  P  P9  1  0.40621869  0.17670313  0.00827758  1
  P  P10  1  0.58638532  0.81550371  0.00097974  1
  P  P11  1  0.36205373  0.47726381  0.87784007  1
  P  P12  1  0.14356342  0.47997176  0.61515271  1
  P  P13  1  0.90621869  0.82329687  0.50827758  1
  P  P14  1  0.64356342  0.52002824  0.11515271  1
  P  P15  1  0.08638532  0.18449629  0.50097974  1
  O  O16  1  0.50946863  0.86027565  0.78294661  1
  O  O17  1  0.28935090  0.11883025  0.05734531  1
  O  O18  1  0.75300606  0.57936166  0.24224213  1
  O  O19  1  0.65085958  0.06161547  0.63508840  1
  O  O20  1  0.60757805  0.65694820  0.94831723  1
  O  O21  1  0.39412673  0.33836468  0.04489174  1
  O  O22  1  0.93282975  0.85765067  0.24518931  1
  O  O23  1  0.15085958  0.93838453  0.13508840  1
  O  O24  1  0.05265660  0.16016024  0.76206297  1
  O  O25  1  0.43666825  0.49392547  0.67444548  1
  O  O26  1  0.34933032  0.59128575  0.06077209  1
  O  O27  1  0.84933032  0.40871425  0.56077209  1
  O  O28  1  0.20133381  0.11470239  0.47490876  1
  O  O29  1  0.06921325  0.49556355  0.81844936  1
  O  O30  1  0.56921325  0.50443645  0.31844936  1
  O  O31  1  0.98392153  0.87188424  0.72189486  1
  O  O32  1  0.55265660  0.83983976  0.26206297  1
  O  O33  1  0.43282975  0.14234933  0.74518931  1
  O  O34  1  0.15753603  0.59432485  0.43300480  1
  O  O35  1  0.83766953  0.06671673  0.88671007  1
  O  O36  1  0.89412673  0.66163532  0.54489174  1
  O  O37  1  0.33766953  0.93328327  0.38671007  1
  O  O38  1  0.00946863  0.13972435  0.28294661  1
  O  O39  1  0.93666825  0.50607453  0.17444548  1
  O  O40  1  0.10757805  0.34305180  0.44831723  1
  O  O41  1  0.65753603  0.40567515  0.93300480  1
  O  O42  1  0.70133381  0.88529761  0.97490876  1
  O  O43  1  0.25300606  0.42063834  0.74224213  1
  O  O44  1  0.78935090  0.88116975  0.55734531  1
  O  O45  1  0.48392153  0.12811576  0.22189486  1
