# generated using pymatgen
data_Na3Cr11Se20
_symmetry_space_group_name_H-M   'P 1'
_cell_length_a   12.96143690
_cell_length_b   12.96143690
_cell_length_c   64.70777610
_cell_angle_alpha   16.24118372
_cell_angle_beta   16.24118375
_cell_angle_gamma   16.32709754
_symmetry_Int_Tables_number   1
_chemical_formula_structural   Na3Cr11Se20
_chemical_formula_sum   'Na3 Cr11 Se20'
_cell_volume   743.89076367
_cell_formula_units_Z   1
loop_
 _symmetry_equiv_pos_site_id
 _symmetry_equiv_pos_as_xyz
  1  'x, y, z'
loop_
 _atom_site_type_symbol
 _atom_site_label
 _atom_site_symmetry_multiplicity
 _atom_site_fract_x
 _atom_site_fract_y
 _atom_site_fract_z
 _atom_site_occupancy
  Na  Na0  1  0.68540055  0.68540055  0.52493573  1
  Na  Na1  1  0.65695894  0.65695894  0.73500004  1
  Na  Na2  1  0.64910940  0.64910940  0.93945319  1
  Cr  Cr3  1  0.41883476  0.41883476  0.08772292  1
  Cr  Cr4  1  0.58588864  0.58588864  0.11053195  1
  Cr  Cr5  1  0.44264883  0.44264883  0.27515548  1
  Cr  Cr6  1  0.49600031  0.49600031  0.30163185  1
  Cr  Cr7  1  0.57152640  0.57152640  0.31874024  1
  Cr  Cr8  1  0.41939244  0.41939244  0.48800521  1
  Cr  Cr9  1  0.57768641  0.57768641  0.51368806  1
  Cr  Cr10  1  0.43011005  0.43011005  0.68169214  1
  Cr  Cr11  1  0.50784438  0.50784438  0.70024026  1
  Cr  Cr12  1  0.41063134  0.41063134  0.89186433  1
  Cr  Cr13  1  0.58811362  0.58811362  0.90848516  1
  Se  Se14  1  0.05102711  0.05102711  0.01317653  1
  Se  Se15  1  0.21112903  0.21112903  0.03887454  1
  Se  Se16  1  0.05970164  0.05970164  0.20789483  1
  Se  Se17  1  0.20237539  0.20237539  0.24128766  1
  Se  Se18  1  0.05957309  0.05957309  0.41078379  1
  Se  Se19  1  0.79573096  0.79573096  0.15919174  1
  Se  Se20  1  0.20413916  0.20413916  0.44111845  1
  Se  Se21  1  0.94100633  0.94100633  0.18960030  1
  Se  Se22  1  0.05937889  0.05937889  0.60867479  1
  Se  Se23  1  0.79895912  0.79895912  0.35775927  1
  Se  Se24  1  0.18727550  0.18727550  0.64896373  1
  Se  Se25  1  0.94501575  0.94501575  0.38892629  1
  Se  Se26  1  0.05234317  0.05234317  0.81260482  1
  Se  Se27  1  0.78589644  0.78589644  0.56316987  1
  Se  Se28  1  0.19122946  0.19122946  0.84489430  1
  Se  Se29  1  0.95772752  0.95772752  0.58319109  1
  Se  Se30  1  0.80022707  0.80022707  0.75742934  1
  Se  Se31  1  0.93195873  0.93195873  0.79204740  1
  Se  Se32  1  0.79471112  0.79471112  0.95953148  1
  Se  Se33  1  0.94634846  0.94634846  0.98691322  1
