# generated using pymatgen
data_MgTi3Pb5WO15
_symmetry_space_group_name_H-M   'P 1'
_cell_length_a   8.03990487
_cell_length_b   5.68507126
_cell_length_c   19.88940299
_cell_angle_alpha   90.00000000
_cell_angle_beta   90.00000000
_cell_angle_gamma   45.00000000
_symmetry_Int_Tables_number   1
_chemical_formula_structural   MgTi3Pb5WO15
_chemical_formula_sum   'Mg2 Ti6 Pb10 W2 O30'
_cell_volume   642.82620473
_cell_formula_units_Z   2
loop_
 _symmetry_equiv_pos_site_id
 _symmetry_equiv_pos_as_xyz
  1  'x, y, z'
loop_
 _atom_site_type_symbol
 _atom_site_label
 _atom_site_symmetry_multiplicity
 _atom_site_fract_x
 _atom_site_fract_y
 _atom_site_fract_z
 _atom_site_occupancy
  Mg  Mg0  1  0.50000000  0.50000000  0.89858545  1
  Mg  Mg1  1  0.00000000  0.50000000  0.10141455  1
  Ti  Ti2  1  0.00000000  0.50000000  0.29606414  1
  Ti  Ti3  1  0.00000000  0.50000000  0.69551841  1
  Ti  Ti4  1  0.50000000  0.50000000  0.30448159  1
  Ti  Ti5  1  0.50000000  0.50000000  0.70393586  1
  Ti  Ti6  1  0.50000000  0.50000000  0.50368125  1
  Ti  Ti7  1  0.00000000  0.50000000  0.49631875  1
  Pb  Pb8  1  0.00000000  0.00000000  0.00000000  1
  Pb  Pb9  1  0.00000000  0.00000000  0.20319305  1
  Pb  Pb10  1  0.00000000  0.00000000  0.40065777  1
  Pb  Pb11  1  0.00000000  0.00000000  0.79680695  1
  Pb  Pb12  1  0.50000000  0.00000000  0.00000000  1
  Pb  Pb13  1  0.50000000  0.00000000  0.20319305  1
  Pb  Pb14  1  0.50000000  0.00000000  0.40065777  1
  Pb  Pb15  1  0.50000000  0.00000000  0.79680695  1
  Pb  Pb16  1  0.00000000  0.00000000  0.59934223  1
  Pb  Pb17  1  0.50000000  0.00000000  0.59934223  1
  W  W18  1  0.50000000  0.50000000  0.09936049  1
  W  W19  1  0.00000000  0.50000000  0.90063951  1
  O  O20  1  0.25854019  0.98291961  0.09992088  1
  O  O21  1  0.00000000  0.50000000  0.99743848  1
  O  O22  1  0.00000000  0.50000000  0.20479365  1
  O  O23  1  0.24874826  0.00250348  0.69993897  1
  O  O24  1  0.00000000  0.50000000  0.40189571  1
  O  O25  1  0.00000000  0.50000000  0.60094031  1
  O  O26  1  0.24145981  0.01708039  0.90007912  1
  O  O27  1  0.00000000  0.50000000  0.80070714  1
  O  O28  1  0.25854019  0.50000000  0.09992088  1
  O  O29  1  0.25125174  0.50000000  0.30006103  1
  O  O30  1  0.25000000  0.50000000  0.50000000  1
  O  O31  1  0.24874826  0.50000000  0.69993897  1
  O  O32  1  0.24145981  0.50000000  0.90007912  1
  O  O33  1  0.74145981  0.01708039  0.09992088  1
  O  O34  1  0.50000000  0.50000000  0.00256152  1
  O  O35  1  0.50000000  0.50000000  0.19929286  1
  O  O36  1  0.75125174  0.99749652  0.69993897  1
  O  O37  1  0.75854019  0.98291961  0.90007912  1
  O  O38  1  0.50000000  0.50000000  0.39905969  1
  O  O39  1  0.50000000  0.50000000  0.79520635  1
  O  O40  1  0.25125174  0.99749652  0.30006103  1
  O  O41  1  0.50000000  0.50000000  0.59810429  1
  O  O42  1  0.25000000  0.00000000  0.50000000  1
  O  O43  1  0.74145981  0.50000000  0.09992088  1
  O  O44  1  0.74874826  0.50000000  0.30006103  1
  O  O45  1  0.75000000  0.50000000  0.50000000  1
  O  O46  1  0.75125174  0.50000000  0.69993897  1
  O  O47  1  0.75854019  0.50000000  0.90007912  1
  O  O48  1  0.74874826  0.00250348  0.30006103  1
  O  O49  1  0.75000000  0.00000000  0.50000000  1
