# generated using pymatgen
data_LiMn(PO3)4
_symmetry_space_group_name_H-M   'P 1'
_cell_length_a   9.44522574
_cell_length_b   10.21941977
_cell_length_c   9.24566315
_cell_angle_alpha   90.00000000
_cell_angle_beta   90.00000000
_cell_angle_gamma   90.00000000
_symmetry_Int_Tables_number   1
_chemical_formula_structural   LiMn(PO3)4
_chemical_formula_sum   'Li4 Mn4 P16 O48'
_cell_volume   892.43510834
_cell_formula_units_Z   4
loop_
 _symmetry_equiv_pos_site_id
 _symmetry_equiv_pos_as_xyz
  1  'x, y, z'
loop_
 _atom_site_type_symbol
 _atom_site_label
 _atom_site_symmetry_multiplicity
 _atom_site_fract_x
 _atom_site_fract_y
 _atom_site_fract_z
 _atom_site_occupancy
  Li  Li0  1  0.99692568  0.17205749  0.60746463  1
  Li  Li1  1  0.00307432  0.82794251  0.10746463  1
  Li  Li2  1  0.49692568  0.32794251  0.89253537  1
  Li  Li3  1  0.50307432  0.67205749  0.39253537  1
  Mn  Mn4  1  0.51012195  0.29295414  0.25139594  1
  Mn  Mn5  1  0.01012195  0.20704586  0.24860406  1
  Mn  Mn6  1  0.48987805  0.70704586  0.75139594  1
  Mn  Mn7  1  0.98987805  0.79295414  0.74860406  1
  P  P8  1  0.27099918  0.97944873  0.74962758  1
  P  P9  1  0.78746630  0.39234712  0.04368455  1
  P  P10  1  0.19534156  0.38810232  0.75147915  1
  P  P11  1  0.80465844  0.61189768  0.25147915  1
  P  P12  1  0.72900082  0.02055127  0.24962758  1
  P  P13  1  0.69534156  0.11189768  0.74852085  1
  P  P14  1  0.21253370  0.60765288  0.54368455  1
  P  P15  1  0.71253370  0.89234712  0.95631545  1
  P  P16  1  0.28746630  0.10765288  0.45631545  1
  P  P17  1  0.70539725  0.89171237  0.54741704  1
  P  P18  1  0.22900082  0.47944873  0.25037242  1
  P  P19  1  0.77099918  0.52055127  0.75037242  1
  P  P20  1  0.79460275  0.39171237  0.45258296  1
  P  P21  1  0.30465844  0.88810232  0.24852085  1
  P  P22  1  0.20539725  0.60828763  0.95258296  1
  P  P23  1  0.29460275  0.10828763  0.04741704  1
  O  O24  1  0.38759066  0.45052227  0.25463599  1
  O  O25  1  0.89773317  0.72830497  0.24439340  1
  O  O26  1  0.11240934  0.95052227  0.74536401  1
  O  O27  1  0.85142254  0.12128472  0.73546822  1
  O  O28  1  0.39773317  0.77169503  0.25560660  1
  O  O29  1  0.10226683  0.27169503  0.74439340  1
  O  O30  1  0.60724706  0.77552123  0.57001239  1
  O  O31  1  0.65280092  0.02459862  0.88989272  1
  O  O32  1  0.61240934  0.54947773  0.75463599  1
  O  O33  1  0.63417971  0.01817776  0.61781155  1
  O  O34  1  0.81195165  0.42078493  0.87513186  1
  O  O35  1  0.61754140  0.78096540  0.91369150  1
  O  O36  1  0.88759066  0.04947773  0.24536401  1
  O  O37  1  0.18804835  0.57921507  0.37513186  1
  O  O38  1  0.30698958  0.07529665  0.87908161  1
  O  O39  1  0.68804835  0.92078493  0.12486814  1
  O  O40  1  0.85775921  0.87612802  0.59047566  1
  O  O41  1  0.36582029  0.98182224  0.11781155  1
  O  O42  1  0.64224079  0.37612802  0.40952434  1
  O  O43  1  0.62910777  0.13512134  0.24984968  1
  O  O44  1  0.86582029  0.51817776  0.38218845  1
  O  O45  1  0.35775921  0.62387198  0.90952434  1
  O  O46  1  0.87089223  0.63512134  0.75015032  1
  O  O47  1  0.37089223  0.86487866  0.74984968  1
  O  O48  1  0.14224079  0.12387198  0.09047566  1
  O  O49  1  0.64857746  0.62128472  0.26453178  1
  O  O50  1  0.69301042  0.92470335  0.37908161  1
  O  O51  1  0.36992579  0.62551842  0.56884025  1
  O  O52  1  0.38245860  0.21903460  0.41369150  1
  O  O53  1  0.86992579  0.87448158  0.93115975  1
  O  O54  1  0.31195165  0.07921507  0.62486814  1
  O  O55  1  0.34719908  0.97540138  0.38989272  1
  O  O56  1  0.19301042  0.57529665  0.12091839  1
  O  O57  1  0.13417971  0.48182224  0.88218845  1
  O  O58  1  0.60226683  0.22830497  0.75560660  1
  O  O59  1  0.10724706  0.72447877  0.92998761  1
  O  O60  1  0.89275294  0.27552123  0.42998761  1
  O  O61  1  0.13007421  0.12551842  0.43115975  1
  O  O62  1  0.11754140  0.71903460  0.58630850  1
  O  O63  1  0.88245860  0.28096540  0.08630850  1
  O  O64  1  0.84719908  0.52459862  0.11010728  1
  O  O65  1  0.35142254  0.37871528  0.76453178  1
  O  O66  1  0.63007421  0.37448158  0.06884025  1
  O  O67  1  0.15280092  0.47540138  0.61010728  1
  O  O68  1  0.39275294  0.22447877  0.07001239  1
  O  O69  1  0.14857746  0.87871528  0.23546822  1
  O  O70  1  0.80698958  0.42470335  0.62091839  1
  O  O71  1  0.12910777  0.36487866  0.25015032  1
