# generated using pymatgen
data_Nd6MnS10
_symmetry_space_group_name_H-M   'P 1'
_cell_length_a   7.42725932
_cell_length_b   7.38743943
_cell_length_c   37.08630636
_cell_angle_alpha   109.71911712
_cell_angle_beta   110.34018699
_cell_angle_gamma   108.41327470
_symmetry_Int_Tables_number   1
_chemical_formula_structural   Nd6MnS10
_chemical_formula_sum   'Nd24 Mn4 S40'
_cell_volume   1564.95666799
_cell_formula_units_Z   4
loop_
 _symmetry_equiv_pos_site_id
 _symmetry_equiv_pos_as_xyz
  1  'x, y, z'
loop_
 _atom_site_type_symbol
 _atom_site_label
 _atom_site_symmetry_multiplicity
 _atom_site_fract_x
 _atom_site_fract_y
 _atom_site_fract_z
 _atom_site_occupancy
  Nd  Nd0  1  0.11181799  0.73969726  0.97154661  1
  Nd  Nd1  1  0.25231095  0.61331679  0.87278406  1
  Nd  Nd2  1  0.12388916  0.76106041  0.77552327  1
  Nd  Nd3  1  0.38346056  0.24252637  0.92483424  1
  Nd  Nd4  1  0.25654712  0.62315800  0.67347637  1
  Nd  Nd5  1  0.08757749  0.72987071  0.56859508  1
  Nd  Nd6  1  0.38346187  0.24980091  0.72914974  1
  Nd  Nd7  1  0.74762465  0.88797296  0.82733901  1
  Nd  Nd8  1  0.25281222  0.61281158  0.47553554  1
  Nd  Nd9  1  0.13502511  0.76165142  0.37597058  1
  Nd  Nd10  1  0.75862016  0.89214990  0.62654085  1
  Nd  Nd11  1  0.39096312  0.25826695  0.52700513  1
  Nd  Nd12  1  0.62341532  0.37465697  0.65125563  1
  Nd  Nd13  1  0.25643648  0.62951694  0.27556254  1
  Nd  Nd14  1  0.11897442  0.74511058  0.17348154  1
  Nd  Nd15  1  0.74827362  0.88747827  0.43009089  1
  Nd  Nd16  1  0.38678812  0.25925736  0.33019669  1
  Nd  Nd17  1  0.24600372  0.62874049  0.07531193  1
  Nd  Nd18  1  0.73795672  0.85086178  0.22055483  1
  Nd  Nd19  1  0.61356480  0.36664051  0.24592205  1
  Nd  Nd20  1  0.87702861  0.13432125  0.35146059  1
  Nd  Nd21  1  0.76444636  0.88423142  0.02641572  1
  Nd  Nd22  1  0.60675804  0.36448106  0.05047794  1
  Nd  Nd23  1  0.86878969  0.12362394  0.14690596  1
  Mn  Mn24  1  0.63266127  0.38254742  0.85193284  1
  Mn  Mn25  1  0.87964848  0.12489029  0.94911273  1
  Mn  Mn26  1  0.87658310  0.13535643  0.75268687  1
  Mn  Mn27  1  0.86679494  0.09954125  0.54248386  1
  S  S28  1  0.99059672  0.86884116  0.70256014  1
  S  S29  1  0.11086824  0.13290069  0.82281114  1
  S  S30  1  0.01473740  0.37263728  0.70019266  1
  S  S31  1  0.38957930  0.50064781  0.80498433  1
  S  S32  1  0.63308604  0.60599841  0.92129403  1
  S  S33  1  0.00881011  0.88789252  0.50517410  1
  S  S34  1  0.48871234  0.98627848  0.97014330  1
  S  S35  1  0.51402219  0.99770791  0.87518375  1
  S  S36  1  0.14769274  0.14797850  0.62754505  1
  S  S37  1  0.01388750  0.35293262  0.50162761  1
  S  S38  1  0.38332476  0.52414103  0.60439111  1
  S  S39  1  0.99903862  0.88088086  0.90208377  1
  S  S40  1  0.63614521  0.63267438  0.72976051  1
  S  S41  1  0.49902762  0.02168542  0.77709368  1
  S  S42  1  0.87240405  0.48067849  0.79634896  1
  S  S43  1  0.97534240  0.36225401  0.89450767  1
  S  S44  1  0.53800250  0.02154991  0.68031435  1
  S  S45  1  0.12434802  0.13195789  0.42826588  1
  S  S46  1  0.34150954  0.50243259  0.39975846  1
  S  S47  1  0.64827009  0.65815725  0.53309532  1
  S  S48  1  0.50306956  0.99659006  0.36858184  1
  S  S49  1  0.47764648  0.99615717  0.57363189  1
  S  S50  1  0.85994719  0.47851020  0.59898659  1
  S  S51  1  0.51772413  0.99579107  0.47783833  1
  S  S52  1  0.14239027  0.14582535  0.22883593  1
  S  S53  1  0.34471494  0.50505022  0.20097026  1
  S  S54  1  0.64791997  0.63530133  0.32715928  1
  S  S55  1  0.86639604  0.51452478  0.39965711  1
  S  S56  1  0.50096565  0.00746122  0.27145889  1
  S  S57  1  0.11297668  0.13787369  0.01788886  1
  S  S58  1  0.37165922  0.50793357  0.99844348  1
  S  S59  1  0.00139930  0.86138122  0.30075628  1
  S  S60  1  0.65261172  0.65724151  0.12985029  1
  S  S61  1  0.49540906  0.98690830  0.17100857  1
  S  S62  1  0.86486083  0.50549569  0.20172013  1
  S  S63  1  0.99554212  0.35530858  0.29832949  1
  S  S64  1  0.49189446  0.99046816  0.06753257  1
  S  S65  1  0.99264211  0.83749317  0.09852874  1
  S  S66  1  0.85656839  0.47523838  0.99646371  1
  S  S67  1  0.98602239  0.35067992  0.09806886  1
