# generated using pymatgen
data_LiNi(PO3)4
_symmetry_space_group_name_H-M   'P 1'
_cell_length_a   9.48459823
_cell_length_b   10.43798867
_cell_length_c   9.21590473
_cell_angle_alpha   90.00000000
_cell_angle_beta   90.00000000
_cell_angle_gamma   90.00000000
_symmetry_Int_Tables_number   1
_chemical_formula_structural   LiNi(PO3)4
_chemical_formula_sum   'Li4 Ni4 P16 O48'
_cell_volume   912.37575587
_cell_formula_units_Z   4
loop_
 _symmetry_equiv_pos_site_id
 _symmetry_equiv_pos_as_xyz
  1  'x, y, z'
loop_
 _atom_site_type_symbol
 _atom_site_label
 _atom_site_symmetry_multiplicity
 _atom_site_fract_x
 _atom_site_fract_y
 _atom_site_fract_z
 _atom_site_occupancy
  Li  Li0  1  0.50112153  0.67162828  0.40093962  1
  Li  Li1  1  0.00112153  0.82837172  0.09906038  1
  Li  Li2  1  0.99887847  0.17162828  0.59906038  1
  Li  Li3  1  0.49887847  0.32837172  0.90093962  1
  Ni  Ni4  1  0.51381479  0.29394990  0.24892113  1
  Ni  Ni5  1  0.98618521  0.79394990  0.75107887  1
  Ni  Ni6  1  0.01381479  0.20605010  0.25107887  1
  Ni  Ni7  1  0.48618521  0.70605010  0.74892113  1
  P  P8  1  0.80868552  0.60626849  0.25312872  1
  P  P9  1  0.78731766  0.38743775  0.04411251  1
  P  P10  1  0.20421109  0.61066125  0.95127471  1
  P  P11  1  0.73140582  0.01554476  0.24867373  1
  P  P12  1  0.79578891  0.38933875  0.45127471  1
  P  P13  1  0.29578891  0.11066125  0.04872529  1
  P  P14  1  0.23140582  0.48445524  0.25132627  1
  P  P15  1  0.21268234  0.61256225  0.54411251  1
  P  P16  1  0.19131448  0.39373151  0.75312872  1
  P  P17  1  0.26859418  0.98445524  0.74867373  1
  P  P18  1  0.28731766  0.11256225  0.45588749  1
  P  P19  1  0.76859418  0.51554476  0.75132627  1
  P  P20  1  0.30868552  0.89373151  0.24687128  1
  P  P21  1  0.69131448  0.10626849  0.74687128  1
  P  P22  1  0.71268234  0.88743775  0.95588749  1
  P  P23  1  0.70421109  0.88933875  0.54872529  1
  O  O24  1  0.88754876  0.04211169  0.24235175  1
  O  O25  1  0.36817088  0.87354844  0.75004630  1
  O  O26  1  0.10130396  0.27632438  0.74212150  1
  O  O27  1  0.35383009  0.62318420  0.90066363  1
  O  O28  1  0.36759734  0.98248957  0.11663142  1
  O  O29  1  0.18635229  0.58498721  0.37612703  1
  O  O30  1  0.13182912  0.37354844  0.24995370  1
  O  O31  1  0.19514882  0.57968828  0.11968209  1
  O  O32  1  0.13240266  0.48248957  0.88336858  1
  O  O33  1  0.11245124  0.95788831  0.74235175  1
  O  O34  1  0.36920820  0.63132664  0.56999848  1
  O  O35  1  0.69514882  0.92031172  0.38031791  1
  O  O36  1  0.15318965  0.87029601  0.22905716  1
  O  O37  1  0.86920820  0.86867336  0.93000152  1
  O  O38  1  0.63182912  0.12645156  0.25004630  1
  O  O39  1  0.65318965  0.62970399  0.27094284  1
  O  O40  1  0.33905210  0.97717325  0.38986016  1
  O  O41  1  0.13079180  0.13132664  0.43000152  1
  O  O42  1  0.81364771  0.41501279  0.87612703  1
  O  O43  1  0.89869604  0.72367562  0.24212150  1
  O  O44  1  0.63079180  0.36867336  0.06999848  1
  O  O45  1  0.66094790  0.02282675  0.88986016  1
  O  O46  1  0.39869604  0.77632438  0.25787850  1
  O  O47  1  0.39461484  0.22266629  0.07171909  1
  O  O48  1  0.30485118  0.07968828  0.88031791  1
  O  O49  1  0.14616991  0.12318420  0.09933637  1
  O  O50  1  0.60130396  0.22367562  0.75787850  1
  O  O51  1  0.38510273  0.21678212  0.40869134  1
  O  O52  1  0.61489727  0.78321788  0.90869134  1
  O  O53  1  0.63240266  0.01751043  0.61663142  1
  O  O54  1  0.31364771  0.08498721  0.62387297  1
  O  O55  1  0.10538516  0.72266629  0.92828091  1
  O  O56  1  0.61245124  0.54211169  0.75764825  1
  O  O57  1  0.16094790  0.47717325  0.61013984  1
  O  O58  1  0.38754876  0.45788831  0.25764825  1
  O  O59  1  0.68635229  0.91501279  0.12387297  1
  O  O60  1  0.11489727  0.71678212  0.59130866  1
  O  O61  1  0.89461484  0.27733371  0.42828091  1
  O  O62  1  0.83905210  0.52282675  0.11013984  1
  O  O63  1  0.80485118  0.42031172  0.61968209  1
  O  O64  1  0.34681035  0.37029601  0.77094284  1
  O  O65  1  0.86759734  0.51751043  0.38336858  1
  O  O66  1  0.85383009  0.87681580  0.59933637  1
  O  O67  1  0.86817088  0.62645156  0.74995370  1
  O  O68  1  0.84681035  0.12970399  0.72905716  1
  O  O69  1  0.60538516  0.77733371  0.57171909  1
  O  O70  1  0.88510273  0.28321788  0.09130866  1
  O  O71  1  0.64616991  0.37681580  0.40066363  1
