# generated using pymatgen
data_U7Cd3O20
_symmetry_space_group_name_H-M   'P 1'
_cell_length_a   7.59196111
_cell_length_b   19.03073695
_cell_length_c   6.59479710
_cell_angle_alpha   29.96451753
_cell_angle_beta   54.39616702
_cell_angle_gamma   59.71108613
_symmetry_Int_Tables_number   1
_chemical_formula_structural   U7Cd3O20
_chemical_formula_sum   'U7 Cd3 O20'
_cell_volume   386.93535791
_cell_formula_units_Z   1
loop_
 _symmetry_equiv_pos_site_id
 _symmetry_equiv_pos_as_xyz
  1  'x, y, z'
loop_
 _atom_site_type_symbol
 _atom_site_label
 _atom_site_symmetry_multiplicity
 _atom_site_fract_x
 _atom_site_fract_y
 _atom_site_fract_z
 _atom_site_occupancy
  U  U0  1  1.00000000  0.99943176  0.00142060  1
  U  U1  1  0.50000000  0.99837442  0.00406394  1
  U  U2  1  0.00000000  0.40056824  0.99857940  1
  U  U3  1  0.50000000  0.20000000  0.00000000  1
  U  U4  1  0.00000000  0.59898301  0.00254248  1
  U  U5  1  0.50000000  0.40162558  0.99593606  1
  U  U6  1  1.00000000  0.80101699  0.99745752  1
  Cd  Cd7  1  0.00000000  0.20000000  0.00000000  1
  Cd  Cd8  1  0.50000000  0.60482778  0.98793055  1
  Cd  Cd9  1  0.50000000  0.79517222  0.01206945  1
  O  O10  1  0.12635959  0.99556410  0.25094182  1
  O  O11  1  0.12977506  0.20000000  0.25891040  1
  O  O12  1  0.63144763  0.00748016  0.22301576  1
  O  O13  1  0.36855237  0.00748016  0.73958346  1
  O  O14  1  0.12635959  0.40443590  0.22876233  1
  O  O15  1  0.60989434  0.20000000  0.25928014  1
  O  O16  1  0.39010566  0.20000000  0.74071986  1
  O  O17  1  0.10478995  0.59861876  0.26815944  1
  O  O18  1  0.87364041  0.99556410  0.77123767  1
  O  O19  1  0.63144763  0.39251984  0.26041654  1
  O  O20  1  0.36855237  0.39251984  0.77698424  1
  O  O21  1  0.10478995  0.80138124  0.26125324  1
  O  O22  1  0.87022494  0.20000000  0.74108960  1
  O  O23  1  0.64327566  0.58910819  0.27009153  1
  O  O24  1  0.35672434  0.58910819  0.78436754  1
  O  O25  1  0.35672434  0.81089181  0.72990847  1
  O  O26  1  0.87364041  0.40443590  0.74905818  1
  O  O27  1  0.64327566  0.81089181  0.21563246  1
  O  O28  1  0.89521005  0.59861876  0.73874676  1
  O  O29  1  0.89521005  0.80138124  0.73184056  1
