# generated using pymatgen
data_Mg(BH4)2
_symmetry_space_group_name_H-M   'P 1'
_cell_length_a   8.77814906
_cell_length_b   8.77814906
_cell_length_c   8.77814906
_cell_angle_alpha   60.00000000
_cell_angle_beta   60.00000000
_cell_angle_gamma   60.00000000
_symmetry_Int_Tables_number   1
_chemical_formula_structural   Mg(BH4)2
_chemical_formula_sum   'Mg4 B8 H32'
_cell_volume   478.29281470
_cell_formula_units_Z   4
loop_
 _symmetry_equiv_pos_site_id
 _symmetry_equiv_pos_as_xyz
  1  'x, y, z'
loop_
 _atom_site_type_symbol
 _atom_site_label
 _atom_site_symmetry_multiplicity
 _atom_site_fract_x
 _atom_site_fract_y
 _atom_site_fract_z
 _atom_site_occupancy
  Mg  Mg0  1  0.37500000  0.37500000  0.37500000  1
  Mg  Mg1  1  0.62500000  0.62500000  0.62500000  1
  Mg  Mg2  1  0.12500000  0.12500000  0.12500000  1
  Mg  Mg3  1  0.87500000  0.87500000  0.87500000  1
  B  B4  1  0.26633319  0.26633319  0.70100043  1
  B  B5  1  0.26633319  0.70100043  0.26633319  1
  B  B6  1  0.70100043  0.26633319  0.26633319  1
  B  B7  1  0.26633319  0.26633319  0.26633319  1
  B  B8  1  0.73366681  0.73366681  0.29899957  1
  B  B9  1  0.73366681  0.29899957  0.73366681  1
  B  B10  1  0.29899957  0.73366681  0.73366681  1
  B  B11  1  0.73366681  0.73366681  0.73366681  1
  H  H12  1  0.20859774  0.20859774  0.87420677  1
  H  H13  1  0.20859774  0.87420677  0.20859774  1
  H  H14  1  0.87420677  0.20859774  0.20859774  1
  H  H15  1  0.20859774  0.20859774  0.20859774  1
  H  H16  1  0.79140226  0.79140226  0.12579323  1
  H  H17  1  0.79140226  0.12579323  0.79140226  1
  H  H18  1  0.12579323  0.79140226  0.79140226  1
  H  H19  1  0.79140226  0.79140226  0.79140226  1
  H  H20  1  0.35940330  0.35940330  0.13004062  1
  H  H21  1  0.65115279  0.13004062  0.35940330  1
  H  H22  1  0.13004062  0.65115279  0.35940330  1
  H  H23  1  0.35940330  0.35940330  0.65115279  1
  H  H24  1  0.13004062  0.35940330  0.35940330  1
  H  H25  1  0.35940330  0.65115279  0.13004062  1
  H  H26  1  0.35940330  0.13004062  0.65115279  1
  H  H27  1  0.65115279  0.35940330  0.35940330  1
  H  H28  1  0.35940330  0.13004062  0.35940330  1
  H  H29  1  0.13004062  0.35940330  0.65115279  1
  H  H30  1  0.65115279  0.35940330  0.13004062  1
  H  H31  1  0.35940330  0.65115279  0.35940330  1
  H  H32  1  0.64059670  0.64059670  0.86995938  1
  H  H33  1  0.34884721  0.86995938  0.64059670  1
  H  H34  1  0.86995938  0.34884721  0.64059670  1
  H  H35  1  0.64059670  0.64059670  0.34884721  1
  H  H36  1  0.86995938  0.64059670  0.64059670  1
  H  H37  1  0.64059670  0.34884721  0.86995938  1
  H  H38  1  0.64059670  0.86995938  0.34884721  1
  H  H39  1  0.34884721  0.64059670  0.64059670  1
  H  H40  1  0.64059670  0.86995938  0.64059670  1
  H  H41  1  0.86995938  0.64059670  0.34884721  1
  H  H42  1  0.34884721  0.64059670  0.86995938  1
  H  H43  1  0.64059670  0.34884721  0.64059670  1
