# generated using pymatgen
data_TaTi9Al3Zn23O48
_symmetry_space_group_name_H-M   'P 1'
_cell_length_a   6.06220087
_cell_length_b   6.05445963
_cell_length_c   36.12178753
_cell_angle_alpha   60.28679238
_cell_angle_beta   60.31435429
_cell_angle_gamma   59.21895442
_symmetry_Int_Tables_number   1
_chemical_formula_structural   TaTi9Al3Zn23O48
_chemical_formula_sum   'Ta1 Ti9 Al3 Zn23 O48'
_cell_volume   935.97914953
_cell_formula_units_Z   1
loop_
 _symmetry_equiv_pos_site_id
 _symmetry_equiv_pos_as_xyz
  1  'x, y, z'
loop_
 _atom_site_type_symbol
 _atom_site_label
 _atom_site_symmetry_multiplicity
 _atom_site_fract_x
 _atom_site_fract_y
 _atom_site_fract_z
 _atom_site_occupancy
  Ta  Ta0  1  0.62404082  0.62371611  0.43846829  1
  Ti  Ti1  1  0.62603100  0.62319772  0.01681632  1
  Ti  Ti2  1  0.62887192  0.62944288  0.09916175  1
  Ti  Ti3  1  0.62417338  0.62396711  0.18371147  1
  Ti  Ti4  1  0.62828091  0.62820911  0.26636507  1
  Ti  Ti5  1  0.62381247  0.62399507  0.35086213  1
  Ti  Ti6  1  0.62354954  0.62589508  0.52581871  1
  Ti  Ti7  1  0.62263521  0.12216079  0.77146518  1
  Ti  Ti8  1  0.62500867  0.63699968  0.68628341  1
  Ti  Ti9  1  0.62524717  0.61034847  0.85639990  1
  Al  Al10  1  0.62233349  0.61866247  0.60701203  1
  Al  Al11  1  0.62612469  0.62417527  0.77081357  1
  Al  Al12  1  0.62582782  0.63027531  0.93580950  1
  Zn  Zn13  1  0.99041044  0.99069473  0.00165688  1
  Zn  Zn14  1  0.98714925  0.98659240  0.16875398  1
  Zn  Zn15  1  0.27308874  0.27298820  0.03597743  1
  Zn  Zn16  1  0.12657733  0.62590701  0.10408540  1
  Zn  Zn17  1  0.62560064  0.12649251  0.10415440  1
  Zn  Zn18  1  0.99110788  0.99050836  0.33356797  1
  Zn  Zn19  1  0.26643645  0.26701154  0.20536932  1
  Zn  Zn20  1  0.12686791  0.62554932  0.27077958  1
  Zn  Zn21  1  0.62546239  0.12686367  0.27078062  1
  Zn  Zn22  1  0.97512595  0.97532159  0.50621820  1
  Zn  Zn23  1  0.26507786  0.26562406  0.37237838  1
  Zn  Zn24  1  0.12473089  0.62497342  0.43766158  1
  Zn  Zn25  1  0.62516137  0.12481879  0.43760218  1
  Zn  Zn26  1  0.98694882  0.99715549  0.66908476  1
  Zn  Zn27  1  0.25468856  0.25450438  0.54244787  1
  Zn  Zn28  1  0.12289739  0.61612677  0.60545385  1
  Zn  Zn29  1  0.62136825  0.12377912  0.60471480  1
  Zn  Zn30  1  0.26692240  0.25274216  0.70545353  1
  Zn  Zn31  1  0.12445906  0.62444186  0.77091599  1
  Zn  Zn32  1  0.26257035  0.25148115  0.87297043  1
  Zn  Zn33  1  0.12425021  0.63108953  0.93723295  1
  Zn  Zn34  1  0.97970534  0.99882397  0.83676032  1
  Zn  Zn35  1  0.62576036  0.12257236  0.93813007  1
  O  O36  1  0.39993538  0.40014795  0.06096241  1
  O  O37  1  0.40046077  0.40056781  0.13946647  1
  O  O38  1  0.40419369  0.85669367  0.06178809  1
  O  O39  1  0.85655651  0.40396248  0.06171620  1
  O  O40  1  0.39552069  0.84540540  0.14702000  1
  O  O41  1  0.39954240  0.39982594  0.22806861  1
  O  O42  1  0.39951155  0.39981890  0.30645532  1
  O  O43  1  0.84505453  0.39530202  0.14707819  1
  O  O44  1  0.40439979  0.85554684  0.22892651  1
  O  O45  1  0.85103837  0.85101906  0.06931270  1
  O  O46  1  0.85000559  0.84974027  0.14823257  1
  O  O47  1  0.85538128  0.40398742  0.22896396  1
  O  O48  1  0.39660069  0.84468314  0.31365373  1
  O  O49  1  0.39912140  0.39946467  0.39505496  1
  O  O50  1  0.39321304  0.39320245  0.47488820  1
  O  O51  1  0.85090681  0.85066136  0.23606284  1
  O  O52  1  0.40279137  0.85357347  0.39598782  1
  O  O53  1  0.84418970  0.39640729  0.31370756  1
  O  O54  1  0.85338127  0.40252950  0.39602188  1
  O  O55  1  0.84982288  0.84958289  0.31471947  1
  O  O56  1  0.40294885  0.40374119  0.55864914  1
  O  O57  1  0.39205727  0.84951708  0.47972693  1
  O  O58  1  0.40345532  0.39918285  0.63865505  1
  O  O59  1  0.85501842  0.85505786  0.40070405  1
  O  O60  1  0.40850977  0.84812364  0.56375424  1
  O  O61  1  0.84939047  0.39198149  0.47965869  1
  O  O62  1  0.84890367  0.40821265  0.56346099  1
  O  O63  1  0.84979783  0.84967294  0.48040548  1
  O  O64  1  0.40836275  0.37085042  0.73021870  1
  O  O65  1  0.39643908  0.83595325  0.64839155  1
  O  O66  1  0.41350212  0.38855155  0.80484312  1
  O  O67  1  0.84073140  0.84392955  0.57235305  1
  O  O68  1  0.84021805  0.40121415  0.64676556  1
  O  O69  1  0.40755117  0.83445451  0.73094934  1
  O  O70  1  0.85056747  0.84434148  0.65081396  1
  O  O71  1  0.84279235  0.37911215  0.73240814  1
  O  O72  1  0.40650415  0.87376700  0.80899392  1
  O  O73  1  0.39970215  0.40541785  0.89075838  1
  O  O74  1  0.40908680  0.40622450  0.96944020  1
  O  O75  1  0.83679046  0.86135059  0.73675457  1
  O  O76  1  0.84206423  0.41677975  0.81066189  1
  O  O77  1  0.41119240  0.84823335  0.89481614  1
  O  O78  1  0.84300678  0.88041815  0.81118472  1
  O  O79  1  0.85445380  0.41323426  0.89333440  1
  O  O80  1  0.40022636  0.84270956  0.97857328  1
  O  O81  1  0.84218707  0.40126354  0.97830248  1
  O  O82  1  0.84622615  0.84996651  0.90324113  1
  O  O83  1  0.84838096  0.84750818  0.98295558  1
