# generated using pymatgen
data_In2(WO4)3
_symmetry_space_group_name_H-M   'P 1'
_cell_length_a   9.80727371
_cell_length_b   16.68321609
_cell_length_c   16.75480700
_cell_angle_alpha   109.16217799
_cell_angle_beta   90.00000000
_cell_angle_gamma   90.00000000
_symmetry_Int_Tables_number   1
_chemical_formula_structural   In2(WO4)3
_chemical_formula_sum   'In16 W24 O96'
_cell_volume   2589.47868761
_cell_formula_units_Z   8
loop_
 _symmetry_equiv_pos_site_id
 _symmetry_equiv_pos_as_xyz
  1  'x, y, z'
loop_
 _atom_site_type_symbol
 _atom_site_label
 _atom_site_symmetry_multiplicity
 _atom_site_fract_x
 _atom_site_fract_y
 _atom_site_fract_z
 _atom_site_occupancy
  In  In0  1  0.45780113  0.32452833  0.95230908  1
  In  In1  1  0.53488549  0.56230518  0.68117317  1
  In  In2  1  0.02663331  0.43331076  0.81537663  1
  In  In3  1  0.97336669  0.56668924  0.18462337  1
  In  In4  1  0.48226147  0.81110579  0.41730984  1
  In  In5  1  0.51773853  0.18889421  0.58269016  1
  In  In6  1  0.95780113  0.17547167  0.04769092  1
  In  In7  1  0.01773853  0.31110579  0.41730984  1
  In  In8  1  0.03488549  0.93769482  0.31882683  1
  In  In9  1  0.54219887  0.67547167  0.04769092  1
  In  In10  1  0.96511451  0.06230518  0.68117317  1
  In  In11  1  0.52663331  0.06668924  0.18462337  1
  In  In12  1  0.46511451  0.43769482  0.31882683  1
  In  In13  1  0.47336669  0.93331076  0.81537663  1
  In  In14  1  0.04219887  0.82452833  0.95230908  1
  In  In15  1  0.98226147  0.68889421  0.58269016  1
  W  W16  1  0.25250610  0.00568993  0.51283261  1
  W  W17  1  0.74514547  0.98215813  0.98049572  1
  W  W18  1  0.86984086  0.63817884  0.78683566  1
  W  W19  1  0.75250610  0.49431007  0.48716739  1
  W  W20  1  0.61261466  0.61110336  0.25088509  1
  W  W21  1  0.38738534  0.38889664  0.74911491  1
  W  W22  1  0.12419570  0.22401705  0.86395135  1
  W  W23  1  0.63015914  0.13817884  0.78683566  1
  W  W24  1  0.87580430  0.77598295  0.13604865  1
  W  W25  1  0.24514547  0.51784187  0.01950428  1
  W  W26  1  0.13015914  0.36182116  0.21316434  1
  W  W27  1  0.37580430  0.72401705  0.86395135  1
  W  W28  1  0.25485453  0.01784187  0.01950428  1
  W  W29  1  0.75485453  0.48215813  0.98049572  1
  W  W30  1  0.62419570  0.27598295  0.13604865  1
  W  W31  1  0.38415834  0.23389805  0.38452429  1
  W  W32  1  0.74749390  0.99431007  0.48716739  1
  W  W33  1  0.88415834  0.26610195  0.61547571  1
  W  W34  1  0.24749390  0.50568993  0.51283261  1
  W  W35  1  0.36984086  0.86182116  0.21316434  1
  W  W36  1  0.88738534  0.11110336  0.25088509  1
  W  W37  1  0.11584166  0.73389805  0.38452429  1
  W  W38  1  0.11261466  0.88889664  0.74911491  1
  W  W39  1  0.61584166  0.76610195  0.61547571  1
  O  O40  1  0.56721892  0.14915183  0.68995607  1
  O  O41  1  0.89141694  0.21473052  0.33173116  1
  O  O42  1  0.19047499  0.00108625  0.40927509  1
  O  O43  1  0.95825940  0.55146086  0.80642624  1
  O  O44  1  0.62264728  0.00137244  0.06517649  1
  O  O45  1  0.88711609  0.99444058  0.41614562  1
  O  O46  1  0.79752262  0.26829960  0.09585072  1
  O  O47  1  0.88458404  0.91917402  0.99965566  1
  O  O48  1  0.07622651  0.87849717  0.85147841  1
  O  O49  1  0.71961639  0.06421711  0.24803274  1
  O  O50  1  0.70247738  0.76829960  0.09585072  1
  O  O51  1  0.42377349  0.37849717  0.85147841  1
  O  O52  1  0.78038361  0.56421711  0.24803274  1
  O  O53  1  0.66137788  0.92554693  0.88153774  1
  O  O54  1  0.39587002  0.76344242  0.12632249  1
  O  O55  1  0.80952501  0.99891375  0.59072491  1
  O  O56  1  0.19287234  0.91628279  0.02408703  1
  O  O57  1  0.90839068  0.68597544  0.17001652  1
  O  O58  1  0.59160932  0.18597544  0.17001652  1
  O  O59  1  0.33862212  0.07445307  0.11846226  1
  O  O60  1  0.45825940  0.94853914  0.19357376  1
  O  O61  1  0.51619379  0.45660257  0.72697138  1
  O  O62  1  0.50185027  0.27884457  0.05533133  1
  O  O63  1  0.85902728  0.58650351  0.49906012  1
  O  O64  1  0.06426871  0.63756093  0.30290175  1
  O  O65  1  0.89587002  0.73655758  0.87367751  1
  O  O66  1  0.49814973  0.72115543  0.94466867  1
  O  O67  1  0.30086085  0.73385019  0.39083434  1
  O  O68  1  0.43573129  0.13756093  0.30290175  1
  O  O69  1  0.16137788  0.57445307  0.11846226  1
  O  O70  1  0.88363333  0.87140440  0.22800224  1
  O  O71  1  0.29752262  0.23170040  0.90414928  1
  O  O72  1  0.54174060  0.05146086  0.80642624  1
  O  O73  1  0.87735272  0.50137244  0.06517649  1
  O  O74  1  0.18751431  0.88122550  0.22441074  1
  O  O75  1  0.80086085  0.76614981  0.60916566  1
  O  O76  1  0.11636667  0.12859560  0.77199776  1
  O  O77  1  0.30712766  0.41628279  0.02408703  1
  O  O78  1  0.04149911  0.73629777  0.48415903  1
  O  O79  1  0.69913915  0.26614981  0.60916566  1
  O  O80  1  0.00185027  0.22115543  0.94466867  1
  O  O81  1  0.44175940  0.32761032  0.36256037  1
  O  O82  1  0.60412998  0.23655758  0.87367751  1
  O  O83  1  0.48380621  0.54339743  0.27302862  1
  O  O84  1  0.43278108  0.85084817  0.31004393  1
  O  O85  1  0.94175940  0.17238968  0.63743963  1
  O  O86  1  0.61541596  0.41917402  0.99965566  1
  O  O87  1  0.65048663  0.89792628  0.44470208  1
  O  O88  1  0.01619379  0.04339743  0.27302862  1
  O  O89  1  0.98380621  0.95660257  0.72697138  1
  O  O90  1  0.54149911  0.76370223  0.51584097  1
  O  O91  1  0.56426871  0.86243907  0.69709825  1
  O  O92  1  0.60858306  0.71473052  0.33173116  1
  O  O93  1  0.10412998  0.26344242  0.12632249  1
  O  O94  1  0.38458404  0.58082598  0.00034434  1
  O  O95  1  0.28038361  0.93578289  0.75196726  1
  O  O96  1  0.61636667  0.37140440  0.22800224  1
  O  O97  1  0.06721892  0.35084817  0.31004393  1
  O  O98  1  0.57622651  0.62150283  0.14852159  1
  O  O99  1  0.38363333  0.62859560  0.77199776  1
  O  O100  1  0.68751431  0.61877450  0.77558926  1
  O  O101  1  0.20247738  0.73170040  0.90414928  1
  O  O102  1  0.04174060  0.44853914  0.19357376  1
  O  O103  1  0.12264728  0.49862756  0.93482351  1
  O  O104  1  0.30952501  0.50108625  0.40927509  1
  O  O105  1  0.61288391  0.49444058  0.41614562  1
  O  O106  1  0.31248569  0.38122550  0.22441074  1
  O  O107  1  0.19913915  0.23385019  0.39083434  1
  O  O108  1  0.93573129  0.36243907  0.69709825  1
  O  O109  1  0.55824060  0.67238968  0.63743963  1
  O  O110  1  0.99814973  0.77884457  0.05533133  1
  O  O111  1  0.69287234  0.58371721  0.97591297  1
  O  O112  1  0.39141694  0.28526948  0.66826884  1
  O  O113  1  0.92377349  0.12150283  0.14852159  1
  O  O114  1  0.45850089  0.23629777  0.48415903  1
  O  O115  1  0.11288391  0.00555942  0.58385438  1
  O  O116  1  0.10858306  0.78526948  0.66826884  1
  O  O117  1  0.95850089  0.26370223  0.51584097  1
  O  O118  1  0.84951337  0.39792628  0.44470208  1
  O  O119  1  0.35902728  0.91349649  0.50093988  1
  O  O120  1  0.34951337  0.10207372  0.55529792  1
  O  O121  1  0.05824060  0.82761032  0.36256037  1
  O  O122  1  0.69047499  0.49891375  0.59072491  1
  O  O123  1  0.83862212  0.42554693  0.88153774  1
  O  O124  1  0.38711609  0.50555942  0.58385438  1
  O  O125  1  0.11541596  0.08082598  0.00034434  1
  O  O126  1  0.80712766  0.08371721  0.97591297  1
  O  O127  1  0.15048663  0.60207372  0.55529792  1
  O  O128  1  0.21961639  0.43578289  0.75196726  1
  O  O129  1  0.64097272  0.08650351  0.49906012  1
  O  O130  1  0.37735272  0.99862756  0.93482351  1
  O  O131  1  0.40839068  0.81402456  0.82998348  1
  O  O132  1  0.09160932  0.31402456  0.82998348  1
  O  O133  1  0.93278108  0.64915183  0.68995607  1
  O  O134  1  0.14097272  0.41349649  0.50093988  1
  O  O135  1  0.81248569  0.11877450  0.77558926  1
