# generated using pymatgen
data_RbLiH4S2(NO3)2
_symmetry_space_group_name_H-M   'P 1'
_cell_length_a   7.94745901
_cell_length_b   9.97796596
_cell_length_c   10.95440199
_cell_angle_alpha   108.93108331
_cell_angle_beta   93.68290322
_cell_angle_gamma   98.14552330
_symmetry_Int_Tables_number   1
_chemical_formula_structural   RbLiH4S2(NO3)2
_chemical_formula_sum   'Rb4 Li4 H16 S8 N8 O24'
_cell_volume   807.74838946
_cell_formula_units_Z   4
loop_
 _symmetry_equiv_pos_site_id
 _symmetry_equiv_pos_as_xyz
  1  'x, y, z'
loop_
 _atom_site_type_symbol
 _atom_site_label
 _atom_site_symmetry_multiplicity
 _atom_site_fract_x
 _atom_site_fract_y
 _atom_site_fract_z
 _atom_site_occupancy
  Rb  Rb0  1  0.75932024  0.10205052  0.14511685  1
  Rb  Rb1  1  0.24067976  0.89794948  0.85488315  1
  Rb  Rb2  1  0.22318954  0.90457414  0.33982876  1
  Rb  Rb3  1  0.77681046  0.09542586  0.66017124  1
  Li  Li4  1  0.88986224  0.72359988  0.05236955  1
  Li  Li5  1  0.11013776  0.27640012  0.94763045  1
  Li  Li6  1  0.11565543  0.28972056  0.45725654  1
  Li  Li7  1  0.88434457  0.71027944  0.54274346  1
  H  H8  1  0.54872081  0.65653835  0.84973092  1
  H  H9  1  0.45127919  0.34346165  0.15026908  1
  H  H10  1  0.69080425  0.58392603  0.75167460  1
  H  H11  1  0.30919575  0.41607397  0.24832540  1
  H  H12  1  0.53493880  0.65639514  0.32633960  1
  H  H13  1  0.46506120  0.34360486  0.67366040  1
  H  H14  1  0.54288402  0.66214567  0.17321484  1
  H  H15  1  0.45711598  0.33785433  0.82678516  1
  H  H16  1  0.50198075  0.31996134  0.38735822  1
  H  H17  1  0.49801925  0.68003866  0.61264178  1
  H  H18  1  0.55727415  0.18675762  0.43525296  1
  H  H19  1  0.44272585  0.81324238  0.56474704  1
  H  H20  1  0.22368951  0.50821132  0.78329947  1
  H  H21  1  0.77631049  0.49178868  0.21670053  1
  H  H22  1  0.02661602  0.52571031  0.82533621  1
  H  H23  1  0.97338398  0.47428969  0.17466379  1
  S  S24  1  0.74633822  0.82552795  0.82684728  1
  S  S25  1  0.25366178  0.17447205  0.17315272  1
  S  S26  1  0.73203031  0.83415032  0.32272102  1
  S  S27  1  0.26796969  0.16584968  0.67727898  1
  S  S28  1  0.75935430  0.38103713  0.50889363  1
  S  S29  1  0.24064570  0.61896287  0.49110637  1
  S  S30  1  0.23366659  0.60925035  0.99670890  1
  S  S31  1  0.76633341  0.39074965  0.00329110  1
  N  N32  1  0.61924289  0.66547668  0.77588618  1
  N  N33  1  0.38075711  0.33452332  0.22411382  1
  N  N34  1  0.61348299  0.67124805  0.25883400  1
  N  N35  1  0.38651701  0.32875195  0.74116600  1
  N  N36  1  0.55705865  0.29536529  0.46409852  1
  N  N37  1  0.44294135  0.70463471  0.53590148  1
  N  N38  1  0.15282163  0.57465470  0.84338181  1
  N  N39  1  0.84717837  0.42534530  0.15661819  1
  O  O40  1  0.63095745  0.93070866  0.85638078  1
  O  O41  1  0.36904255  0.06929134  0.14361922  1
  O  O42  1  0.84275881  0.82865579  0.71721800  1
  O  O43  1  0.15724119  0.17134421  0.28278200  1
  O  O44  1  0.86425922  0.83956580  0.94211362  1
  O  O45  1  0.13574078  0.16043420  0.05788638  1
  O  O46  1  0.62337958  0.94523483  0.35988300  1
  O  O47  1  0.37662042  0.05476517  0.64011700  1
  O  O48  1  0.83616547  0.82955111  0.43710156  1
  O  O49  1  0.16383453  0.17044889  0.56289844  1
  O  O50  1  0.83670734  0.84946837  0.22013863  1
  O  O51  1  0.16329266  0.15053163  0.77986137  1
  O  O52  1  0.76188700  0.51515592  0.48085978  1
  O  O53  1  0.23811300  0.48484408  0.51914022  1
  O  O54  1  0.86940556  0.28632969  0.43179395  1
  O  O55  1  0.13059444  0.71367031  0.56820605  1
  O  O56  1  0.79254156  0.40137218  0.64817346  1
  O  O57  1  0.20745844  0.59862782  0.35182654  1
  O  O58  1  0.41232928  0.67575200  0.00265661  1
  O  O59  1  0.58767072  0.32424800  0.99734339  1
  O  O60  1  0.13176735  0.71044005  0.07497630  1
  O  O61  1  0.86823265  0.28955995  0.92502370  1
  O  O62  1  0.22021532  0.47657288  0.03008459  1
  O  O63  1  0.77978468  0.52342712  0.96991541  1
