# generated using pymatgen
data_PbWO4
_symmetry_space_group_name_H-M   'P 1'
_cell_length_a   5.55795391
_cell_length_b   5.58789955
_cell_length_c   7.27994211
_cell_angle_alpha   112.29734945
_cell_angle_beta   112.46111976
_cell_angle_gamma   89.63600707
_symmetry_Int_Tables_number   1
_chemical_formula_structural   PbWO4
_chemical_formula_sum   'Pb2 W2 O8'
_cell_volume   190.76328804
_cell_formula_units_Z   2
loop_
 _symmetry_equiv_pos_site_id
 _symmetry_equiv_pos_as_xyz
  1  'x, y, z'
loop_
 _atom_site_type_symbol
 _atom_site_label
 _atom_site_symmetry_multiplicity
 _atom_site_fract_x
 _atom_site_fract_y
 _atom_site_fract_z
 _atom_site_occupancy
  Pb  Pb0  1  0.37882713  0.12373040  0.75103387  1
  Pb  Pb1  1  0.61542906  0.87347679  0.24624196  1
  W  W2  1  0.87532035  0.62346723  0.75160554  1
  W  W3  1  0.13184299  0.38289205  0.25262635  1
  O  O4  1  0.19275694  0.57332434  0.92491526  1
  O  O5  1  0.66406976  0.30489671  0.58272224  1
  O  O6  1  0.08733372  0.23828816  0.42581108  1
  O  O7  1  0.80457418  0.42176869  0.08654000  1
  O  O8  1  0.93286982  0.78623654  0.59353961  1
  O  O9  1  0.28629988  0.15708631  0.09049578  1
  O  O10  1  0.70438144  0.83185788  0.90707735  1
  O  O11  1  0.34155974  0.70431091  0.40887095  1
