# generated using pymatgen
data_CsLiH4S2(NO3)2
_symmetry_space_group_name_H-M   'P 1'
_cell_length_a   5.59573570
_cell_length_b   8.05261033
_cell_length_c   9.98764361
_cell_angle_alpha   74.57213023
_cell_angle_beta   76.48317603
_cell_angle_gamma   86.66019495
_symmetry_Int_Tables_number   1
_chemical_formula_structural   CsLiH4S2(NO3)2
_chemical_formula_sum   'Cs2 Li2 H8 S4 N4 O12'
_cell_volume   421.80892515
_cell_formula_units_Z   2
loop_
 _symmetry_equiv_pos_site_id
 _symmetry_equiv_pos_as_xyz
  1  'x, y, z'
loop_
 _atom_site_type_symbol
 _atom_site_label
 _atom_site_symmetry_multiplicity
 _atom_site_fract_x
 _atom_site_fract_y
 _atom_site_fract_z
 _atom_site_occupancy
  Cs  Cs0  1  0.19712495  0.75797428  0.08502764  1
  Cs  Cs1  1  0.80287505  0.24202572  0.91497236  1
  Li  Li2  1  0.35449216  0.61267363  0.70875126  1
  Li  Li3  1  0.64550784  0.38732637  0.29124874  1
  H  H4  1  0.90152897  0.72958216  0.50454624  1
  H  H5  1  0.09847103  0.27041784  0.49545376  1
  H  H6  1  0.79937798  0.53536224  0.51244910  1
  H  H7  1  0.20062202  0.46463776  0.48755090  1
  H  H8  1  0.71376951  0.96876800  0.64552814  1
  H  H9  1  0.28623049  0.03123200  0.35447186  1
  H  H10  1  0.01831410  0.95304713  0.64041223  1
  H  H11  1  0.98168590  0.04695287  0.35958777  1
  S  S12  1  0.60778320  0.74382079  0.38370429  1
  S  S13  1  0.39221680  0.25617921  0.61629571  1
  S  S14  1  0.80174751  0.74838161  0.81484711  1
  S  S15  1  0.19825249  0.25161839  0.18515289  1
  N  N16  1  0.85071824  0.65516891  0.44556413  1
  N  N17  1  0.14928176  0.34483109  0.55443587  1
  N  N18  1  0.85987285  0.88592725  0.65326223  1
  N  N19  1  0.14012715  0.11407275  0.34673777  1
  O  O20  1  0.68345451  0.91922537  0.29998865  1
  O  O21  1  0.31654549  0.08077463  0.70001135  1
  O  O22  1  0.56218934  0.63190812  0.29670613  1
  O  O23  1  0.43781066  0.36809188  0.70329387  1
  O  O24  1  0.39523583  0.74248487  0.50449595  1
  O  O25  1  0.60476417  0.25751513  0.49550405  1
  O  O26  1  0.58332976  0.65187422  0.81941805  1
  O  O27  1  0.41667024  0.34812578  0.18058195  1
  O  O28  1  0.75678735  0.84273972  0.92551985  1
  O  O29  1  0.24321265  0.15726028  0.07448015  1
  O  O30  1  0.02255502  0.64005252  0.81665499  1
  O  O31  1  0.97744498  0.35994748  0.18334501  1
