# generated using pymatgen
data_B5H2Pb2O11
_symmetry_space_group_name_H-M   'P 1'
_cell_length_a   11.34629868
_cell_length_b   6.70027128
_cell_length_c   11.51813020
_cell_angle_alpha   90.00000000
_cell_angle_beta   90.00000000
_cell_angle_gamma   91.00003710
_symmetry_Int_Tables_number   1
_chemical_formula_structural   B5H2Pb2O11
_chemical_formula_sum   'B20 H8 Pb8 O44'
_cell_volume   875.51265329
_cell_formula_units_Z   4
loop_
 _symmetry_equiv_pos_site_id
 _symmetry_equiv_pos_as_xyz
  1  'x, y, z'
loop_
 _atom_site_type_symbol
 _atom_site_label
 _atom_site_symmetry_multiplicity
 _atom_site_fract_x
 _atom_site_fract_y
 _atom_site_fract_z
 _atom_site_occupancy
  B  B0  1  0.46044398  0.68088464  0.22155662  1
  B  B1  1  0.03955602  0.81911536  0.72155662  1
  B  B2  1  0.53955602  0.31911536  0.77844338  1
  B  B3  1  0.96044398  0.18088464  0.27844338  1
  B  B4  1  0.75879995  0.49621618  0.00947568  1
  B  B5  1  0.74120005  0.00378382  0.50947568  1
  B  B6  1  0.24120005  0.50378382  0.99052432  1
  B  B7  1  0.25879995  0.99621618  0.49052432  1
  B  B8  1  0.22711275  0.71104116  0.80895055  1
  B  B9  1  0.27288725  0.78895884  0.30895055  1
  B  B10  1  0.77288725  0.28895884  0.19104945  1
  B  B11  1  0.72711275  0.21104116  0.69104945  1
  B  B12  1  0.71280058  0.55450385  0.78566399  1
  B  B13  1  0.78719942  0.94549615  0.28566399  1
  B  B14  1  0.28719942  0.44549615  0.21433601  1
  B  B15  1  0.21280058  0.05450385  0.71433601  1
  B  B16  1  0.68288950  0.62939371  0.20140706  1
  B  B17  1  0.81711050  0.87060629  0.70140706  1
  B  B18  1  0.31711050  0.37060629  0.79859294  1
  B  B19  1  0.18288950  0.12939371  0.29859294  1
  H  H20  1  0.49928473  0.69420984  0.93370963  1
  H  H21  1  0.00071527  0.80579016  0.43370963  1
  H  H22  1  0.50071527  0.30579016  0.06629037  1
  H  H23  1  0.99928473  0.19420984  0.56629037  1
  H  H24  1  0.48832998  0.69270092  0.47019530  1
  H  H25  1  0.01167002  0.80729908  0.97019530  1
  H  H26  1  0.51167002  0.30729908  0.52980470  1
  H  H27  1  0.98832998  0.19270092  0.02980470  1
  Pb  Pb28  1  0.51771124  0.17487520  0.28387884  1
  Pb  Pb29  1  0.98228876  0.32512480  0.78387884  1
  Pb  Pb30  1  0.48228876  0.82512480  0.71612116  1
  Pb  Pb31  1  0.01771124  0.67487520  0.21612116  1
  Pb  Pb32  1  0.81343111  0.51860037  0.47841698  1
  Pb  Pb33  1  0.68656889  0.98139963  0.97841698  1
  Pb  Pb34  1  0.18656889  0.48139963  0.52158302  1
  Pb  Pb35  1  0.31343111  0.01860037  0.02158302  1
  O  O36  1  0.32214298  0.58383548  0.76609665  1
  O  O37  1  0.17785702  0.91616452  0.26609665  1
  O  O38  1  0.67785702  0.41616452  0.23390335  1
  O  O39  1  0.82214298  0.08383548  0.73390335  1
  O  O40  1  0.23856231  0.57546710  0.30556711  1
  O  O41  1  0.26143769  0.92453290  0.80556711  1
  O  O42  1  0.76143769  0.42453290  0.69443289  1
  O  O43  1  0.73856231  0.07546710  0.19443289  1
  O  O44  1  0.57528373  0.73462267  0.22665586  1
  O  O45  1  0.92471627  0.76537733  0.72665586  1
  O  O46  1  0.42471627  0.26537733  0.77334414  1
  O  O47  1  0.07528373  0.23462267  0.27334414  1
  O  O48  1  0.78174456  0.73207585  0.26039509  1
  O  O49  1  0.71825544  0.76792415  0.76039509  1
  O  O50  1  0.21825544  0.26792415  0.73960491  1
  O  O51  1  0.28174456  0.23207585  0.23960491  1
  O  O52  1  0.19727870  0.66604730  0.93202691  1
  O  O53  1  0.30272130  0.83395270  0.43202691  1
  O  O54  1  0.80272130  0.33395270  0.06797309  1
  O  O55  1  0.69727870  0.16604730  0.56797309  1
  O  O56  1  0.69913657  0.64255375  0.06898688  1
  O  O57  1  0.80086343  0.85744625  0.56898688  1
  O  O58  1  0.30086343  0.35744625  0.93101312  1
  O  O59  1  0.19913657  0.14255375  0.43101312  1
  O  O60  1  0.11929500  0.66740657  0.73809518  1
  O  O61  1  0.38070500  0.83259343  0.23809518  1
  O  O62  1  0.88070500  0.33259343  0.26190482  1
  O  O63  1  0.61929500  0.16740657  0.76190482  1
  O  O64  1  0.58139028  0.51064303  0.79826212  1
  O  O65  1  0.91860972  0.98935697  0.29826212  1
  O  O66  1  0.41860972  0.48935697  0.20173788  1
  O  O67  1  0.08139028  0.01064303  0.70173788  1
  O  O68  1  0.00907051  0.66112182  0.42752175  1
  O  O69  1  0.49092949  0.83887818  0.92752175  1
  O  O70  1  0.99092949  0.33887818  0.57247825  1
  O  O71  1  0.50907051  0.16112182  0.07247825  1
  O  O72  1  0.77691282  0.50075861  0.89291111  1
  O  O73  1  0.72308718  0.99924139  0.39291111  1
  O  O74  1  0.22308718  0.49924139  0.10708889  1
  O  O75  1  0.27691282  0.00075861  0.60708889  1
  O  O76  1  0.54383893  0.64155940  0.52844057  1
  O  O77  1  0.95616107  0.85844060  0.02844057  1
  O  O78  1  0.45616107  0.35844060  0.47155943  1
  O  O79  1  0.04383893  0.14155940  0.97155943  1
