# generated using pymatgen
data_Sm3Sb4Se9
_symmetry_space_group_name_H-M   'P 1'
_cell_length_a   4.02732489
_cell_length_b   16.68904332
_cell_length_c   25.30980602
_cell_angle_alpha   90.00000000
_cell_angle_beta   90.00000000
_cell_angle_gamma   90.00000000
_symmetry_Int_Tables_number   1
_chemical_formula_structural   Sm3Sb4Se9
_chemical_formula_sum   'Sm12 Sb16 Se36'
_cell_volume   1701.12773286
_cell_formula_units_Z   4
loop_
 _symmetry_equiv_pos_site_id
 _symmetry_equiv_pos_as_xyz
  1  'x, y, z'
loop_
 _atom_site_type_symbol
 _atom_site_label
 _atom_site_symmetry_multiplicity
 _atom_site_fract_x
 _atom_site_fract_y
 _atom_site_fract_z
 _atom_site_occupancy
  Sm  Sm0  1  0.75000000  0.37385359  0.05800071  1
  Sm  Sm1  1  0.75000000  0.87385359  0.44199929  1
  Sm  Sm2  1  0.25000000  0.62614641  0.94199929  1
  Sm  Sm3  1  0.25000000  0.12614641  0.55800071  1
  Sm  Sm4  1  0.75000000  0.17156087  0.17893176  1
  Sm  Sm5  1  0.75000000  0.67156087  0.32106824  1
  Sm  Sm6  1  0.25000000  0.82843913  0.82106824  1
  Sm  Sm7  1  0.25000000  0.32843913  0.67893176  1
  Sm  Sm8  1  0.75000000  0.45563028  0.23105676  1
  Sm  Sm9  1  0.75000000  0.95563028  0.26894324  1
  Sm  Sm10  1  0.25000000  0.54436972  0.76894324  1
  Sm  Sm11  1  0.25000000  0.04436972  0.73105676  1
  Sb  Sb12  1  0.75000000  0.35703954  0.50207985  1
  Sb  Sb13  1  0.75000000  0.85703954  0.99792015  1
  Sb  Sb14  1  0.25000000  0.64296046  0.49792015  1
  Sb  Sb15  1  0.25000000  0.14296046  0.00207985  1
  Sb  Sb16  1  0.75000000  0.04333445  0.91869261  1
  Sb  Sb17  1  0.75000000  0.54333445  0.58130739  1
  Sb  Sb18  1  0.25000000  0.95666555  0.08130739  1
  Sb  Sb19  1  0.25000000  0.45666555  0.41869261  1
  Sb  Sb20  1  0.75000000  0.39322101  0.89409204  1
  Sb  Sb21  1  0.75000000  0.89322101  0.60590796  1
  Sb  Sb22  1  0.25000000  0.60677899  0.10590796  1
  Sb  Sb23  1  0.25000000  0.10677899  0.39409204  1
  Sb  Sb24  1  0.75000000  0.23148022  0.82678895  1
  Sb  Sb25  1  0.75000000  0.73148022  0.67321105  1
  Sb  Sb26  1  0.25000000  0.76851978  0.17321105  1
  Sb  Sb27  1  0.25000000  0.26851978  0.32678895  1
  Se  Se28  1  0.75000000  0.24987589  0.59890307  1
  Se  Se29  1  0.75000000  0.74987589  0.90109693  1
  Se  Se30  1  0.25000000  0.75012411  0.40109693  1
  Se  Se31  1  0.25000000  0.25012411  0.09890307  1
  Se  Se32  1  0.75000000  0.05153279  0.63596913  1
  Se  Se33  1  0.75000000  0.55153279  0.86403087  1
  Se  Se34  1  0.25000000  0.94846721  0.36403087  1
  Se  Se35  1  0.25000000  0.44846721  0.13596913  1
  Se  Se36  1  0.75000000  0.45434627  0.70692156  1
  Se  Se37  1  0.75000000  0.95434627  0.79307844  1
  Se  Se38  1  0.25000000  0.54565373  0.29307844  1
  Se  Se39  1  0.25000000  0.04565373  0.20692156  1
  Se  Se40  1  0.75000000  0.20510955  0.72333951  1
  Se  Se41  1  0.75000000  0.70510955  0.77666049  1
  Se  Se42  1  0.25000000  0.79489045  0.27666049  1
  Se  Se43  1  0.25000000  0.29489045  0.22333951  1
  Se  Se44  1  0.75000000  0.06923118  0.07804846  1
  Se  Se45  1  0.75000000  0.56923118  0.42195154  1
  Se  Se46  1  0.25000000  0.93076882  0.92195154  1
  Se  Se47  1  0.25000000  0.43076882  0.57804846  1
  Se  Se48  1  0.75000000  0.05999078  0.46895516  1
  Se  Se49  1  0.75000000  0.55999078  0.03104484  1
  Se  Se50  1  0.25000000  0.94000922  0.53104484  1
  Se  Se51  1  0.25000000  0.44000922  0.96895516  1
  Se  Se52  1  0.75000000  0.24893892  0.97262821  1
  Se  Se53  1  0.75000000  0.74893892  0.52737179  1
  Se  Se54  1  0.25000000  0.75106108  0.02737179  1
  Se  Se55  1  0.25000000  0.25106108  0.47262821  1
  Se  Se56  1  0.75000000  0.12550733  0.31025899  1
  Se  Se57  1  0.75000000  0.62550733  0.18974101  1
  Se  Se58  1  0.25000000  0.87449267  0.68974101  1
  Se  Se59  1  0.25000000  0.37449267  0.81025899  1
  Se  Se60  1  0.75000000  0.37583807  0.33951485  1
  Se  Se61  1  0.75000000  0.87583807  0.16048515  1
  Se  Se62  1  0.25000000  0.62416193  0.66048515  1
  Se  Se63  1  0.25000000  0.12416193  0.83951485  1
