# generated using pymatgen
data_CaP3H10NO12
_symmetry_space_group_name_H-M   'P 1'
_cell_length_a   13.12913247
_cell_length_b   12.76577989
_cell_length_c   7.09737829
_cell_angle_alpha   90.00000000
_cell_angle_beta   90.00000000
_cell_angle_gamma   90.00000000
_symmetry_Int_Tables_number   1
_chemical_formula_structural   CaP3H10NO12
_chemical_formula_sum   'Ca4 P12 H40 N4 O48'
_cell_volume   1189.54626026
_cell_formula_units_Z   4
loop_
 _symmetry_equiv_pos_site_id
 _symmetry_equiv_pos_as_xyz
  1  'x, y, z'
loop_
 _atom_site_type_symbol
 _atom_site_label
 _atom_site_symmetry_multiplicity
 _atom_site_fract_x
 _atom_site_fract_y
 _atom_site_fract_z
 _atom_site_occupancy
  Ca  Ca0  1  0.31784061  0.74472686  0.84631464  1
  Ca  Ca1  1  0.68215939  0.25527314  0.84631464  1
  Ca  Ca2  1  0.81784061  0.75527314  0.15368536  1
  Ca  Ca3  1  0.18215939  0.24472686  0.15368536  1
  P  P4  1  0.34760507  0.65991584  0.32786380  1
  P  P5  1  0.65239493  0.34008416  0.32786380  1
  P  P6  1  0.84760507  0.84008416  0.67213620  1
  P  P7  1  0.15239493  0.15991584  0.67213620  1
  P  P8  1  0.67237346  0.51588583  0.06244613  1
  P  P9  1  0.32762654  0.48411417  0.06244613  1
  P  P10  1  0.17237346  0.98411417  0.93755387  1
  P  P11  1  0.82762654  0.01588583  0.93755387  1
  P  P12  1  0.54530179  0.70639904  0.13055863  1
  P  P13  1  0.45469821  0.29360096  0.13055863  1
  P  P14  1  0.04530179  0.79360096  0.86944137  1
  P  P15  1  0.95469821  0.20639904  0.86944137  1
  H  H16  1  0.94191641  0.97004415  0.26399849  1
  H  H17  1  0.05808359  0.02995585  0.26399849  1
  H  H18  1  0.44191641  0.52995585  0.73600151  1
  H  H19  1  0.55808359  0.47004415  0.73600151  1
  H  H20  1  0.96971868  0.06018280  0.42723554  1
  H  H21  1  0.03028132  0.93981720  0.42723554  1
  H  H22  1  0.46971868  0.43981720  0.57276446  1
  H  H23  1  0.53028132  0.56018280  0.57276446  1
  H  H24  1  0.56184203  0.99307170  0.08488463  1
  H  H25  1  0.43815797  0.00692830  0.08488463  1
  H  H26  1  0.06184203  0.50692830  0.91511537  1
  H  H27  1  0.93815797  0.49307170  0.91511537  1
  H  H28  1  0.49075209  0.93369093  0.91338460  1
  H  H29  1  0.50924791  0.06630907  0.91338460  1
  H  H30  1  0.99075209  0.56630907  0.08661540  1
  H  H31  1  0.00924791  0.43369093  0.08661540  1
  H  H32  1  0.96402467  0.59512607  0.44320652  1
  H  H33  1  0.03597533  0.40487393  0.44320652  1
  H  H34  1  0.46402467  0.90487393  0.55679348  1
  H  H35  1  0.53597533  0.09512607  0.55679348  1
  H  H36  1  0.00869532  0.69622217  0.35350151  1
  H  H37  1  0.99130468  0.30377783  0.35350151  1
  H  H38  1  0.50869532  0.80377783  0.64649849  1
  H  H39  1  0.49130468  0.19622217  0.64649849  1
  H  H40  1  0.33801575  0.26871216  0.69370726  1
  H  H41  1  0.66198425  0.73128784  0.69370726  1
  H  H42  1  0.83801575  0.23128784  0.30629274  1
  H  H43  1  0.16198425  0.76871216  0.30629274  1
  H  H44  1  0.62588509  0.73276397  0.48354886  1
  H  H45  1  0.37411491  0.26723603  0.48354886  1
  H  H46  1  0.12588509  0.76723603  0.51645114  1
  H  H47  1  0.87411491  0.23276397  0.51645114  1
  H  H48  1  0.84374663  0.56968095  0.58839572  1
  H  H49  1  0.15625337  0.43031905  0.58839572  1
  H  H50  1  0.34374663  0.93031905  0.41160428  1
  H  H51  1  0.65625337  0.06968095  0.41160428  1
  H  H52  1  0.19267940  0.44746669  0.79367557  1
  H  H53  1  0.80732060  0.55253331  0.79367557  1
  H  H54  1  0.69267940  0.05253331  0.20632443  1
  H  H55  1  0.30732060  0.94746669  0.20632443  1
  N  N56  1  0.50000000  0.50000000  0.65132594  1
  N  N57  1  0.00000000  0.00000000  0.34867406  1
  N  N58  1  0.00000000  0.50000000  0.00413165  1
  N  N59  1  0.50000000  0.00000000  0.99586835  1
  O  O60  1  0.67165395  0.33144178  0.53402407  1
  O  O61  1  0.32834605  0.66855822  0.53402407  1
  O  O62  1  0.17165395  0.16855822  0.46597593  1
  O  O63  1  0.82834605  0.83144178  0.46597593  1
  O  O64  1  0.71208561  0.27408397  0.19085481  1
  O  O65  1  0.28791439  0.72591603  0.19085481  1
  O  O66  1  0.21208561  0.22591603  0.80914519  1
  O  O67  1  0.78791439  0.77408397  0.80914519  1
  O  O68  1  0.33616630  0.53576341  0.27098495  1
  O  O69  1  0.66383370  0.46423659  0.27098495  1
  O  O70  1  0.83616630  0.96423659  0.72901505  1
  O  O71  1  0.16383370  0.03576341  0.72901505  1
  O  O72  1  0.97005005  0.82479253  0.69789109  1
  O  O73  1  0.02994995  0.17520747  0.69789109  1
  O  O74  1  0.47005005  0.67520747  0.30210891  1
  O  O75  1  0.52994995  0.32479253  0.30210891  1
  O  O76  1  0.34525663  0.56527419  0.91236388  1
  O  O77  1  0.65474337  0.43472581  0.91236388  1
  O  O78  1  0.84525663  0.93472581  0.08763612  1
  O  O79  1  0.15474337  0.06527419  0.08763612  1
  O  O80  1  0.26831771  0.92000628  0.94274959  1
  O  O81  1  0.73168229  0.07999372  0.94274959  1
  O  O82  1  0.76831771  0.57999372  0.05725041  1
  O  O83  1  0.23168229  0.42000628  0.05725041  1
  O  O84  1  0.57386421  0.59128198  0.04825820  1
  O  O85  1  0.42613579  0.40871802  0.04825820  1
  O  O86  1  0.07386421  0.90871802  0.95174180  1
  O  O87  1  0.92613579  0.09128198  0.95174180  1
  O  O88  1  0.63855986  0.75391038  0.21950638  1
  O  O89  1  0.36144014  0.24608962  0.21950638  1
  O  O90  1  0.13855986  0.74608962  0.78049362  1
  O  O91  1  0.86144014  0.25391038  0.78049362  1
  O  O92  1  0.48684576  0.76340507  0.98230231  1
  O  O93  1  0.51315424  0.23659493  0.98230231  1
  O  O94  1  0.98684576  0.73659493  0.01769769  1
  O  O95  1  0.01315424  0.26340507  0.01769769  1
  O  O96  1  0.04824368  0.35667059  0.34037419  1
  O  O97  1  0.95175632  0.64332941  0.34037419  1
  O  O98  1  0.54824368  0.14332941  0.65962581  1
  O  O99  1  0.45175632  0.85667059  0.65962581  1
  O  O100  1  0.10278868  0.78396786  0.38733625  1
  O  O101  1  0.89721132  0.21603214  0.38733625  1
  O  O102  1  0.60278868  0.71603214  0.61266375  1
  O  O103  1  0.39721132  0.28396786  0.61266375  1
  O  O104  1  0.64442038  0.02616890  0.30098526  1
  O  O105  1  0.35557962  0.97383110  0.30098526  1
  O  O106  1  0.14442038  0.47383110  0.69901474  1
  O  O107  1  0.85557962  0.52616890  0.69901474  1
