# generated using pymatgen
data_NaH5CO4
_symmetry_space_group_name_H-M   'P 1'
_cell_length_a   8.14925771
_cell_length_b   8.14925771
_cell_length_c   8.82243556
_cell_angle_alpha   90.00000000
_cell_angle_beta   90.00000000
_cell_angle_gamma   52.13564564
_symmetry_Int_Tables_number   1
_chemical_formula_structural   NaH5CO4
_chemical_formula_sum   'Na4 H20 C4 O16'
_cell_volume   462.54936053
_cell_formula_units_Z   4
loop_
 _symmetry_equiv_pos_site_id
 _symmetry_equiv_pos_as_xyz
  1  'x, y, z'
loop_
 _atom_site_type_symbol
 _atom_site_label
 _atom_site_symmetry_multiplicity
 _atom_site_fract_x
 _atom_site_fract_y
 _atom_site_fract_z
 _atom_site_occupancy
  Na  Na0  1  0.25810934  0.74189066  0.50000000  1
  Na  Na1  1  0.75810934  0.24189066  0.00000000  1
  Na  Na2  1  0.74189066  0.25810934  0.50000000  1
  Na  Na3  1  0.24189066  0.75810934  0.00000000  1
  H  H4  1  0.52847338  0.20824158  0.20077716  1
  H  H5  1  0.79175842  0.47152662  0.79922284  1
  H  H6  1  0.29175842  0.97152662  0.70077716  1
  H  H7  1  0.02847338  0.70824158  0.29922284  1
  H  H8  1  0.47152662  0.79175842  0.79922284  1
  H  H9  1  0.20824158  0.52847338  0.20077716  1
  H  H10  1  0.70824158  0.02847338  0.29922284  1
  H  H11  1  0.97152662  0.29175842  0.70077716  1
  H  H12  1  0.41522634  0.41522634  0.71496477  1
  H  H13  1  0.58477366  0.58477366  0.28503523  1
  H  H14  1  0.08477366  0.08477366  0.21496477  1
  H  H15  1  0.91522634  0.91522634  0.78503523  1
  H  H16  1  0.33953193  0.33953193  0.59120659  1
  H  H17  1  0.66046807  0.66046807  0.40879341  1
  H  H18  1  0.16046807  0.16046807  0.09120659  1
  H  H19  1  0.83953193  0.83953193  0.90879341  1
  H  H20  1  0.73001686  0.73001686  0.13608526  1
  H  H21  1  0.26998314  0.26998314  0.86391474  1
  H  H22  1  0.76998314  0.76998314  0.63608526  1
  H  H23  1  0.23001686  0.23001686  0.36391474  1
  C  C24  1  0.31893484  0.31893484  0.95998320  1
  C  C25  1  0.68106516  0.68106516  0.04001680  1
  C  C26  1  0.18106516  0.18106516  0.45998320  1
  C  C27  1  0.81893484  0.81893484  0.54001680  1
  O  O28  1  0.59691532  0.59691532  0.07190179  1
  O  O29  1  0.40308468  0.40308468  0.92809821  1
  O  O30  1  0.90308468  0.90308468  0.57190179  1
  O  O31  1  0.09691532  0.09691532  0.42809821  1
  O  O32  1  0.71401456  0.71401456  0.90593085  1
  O  O33  1  0.28598544  0.28598544  0.09406915  1
  O  O34  1  0.78598544  0.78598544  0.40593085  1
  O  O35  1  0.21401456  0.21401456  0.59406915  1
  O  O36  1  0.40674739  0.40674739  0.60353278  1
  O  O37  1  0.59325261  0.59325261  0.39646722  1
  O  O38  1  0.09325261  0.09325261  0.10353278  1
  O  O39  1  0.90674739  0.90674739  0.89646722  1
  O  O40  1  0.15994304  0.65994304  0.25000000  1
  O  O41  1  0.34005696  0.84005696  0.75000000  1
  O  O42  1  0.84005696  0.34005696  0.75000000  1
  O  O43  1  0.65994304  0.15994304  0.25000000  1
