# generated using pymatgen
data_Ba8Co7O19
_symmetry_space_group_name_H-M   'P 1'
_cell_length_a   10.81420871
_cell_length_b   10.79188047
_cell_length_c   11.72178789
_cell_angle_alpha   105.73832709
_cell_angle_beta   104.52853342
_cell_angle_gamma   115.57746402
_symmetry_Int_Tables_number   1
_chemical_formula_structural   Ba8Co7O19
_chemical_formula_sum   'Ba16 Co14 O38'
_cell_volume   1075.72807101
_cell_formula_units_Z   2
loop_
 _symmetry_equiv_pos_site_id
 _symmetry_equiv_pos_as_xyz
  1  'x, y, z'
loop_
 _atom_site_type_symbol
 _atom_site_label
 _atom_site_symmetry_multiplicity
 _atom_site_fract_x
 _atom_site_fract_y
 _atom_site_fract_z
 _atom_site_occupancy
  Ba  Ba0  1  0.66422405  0.66253423  0.33364423  1
  Ba  Ba1  1  0.71529445  0.94891339  0.68112192  1
  Ba  Ba2  1  0.21225762  0.41584849  0.16239197  1
  Ba  Ba3  1  0.17540043  0.46740516  0.66220122  1
  Ba  Ba4  1  0.42250480  0.91894211  0.83712072  1
  Ba  Ba5  1  0.18851557  0.17731303  0.36172303  1
  Ba  Ba6  1  0.17701797  0.18065397  0.81698422  1
  Ba  Ba7  1  0.39858186  0.88914288  0.31912005  1
  Ba  Ba8  1  0.71173231  0.96499572  0.17728333  1
  Ba  Ba9  1  0.49939424  0.19938985  0.65831290  1
  Ba  Ba10  1  0.94290910  0.73583542  0.15743885  1
  Ba  Ba11  1  0.93066755  0.42623210  0.86103368  1
  Ba  Ba12  1  0.63716713  0.63183419  0.80888985  1
  Ba  Ba13  1  0.93009879  0.42344998  0.31224437  1
  Ba  Ba14  1  0.48372713  0.21328207  0.17870217  1
  Ba  Ba15  1  0.95537695  0.71885531  0.66822952  1
  Co  Co16  1  0.15329843  0.86499800  0.98579926  1
  Co  Co17  1  0.82752241  0.14184597  0.99670680  1
  Co  Co18  1  0.42300832  0.56412239  0.00436501  1
  Co  Co19  1  0.31054307  0.67243075  0.50112492  1
  Co  Co20  1  0.71674350  0.30821298  0.00400065  1
  Co  Co21  1  0.28653206  0.71483611  0.01344333  1
  Co  Co22  1  0.57758405  0.45497356  0.00960628  1
  Co  Co23  1  0.05561696  0.96494438  0.50562022  1
  Co  Co24  1  0.44739986  0.53419335  0.50512113  1
  Co  Co25  1  0.20843887  0.83098304  0.51109348  1
  Co  Co26  1  0.60936141  0.41665251  0.49223764  1
  Co  Co27  1  0.76257318  0.27254378  0.51742005  1
  Co  Co28  1  0.88026137  0.07326322  0.49830171  1
  Co  Co29  1  0.97772056  0.00193929  0.01339678  1
  O  O30  1  0.43248644  0.91146325  0.08073714  1
  O  O31  1  0.19794695  0.66472718  0.35083750  1
  O  O32  1  0.15937962  0.92405962  0.40547478  1
  O  O33  1  0.67901345  0.15835858  0.84917350  1
  O  O34  1  0.41955298  0.67583573  0.15316817  1
  O  O35  1  0.86372449  0.20872085  0.63691278  1
  O  O36  1  0.68522687  0.42096263  0.91102907  1
  O  O37  1  0.16953093  0.01337367  0.12897298  1
  O  O38  1  0.21247868  0.99523939  0.64596217  1
  O  O39  1  0.67812969  0.16579719  0.07510557  1
  O  O40  1  0.14192117  0.73589841  0.07431800  1
  O  O41  1  0.65736961  0.64885935  0.57427729  1
  O  O42  1  0.93949180  0.35918964  0.07062907  1
  O  O43  1  0.23985658  0.46519704  0.42184708  1
  O  O44  1  0.73908584  0.46138687  0.14862323  1
  O  O45  1  0.43881974  0.41444422  0.34810853  1
  O  O46  1  0.46306241  0.38180499  0.57143675  1
  O  O47  1  0.91173767  0.93757835  0.35828324  1
  O  O48  1  0.42848274  0.38842319  0.06645696  1
  O  O49  1  0.14784763  0.70275608  0.85321415  1
  O  O50  1  0.41480354  0.44721922  0.85160978  1
  O  O51  1  0.74455596  0.46505245  0.41906557  1
  O  O52  1  0.93293466  0.80212794  0.91987737  1
  O  O53  1  0.42074144  0.89495760  0.57373341  1
  O  O54  1  0.23709493  0.99318788  0.92314249  1
  O  O55  1  0.43831158  0.67368626  0.64349859  1
  O  O56  1  0.08596216  0.18838862  0.56977929  1
  O  O57  1  0.64457645  0.66968654  0.07695031  1
  O  O58  1  0.91852794  0.92800621  0.58230513  1
  O  O59  1  0.99145624  0.13108117  0.92618279  1
  O  O60  1  0.86202887  0.23432063  0.41824141  1
  O  O61  1  0.54722171  0.18449196  0.42518062  1
  O  O62  1  0.77407469  0.42814609  0.65114390  1
  O  O63  1  0.72455078  0.92814626  0.92314099  1
  O  O64  1  0.22307870  0.50453176  0.91673021  1
  O  O65  1  0.14947183  0.68298381  0.57282793  1
  O  O66  1  0.68453244  0.94130628  0.42079007  1
  O  O67  1  0.97673881  0.13197885  0.15642390  1
