# generated using pymatgen
data_V4P9O32
_symmetry_space_group_name_H-M   'P 1'
_cell_length_a   13.86168076
_cell_length_b   13.86168076
_cell_length_c   6.34712786
_cell_angle_alpha   90.00000000
_cell_angle_beta   90.00000000
_cell_angle_gamma   90.00000000
_symmetry_Int_Tables_number   1
_chemical_formula_structural   V4P9O32
_chemical_formula_sum   'V8 P18 O64'
_cell_volume   1219.57645791
_cell_formula_units_Z   2
loop_
 _symmetry_equiv_pos_site_id
 _symmetry_equiv_pos_as_xyz
  1  'x, y, z'
loop_
 _atom_site_type_symbol
 _atom_site_label
 _atom_site_symmetry_multiplicity
 _atom_site_fract_x
 _atom_site_fract_y
 _atom_site_fract_z
 _atom_site_occupancy
  V  V0  1  0.11547713  0.19690582  0.62263824  1
  V  V1  1  0.80309418  0.11547713  0.37736176  1
  V  V2  1  0.38452287  0.69690582  0.87736176  1
  V  V3  1  0.88452287  0.80309418  0.62263824  1
  V  V4  1  0.30309418  0.38452287  0.12263824  1
  V  V5  1  0.61547713  0.30309418  0.87736176  1
  V  V6  1  0.69690582  0.61547713  0.12263824  1
  V  V7  1  0.19690582  0.88452287  0.37736176  1
  P  P8  1  0.30574261  0.06179124  0.61396272  1
  P  P9  1  0.56179124  0.80574261  0.11396272  1
  P  P10  1  0.74902542  0.60576523  0.63351408  1
  P  P11  1  0.39423477  0.74902542  0.36648692  1
  P  P12  1  0.69425739  0.93820876  0.61396272  1
  P  P13  1  0.93820876  0.30574261  0.38603728  1
  P  P14  1  0.60576523  0.25097458  0.36648692  1
  P  P15  1  0.50000000  0.50000000  0.00000000  1
  P  P16  1  0.25097458  0.39423477  0.63351408  1
  P  P17  1  0.19425739  0.56179124  0.88603728  1
  P  P18  1  0.24902542  0.89423477  0.86648592  1
  P  P19  1  0.10576523  0.24902542  0.13351408  1
  P  P20  1  0.89423477  0.75097458  0.13351408  1
  P  P21  1  0.43820876  0.19425739  0.11396272  1
  P  P22  1  0.75097458  0.10576523  0.86648592  1
  P  P23  1  0.00000000  0.00000000  0.50000000  1
  P  P24  1  0.06179124  0.69425739  0.38603728  1
  P  P25  1  0.80574261  0.43820876  0.88603728  1
  O  O26  1  0.15564160  0.75509845  0.35680939  1
  O  O27  1  0.32923296  0.83856537  0.37759237  1
  O  O28  1  0.40910246  0.07327455  0.58002874  1
  O  O29  1  0.50273872  0.74884287  0.93786106  1
  O  O30  1  0.36521049  0.68282914  0.18264883  1
  O  O31  1  0.92672545  0.40910246  0.41997126  1
  O  O32  1  0.19584535  0.89572104  0.07789537  1
  O  O33  1  0.93259354  0.06362560  0.36238041  1
  O  O34  1  0.82923396  0.66143463  0.12240763  1
  O  O35  1  0.80415465  0.10427896  0.07789537  1
  O  O36  1  0.81717086  0.13478951  0.68264883  1
  O  O37  1  0.50251483  0.78041451  0.32858851  1
  O  O38  1  0.56362560  0.43259354  0.86238041  1
  O  O39  1  0.43259354  0.43637440  0.13761959  1
  O  O40  1  0.00273872  0.75115713  0.56213894  1
  O  O41  1  0.63478951  0.31717086  0.18264883  1
  O  O42  1  0.10427896  0.19584535  0.92210463  1
  O  O43  1  0.66143463  0.17076704  0.87759237  1
  O  O44  1  0.67076604  0.16143463  0.37759237  1
  O  O45  1  0.93637440  0.93259354  0.63761959  1
  O  O46  1  0.56740646  0.56362560  0.13761959  1
  O  O47  1  0.49726128  0.25115713  0.93786106  1
  O  O48  1  0.74884287  0.49726128  0.06213894  1
  O  O49  1  0.68282914  0.63478951  0.81735117  1
  O  O50  1  0.84435840  0.24490155  0.35680939  1
  O  O51  1  0.71958549  0.99748517  0.82858851  1
  O  O52  1  0.21958549  0.50251483  0.67141149  1
  O  O53  1  0.13478951  0.18282914  0.31735117  1
  O  O54  1  0.86521049  0.81717086  0.31735117  1
  O  O55  1  0.30415465  0.39572104  0.42210463  1
  O  O56  1  0.17076704  0.33856537  0.12240763  1
  O  O57  1  0.69584535  0.60427896  0.42210463  1
  O  O58  1  0.07327455  0.59089754  0.41997126  1
  O  O59  1  0.83856537  0.67076604  0.62240763  1
  O  O60  1  0.57327455  0.90910246  0.08002874  1
  O  O61  1  0.75509845  0.84435840  0.64319061  1
  O  O62  1  0.25509845  0.65564160  0.85680939  1
  O  O63  1  0.42672545  0.09089754  0.08002874  1
  O  O64  1  0.78041451  0.49748517  0.67141149  1
  O  O65  1  0.90910246  0.42672545  0.91997126  1
  O  O66  1  0.60427896  0.30415465  0.57789537  1
  O  O67  1  0.59089754  0.92672545  0.58002874  1
  O  O68  1  0.43637440  0.56740646  0.86238041  1
  O  O69  1  0.34435840  0.25509845  0.14319061  1
  O  O70  1  0.25115713  0.50273872  0.06213894  1
  O  O71  1  0.06740646  0.93637440  0.36238041  1
  O  O72  1  0.09089754  0.57327455  0.91997126  1
  O  O73  1  0.65564160  0.74490155  0.14319061  1
  O  O74  1  0.99726128  0.24884287  0.56213894  1
  O  O75  1  0.06362560  0.06740646  0.63761959  1
  O  O76  1  0.00251483  0.71958549  0.17141149  1
  O  O77  1  0.99748517  0.28041451  0.17141149  1
  O  O78  1  0.74490155  0.34435840  0.85680939  1
  O  O79  1  0.24490155  0.15564160  0.64319061  1
  O  O80  1  0.49748517  0.21958549  0.32858851  1
  O  O81  1  0.28041451  0.00251483  0.82858851  1
  O  O82  1  0.33856537  0.82923396  0.87759237  1
  O  O83  1  0.89572104  0.80415465  0.92210463  1
  O  O84  1  0.75115713  0.99726128  0.43786106  1
  O  O85  1  0.18282914  0.86521049  0.68264883  1
  O  O86  1  0.24884287  0.00273872  0.43786106  1
  O  O87  1  0.16143463  0.32923296  0.62240763  1
  O  O88  1  0.31717086  0.36521049  0.81735117  1
  O  O89  1  0.39572104  0.69584535  0.57789537  1
