# generated using pymatgen
data_VZnPbO5
_symmetry_space_group_name_H-M   'P 1'
_cell_length_a   6.10352236
_cell_length_b   7.75329187
_cell_length_c   9.40490244
_cell_angle_alpha   90.00000000
_cell_angle_beta   90.00000000
_cell_angle_gamma   90.00000000
_symmetry_Int_Tables_number   1
_chemical_formula_structural   VZnPbO5
_chemical_formula_sum   'V4 Zn4 Pb4 O20'
_cell_volume   445.06246393
_cell_formula_units_Z   4
loop_
 _symmetry_equiv_pos_site_id
 _symmetry_equiv_pos_as_xyz
  1  'x, y, z'
loop_
 _atom_site_type_symbol
 _atom_site_label
 _atom_site_symmetry_multiplicity
 _atom_site_fract_x
 _atom_site_fract_y
 _atom_site_fract_z
 _atom_site_occupancy
  V  V0  1  0.25000000  0.63713887  0.68732476  1
  V  V1  1  0.25000000  0.13713887  0.81267524  1
  V  V2  1  0.75000000  0.36286113  0.31267524  1
  V  V3  1  0.75000000  0.86286113  0.18732476  1
  Zn  Zn4  1  0.00000000  0.00000000  0.50000000  1
  Zn  Zn5  1  0.50000000  0.50000000  -0.00000000  1
  Zn  Zn6  1  0.50000000  0.00000000  0.50000000  1
  Zn  Zn7  1  0.00000000  0.50000000  0.00000000  1
  Pb  Pb8  1  0.75000000  0.37157504  0.68073807  1
  Pb  Pb9  1  0.75000000  0.87157504  0.81926193  1
  Pb  Pb10  1  0.25000000  0.62842496  0.31926193  1
  Pb  Pb11  1  0.25000000  0.12842496  0.18073807  1
  O  O12  1  0.49511547  0.62775932  0.79120120  1
  O  O13  1  0.00488453  0.12775932  0.70879880  1
  O  O14  1  0.99511547  0.37224068  0.20879880  1
  O  O15  1  0.50488453  0.87224068  0.29120120  1
  O  O16  1  0.50488453  0.37224068  0.20879880  1
  O  O17  1  0.99511547  0.87224068  0.29120120  1
  O  O18  1  0.00488453  0.62775932  0.79120120  1
  O  O19  1  0.49511547  0.12775932  0.70879880  1
  O  O20  1  0.25000000  0.45826853  0.58467970  1
  O  O21  1  0.25000000  0.95826853  0.91532030  1
  O  O22  1  0.75000000  0.54173147  0.41532030  1
  O  O23  1  0.75000000  0.04173147  0.08467970  1
  O  O24  1  0.25000000  0.81416221  0.56892497  1
  O  O25  1  0.25000000  0.31416221  0.93107503  1
  O  O26  1  0.75000000  0.18583779  0.43107503  1
  O  O27  1  0.75000000  0.68583779  0.06892497  1
  O  O28  1  0.75000000  0.86713754  0.57226674  1
  O  O29  1  0.75000000  0.36713754  0.92773326  1
  O  O30  1  0.25000000  0.13286246  0.42773326  1
  O  O31  1  0.25000000  0.63286246  0.07226674  1
