# generated using pymatgen
data_Na5H29(IO12)2
_symmetry_space_group_name_H-M   'P 1'
_cell_length_a   8.89224898
_cell_length_b   8.87333789
_cell_length_c   9.30415164
_cell_angle_alpha   75.95926868
_cell_angle_beta   60.25092291
_cell_angle_gamma   85.78164922
_symmetry_Int_Tables_number   1
_chemical_formula_structural   Na5H29(IO12)2
_chemical_formula_sum   'Na5 H29 I2 O24'
_cell_volume   617.38119546
_cell_formula_units_Z   1
loop_
 _symmetry_equiv_pos_site_id
 _symmetry_equiv_pos_as_xyz
  1  'x, y, z'
loop_
 _atom_site_type_symbol
 _atom_site_label
 _atom_site_symmetry_multiplicity
 _atom_site_fract_x
 _atom_site_fract_y
 _atom_site_fract_z
 _atom_site_occupancy
  Na  Na0  1  0.26802278  0.12642736  0.11321494  1
  Na  Na1  1  0.73197722  0.87357264  0.88678506  1
  Na  Na2  1  0.00000000  0.00000000  0.00000000  1
  Na  Na3  1  0.29525229  0.35893443  0.35457266  1
  Na  Na4  1  0.70474771  0.64106557  0.64542734  1
  H  H5  1  0.47455871  0.44710705  0.74349698  1
  H  H6  1  0.52544129  0.55289295  0.25650302  1
  H  H7  1  0.50000000  0.00000000  0.00000000  1
  H  H8  1  0.39128504  0.81332464  0.14621453  1
  H  H9  1  0.60871496  0.18667536  0.85378547  1
  H  H10  1  0.32824814  0.21350916  0.74701567  1
  H  H11  1  0.67175186  0.78649084  0.25298433  1
  H  H12  1  0.38239693  0.05501926  0.82022491  1
  H  H13  1  0.61760307  0.94498074  0.17977509  1
  H  H14  1  0.47736428  0.09746377  0.37388230  1
  H  H15  1  0.52263572  0.90253623  0.62611770  1
  H  H16  1  0.52814273  0.15441336  0.18024178  1
  H  H17  1  0.47185727  0.84558664  0.81975822  1
  H  H18  1  0.87501503  0.11201570  0.30584852  1
  H  H19  1  0.12498497  0.88798430  0.69415148  1
  H  H20  1  0.96466789  0.00653324  0.39459862  1
  H  H21  1  0.03533211  0.99346676  0.60540138  1
  H  H22  1  0.10040880  0.66726223  0.44613093  1
  H  H23  1  0.89959120  0.33273777  0.55386907  1
  H  H24  1  0.02133895  0.77839138  0.34697635  1
  H  H25  1  0.97866105  0.22160862  0.65302365  1
  H  H26  1  0.72524870  0.55471134  0.98390345  1
  H  H27  1  0.27475130  0.44528866  0.01609655  1
  H  H28  1  0.90233325  0.59572684  0.81264357  1
  H  H29  1  0.09766675  0.40427316  0.18735643  1
  H  H30  1  0.98911170  0.33932818  0.88492915  1
  H  H31  1  0.01088830  0.66067182  0.11507085  1
  H  H32  1  0.83819756  0.30276138  0.07258404  1
  H  H33  1  0.16180244  0.69723862  0.92741596  1
  I  I34  1  0.32837967  0.59392240  0.59039098  1
  I  I35  1  0.67162033  0.40607760  0.40960902  1
  O  O36  1  0.31800290  0.62531080  0.39064170  1
  O  O37  1  0.68199710  0.37468920  0.60935830  1
  O  O38  1  0.31378464  0.79369524  0.61446019  1
  O  O39  1  0.68621536  0.20630476  0.38553981  1
  O  O40  1  0.38936570  0.52926035  0.78056457  1
  O  O41  1  0.61063430  0.47073965  0.21943543  1
  O  O42  1  0.89406391  0.48305077  0.26281861  1
  O  O43  1  0.10593609  0.51694923  0.73718139  1
  O  O44  1  0.40697749  0.37305326  0.55765954  1
  O  O45  1  0.59302251  0.62694674  0.44234046  1
  O  O46  1  0.58271612  0.11947202  0.96402687  1
  O  O47  1  0.41728388  0.88052798  0.03597313  1
  O  O48  1  0.28790894  0.12615802  0.84875111  1
  O  O49  1  0.71209106  0.87384198  0.15124889  1
  O  O50  1  0.43006086  0.11494219  0.29653562  1
  O  O51  1  0.56993914  0.88505781  0.70346438  1
  O  O52  1  0.97353975  0.04153611  0.28317400  1
  O  O53  1  0.02646025  0.95846389  0.71682600  1
  O  O54  1  0.99204293  0.71960402  0.46074701  1
  O  O55  1  0.00795707  0.28039598  0.53925299  1
  O  O56  1  0.77658593  0.61647891  0.86533643  1
  O  O57  1  0.22341407  0.38352109  0.13466357  1
  O  O58  1  0.91236389  0.25367977  0.97891323  1
  O  O59  1  0.08763611  0.74632023  0.02108677  1
