# generated using pymatgen
data_Ba2Sr7I18
_symmetry_space_group_name_H-M   'P 1'
_cell_length_a   10.74593562
_cell_length_b   12.09577299
_cell_length_c   11.52290983
_cell_angle_alpha   95.21044903
_cell_angle_beta   96.20607283
_cell_angle_gamma   116.39829402
_symmetry_Int_Tables_number   1
_chemical_formula_structural   Ba2Sr7I18
_chemical_formula_sum   'Ba2 Sr7 I18'
_cell_volume   1317.39187491
_cell_formula_units_Z   1
loop_
 _symmetry_equiv_pos_site_id
 _symmetry_equiv_pos_as_xyz
  1  'x, y, z'
loop_
 _atom_site_type_symbol
 _atom_site_label
 _atom_site_symmetry_multiplicity
 _atom_site_fract_x
 _atom_site_fract_y
 _atom_site_fract_z
 _atom_site_occupancy
  Ba  Ba0  1  0.31063371  0.78052183  0.61058203  1
  Ba  Ba1  1  0.68936629  0.21947817  0.38941797  1
  Sr  Sr2  1  0.20719260  0.88053999  0.17549668  1
  Sr  Sr3  1  0.00000000  0.00000000  0.50000000  1
  Sr  Sr4  1  0.20097769  0.38444767  0.22086244  1
  Sr  Sr5  1  0.40888614  0.29461847  0.88795580  1
  Sr  Sr6  1  0.59111386  0.70538153  0.11204420  1
  Sr  Sr7  1  0.79902231  0.61555233  0.77913756  1
  Sr  Sr8  1  0.79280740  0.11946001  0.82450332  1
  I  I9  1  0.13378482  0.74813293  0.90108640  1
  I  I10  1  0.15389243  0.63502543  0.30985843  1
  I  I11  1  0.04809720  0.27845994  0.44861358  1
  I  I12  1  0.07479278  0.08682657  0.78852190  1
  I  I13  1  0.28139637  0.48648402  0.97040575  1
  I  I14  1  0.53473488  0.94643766  0.18320518  1
  I  I15  1  0.52164042  0.57899904  0.34619484  1
  I  I16  1  0.35757233  0.19745972  0.15592353  1
  I  I17  1  0.67980328  0.97152085  0.54033793  1
  I  I18  1  0.32019672  0.02847915  0.45966207  1
  I  I19  1  0.64242767  0.80254028  0.84407647  1
  I  I20  1  0.47835958  0.42100096  0.65380516  1
  I  I21  1  0.46526512  0.05356234  0.81679482  1
  I  I22  1  0.71860363  0.51351598  0.02959425  1
  I  I23  1  0.92520722  0.91317343  0.21147810  1
  I  I24  1  0.95190280  0.72154006  0.55138642  1
  I  I25  1  0.84610757  0.36497457  0.69014157  1
  I  I26  1  0.86621518  0.25186707  0.09891360  1
