# generated using pymatgen
data_RbH3(SeO3)2
_symmetry_space_group_name_H-M   'P 1'
_cell_length_a   6.16054454
_cell_length_b   20.11637172
_cell_length_c   12.39267423
_cell_angle_alpha   90.00000000
_cell_angle_beta   90.00000000
_cell_angle_gamma   90.00000000
_symmetry_Int_Tables_number   1
_chemical_formula_structural   RbH3(SeO3)2
_chemical_formula_sum   'Rb8 H24 Se16 O48'
_cell_volume   1535.79690257
_cell_formula_units_Z   8
loop_
 _symmetry_equiv_pos_site_id
 _symmetry_equiv_pos_as_xyz
  1  'x, y, z'
loop_
 _atom_site_type_symbol
 _atom_site_label
 _atom_site_symmetry_multiplicity
 _atom_site_fract_x
 _atom_site_fract_y
 _atom_site_fract_z
 _atom_site_occupancy
  Rb  Rb0  1  0.72613891  0.60858400  0.37493073  1
  Rb  Rb1  1  0.77386109  0.39141600  0.87493073  1
  Rb  Rb2  1  0.22613891  0.89141600  0.62506927  1
  Rb  Rb3  1  0.27386109  0.10858400  0.12506927  1
  Rb  Rb4  1  0.22732362  0.89158152  0.12401601  1
  Rb  Rb5  1  0.27267638  0.10841848  0.62401601  1
  Rb  Rb6  1  0.72732362  0.60841848  0.87598399  1
  Rb  Rb7  1  0.77267638  0.39158152  0.37598399  1
  H  H8  1  0.68549287  0.95111764  0.49646035  1
  H  H9  1  0.81450713  0.04888236  0.99646035  1
  H  H10  1  0.18549287  0.54888236  0.50353965  1
  H  H11  1  0.31450713  0.45111764  0.00353965  1
  H  H12  1  0.18663849  0.54366622  0.00798963  1
  H  H13  1  0.31336151  0.45633378  0.50798963  1
  H  H14  1  0.68663849  0.95633378  0.99201037  1
  H  H15  1  0.81336151  0.04366622  0.49201037  1
  H  H16  1  0.03181684  0.73579921  0.25972948  1
  H  H17  1  0.46818316  0.26420079  0.75972948  1
  H  H18  1  0.53181684  0.76420079  0.74027052  1
  H  H19  1  0.96818316  0.23579921  0.24027052  1
  H  H20  1  0.53163133  0.76420367  0.24064201  1
  H  H21  1  0.96836867  0.23579633  0.74064201  1
  H  H22  1  0.03163133  0.73579633  0.75935799  1
  H  H23  1  0.46836867  0.26420367  0.25935799  1
  H  H24  1  0.39790921  0.87737922  0.36293092  1
  H  H25  1  0.10209079  0.12262078  0.86293092  1
  H  H26  1  0.89790921  0.62262078  0.63706908  1
  H  H27  1  0.60209079  0.37737922  0.13706908  1
  H  H28  1  0.89545995  0.62261365  0.13781097  1
  H  H29  1  0.60454005  0.37738635  0.63781097  1
  H  H30  1  0.39545995  0.87738635  0.86218903  1
  H  H31  1  0.10454005  0.12261365  0.36218903  1
  Se  Se32  1  0.77737024  0.88451461  0.35140746  1
  Se  Se33  1  0.72262976  0.11548539  0.85140746  1
  Se  Se34  1  0.27737024  0.61548539  0.64859254  1
  Se  Se35  1  0.22262976  0.38451461  0.14859254  1
  Se  Se36  1  0.27430648  0.61511988  0.14753575  1
  Se  Se37  1  0.22569352  0.38488012  0.64753575  1
  Se  Se38  1  0.77430648  0.88488012  0.85246425  1
  Se  Se39  1  0.72569352  0.11511988  0.35246425  1
  Se  Se40  1  0.26220634  0.74426079  0.41664919  1
  Se  Se41  1  0.23779366  0.25573921  0.91664919  1
  Se  Se42  1  0.76220634  0.75573921  0.58335081  1
  Se  Se43  1  0.73779366  0.24426079  0.08335081  1
  Se  Se44  1  0.76114334  0.75598746  0.08342400  1
  Se  Se45  1  0.73885666  0.24401254  0.58342400  1
  Se  Se46  1  0.26114334  0.74401254  0.91657600  1
  Se  Se47  1  0.23885666  0.25598746  0.41657600  1
  O  O48  1  0.81429584  0.92219364  0.49007050  1
  O  O49  1  0.68570416  0.07780636  0.99007050  1
  O  O50  1  0.31429584  0.57780636  0.50992950  1
  O  O51  1  0.18570416  0.42219364  0.00992950  1
  O  O52  1  0.30533860  0.57651514  0.00963071  1
  O  O53  1  0.19466140  0.42348486  0.50963071  1
  O  O54  1  0.80533860  0.92348486  0.99036929  1
  O  O55  1  0.69466140  0.07651514  0.49036929  1
  O  O56  1  0.49647380  0.73066798  0.34680227  1
  O  O57  1  0.00352620  0.26933202  0.84680227  1
  O  O58  1  0.99647380  0.76933202  0.65319773  1
  O  O59  1  0.50352620  0.23066798  0.15319773  1
  O  O60  1  0.99526233  0.76937611  0.15351322  1
  O  O61  1  0.50473767  0.23062389  0.65351322  1
  O  O62  1  0.49526233  0.73062389  0.84648678  1
  O  O63  1  0.00473767  0.26937611  0.34648678  1
  O  O64  1  0.50232676  0.91477912  0.33949892  1
  O  O65  1  0.99767324  0.08522088  0.83949892  1
  O  O66  1  0.00232676  0.58522088  0.66050108  1
  O  O67  1  0.49767324  0.41477912  0.16050108  1
  O  O68  1  0.99912056  0.58550535  0.16295601  1
  O  O69  1  0.50087944  0.41449465  0.66295601  1
  O  O70  1  0.49912056  0.91449465  0.83704399  1
  O  O71  1  0.00087944  0.08550535  0.33704399  1
  O  O72  1  0.21547611  0.82774415  0.40349707  1
  O  O73  1  0.28452389  0.17225585  0.90349707  1
  O  O74  1  0.71547611  0.67225585  0.59650293  1
  O  O75  1  0.78452389  0.32774415  0.09650293  1
  O  O76  1  0.71423606  0.67247348  0.09571979  1
  O  O77  1  0.78576394  0.32752652  0.59571979  1
  O  O78  1  0.21423606  0.82752652  0.90428021  1
  O  O79  1  0.28576394  0.17247348  0.40428021  1
  O  O80  1  0.90988943  0.93500130  0.27172343  1
  O  O81  1  0.59011057  0.06499870  0.77172343  1
  O  O82  1  0.40988943  0.56499870  0.72827657  1
  O  O83  1  0.09011057  0.43500130  0.22827657  1
  O  O84  1  0.40790148  0.56519339  0.22796679  1
  O  O85  1  0.09209852  0.43480661  0.72796679  1
  O  O86  1  0.90790148  0.93480661  0.77203321  1
  O  O87  1  0.59209852  0.06519339  0.27203321  1
  O  O88  1  0.05639478  0.70862708  0.33105032  1
  O  O89  1  0.44360522  0.29137292  0.83105032  1
  O  O90  1  0.55639478  0.79137292  0.66894968  1
  O  O91  1  0.94360522  0.20862708  0.16894968  1
  O  O92  1  0.55538599  0.79142591  0.16931189  1
  O  O93  1  0.94461401  0.20857409  0.66931189  1
  O  O94  1  0.05538599  0.70857409  0.83068811  1
  O  O95  1  0.44461401  0.29142591  0.33068811  1
