# generated using pymatgen
data_ZrH7CN4F5
_symmetry_space_group_name_H-M   'P 1'
_cell_length_a   6.75764600
_cell_length_b   7.00543589
_cell_length_c   16.43293233
_cell_angle_alpha   90.00000000
_cell_angle_beta   90.00000000
_cell_angle_gamma   90.00000000
_symmetry_Int_Tables_number   1
_chemical_formula_structural   ZrH7CN4F5
_chemical_formula_sum   'Zr4 H28 C4 N16 F20'
_cell_volume   777.93922038
_cell_formula_units_Z   4
loop_
 _symmetry_equiv_pos_site_id
 _symmetry_equiv_pos_as_xyz
  1  'x, y, z'
loop_
 _atom_site_type_symbol
 _atom_site_label
 _atom_site_symmetry_multiplicity
 _atom_site_fract_x
 _atom_site_fract_y
 _atom_site_fract_z
 _atom_site_occupancy
  Zr  Zr0  1  0.56114178  0.25000000  0.29204512  1
  Zr  Zr1  1  0.06114178  0.25000000  0.20795488  1
  Zr  Zr2  1  0.43885822  0.75000000  0.70795488  1
  Zr  Zr3  1  0.93885822  0.75000000  0.79204512  1
  H  H4  1  0.57107874  0.25000000  0.82312222  1
  H  H5  1  0.07107874  0.25000000  0.67687778  1
  H  H6  1  0.42892126  0.75000000  0.17687778  1
  H  H7  1  0.92892126  0.75000000  0.32312222  1
  H  H8  1  0.74367614  0.36634826  0.65117452  1
  H  H9  1  0.24367614  0.13365174  0.84882548  1
  H  H10  1  0.25632386  0.86634826  0.34882548  1
  H  H11  1  0.75632386  0.63365174  0.15117452  1
  H  H12  1  0.25632386  0.63365174  0.34882548  1
  H  H13  1  0.75632386  0.86634826  0.15117452  1
  H  H14  1  0.74367614  0.13365174  0.65117452  1
  H  H15  1  0.24367614  0.36634826  0.84882548  1
  H  H16  1  0.86957015  0.25000000  0.88632571  1
  H  H17  1  0.36957015  0.25000000  0.61367429  1
  H  H18  1  0.13042985  0.75000000  0.11367429  1
  H  H19  1  0.63042985  0.75000000  0.38632571  1
  H  H20  1  0.89203262  0.25000000  0.99246590  1
  H  H21  1  0.39203262  0.25000000  0.50753410  1
  H  H22  1  0.10796738  0.75000000  0.00753410  1
  H  H23  1  0.60796738  0.75000000  0.49246590  1
  H  H24  1  0.58969344  0.25000000  0.07163653  1
  H  H25  1  0.08969344  0.25000000  0.42836347  1
  H  H26  1  0.41030656  0.75000000  0.92836347  1
  H  H27  1  0.91030656  0.75000000  0.57163653  1
  H  H28  1  0.36234770  0.25000000  0.01929261  1
  H  H29  1  0.86234770  0.25000000  0.48070739  1
  H  H30  1  0.63765230  0.75000000  0.98070739  1
  H  H31  1  0.13765230  0.75000000  0.51929261  1
  C  C32  1  0.60659021  0.25000000  0.94711336  1
  C  C33  1  0.10659021  0.25000000  0.55288664  1
  C  C34  1  0.39340979  0.75000000  0.05288664  1
  C  C35  1  0.89340979  0.75000000  0.44711336  1
  N  N36  1  0.50089085  0.25000000  0.87797651  1
  N  N37  1  0.00089085  0.25000000  0.62202349  1
  N  N38  1  0.49910915  0.75000000  0.12202349  1
  N  N39  1  0.99910915  0.75000000  0.37797651  1
  N  N40  1  0.79378419  0.25000000  0.61965089  1
  N  N41  1  0.29378419  0.25000000  0.88034911  1
  N  N42  1  0.20621581  0.75000000  0.38034911  1
  N  N43  1  0.70621581  0.75000000  0.11965089  1
  N  N44  1  0.80409730  0.25000000  0.94198643  1
  N  N45  1  0.30409730  0.25000000  0.55801357  1
  N  N46  1  0.19590270  0.75000000  0.05801357  1
  N  N47  1  0.69590270  0.75000000  0.44198643  1
  N  N48  1  0.51340825  0.25000000  0.01862302  1
  N  N49  1  0.01340825  0.25000000  0.48137698  1
  N  N50  1  0.48659175  0.75000000  0.98137698  1
  N  N51  1  0.98659175  0.75000000  0.51862302  1
  F  F52  1  0.87028761  0.25000000  0.31673594  1
  F  F53  1  0.37028761  0.25000000  0.18326406  1
  F  F54  1  0.12971239  0.75000000  0.68326406  1
  F  F55  1  0.62971239  0.75000000  0.81673594  1
  F  F56  1  0.74724180  0.25000000  0.17960537  1
  F  F57  1  0.24724180  0.25000000  0.32039463  1
  F  F58  1  0.25275820  0.75000000  0.82039463  1
  F  F59  1  0.75275820  0.75000000  0.67960537  1
  F  F60  1  0.56112247  0.25000000  0.41415041  1
  F  F61  1  0.06112247  0.25000000  0.08584959  1
  F  F62  1  0.43887753  0.75000000  0.58584959  1
  F  F63  1  0.93887753  0.75000000  0.91415041  1
  F  F64  1  0.55373394  0.53674722  0.28264441  1
  F  F65  1  0.05373394  0.96325278  0.21735559  1
  F  F66  1  0.44626606  0.03674722  0.71735559  1
  F  F67  1  0.94626606  0.46325278  0.78264441  1
  F  F68  1  0.44626606  0.46325278  0.71735559  1
  F  F69  1  0.94626606  0.03674722  0.78264441  1
  F  F70  1  0.55373394  0.96325278  0.28264441  1
  F  F71  1  0.05373394  0.53674722  0.21735559  1
