# generated using pymatgen
data_KCaCrH10C6O17
_symmetry_space_group_name_H-M   'P 1'
_cell_length_a   11.18186390
_cell_length_b   11.31903713
_cell_length_c   13.70617085
_cell_angle_alpha   90.00000000
_cell_angle_beta   99.46507026
_cell_angle_gamma   90.00000000
_symmetry_Int_Tables_number   1
_chemical_formula_structural   KCaCrH10C6O17
_chemical_formula_sum   'K4 Ca4 Cr4 H40 C24 O68'
_cell_volume   1711.14472808
_cell_formula_units_Z   4
loop_
 _symmetry_equiv_pos_site_id
 _symmetry_equiv_pos_as_xyz
  1  'x, y, z'
loop_
 _atom_site_type_symbol
 _atom_site_label
 _atom_site_symmetry_multiplicity
 _atom_site_fract_x
 _atom_site_fract_y
 _atom_site_fract_z
 _atom_site_occupancy
  K  K0  1  0.33537443  0.27981490  0.06914248  1
  K  K1  1  0.83537443  0.22018510  0.56914248  1
  K  K2  1  0.66462557  0.72018510  0.93085752  1
  K  K3  1  0.16462557  0.77981490  0.43085752  1
  Ca  Ca4  1  0.45582602  0.59412780  0.35175632  1
  Ca  Ca5  1  0.95582602  0.90587220  0.85175632  1
  Ca  Ca6  1  0.54417398  0.40587220  0.64824368  1
  Ca  Ca7  1  0.04417398  0.09412780  0.14824368  1
  Cr  Cr8  1  0.59494752  0.09285488  0.32299293  1
  Cr  Cr9  1  0.09494752  0.40714512  0.82299293  1
  Cr  Cr10  1  0.40505248  0.90714512  0.67700707  1
  Cr  Cr11  1  0.90505248  0.59285488  0.17700707  1
  H  H12  1  0.21379336  0.56912087  0.20208104  1
  H  H13  1  0.71379336  0.93087913  0.70208104  1
  H  H14  1  0.78620664  0.43087913  0.79791896  1
  H  H15  1  0.28620664  0.06912087  0.29791896  1
  H  H16  1  0.29306017  0.66919352  0.16227963  1
  H  H17  1  0.79306017  0.83080648  0.66227963  1
  H  H18  1  0.70693983  0.33080648  0.83772037  1
  H  H19  1  0.20693983  0.16919352  0.33772037  1
  H  H20  1  0.23409690  0.47253287  0.40057098  1
  H  H21  1  0.73409690  0.02746713  0.90057098  1
  H  H22  1  0.76590310  0.52746713  0.59942902  1
  H  H23  1  0.26590310  0.97253287  0.09942902  1
  H  H24  1  0.28624815  0.53534778  0.49755952  1
  H  H25  1  0.78624815  0.96465222  0.99755952  1
  H  H26  1  0.71375185  0.46465222  0.50244048  1
  H  H27  1  0.21375185  0.03534778  0.00244048  1
  H  H28  1  0.24444910  0.78509780  0.01741983  1
  H  H29  1  0.74444910  0.71490220  0.51741983  1
  H  H30  1  0.75555090  0.21490220  0.98258017  1
  H  H31  1  0.25555090  0.28509780  0.48258017  1
  H  H32  1  0.38261843  0.79365590  0.06838392  1
  H  H33  1  0.88261843  0.70634410  0.56838392  1
  H  H34  1  0.61738157  0.20634410  0.93161608  1
  H  H35  1  0.11738157  0.29365590  0.43161608  1
  H  H36  1  0.41411780  0.09591715  0.89544916  1
  H  H37  1  0.91411780  0.40408285  0.39544916  1
  H  H38  1  0.58588220  0.90408285  0.10455084  1
  H  H39  1  0.08588220  0.59591715  0.60455084  1
  H  H40  1  0.53418857  0.06095528  0.95860632  1
  H  H41  1  0.03418857  0.43904472  0.45860632  1
  H  H42  1  0.46581143  0.93904472  0.04139368  1
  H  H43  1  0.96581143  0.56095528  0.54139368  1
  H  H44  1  0.30857342  0.53407575  0.98001756  1
  H  H45  1  0.80857342  0.96592425  0.48001756  1
  H  H46  1  0.69142658  0.46592425  0.01998244  1
  H  H47  1  0.19142658  0.03407575  0.51998244  1
  H  H48  1  0.44705501  0.56197223  0.00845703  1
  H  H49  1  0.94705501  0.93802777  0.50845703  1
  H  H50  1  0.55294499  0.43802777  0.99154297  1
  H  H51  1  0.05294499  0.06197223  0.49154297  1
  C  C52  1  0.59283067  0.86198847  0.39369593  1
  C  C53  1  0.09283067  0.63801153  0.89369593  1
  C  C54  1  0.40716933  0.13801153  0.60630407  1
  C  C55  1  0.90716933  0.36198847  0.10630407  1
  C  C56  1  0.46067572  0.88729887  0.34283739  1
  C  C57  1  0.96067572  0.61270113  0.84283739  1
  C  C58  1  0.53932428  0.11270113  0.65716261  1
  C  C59  1  0.03932428  0.38729887  0.15716261  1
  C  C60  1  0.48863061  0.31478094  0.29101882  1
  C  C61  1  0.98863061  0.18521906  0.79101882  1
  C  C62  1  0.51136939  0.68521906  0.70898118  1
  C  C63  1  0.01136939  0.81478094  0.20898118  1
  C  C64  1  0.51705873  0.29861474  0.40451860  1
  C  C65  1  0.01705873  0.20138526  0.90451860  1
  C  C66  1  0.48294127  0.70138526  0.59548140  1
  C  C67  1  0.98294127  0.79861474  0.09548140  1
  C  C68  1  0.82801433  0.13295977  0.28012950  1
  C  C69  1  0.32801433  0.36704023  0.78012950  1
  C  C70  1  0.17198567  0.86704023  0.71987050  1
  C  C71  1  0.67198567  0.63295977  0.21987050  1
  C  C72  1  0.76506303  0.04789659  0.19829790  1
  C  C73  1  0.26506303  0.45210341  0.69829790  1
  C  C74  1  0.23493697  0.95210341  0.80170210  1
  C  C75  1  0.73493697  0.54789659  0.30170210  1
  O  O76  1  0.66171304  0.95466813  0.40710901  1
  O  O77  1  0.16171304  0.54533187  0.90710901  1
  O  O78  1  0.33828696  0.04533187  0.59289099  1
  O  O79  1  0.83828696  0.45466813  0.09289099  1
  O  O80  1  0.62376885  0.75995322  0.41939617  1
  O  O81  1  0.12376885  0.74004678  0.91939617  1
  O  O82  1  0.37623115  0.24004678  0.58060383  1
  O  O83  1  0.87623115  0.25995322  0.08060383  1
  O  O84  1  0.44259379  0.99430329  0.30938398  1
  O  O85  1  0.94259379  0.50569671  0.80938398  1
  O  O86  1  0.55740621  0.00569671  0.69061602  1
  O  O87  1  0.05740621  0.49430329  0.19061602  1
  O  O88  1  0.38271973  0.80896639  0.33949052  1
  O  O89  1  0.88271973  0.69103361  0.83949052  1
  O  O90  1  0.61728027  0.19103361  0.66050948  1
  O  O91  1  0.11728027  0.30896639  0.16050948  1
  O  O92  1  0.51432956  0.22408610  0.24040109  1
  O  O93  1  0.01432956  0.27591390  0.74040109  1
  O  O94  1  0.48567044  0.77591390  0.75959891  1
  O  O95  1  0.98567044  0.72408610  0.25959891  1
  O  O96  1  0.44416978  0.40813943  0.25430546  1
  O  O97  1  0.94416978  0.09186057  0.75430546  1
  O  O98  1  0.55583022  0.59186057  0.74569454  1
  O  O99  1  0.05583022  0.90813943  0.24569454  1
  O  O100  1  0.55676520  0.19502176  0.43314176  1
  O  O101  1  0.05676520  0.30497824  0.93314176  1
  O  O102  1  0.44323480  0.80497824  0.56685824  1
  O  O103  1  0.94323480  0.69502176  0.06685824  1
  O  O104  1  0.50123997  0.38312184  0.45927277  1
  O  O105  1  0.00123997  0.11687816  0.95927277  1
  O  O106  1  0.49876003  0.61687816  0.54072723  1
  O  O107  1  0.99876003  0.88312184  0.04072723  1
  O  O108  1  0.75913572  0.16804780  0.34172414  1
  O  O109  1  0.25913572  0.33195220  0.84172414  1
  O  O110  1  0.24086428  0.83195220  0.65827586  1
  O  O111  1  0.74086428  0.66804780  0.15827586  1
  O  O112  1  0.93540062  0.16142921  0.28205741  1
  O  O113  1  0.43540062  0.33857079  0.78205741  1
  O  O114  1  0.06459938  0.83857079  0.71794259  1
  O  O115  1  0.56459938  0.66142921  0.21794259  1
  O  O116  1  0.65572590  0.01675478  0.20635864  1
  O  O117  1  0.15572590  0.48324522  0.70635864  1
  O  O118  1  0.34427410  0.98324522  0.79364136  1
  O  O119  1  0.84427410  0.51675478  0.29364136  1
  O  O120  1  0.82129806  0.01511703  0.13180189  1
  O  O121  1  0.32129806  0.48488297  0.63180189  1
  O  O122  1  0.17870194  0.98488297  0.86819811  1
  O  O123  1  0.67870194  0.51511703  0.36819811  1
  O  O124  1  0.28848083  0.61544782  0.21806231  1
  O  O125  1  0.78848083  0.88455218  0.71806231  1
  O  O126  1  0.71151917  0.38455218  0.78193769  1
  O  O127  1  0.21151917  0.11544782  0.28193769  1
  O  O128  1  0.26668722  0.54994069  0.42566768  1
  O  O129  1  0.76668722  0.95005931  0.92566768  1
  O  O130  1  0.73331278  0.45005931  0.57433232  1
  O  O131  1  0.23331278  0.04994069  0.07433232  1
  O  O132  1  0.29883380  0.80586627  0.07967109  1
  O  O133  1  0.79883380  0.69413373  0.57967109  1
  O  O134  1  0.70116620  0.19413373  0.92032891  1
  O  O135  1  0.20116620  0.30586627  0.42032891  1
  O  O136  1  0.47165029  0.12190909  0.95389815  1
  O  O137  1  0.97165029  0.37809091  0.45389815  1
  O  O138  1  0.52834971  0.87809091  0.04610185  1
  O  O139  1  0.02834971  0.62190909  0.54610185  1
  O  O140  1  0.38376547  0.50893870  0.02296410  1
  O  O141  1  0.88376547  0.99106130  0.52296410  1
  O  O142  1  0.61623453  0.49106130  0.97703590  1
  O  O143  1  0.11623453  0.00893870  0.47703590  1
