# generated using pymatgen
data_CoH10C4(N2O3)2
_symmetry_space_group_name_H-M   'P 1'
_cell_length_a   12.10769297
_cell_length_b   12.10769297
_cell_length_c   15.44687052
_cell_angle_alpha   67.49857966
_cell_angle_beta   112.50142034
_cell_angle_gamma   90.48670330
_symmetry_Int_Tables_number   1
_chemical_formula_structural   CoH10C4(N2O3)2
_chemical_formula_sum   'Co8 H80 C32 N32 O48'
_cell_volume   1907.37366798
_cell_formula_units_Z   8
loop_
 _symmetry_equiv_pos_site_id
 _symmetry_equiv_pos_as_xyz
  1  'x, y, z'
loop_
 _atom_site_type_symbol
 _atom_site_label
 _atom_site_symmetry_multiplicity
 _atom_site_fract_x
 _atom_site_fract_y
 _atom_site_fract_z
 _atom_site_occupancy
  Co  Co0  1  0.25118657  0.75880640  0.00318673  1
  Co  Co1  1  0.75880640  0.25118657  0.49681327  1
  Co  Co2  1  0.74881343  0.24119360  0.99681327  1
  Co  Co3  1  0.24119360  0.74881343  0.50318673  1
  Co  Co4  1  0.74850697  0.74318584  0.99734182  1
  Co  Co5  1  0.74318584  0.74850697  0.50265818  1
  Co  Co6  1  0.25149303  0.25681416  0.00265818  1
  Co  Co7  1  0.25681416  0.25149303  0.49734182  1
  H  H8  1  0.54381112  0.65277347  0.33097352  1
  H  H9  1  0.65277347  0.54381112  0.16902648  1
  H  H10  1  0.45618888  0.34722653  0.66902648  1
  H  H11  1  0.34722653  0.45618888  0.83097352  1
  H  H12  1  0.50374439  0.51395254  0.39279961  1
  H  H13  1  0.51395254  0.50374439  0.10720039  1
  H  H14  1  0.49625561  0.48604746  0.60720039  1
  H  H15  1  0.48604746  0.49625561  0.89279961  1
  H  H16  1  0.24056273  0.53979024  0.17884817  1
  H  H17  1  0.53979024  0.24056273  0.32115183  1
  H  H18  1  0.75943727  0.46020976  0.82115183  1
  H  H19  1  0.46020976  0.75943727  0.67884817  1
  H  H20  1  0.33025451  0.45781159  0.31150586  1
  H  H21  1  0.45781159  0.33025451  0.18849414  1
  H  H22  1  0.66974549  0.54218841  0.68849414  1
  H  H23  1  0.54218841  0.66974549  0.81150586  1
  H  H24  1  0.97073280  0.98196011  0.67305358  1
  H  H25  1  0.98196011  0.97073280  0.82694642  1
  H  H26  1  0.02926720  0.01803989  0.32694642  1
  H  H27  1  0.01803989  0.02926720  0.17305358  1
  H  H28  1  0.00379871  0.90153596  0.61072818  1
  H  H29  1  0.90153596  0.00379871  0.88927182  1
  H  H30  1  0.99620129  0.09846404  0.38927182  1
  H  H31  1  0.09846404  0.99620129  0.11072818  1
  H  H32  1  0.17287214  0.75776411  0.69343802  1
  H  H33  1  0.75776411  0.17287214  0.80656198  1
  H  H34  1  0.82712786  0.24223589  0.30656198  1
  H  H35  1  0.24223589  0.82712786  0.19343802  1
  H  H36  1  0.25201525  0.70112871  0.82751820  1
  H  H37  1  0.70112871  0.25201525  0.67248180  1
  H  H38  1  0.74798475  0.29887129  0.17248180  1
  H  H39  1  0.29887129  0.74798475  0.32751820  1
  H  H40  1  0.58366913  0.95553238  0.60098332  1
  H  H41  1  0.95553238  0.58366913  0.89901668  1
  H  H42  1  0.41633087  0.04446762  0.39901668  1
  H  H43  1  0.04446762  0.41633087  0.10098332  1
  H  H44  1  0.70664513  0.83606910  0.66605159  1
  H  H45  1  0.83606910  0.70664513  0.83394841  1
  H  H46  1  0.29335487  0.16393090  0.33394841  1
  H  H47  1  0.16393090  0.29335487  0.16605159  1
  H  H48  1  0.49362466  0.01191514  0.68427597  1
  H  H49  1  0.01191514  0.49362466  0.81572403  1
  H  H50  1  0.50637534  0.98808486  0.31572403  1
  H  H51  1  0.98808486  0.50637534  0.18427597  1
  H  H52  1  0.55606634  0.94716075  0.82008735  1
  H  H53  1  0.94716075  0.55606634  0.67991265  1
  H  H54  1  0.44393366  0.05283925  0.17991265  1
  H  H55  1  0.05283925  0.44393366  0.32008735  1
  H  H56  1  0.93071842  0.55645299  0.39235485  1
  H  H57  1  0.55645299  0.93071842  0.10764515  1
  H  H58  1  0.06928158  0.44354701  0.60764515  1
  H  H59  1  0.44354701  0.06928158  0.89235485  1
  H  H60  1  0.80500153  0.50169974  0.32761274  1
  H  H61  1  0.50169974  0.80500153  0.17238726  1
  H  H62  1  0.19499847  0.49830026  0.67238726  1
  H  H63  1  0.49830026  0.19499847  0.82761274  1
  H  H64  1  0.93799091  0.78401195  0.17063759  1
  H  H65  1  0.78401195  0.93799091  0.32936241  1
  H  H66  1  0.06200909  0.21598805  0.82936241  1
  H  H67  1  0.21598805  0.06200909  0.67063759  1
  H  H68  1  0.01085752  0.70635926  0.30584103  1
  H  H69  1  0.70635926  0.01085752  0.19415897  1
  H  H70  1  0.98914248  0.29364074  0.69415897  1
  H  H71  1  0.29364074  0.98914248  0.80584103  1
  H  H72  1  0.28430516  0.02527010  0.95864672  1
  H  H73  1  0.02527010  0.28430516  0.54135328  1
  H  H74  1  0.71569484  0.97472990  0.04135328  1
  H  H75  1  0.97472990  0.71569484  0.45864672  1
  H  H76  1  0.50573455  0.69551258  0.02487300  1
  H  H77  1  0.69551258  0.50573455  0.47512700  1
  H  H78  1  0.49426545  0.30448742  0.97512700  1
  H  H79  1  0.30448742  0.49426545  0.52487300  1
  H  H80  1  0.99261291  0.80842060  0.98530233  1
  H  H81  1  0.80842060  0.99261291  0.51469767  1
  H  H82  1  0.00738709  0.19157940  0.01469767  1
  H  H83  1  0.19157940  0.00738709  0.48530233  1
  H  H84  1  0.17593614  0.51889044  0.96108931  1
  H  H85  1  0.51889044  0.17593614  0.53891069  1
  H  H86  1  0.82406386  0.48110956  0.03891069  1
  H  H87  1  0.48110956  0.82406386  0.46108931  1
  C  C88  1  0.39121269  0.60905758  0.23996994  1
  C  C89  1  0.60905758  0.39121269  0.26003006  1
  C  C90  1  0.60878731  0.39094242  0.76003006  1
  C  C91  1  0.39094242  0.60878731  0.73996994  1
  C  C92  1  0.11488450  0.84339888  0.76446240  1
  C  C93  1  0.84339888  0.11488450  0.73553760  1
  C  C94  1  0.88511550  0.15660112  0.23553760  1
  C  C95  1  0.15660112  0.88511550  0.26446240  1
  C  C96  1  0.21695728  0.01111437  0.99263593  1
  C  C97  1  0.01111437  0.21695728  0.50736407  1
  C  C98  1  0.78304272  0.98888563  0.00736407  1
  C  C99  1  0.98888563  0.78304272  0.49263593  1
  C  C100  1  0.48973888  0.79409482  0.97996335  1
  C  C101  1  0.79409482  0.48973888  0.52003665  1
  C  C102  1  0.51026112  0.20590518  0.02003665  1
  C  C103  1  0.20590518  0.51026112  0.47996335  1
  C  C104  1  0.64722849  0.88524513  0.75745605  1
  C  C105  1  0.88524513  0.64722849  0.74254395  1
  C  C106  1  0.35277151  0.11475487  0.24254395  1
  C  C107  1  0.11475487  0.35277151  0.25745605  1
  C  C108  1  0.85577828  0.64785600  0.23495549  1
  C  C109  1  0.64785600  0.85577828  0.26504451  1
  C  C110  1  0.14422172  0.35214400  0.76504451  1
  C  C111  1  0.35214400  0.14422172  0.73495549  1
  C  C112  1  0.01310182  0.70884649  0.02311436  1
  C  C113  1  0.70884649  0.01310182  0.47688564  1
  C  C114  1  0.98689818  0.29115351  0.97688564  1
  C  C115  1  0.29115351  0.98689818  0.52311436  1
  C  C116  1  0.27605581  0.50780271  0.99581730  1
  C  C117  1  0.50780271  0.27605581  0.50418270  1
  C  C118  1  0.72394419  0.49219729  0.00418270  1
  C  C119  1  0.49219729  0.72394419  0.49581730  1
  N  N120  1  0.48306218  0.59344329  0.32982680  1
  N  N121  1  0.59344329  0.48306218  0.17017320  1
  N  N122  1  0.51693782  0.40655671  0.67017320  1
  N  N123  1  0.40655671  0.51693782  0.82982680  1
  N  N124  1  0.31842251  0.52383801  0.24241086  1
  N  N125  1  0.52383801  0.31842251  0.25758914  1
  N  N126  1  0.68157749  0.47616199  0.75758914  1
  N  N127  1  0.47616199  0.68157749  0.74241086  1
  N  N128  1  0.02924239  0.92111847  0.67367215  1
  N  N129  1  0.92111847  0.02924239  0.82632785  1
  N  N130  1  0.97075761  0.07888153  0.32632785  1
  N  N131  1  0.07888153  0.97075761  0.17367215  1
  N  N132  1  0.18880811  0.76353486  0.76112499  1
  N  N133  1  0.76353486  0.18880811  0.73887501  1
  N  N134  1  0.81119189  0.23646514  0.23887501  1
  N  N135  1  0.23646514  0.81119189  0.26112499  1
  N  N136  1  0.64619817  0.89321539  0.66787760  1
  N  N137  1  0.89321539  0.64619817  0.83212240  1
  N  N138  1  0.35380183  0.10678461  0.33212240  1
  N  N139  1  0.10678461  0.35380183  0.16787760  1
  N  N140  1  0.56420950  0.96313815  0.75314154  1
  N  N141  1  0.96313815  0.56420950  0.74685846  1
  N  N142  1  0.43579050  0.03686185  0.24685846  1
  N  N143  1  0.03686185  0.43579050  0.25314154  1
  N  N144  1  0.86435096  0.56269943  0.32571612  1
  N  N145  1  0.56269943  0.86435096  0.17428388  1
  N  N146  1  0.13564904  0.43730057  0.67428388  1
  N  N147  1  0.43730057  0.13564904  0.82571612  1
  N  N148  1  0.94024526  0.72122284  0.23805062  1
  N  N149  1  0.72122284  0.94024526  0.26194938  1
  N  N150  1  0.05975474  0.27877716  0.76194938  1
  N  N151  1  0.27877716  0.05975474  0.73805062  1
  O  O152  1  0.37531436  0.70179949  0.15839617  1
  O  O153  1  0.70179949  0.37531436  0.34160383  1
  O  O154  1  0.62468564  0.29820051  0.84160383  1
  O  O155  1  0.29820051  0.62468564  0.65839617  1
  O  O156  1  0.12672671  0.85027565  0.84784885  1
  O  O157  1  0.85027565  0.12672671  0.65215115  1
  O  O158  1  0.87327329  0.14972435  0.15215115  1
  O  O159  1  0.14972435  0.87327329  0.34784885  1
  O  O160  1  0.18997342  0.90595177  0.02444088  1
  O  O161  1  0.90595177  0.18997342  0.47555912  1
  O  O162  1  0.81002658  0.09404823  0.97555912  1
  O  O163  1  0.09404823  0.81002658  0.52444088  1
  O  O164  1  0.38740822  0.85246501  0.95517521  1
  O  O165  1  0.85246501  0.38740822  0.54482479  1
  O  O166  1  0.61259178  0.14753499  0.04482479  1
  O  O167  1  0.14753499  0.61259178  0.45517521  1
  O  O168  1  0.11750674  0.65846391  0.04394472  1
  O  O169  1  0.65846391  0.11750674  0.45605528  1
  O  O170  1  0.88249326  0.34153609  0.95605528  1
  O  O171  1  0.34153609  0.88249326  0.54394472  1
  O  O172  1  0.32493637  0.59938860  0.00195012  1
  O  O173  1  0.59938860  0.32493637  0.49804988  1
  O  O174  1  0.67506363  0.40061140  0.99804988  1
  O  O175  1  0.40061140  0.67506363  0.50195012  1
  O  O176  1  0.77065009  0.65646222  0.15127269  1
  O  O177  1  0.65646222  0.77065009  0.34872731  1
  O  O178  1  0.22934991  0.34353778  0.84872731  1
  O  O179  1  0.34353778  0.22934991  0.65127269  1
  O  O180  1  0.72548392  0.80704857  0.84245127  1
  O  O181  1  0.80704857  0.72548392  0.65754873  1
  O  O182  1  0.27451608  0.19295143  0.15754873  1
  O  O183  1  0.19295143  0.27451608  0.34245127  1
  O  O184  1  0.93113182  0.65163336  0.04340256  1
  O  O185  1  0.65163336  0.93113182  0.45659744  1
  O  O186  1  0.06886818  0.34836664  0.95659744  1
  O  O187  1  0.34836664  0.06886818  0.54340256  1
  O  O188  1  0.33514993  0.40388090  0.02718082  1
  O  O189  1  0.40388090  0.33514993  0.47281918  1
  O  O190  1  0.66485007  0.59611910  0.97281918  1
  O  O191  1  0.59611910  0.66485007  0.52718082  1
  O  O192  1  0.17161195  0.10109442  0.99828283  1
  O  O193  1  0.10109442  0.17161195  0.50171717  1
  O  O194  1  0.82838805  0.89890558  0.00171717  1
  O  O195  1  0.89890558  0.82838805  0.49828283  1
  O  O196  1  0.57381313  0.84182842  0.95625451  1
  O  O197  1  0.84182842  0.57381313  0.54374549  1
  O  O198  1  0.42618687  0.15817158  0.04374549  1
  O  O199  1  0.15817158  0.42618687  0.45625451  1
