# generated using pymatgen
data_K3GdH6(C2O5)3
_symmetry_space_group_name_H-M   'P 1'
_cell_length_a   9.46818945
_cell_length_b   8.64478401
_cell_length_c   9.80886868
_cell_angle_alpha   88.15480550
_cell_angle_beta   82.04912454
_cell_angle_gamma   96.70882405
_symmetry_Int_Tables_number   1
_chemical_formula_structural   K3GdH6(C2O5)3
_chemical_formula_sum   'K6 Gd2 H12 C12 O30'
_cell_volume   788.74287289
_cell_formula_units_Z   2
loop_
 _symmetry_equiv_pos_site_id
 _symmetry_equiv_pos_as_xyz
  1  'x, y, z'
loop_
 _atom_site_type_symbol
 _atom_site_label
 _atom_site_symmetry_multiplicity
 _atom_site_fract_x
 _atom_site_fract_y
 _atom_site_fract_z
 _atom_site_occupancy
  K  K0  1  0.85687369  0.71197236  0.11293434  1
  K  K1  1  0.14312631  0.28802764  0.88706566  1
  K  K2  1  0.68080318  0.94982789  0.38795440  1
  K  K3  1  0.31919682  0.05017211  0.61204560  1
  K  K4  1  0.21139979  0.65094370  0.30045080  1
  K  K5  1  0.78860021  0.34905630  0.69954920  1
  Gd  Gd6  1  0.63886367  0.77398015  0.78314893  1
  Gd  Gd7  1  0.36113633  0.22601985  0.21685107  1
  H  H8  1  0.88269759  0.74064395  0.53308912  1
  H  H9  1  0.11730241  0.25935605  0.46691088  1
  H  H10  1  0.74551862  0.63541094  0.50613609  1
  H  H11  1  0.25448138  0.36458906  0.49386391  1
  H  H12  1  0.00066396  0.61264729  0.78759762  1
  H  H13  1  0.99933604  0.38735271  0.21240238  1
  H  H14  1  0.12367545  0.57526265  0.67519701  1
  H  H15  1  0.87632455  0.42473735  0.32480299  1
  H  H16  1  0.14075450  0.85659068  0.95764519  1
  H  H17  1  0.85924550  0.14340932  0.04235481  1
  H  H18  1  0.23404882  0.72539677  0.98296777  1
  H  H19  1  0.76595118  0.27460323  0.01703223  1
  C  C20  1  0.42384672  0.52625188  0.00157458  1
  C  C21  1  0.57615328  0.47374812  0.99842542  1
  C  C22  1  0.46014198  0.03320404  0.94369822  1
  C  C23  1  0.53985802  0.96679596  0.05630178  1
  C  C24  1  0.96927049  0.93204391  0.78782608  1
  C  C25  1  0.03072951  0.06795609  0.21217392  1
  C  C26  1  0.91484498  0.03588033  0.67736525  1
  C  C27  1  0.08515502  0.96411967  0.32263475  1
  C  C28  1  0.38624349  0.67803149  0.60407069  1
  C  C29  1  0.61375651  0.32196851  0.39592931  1
  C  C30  1  0.42284070  0.51412131  0.65076459  1
  C  C31  1  0.57715930  0.48587869  0.34923541  1
  O  O32  1  0.41390449  0.64911116  0.93204425  1
  O  O33  1  0.58609551  0.35088884  0.06795575  1
  O  O34  1  0.68073086  0.55822299  0.92668683  1
  O  O35  1  0.31926914  0.44177701  0.07331317  1
  O  O36  1  0.48792787  0.98379434  0.82326233  1
  O  O37  1  0.51207213  0.01620566  0.17673767  1
  O  O38  1  0.62558757  0.86941081  0.02046945  1
  O  O39  1  0.37441243  0.13058919  0.97953055  1
  O  O40  1  0.88286927  0.81184226  0.83587173  1
  O  O41  1  0.11713073  0.18815774  0.16412827  1
  O  O42  1  0.78271026  0.00207000  0.66184531  1
  O  O43  1  0.21728974  0.99793000  0.33815469  1
  O  O44  1  0.48664046  0.79122271  0.60541716  1
  O  O45  1  0.51335954  0.20877729  0.39458284  1
  O  O46  1  0.54059768  0.51563177  0.69884254  1
  O  O47  1  0.45940232  0.48436823  0.30115746  1
  O  O48  1  0.09098603  0.97263773  0.82181796  1
  O  O49  1  0.90901397  0.02736227  0.17818204  1
  O  O50  1  0.00185811  0.14549829  0.61666151  1
  O  O51  1  0.99814189  0.85450171  0.38333849  1
  O  O52  1  0.26525066  0.69124683  0.56942002  1
  O  O53  1  0.73474934  0.30875317  0.43057998  1
  O  O54  1  0.33587450  0.39455691  0.63793173  1
  O  O55  1  0.66412550  0.60544309  0.36206827  1
  O  O56  1  0.79645412  0.67777437  0.58234181  1
  O  O57  1  0.20354588  0.32222563  0.41765819  1
  O  O58  1  0.04440221  0.52535607  0.74570154  1
  O  O59  1  0.95559779  0.47464393  0.25429846  1
  O  O60  1  0.15452489  0.77721654  0.02883793  1
  O  O61  1  0.84547511  0.22278346  0.97116207  1
