# generated using pymatgen
data_K2P2H2O7
_symmetry_space_group_name_H-M   'P 1'
_cell_length_a   11.18348338
_cell_length_b   8.44362832
_cell_length_c   8.39625225
_cell_angle_alpha   87.04975820
_cell_angle_beta   85.44737677
_cell_angle_gamma   81.15470838
_symmetry_Int_Tables_number   1
_chemical_formula_structural   K2P2H2O7
_chemical_formula_sum   'K8 P8 H8 O28'
_cell_volume   780.32941154
_cell_formula_units_Z   4
loop_
 _symmetry_equiv_pos_site_id
 _symmetry_equiv_pos_as_xyz
  1  'x, y, z'
loop_
 _atom_site_type_symbol
 _atom_site_label
 _atom_site_symmetry_multiplicity
 _atom_site_fract_x
 _atom_site_fract_y
 _atom_site_fract_z
 _atom_site_occupancy
  K  K0  1  0.91534577  0.37326463  0.71857409  1
  K  K1  1  0.08465423  0.62673537  0.28142591  1
  K  K2  1  0.05559338  0.78947565  0.75575529  1
  K  K3  1  0.94440662  0.21052435  0.24424471  1
  K  K4  1  0.57967977  0.19204834  0.58659395  1
  K  K5  1  0.42032023  0.80795166  0.41340605  1
  K  K6  1  0.55800441  0.70591844  0.79631341  1
  K  K7  1  0.44199559  0.29408156  0.20368659  1
  P  P8  1  0.21609995  0.21646493  0.48538522  1
  P  P9  1  0.78390005  0.78353507  0.51461478  1
  P  P10  1  0.19586025  0.35313616  0.94083830  1
  P  P11  1  0.80413975  0.64686384  0.05916170  1
  P  P12  1  0.29677011  0.49735428  0.63222279  1
  P  P13  1  0.70322989  0.50264572  0.36777721  1
  P  P14  1  0.28924470  0.04524024  0.78705784  1
  P  P15  1  0.71075530  0.95475976  0.21294216  1
  H  H16  1  0.81937988  0.00672166  0.74167003  1
  H  H17  1  0.18062012  0.99327834  0.25832997  1
  H  H18  1  0.85768698  0.05504245  0.90460834  1
  H  H19  1  0.14231302  0.94495755  0.09539166  1
  H  H20  1  0.54168611  0.29089061  0.90249979  1
  H  H21  1  0.45831389  0.70910939  0.09750021  1
  H  H22  1  0.66514263  0.20224557  0.97404911  1
  H  H23  1  0.33485737  0.79775443  0.02595089  1
  O  O24  1  0.31277506  0.33183757  0.53008141  1
  O  O25  1  0.68722494  0.66816243  0.46991859  1
  O  O26  1  0.19422550  0.46726685  0.77465788  1
  O  O27  1  0.80577450  0.53273315  0.22534212  1
  O  O28  1  0.30143079  0.20353026  0.88329325  1
  O  O29  1  0.69856921  0.79646974  0.11670675  1
  O  O30  1  0.19404799  0.11473469  0.65396316  1
  O  O31  1  0.80595201  0.88526531  0.34603684  1
  O  O32  1  0.28389822  0.10600083  0.36305641  1
  O  O33  1  0.71610178  0.89399917  0.63694359  1
  O  O34  1  0.09634241  0.31266121  0.45158405  1
  O  O35  1  0.90365759  0.68733879  0.54841595  1
  O  O36  1  0.24813019  0.43106532  0.06901973  1
  O  O37  1  0.75186981  0.56893468  0.93098027  1
  O  O38  1  0.07275806  0.30434381  0.96380380  1
  O  O39  1  0.92724194  0.69565619  0.03619620  1
  O  O40  1  0.23835720  0.63603574  0.53211619  1
  O  O41  1  0.76164280  0.36396426  0.46788381  1
  O  O42  1  0.41916274  0.50110902  0.69092365  1
  O  O43  1  0.58083726  0.49889098  0.30907635  1
  O  O44  1  0.41247230  0.98694420  0.70856572  1
  O  O45  1  0.58752770  0.01305580  0.29143428  1
  O  O46  1  0.22789864  0.92898653  0.89509291  1
  O  O47  1  0.77210136  0.07101347  0.10490709  1
  O  O48  1  0.88367523  0.05228781  0.78967952  1
  O  O49  1  0.11632477  0.94771219  0.21032048  1
  O  O50  1  0.62994262  0.27983122  0.89210078  1
  O  O51  1  0.37005738  0.72016878  0.10789922  1
