# generated using pymatgen
data_TaAsO4
_symmetry_space_group_name_H-M   'P 1'
_cell_length_a   5.71334472
_cell_length_b   5.57809003
_cell_length_c   5.12719862
_cell_angle_alpha   90.00000000
_cell_angle_beta   100.90100675
_cell_angle_gamma   90.00000000
_symmetry_Int_Tables_number   1
_chemical_formula_structural   TaAsO4
_chemical_formula_sum   'Ta2 As2 O8'
_cell_volume   160.45300211
_cell_formula_units_Z   2
loop_
 _symmetry_equiv_pos_site_id
 _symmetry_equiv_pos_as_xyz
  1  'x, y, z'
loop_
 _atom_site_type_symbol
 _atom_site_label
 _atom_site_symmetry_multiplicity
 _atom_site_fract_x
 _atom_site_fract_y
 _atom_site_fract_z
 _atom_site_occupancy
  Ta  Ta0  1  0.51290193  0.34104978  0.50363089  1
  Ta  Ta1  1  0.01290193  0.65895022  0.50363089  1
  As  As2  1  0.92486723  0.17856902  0.05083123  1
  As  As3  1  0.42486723  0.82143098  0.05083123  1
  O  O4  1  0.15620787  0.86781857  0.78878928  1
  O  O5  1  0.23679183  0.40074750  0.66144362  1
  O  O6  1  0.29184722  0.61605363  0.26953672  1
  O  O7  1  0.39233392  0.08832051  0.25390926  1
  O  O8  1  0.65620787  0.13218143  0.78878928  1
  O  O9  1  0.73679183  0.59925250  0.66144362  1
  O  O10  1  0.79184722  0.38394637  0.26953672  1
  O  O11  1  0.89233392  0.91167949  0.25390926  1
