# generated using pymatgen
data_Sb11S18
_symmetry_space_group_name_H-M   'P 1'
_cell_length_a   7.73274482
_cell_length_b   6.86175361
_cell_length_c   15.46328155
_cell_angle_alpha   90.59749106
_cell_angle_beta   75.23441723
_cell_angle_gamma   73.48922269
_symmetry_Int_Tables_number   1
_chemical_formula_structural   Sb11S18
_chemical_formula_sum   'Sb11 S18'
_cell_volume   757.63096627
_cell_formula_units_Z   1
loop_
 _symmetry_equiv_pos_site_id
 _symmetry_equiv_pos_as_xyz
  1  'x, y, z'
loop_
 _atom_site_type_symbol
 _atom_site_label
 _atom_site_symmetry_multiplicity
 _atom_site_fract_x
 _atom_site_fract_y
 _atom_site_fract_z
 _atom_site_occupancy
  Sb  Sb0  1  0.13784534  0.28475708  0.07769761  1
  Sb  Sb1  1  0.06339801  0.14699720  0.80340134  1
  Sb  Sb2  1  0.18635761  0.52515674  0.39000662  1
  Sb  Sb3  1  0.31980481  0.48337721  0.61377854  1
  Sb  Sb4  1  0.63843373  0.28262702  0.07924738  1
  Sb  Sb5  1  0.35902291  0.71493162  0.93222440  1
  Sb  Sb6  1  0.55937750  0.15242088  0.80684340  1
  Sb  Sb7  1  0.66501113  0.52293202  0.39105649  1
  Sb  Sb8  1  0.81989294  0.49380769  0.60693743  1
  Sb  Sb9  1  0.92661910  0.88818166  0.19873207  1
  Sb  Sb10  1  0.85074347  0.72161745  0.93550673  1
  S  S11  1  0.00009040  0.98486172  0.99737325  1
  S  S12  1  0.09194030  0.14025531  0.22586456  1
  S  S13  1  0.29860794  0.53371668  0.12346091  1
  S  S14  1  0.13251315  0.19806374  0.64140777  1
  S  S15  1  0.04739303  0.71778862  0.53953699  1
  S  S16  1  0.51348241  0.97775560  0.99484818  1
  S  S17  1  0.60543251  0.14167653  0.22723827  1
  S  S18  1  0.44920312  0.28606389  0.46174867  1
  S  S19  1  0.39280691  0.75473157  0.34350871  1
  S  S20  1  0.21085243  0.44216691  0.87202344  1
  S  S21  1  0.80590377  0.54853184  0.11225158  1
  S  S22  1  0.62296421  0.20028693  0.64353280  1
  S  S23  1  0.55110243  0.71776284  0.54037418  1
  S  S24  1  0.39787740  0.86683464  0.77824608  1
  S  S25  1  0.94778508  0.27987982  0.46295309  1
  S  S26  1  0.86995403  0.79936148  0.35802684  1
  S  S27  1  0.70153352  0.44532888  0.87363566  1
  S  S28  1  0.89966383  0.87116545  0.77662402  1
