# generated using pymatgen
data_TmBiO3
_symmetry_space_group_name_H-M   'P 1'
_cell_length_a   5.94949497
_cell_length_b   6.09074771
_cell_length_c   5.94949510
_cell_angle_alpha   119.23575616
_cell_angle_beta   60.00000063
_cell_angle_gamma   119.23575597
_symmetry_Int_Tables_number   1
_chemical_formula_structural   TmBiO3
_chemical_formula_sum   'Tm2 Bi2 O6'
_cell_volume   154.18324430
_cell_formula_units_Z   2
loop_
 _symmetry_equiv_pos_site_id
 _symmetry_equiv_pos_as_xyz
  1  'x, y, z'
loop_
 _atom_site_type_symbol
 _atom_site_label
 _atom_site_symmetry_multiplicity
 _atom_site_fract_x
 _atom_site_fract_y
 _atom_site_fract_z
 _atom_site_occupancy
  Tm  Tm0  1  0.14299732  0.42899295  0.14299732  1
  Tm  Tm1  1  0.85700268  0.57100705  0.85700268  1
  Bi  Bi2  1  0.35792258  0.07376675  0.35792258  1
  Bi  Bi3  1  0.64207742  0.92623325  0.64207742  1
  O  O4  1  0.01071238  0.25056825  0.45430164  1
  O  O5  1  0.54569836  0.74943175  0.21444577  1
  O  O6  1  0.21444577  0.74943175  0.98928762  1
  O  O7  1  0.78555423  0.25056825  0.01071238  1
  O  O8  1  0.45430164  0.25056825  0.78555423  1
  O  O9  1  0.98928762  0.74943175  0.54569836  1
