# generated using pymatgen
data_LiCuS
_symmetry_space_group_name_H-M   'P 1'
_cell_length_a   3.95411269
_cell_length_b   6.58621962
_cell_length_c   7.52680978
_cell_angle_alpha   90.00000000
_cell_angle_beta   90.00000000
_cell_angle_gamma   90.00000000
_symmetry_Int_Tables_number   1
_chemical_formula_structural   LiCuS
_chemical_formula_sum   'Li4 Cu4 S4'
_cell_volume   196.01810718
_cell_formula_units_Z   4
loop_
 _symmetry_equiv_pos_site_id
 _symmetry_equiv_pos_as_xyz
  1  'x, y, z'
loop_
 _atom_site_type_symbol
 _atom_site_label
 _atom_site_symmetry_multiplicity
 _atom_site_fract_x
 _atom_site_fract_y
 _atom_site_fract_z
 _atom_site_occupancy
  Li  Li0  1  0.00000000  0.05966699  0.04121374  1
  Li  Li1  1  0.00000000  0.94033301  0.54121374  1
  Li  Li2  1  0.50000000  0.43565237  0.93250077  1
  Li  Li3  1  0.50000000  0.56434763  0.43250077  1
  Cu  Cu4  1  0.00000000  0.41868876  0.22465495  1
  Cu  Cu5  1  0.00000000  0.58131124  0.72465495  1
  Cu  Cu6  1  0.50000000  0.91952644  0.25109025  1
  Cu  Cu7  1  0.50000000  0.08047356  0.75109025  1
  S  S8  1  0.00000000  0.75838377  0.25540505  1
  S  S9  1  0.00000000  0.24161623  0.75540505  1
  S  S10  1  0.50000000  0.25862641  0.22110524  1
  S  S11  1  0.50000000  0.74137359  0.72110524  1
