# generated using pymatgen
data_Er2TeO6
_symmetry_space_group_name_H-M   'P 1'
_cell_length_a   4.96999873
_cell_length_b   4.96980372
_cell_length_c   10.01958082
_cell_angle_alpha   90.00000000
_cell_angle_beta   90.00000000
_cell_angle_gamma   90.00196539
_symmetry_Int_Tables_number   1
_chemical_formula_structural   Er2TeO6
_chemical_formula_sum   'Er4 Te2 O12'
_cell_volume   247.48282635
_cell_formula_units_Z   2
loop_
 _symmetry_equiv_pos_site_id
 _symmetry_equiv_pos_as_xyz
  1  'x, y, z'
loop_
 _atom_site_type_symbol
 _atom_site_label
 _atom_site_symmetry_multiplicity
 _atom_site_fract_x
 _atom_site_fract_y
 _atom_site_fract_z
 _atom_site_occupancy
  Er  Er0  1  -0.00000212  0.99999109  0.33457774  1
  Er  Er1  1  -0.00000212  0.99999109  0.66542226  1
  Er  Er2  1  0.50001755  0.50002699  0.16541953  1
  Er  Er3  1  0.50001755  0.50002699  0.83458047  1
  Te  Te4  1  0.00004161  0.00004806  0.00000000  1
  Te  Te5  1  0.49999540  0.50000260  0.50000000  1
  O  O6  1  0.18397313  0.18397087  0.14724855  1
  O  O7  1  0.18397313  0.18397087  0.85275145  1
  O  O8  1  0.22059628  0.22037489  0.50000000  1
  O  O9  1  0.27961957  0.72057648  0.00000000  1
  O  O10  1  0.31600061  0.68386976  0.35276014  1
  O  O11  1  0.31600061  0.68386976  0.64723986  1
  O  O12  1  0.68401149  0.31613428  0.35275993  1
  O  O13  1  0.68401149  0.31613428  0.64724007  1
  O  O14  1  0.72057704  0.27961081  0.00000000  1
  O  O15  1  0.77939586  0.77961583  0.50000000  1
  O  O16  1  0.81608695  0.81609218  0.14723486  1
  O  O17  1  0.81608695  0.81609218  0.85276514  1
