# generated using pymatgen
data_Li2BiO3
_symmetry_space_group_name_H-M   'P 1'
_cell_length_a   5.71998435
_cell_length_b   5.69595676
_cell_length_c   10.38439260
_cell_angle_alpha   85.31995674
_cell_angle_beta   99.35187585
_cell_angle_gamma   120.13964057
_symmetry_Int_Tables_number   1
_chemical_formula_structural   Li2BiO3
_chemical_formula_sum   'Li8 Bi4 O12'
_cell_volume   288.70181885
_cell_formula_units_Z   4
loop_
 _symmetry_equiv_pos_site_id
 _symmetry_equiv_pos_as_xyz
  1  'x, y, z'
loop_
 _atom_site_type_symbol
 _atom_site_label
 _atom_site_symmetry_multiplicity
 _atom_site_fract_x
 _atom_site_fract_y
 _atom_site_fract_z
 _atom_site_occupancy
  Li  Li0  1  0.11970896  0.81213110  0.50485864  1
  Li  Li1  1  0.00000000  0.50000000  0.00000000  1
  Li  Li2  1  0.08886009  0.17772119  0.25000000  1
  Li  Li3  1  0.50000000  0.50000000  0.50000000  1
  Li  Li4  1  0.69242214  0.81213110  0.99514136  1
  Li  Li5  1  0.30757786  0.18786890  0.00485864  1
  Li  Li6  1  0.91113991  0.82227881  0.75000000  1
  Li  Li7  1  0.88029104  0.18786890  0.49514136  1
  Bi  Bi8  1  0.24598782  0.49197564  0.75000000  1
  Bi  Bi9  1  0.42142549  0.84285198  0.25000000  1
  Bi  Bi10  1  0.57857451  0.15714802  0.75000000  1
  Bi  Bi11  1  0.75401218  0.50802436  0.25000000  1
  O  O12  1  0.01859782  0.82204473  0.12625698  1
  O  O13  1  0.27812378  0.79207723  0.87730078  1
  O  O14  1  0.09299600  0.49257875  0.36792133  1
  O  O15  1  0.51395244  0.79207723  0.62269922  1
  O  O16  1  0.19655209  0.17795527  0.62625698  1
  O  O17  1  0.60041725  0.50742125  0.86792133  1
  O  O18  1  0.39958275  0.49257875  0.13207867  1
  O  O19  1  0.80344791  0.82204473  0.37374302  1
  O  O20  1  0.48604756  0.20792277  0.37730078  1
  O  O21  1  0.90700400  0.50742125  0.63207867  1
  O  O22  1  0.72187622  0.20792277  0.12269922  1
  O  O23  1  0.98140218  0.17795527  0.87374302  1
