# generated using pymatgen
data_LiMg6Ti
_symmetry_space_group_name_H-M   'P 1'
_cell_length_a   6.30384882
_cell_length_b   6.30384833
_cell_length_c   5.02629783
_cell_angle_alpha   90.00000000
_cell_angle_beta   90.00000000
_cell_angle_gamma   120.38217446
_symmetry_Int_Tables_number   1
_chemical_formula_structural   LiMg6Ti
_chemical_formula_sum   'Li1 Mg6 Ti1'
_cell_volume   172.30782210
_cell_formula_units_Z   1
loop_
 _symmetry_equiv_pos_site_id
 _symmetry_equiv_pos_as_xyz
  1  'x, y, z'
loop_
 _atom_site_type_symbol
 _atom_site_label
 _atom_site_symmetry_multiplicity
 _atom_site_fract_x
 _atom_site_fract_y
 _atom_site_fract_z
 _atom_site_occupancy
  Li  Li0  1  0.33076813  0.16923187  0.75000000  1
  Mg  Mg1  1  0.17268908  0.83955888  0.25000000  1
  Mg  Mg2  1  0.66044112  0.32731092  0.25000000  1
  Mg  Mg3  1  0.66469552  0.83530448  0.25000000  1
  Mg  Mg4  1  0.32820457  0.65528076  0.75000000  1
  Mg  Mg5  1  0.84471924  0.17179543  0.75000000  1
  Mg  Mg6  1  0.83280038  0.66719962  0.75000000  1
  Ti  Ti7  1  0.16568197  0.33431803  0.25000000  1
