# generated using pymatgen
data_Na3GePCO7
_symmetry_space_group_name_H-M   'P 1'
_cell_length_a   9.25902658
_cell_length_b   5.48709517
_cell_length_c   6.88353591
_cell_angle_alpha   90.00000000
_cell_angle_beta   90.00000000
_cell_angle_gamma   95.44407129
_symmetry_Int_Tables_number   1
_chemical_formula_structural   Na3GePCO7
_chemical_formula_sum   'Na6 Ge2 P2 C2 O14'
_cell_volume   348.14165953
_cell_formula_units_Z   2
loop_
 _symmetry_equiv_pos_site_id
 _symmetry_equiv_pos_as_xyz
  1  'x, y, z'
loop_
 _atom_site_type_symbol
 _atom_site_label
 _atom_site_symmetry_multiplicity
 _atom_site_fract_x
 _atom_site_fract_y
 _atom_site_fract_z
 _atom_site_occupancy
  Na  Na0  1  0.01512744  0.00056219  0.47144589  1
  Na  Na1  1  0.15788683  0.48511726  0.18390960  1
  Na  Na2  1  0.50036395  0.51507260  0.46782044  1
  Na  Na3  1  0.49963605  0.48492740  0.96782044  1
  Na  Na4  1  0.84211317  0.51488274  0.68390960  1
  Na  Na5  1  0.98487256  0.99943781  0.97144589  1
  Ge  Ge6  1  0.32714291  0.91937572  0.74620980  1
  Ge  Ge7  1  0.67285709  0.08062428  0.24620980  1
  P  P8  1  0.32990485  0.98611062  0.24968163  1
  P  P9  1  0.67009515  0.01388938  0.74968163  1
  C  C10  1  0.13665658  0.51418325  0.73223405  1
  C  C11  1  0.86334342  0.48581675  0.23223405  1
  O  O12  1  0.06656974  0.30371876  0.72171415  1
  O  O13  1  0.07163527  0.71154328  0.75609421  1
  O  O14  1  0.20003959  0.08120801  0.14700992  1
  O  O15  1  0.28464202  0.95424374  0.47051548  1
  O  O16  1  0.28152387  0.54442340  0.71994566  1
  O  O17  1  0.37401773  0.73761913  0.17669036  1
  O  O18  1  0.46339906  0.18807106  0.23132982  1
  O  O19  1  0.53660094  0.81192894  0.73132982  1
  O  O20  1  0.62598227  0.26238087  0.67669036  1
  O  O21  1  0.71847613  0.45557660  0.21994566  1
  O  O22  1  0.71535798  0.04575626  0.97051548  1
  O  O23  1  0.79996041  0.91879199  0.64700992  1
  O  O24  1  0.92836473  0.28845672  0.25609421  1
  O  O25  1  0.93343026  0.69628124  0.22171415  1
