# generated using pymatgen
data_SrLaBr5
_symmetry_space_group_name_H-M   'P 1'
_cell_length_a   7.96440123
_cell_length_b   4.41174248
_cell_length_c   13.96589247
_cell_angle_alpha   90.00000000
_cell_angle_beta   93.30910554
_cell_angle_gamma   90.00000000
_symmetry_Int_Tables_number   1
_chemical_formula_structural   SrLaBr5
_chemical_formula_sum   'Sr2 La2 Br10'
_cell_volume   489.89979304
_cell_formula_units_Z   2
loop_
 _symmetry_equiv_pos_site_id
 _symmetry_equiv_pos_as_xyz
  1  'x, y, z'
loop_
 _atom_site_type_symbol
 _atom_site_label
 _atom_site_symmetry_multiplicity
 _atom_site_fract_x
 _atom_site_fract_y
 _atom_site_fract_z
 _atom_site_occupancy
  Sr  Sr0  1  0.45702261  0.25000000  0.64689421  1
  Sr  Sr1  1  0.54297739  0.75000000  0.35310579  1
  La  La2  1  0.04961409  0.75000000  0.83984660  1
  La  La3  1  0.95038591  0.25000000  0.16015340  1
  Br  Br4  1  0.04662399  0.25000000  0.68536251  1
  Br  Br5  1  0.14867604  0.75000000  0.06456279  1
  Br  Br6  1  0.30306327  0.75000000  0.52177605  1
  Br  Br7  1  0.32589022  0.25000000  0.87843581  1
  Br  Br8  1  0.31693279  0.25000000  0.26078218  1
  Br  Br9  1  0.68306721  0.75000000  0.73921782  1
  Br  Br10  1  0.67410978  0.75000000  0.12156419  1
  Br  Br11  1  0.69693673  0.25000000  0.47822395  1
  Br  Br12  1  0.85132396  0.25000000  0.93543721  1
  Br  Br13  1  0.95337601  0.75000000  0.31463749  1
