# generated using pymatgen
data_SnH12C6(S2N)2
_symmetry_space_group_name_H-M   'P 1'
_cell_length_a   8.25009081
_cell_length_b   8.25009081
_cell_length_c   12.93422036
_cell_angle_alpha   101.66212334
_cell_angle_beta   101.66212334
_cell_angle_gamma   110.93471259
_symmetry_Int_Tables_number   1
_chemical_formula_structural   SnH12C6(S2N)2
_chemical_formula_sum   'Sn2 H24 C12 S8 N4'
_cell_volume   768.18887784
_cell_formula_units_Z   2
loop_
 _symmetry_equiv_pos_site_id
 _symmetry_equiv_pos_as_xyz
  1  'x, y, z'
loop_
 _atom_site_type_symbol
 _atom_site_label
 _atom_site_symmetry_multiplicity
 _atom_site_fract_x
 _atom_site_fract_y
 _atom_site_fract_z
 _atom_site_occupancy
  Sn  Sn0  1  0.50679022  0.49320978  0.25000000  1
  Sn  Sn1  1  0.49320978  0.50679022  0.75000000  1
  H  H2  1  0.01541181  0.23012066  0.87645901  1
  H  H3  1  0.76987934  0.98458819  0.62354099  1
  H  H4  1  0.98458819  0.76987934  0.12354099  1
  H  H5  1  0.23012066  0.01541181  0.37645901  1
  H  H6  1  0.82880636  0.02609017  0.86631422  1
  H  H7  1  0.97390983  0.17119364  0.63368578  1
  H  H8  1  0.17119364  0.97390983  0.13368578  1
  H  H9  1  0.02609017  0.82880636  0.36631422  1
  H  H10  1  0.79500616  0.22923568  0.86650176  1
  H  H11  1  0.77076432  0.20499384  0.63349824  1
  H  H12  1  0.20499384  0.77076432  0.13349824  1
  H  H13  1  0.22923568  0.79500616  0.36650176  1
  H  H14  1  0.82938218  0.20825794  0.15299694  1
  H  H15  1  0.79174206  0.17061782  0.34700306  1
  H  H16  1  0.17061782  0.79174206  0.84700306  1
  H  H17  1  0.20825794  0.82938218  0.65299694  1
  H  H18  1  0.68594208  0.21958991  0.03328644  1
  H  H19  1  0.78041009  0.31405792  0.46671356  1
  H  H20  1  0.31405792  0.78041009  0.96671356  1
  H  H21  1  0.21958991  0.68594208  0.53328644  1
  H  H22  1  0.71632725  0.01420911  0.03277994  1
  H  H23  1  0.98579089  0.28367275  0.46722006  1
  H  H24  1  0.28367275  0.98579089  0.96722006  1
  H  H25  1  0.01420911  0.71632725  0.53277994  1
  C  C26  1  0.11089349  0.32457367  0.08588743  1
  C  C27  1  0.67542633  0.88910651  0.41411257  1
  C  C28  1  0.88910651  0.67542633  0.91411257  1
  C  C29  1  0.32457367  0.11089349  0.58588743  1
  C  C30  1  0.89139611  0.17552546  0.90002246  1
  C  C31  1  0.82447454  0.10860389  0.59997754  1
  C  C32  1  0.10860389  0.82447454  0.09997754  1
  C  C33  1  0.17552546  0.89139611  0.40002246  1
  C  C34  1  0.78322155  0.16386566  0.06257215  1
  C  C35  1  0.83613434  0.21677845  0.43742785  1
  C  C36  1  0.21677845  0.83613434  0.93742785  1
  C  C37  1  0.16386566  0.78322155  0.56257215  1
  S  S38  1  0.15788149  0.37995614  0.22927351  1
  S  S39  1  0.62004386  0.84211851  0.27072649  1
  S  S40  1  0.84211851  0.62004386  0.77072649  1
  S  S41  1  0.37995614  0.15788149  0.72927351  1
  S  S42  1  0.28883494  0.39491836  0.03165535  1
  S  S43  1  0.60508164  0.71116506  0.46834465  1
  S  S44  1  0.71116506  0.60508164  0.96834465  1
  S  S45  1  0.39491836  0.28883494  0.53165535  1
  N  N46  1  0.93858477  0.22798787  0.02053030  1
  N  N47  1  0.77201213  0.06141523  0.47946970  1
  N  N48  1  0.06141523  0.77201213  0.97946970  1
  N  N49  1  0.22798787  0.93858477  0.52053030  1
