# generated using pymatgen
data_Lu(HO)3
_symmetry_space_group_name_H-M   'P 1'
_cell_length_a   6.22559100
_cell_length_b   6.22566081
_cell_length_c   3.46340777
_cell_angle_alpha   90.00000000
_cell_angle_beta   90.00000000
_cell_angle_gamma   120.00146355
_symmetry_Int_Tables_number   1
_chemical_formula_structural   Lu(HO)3
_chemical_formula_sum   'Lu2 H6 O6'
_cell_volume   116.25024972
_cell_formula_units_Z   2
loop_
 _symmetry_equiv_pos_site_id
 _symmetry_equiv_pos_as_xyz
  1  'x, y, z'
loop_
 _atom_site_type_symbol
 _atom_site_label
 _atom_site_symmetry_multiplicity
 _atom_site_fract_x
 _atom_site_fract_y
 _atom_site_fract_z
 _atom_site_occupancy
  Lu  Lu0  1  0.33331399  0.66667482  0.25000000  1
  Lu  Lu1  1  0.66663342  0.33331759  0.75000000  1
  H  H2  1  0.13825250  0.86117043  0.75000000  1
  H  H3  1  0.13884294  0.27709106  0.75000000  1
  H  H4  1  0.27708193  0.13825451  0.25000000  1
  H  H5  1  0.72291852  0.86173746  0.75000000  1
  H  H6  1  0.86116613  0.72291818  0.25000000  1
  H  H7  1  0.86173670  0.13882676  0.25000000  1
  O  O8  1  0.31403889  0.91508710  0.75000000  1
  O  O9  1  0.08491010  0.39898818  0.75000000  1
  O  O10  1  0.39896899  0.31405486  0.25000000  1
  O  O11  1  0.60102243  0.68593769  0.75000000  1
  O  O12  1  0.91508927  0.60102654  0.25000000  1
  O  O13  1  0.68592320  0.08491483  0.25000000  1
