# generated using pymatgen
data_Gd3InO6
_symmetry_space_group_name_H-M   'P 1'
_cell_length_a   7.30682409
_cell_length_b   7.30682409
_cell_length_c   5.67917142
_cell_angle_alpha   90.00000000
_cell_angle_beta   90.00000000
_cell_angle_gamma   76.99716907
_symmetry_Int_Tables_number   1
_chemical_formula_structural   Gd3InO6
_chemical_formula_sum   'Gd6 In2 O12'
_cell_volume   295.43453384
_cell_formula_units_Z   2
loop_
 _symmetry_equiv_pos_site_id
 _symmetry_equiv_pos_as_xyz
  1  'x, y, z'
loop_
 _atom_site_type_symbol
 _atom_site_label
 _atom_site_symmetry_multiplicity
 _atom_site_fract_x
 _atom_site_fract_y
 _atom_site_fract_z
 _atom_site_occupancy
  Gd  Gd0  1  0.29987897  0.90970139  0.46930669  1
  Gd  Gd1  1  0.09029861  0.70012103  0.96930669  1
  Gd  Gd2  1  0.39904670  0.39904670  0.42025006  1
  Gd  Gd3  1  0.60095330  0.60095330  0.92025006  1
  Gd  Gd4  1  0.90970139  0.29987897  0.46930669  1
  Gd  Gd5  1  0.70012103  0.09029861  0.96930669  1
  In  In6  1  0.18997737  0.18997737  0.98555095  1
  In  In7  1  0.81002263  0.81002263  0.48555095  1
  O  O8  1  0.35711504  0.67749271  0.19573594  1
  O  O9  1  0.32250729  0.64288496  0.69573594  1
  O  O10  1  0.10241502  0.43320680  0.19124156  1
  O  O11  1  0.56679320  0.89758498  0.69124156  1
  O  O12  1  0.02775672  0.02775672  0.15867618  1
  O  O13  1  0.21853510  0.21853510  0.63025242  1
  O  O14  1  0.78146490  0.78146490  0.13025242  1
  O  O15  1  0.97224328  0.97224328  0.65867618  1
  O  O16  1  0.43320680  0.10241502  0.19124156  1
  O  O17  1  0.89758498  0.56679320  0.69124156  1
  O  O18  1  0.64288496  0.32250729  0.69573594  1
  O  O19  1  0.67749271  0.35711504  0.19573594  1
