# generated using pymatgen
data_TiCu(PO4)2
_symmetry_space_group_name_H-M   'P 1'
_cell_length_a   8.58531843
_cell_length_b   8.61144994
_cell_length_c   8.61145007
_cell_angle_alpha   60.00000009
_cell_angle_beta   59.89926536
_cell_angle_gamma   59.89926386
_symmetry_Int_Tables_number   1
_chemical_formula_structural   TiCu(PO4)2
_chemical_formula_sum   'Ti3 Cu3 P6 O24'
_cell_volume   449.50138630
_cell_formula_units_Z   3
loop_
 _symmetry_equiv_pos_site_id
 _symmetry_equiv_pos_as_xyz
  1  'x, y, z'
loop_
 _atom_site_type_symbol
 _atom_site_label
 _atom_site_symmetry_multiplicity
 _atom_site_fract_x
 _atom_site_fract_y
 _atom_site_fract_z
 _atom_site_occupancy
  Ti  Ti0  1  0.06975380  0.64341507  0.64341507  1
  Ti  Ti1  1  0.42796049  0.85734684  0.85734684  1
  Ti  Ti2  1  0.93002651  0.35665816  0.35665816  1
  Cu  Cu3  1  0.99174753  0.00275049  0.00275049  1
  Cu  Cu4  1  0.56562151  0.14479250  0.14479250  1
  Cu  Cu5  1  0.49838338  0.50053921  0.50053921  1
  P  P6  1  0.25361184  0.24843610  0.53908471  1
  P  P7  1  0.25361184  0.95886735  0.24843610  1
  P  P8  1  0.25361184  0.53908471  0.95886735  1
  P  P9  1  0.74950544  0.45515352  0.04210223  1
  P  P10  1  0.74950544  0.04210223  0.75323781  1
  P  P11  1  0.74950544  0.75323781  0.45515352  1
  O  O12  1  0.07177170  0.12409928  0.30629184  1
  O  O13  1  0.07177170  0.49783718  0.12409928  1
  O  O14  1  0.07177170  0.30629184  0.49783718  1
  O  O15  1  0.23549266  0.08435895  0.73585240  1
  O  O16  1  0.43651616  0.19472519  0.38366776  1
  O  O17  1  0.25506513  0.41572837  0.56316948  1
  O  O18  1  0.23549266  0.94429699  0.08435895  1
  O  O19  1  0.25506513  0.76603602  0.41572837  1
  O  O20  1  0.56998900  0.62194253  0.99922288  1
  O  O21  1  0.25506513  0.56316948  0.76603602  1
  O  O22  1  0.76841024  0.26357929  0.05169471  1
  O  O23  1  0.56998900  0.99922288  0.80884559  1
  O  O24  1  0.43651616  0.98509088  0.19472519  1
  O  O25  1  0.23549266  0.73585240  0.94429699  1
  O  O26  1  0.73741982  0.44386119  0.23376559  1
  O  O27  1  0.43651616  0.38366776  0.98509088  1
  O  O28  1  0.73741982  0.23376559  0.58495240  1
  O  O29  1  0.76841024  0.05169471  0.91631475  1
  O  O30  1  0.73741982  0.58495240  0.44386119  1
  O  O31  1  0.56998900  0.80884559  0.62194253  1
  O  O32  1  0.76841024  0.91631475  0.26357929  1
  O  O33  1  0.92772028  0.69093415  0.50268600  1
  O  O34  1  0.92772028  0.50268600  0.87865957  1
  O  O35  1  0.92772028  0.87865957  0.69093415  1
