# generated using pymatgen
data_BaCaO2
_symmetry_space_group_name_H-M   'P 1'
_cell_length_a   3.76412419
_cell_length_b   6.32443036
_cell_length_c   12.26173393
_cell_angle_alpha   90.00000000
_cell_angle_beta   90.00000000
_cell_angle_gamma   90.00000000
_symmetry_Int_Tables_number   1
_chemical_formula_structural   BaCaO2
_chemical_formula_sum   'Ba4 Ca4 O8'
_cell_volume   291.90211825
_cell_formula_units_Z   4
loop_
 _symmetry_equiv_pos_site_id
 _symmetry_equiv_pos_as_xyz
  1  'x, y, z'
loop_
 _atom_site_type_symbol
 _atom_site_label
 _atom_site_symmetry_multiplicity
 _atom_site_fract_x
 _atom_site_fract_y
 _atom_site_fract_z
 _atom_site_occupancy
  Ba  Ba0  1  0.25000000  0.09357519  0.14221416  1
  Ba  Ba1  1  0.25000000  0.59357519  0.35778584  1
  Ba  Ba2  1  0.75000000  0.90642481  0.85778584  1
  Ba  Ba3  1  0.75000000  0.40642481  0.64221416  1
  Ca  Ca4  1  0.25000000  0.40897894  0.89270931  1
  Ca  Ca5  1  0.25000000  0.90897894  0.60729069  1
  Ca  Ca6  1  0.75000000  0.09102106  0.39270931  1
  Ca  Ca7  1  0.75000000  0.59102106  0.10729069  1
  O  O8  1  0.25000000  0.71587816  0.01831828  1
  O  O9  1  0.25000000  0.21587816  0.48168172  1
  O  O10  1  0.25000000  0.15115460  0.75228544  1
  O  O11  1  0.25000000  0.65115460  0.74771456  1
  O  O12  1  0.75000000  0.34884540  0.25228544  1
  O  O13  1  0.75000000  0.84884540  0.24771456  1
  O  O14  1  0.75000000  0.28412184  0.98168172  1
  O  O15  1  0.75000000  0.78412184  0.51831828  1
