# generated using pymatgen
data_LiBiP2O7
_symmetry_space_group_name_H-M   'P 1'
_cell_length_a   5.19917746
_cell_length_b   8.85089907
_cell_length_c   13.67709692
_cell_angle_alpha   90.00000000
_cell_angle_beta   86.52144844
_cell_angle_gamma   90.00000000
_symmetry_Int_Tables_number   1
_chemical_formula_structural   LiBiP2O7
_chemical_formula_sum   'Li4 Bi4 P8 O28'
_cell_volume   628.22478127
_cell_formula_units_Z   4
loop_
 _symmetry_equiv_pos_site_id
 _symmetry_equiv_pos_as_xyz
  1  'x, y, z'
loop_
 _atom_site_type_symbol
 _atom_site_label
 _atom_site_symmetry_multiplicity
 _atom_site_fract_x
 _atom_site_fract_y
 _atom_site_fract_z
 _atom_site_occupancy
  Li  Li0  1  0.21716448  0.75563349  0.18962530  1
  Li  Li1  1  0.28283552  0.25563349  0.31037470  1
  Li  Li2  1  0.71716448  0.74436651  0.68962530  1
  Li  Li3  1  0.78283552  0.24436651  0.81037470  1
  Bi  Bi4  1  0.22274940  0.85262625  0.88648091  1
  Bi  Bi5  1  0.27725060  0.35262625  0.61351909  1
  Bi  Bi6  1  0.72274940  0.64737375  0.38648091  1
  Bi  Bi7  1  0.77725060  0.14737375  0.11351909  1
  P  P8  1  0.22084764  0.71829653  0.54041617  1
  P  P9  1  0.27366897  0.46035056  0.81887306  1
  P  P10  1  0.22633103  0.96035056  0.68112694  1
  P  P11  1  0.27915236  0.21829653  0.95958383  1
  P  P12  1  0.72084764  0.78170347  0.04041617  1
  P  P13  1  0.77366897  0.03964944  0.31887306  1
  P  P14  1  0.72633103  0.53964944  0.18112694  1
  P  P15  1  0.77915236  0.28170347  0.45958383  1
  O  O16  1  0.97828267  0.56189626  0.23221972  1
  O  O17  1  0.01874289  0.86494115  0.74004667  1
  O  O18  1  0.06597805  0.31856158  0.44394324  1
  O  O19  1  0.10336818  0.12168948  0.89799687  1
  O  O20  1  0.13738536  0.12244275  0.66697600  1
  O  O21  1  0.26189370  0.89358966  0.57122767  1
  O  O22  1  0.18890041  0.21626695  0.06932011  1
  O  O23  1  0.23810630  0.39358966  0.92877233  1
  O  O24  1  0.31109959  0.71626695  0.43067989  1
  O  O25  1  0.36261464  0.62244275  0.83302400  1
  O  O26  1  0.39663182  0.62168948  0.60200313  1
  O  O27  1  0.48125711  0.36494115  0.75995333  1
  O  O28  1  0.43402195  0.81856158  0.05605676  1
  O  O29  1  0.52171733  0.06189626  0.26778028  1
  O  O30  1  0.47828267  0.93810374  0.73221972  1
  O  O31  1  0.56597805  0.18143842  0.94394324  1
  O  O32  1  0.51874289  0.63505885  0.24004667  1
  O  O33  1  0.60336818  0.37831052  0.39799687  1
  O  O34  1  0.63738536  0.37755725  0.16697600  1
  O  O35  1  0.68890041  0.28373305  0.56932011  1
  O  O36  1  0.76189370  0.60641034  0.07122767  1
  O  O37  1  0.81109959  0.78373305  0.93067989  1
  O  O38  1  0.73810630  0.10641034  0.42877233  1
  O  O39  1  0.86261464  0.87755725  0.33302400  1
  O  O40  1  0.89663182  0.87831052  0.10200313  1
  O  O41  1  0.93402195  0.68143842  0.55605676  1
  O  O42  1  0.98125711  0.13505885  0.25995333  1
  O  O43  1  0.02171733  0.43810374  0.76778028  1
