# generated using pymatgen
data_Rb3SbO3
_symmetry_space_group_name_H-M   'P 1'
_cell_length_a   11.23100163
_cell_length_b   6.92132218
_cell_length_c   9.23477904
_cell_angle_alpha   90.00000000
_cell_angle_beta   94.99017711
_cell_angle_gamma   90.00000000
_symmetry_Int_Tables_number   1
_chemical_formula_structural   Rb3SbO3
_chemical_formula_sum   'Rb12 Sb4 O12'
_cell_volume   715.12967228
_cell_formula_units_Z   4
loop_
 _symmetry_equiv_pos_site_id
 _symmetry_equiv_pos_as_xyz
  1  'x, y, z'
loop_
 _atom_site_type_symbol
 _atom_site_label
 _atom_site_symmetry_multiplicity
 _atom_site_fract_x
 _atom_site_fract_y
 _atom_site_fract_z
 _atom_site_occupancy
  Rb  Rb0  1  0.06580406  0.30522456  0.65880638  1
  Rb  Rb1  1  0.18586336  0.64261117  0.07823359  1
  Rb  Rb2  1  0.18779781  0.77507995  0.58192465  1
  Rb  Rb3  1  0.31220219  0.27507995  0.41807535  1
  Rb  Rb4  1  0.31413664  0.14261117  0.92176641  1
  Rb  Rb5  1  0.43419594  0.80522456  0.34119362  1
  Rb  Rb6  1  0.56580406  0.19477544  0.65880638  1
  Rb  Rb7  1  0.68586336  0.85738883  0.07823359  1
  Rb  Rb8  1  0.68779781  0.72492005  0.58192465  1
  Rb  Rb9  1  0.81220219  0.22492005  0.41807535  1
  Rb  Rb10  1  0.81413664  0.35738883  0.92176641  1
  Rb  Rb11  1  0.93419594  0.69477544  0.34119362  1
  Sb  Sb12  1  0.06081316  0.14899570  0.18617781  1
  Sb  Sb13  1  0.43918684  0.64899570  0.81382219  1
  Sb  Sb14  1  0.56081316  0.35100430  0.18617781  1
  Sb  Sb15  1  0.93918684  0.85100430  0.81382219  1
  O  O16  1  0.05717375  0.34530731  0.34219565  1
  O  O17  1  0.10273186  0.95693740  0.81785259  1
  O  O18  1  0.15909941  0.94281313  0.28855087  1
  O  O19  1  0.34090059  0.44281313  0.71144913  1
  O  O20  1  0.39726814  0.45693740  0.18214741  1
  O  O21  1  0.44282625  0.84530731  0.65780435  1
  O  O22  1  0.55717375  0.15469269  0.34219565  1
  O  O23  1  0.60273186  0.54306260  0.81785259  1
  O  O24  1  0.65909941  0.55718687  0.28855087  1
  O  O25  1  0.84090059  0.05718687  0.71144913  1
  O  O26  1  0.89726814  0.04306260  0.18214741  1
  O  O27  1  0.94282625  0.65469269  0.65780435  1
