# generated using pymatgen
data_Th4Ta18O53
_symmetry_space_group_name_H-M   'P 1'
_cell_length_a   6.41396823
_cell_length_b   6.41390986
_cell_length_c   28.11237389
_cell_angle_alpha   90.00034367
_cell_angle_beta   89.99943896
_cell_angle_gamma   120.00338707
_symmetry_Int_Tables_number   1
_chemical_formula_structural   Th4Ta18O53
_chemical_formula_sum   'Th4 Ta18 O53'
_cell_volume   1001.52774576
_cell_formula_units_Z   1
loop_
 _symmetry_equiv_pos_site_id
 _symmetry_equiv_pos_as_xyz
  1  'x, y, z'
loop_
 _atom_site_type_symbol
 _atom_site_label
 _atom_site_symmetry_multiplicity
 _atom_site_fract_x
 _atom_site_fract_y
 _atom_site_fract_z
 _atom_site_occupancy
  Th  Th0  1  0.33328446  0.66664824  0.99317352  1
  Th  Th1  1  0.33341570  0.66672744  0.50145924  1
  Th  Th2  1  0.66661904  0.33332033  0.99894818  1
  Th  Th3  1  0.66673873  0.33341135  0.50146488  1
  Ta  Ta4  1  0.96491154  0.65365383  0.11410860  1
  Ta  Ta5  1  0.00002542  0.65063935  0.38798571  1
  Ta  Ta6  1  0.00087078  0.64408684  0.25191337  1
  Ta  Ta7  1  0.99998389  0.35418933  0.74875736  1
  Ta  Ta8  1  0.99999735  0.34906204  0.61309556  1
  Ta  Ta9  1  0.99768385  0.34848850  0.88534273  1
  Ta  Ta10  1  0.34631524  0.31124491  0.11411053  1
  Ta  Ta11  1  0.34938756  0.34937814  0.38799164  1
  Ta  Ta12  1  0.35593422  0.35679284  0.25191715  1
  Ta  Ta13  1  0.64567963  0.64568471  0.74876066  1
  Ta  Ta14  1  0.65147078  0.64919660  0.88534664  1
  Ta  Ta15  1  0.65091151  0.65091128  0.61310192  1
  Ta  Ta16  1  0.35074044  0.00227266  0.88534213  1
  Ta  Ta17  1  0.34905355  -0.00000180  0.61309689  1
  Ta  Ta18  1  0.35422824  0.99997845  0.74875431  1
  Ta  Ta19  1  0.64322641  0.99913817  0.25191524  1
  Ta  Ta20  1  0.68873820  0.03505981  0.11410689  1
  Ta  Ta21  1  0.65065318  0.00000701  0.38798524  1
  O  O22  1  0.99996418  0.75871551  0.74996541  1
  O  O23  1  0.00091799  0.75755922  0.88840413  1
  O  O24  1  0.00000180  0.75884101  0.61185353  1
  O  O25  1  0.00871222  0.61067075  0.17741402  1
  O  O26  1  0.99967200  0.61002586  0.31906204  1
  O  O27  1  0.02240754  0.61163484  0.04660532  1
  O  O28  1  0.00005453  0.61933144  0.45853626  1
  O  O29  1  0.00007316  0.37984574  0.54084818  1
  O  O30  1  0.98959725  0.37152485  0.96066861  1
  O  O31  1  0.00020326  0.39011322  0.82003687  1
  O  O32  1  0.00000297  0.39070765  0.68012961  1
  O  O33  1  0.02060770  0.26961808  0.11196756  1
  O  O34  1  0.00005980  0.24059488  0.38790423  1
  O  O35  1  0.99990837  0.24270156  0.24920252  1
  O  O36  1  0.33332141  0.66666378  0.24824731  1
  O  O37  1  0.33335244  0.66668116  0.60467374  1
  O  O38  1  0.33330963  0.66666076  0.89830806  1
  O  O39  1  0.33332688  0.66668489  0.75066129  1
  O  O40  1  0.33336312  0.66668774  0.39348044  1
  O  O41  1  0.24148396  0.24145183  0.74996218  1
  O  O42  1  0.24118869  0.24118042  0.61185299  1
  O  O43  1  0.24239042  0.24335340  0.88840549  1
  O  O44  1  0.38930947  0.39803216  0.17741588  1
  O  O45  1  0.38997737  0.38964414  0.31906553  1
  O  O46  1  0.38073980  0.38071742  0.45854191  1
  O  O47  1  0.38830926  0.41080241  0.04661043  1
  O  O48  1  0.24278262  0.00008699  0.24920394  1
  O  O49  1  0.24053193  0.99997290  0.38790462  1
  O  O50  1  0.24895836  0.97936404  0.11196413  1
  O  O51  1  0.62029723  0.62029717  0.54084808  1
  O  O52  1  0.62839066  0.61807893  0.96066658  1
  O  O53  1  0.60922060  0.60922684  0.68013216  1
  O  O54  1  0.60978561  0.61002076  0.82004158  1
  O  O55  1  0.73037355  0.75099912  0.11196853  1
  O  O56  1  0.75944789  0.75948254  0.38790761  1
  O  O57  1  0.75727522  0.75718639  0.24920069  1
  O  O58  1  0.39074059  0.99999683  0.68012832  1
  O  O59  1  0.38991165  0.99974734  0.82003782  1
  O  O60  1  0.37983599  0.00005620  0.54084753  1
  O  O61  1  0.38185443  0.01033169  0.96066803  1
  O  O62  1  0.66668422  0.33334720  0.60467382  1
  O  O63  1  0.66668225  0.33333144  0.75065482  1
  O  O64  1  0.66664408  0.33331245  0.89608112  1
  O  O65  1  0.66667086  0.33332713  0.24671793  1
  O  O66  1  0.66663304  0.33330518  0.10446755  1
  O  O67  1  0.66668041  0.33334537  0.39346964  1
  O  O68  1  0.58914709  0.97751575  0.04660762  1
  O  O69  1  0.61936310  0.00007550  0.45853736  1
  O  O70  1  0.60193853  0.99125952  0.17741391  1
  O  O71  1  0.61034513  0.00033659  0.31906285  1
  O  O72  1  0.75662983  0.99902942  0.88840416  1
  O  O73  1  0.75886110  0.00000667  0.61185364  1
  O  O74  1  0.75868904  0.00002529  0.74996301  1
