# generated using pymatgen
data_Ho9B4O19
_symmetry_space_group_name_H-M   'P 1'
_cell_length_a   9.32427539
_cell_length_b   7.29118978
_cell_length_c   12.60071836
_cell_angle_alpha   81.66600093
_cell_angle_beta   79.06107707
_cell_angle_gamma   78.76169856
_symmetry_Int_Tables_number   1
_chemical_formula_structural   Ho9B4O19
_chemical_formula_sum   'Ho18 B8 O38'
_cell_volume   819.76660842
_cell_formula_units_Z   2
loop_
 _symmetry_equiv_pos_site_id
 _symmetry_equiv_pos_as_xyz
  1  'x, y, z'
loop_
 _atom_site_type_symbol
 _atom_site_label
 _atom_site_symmetry_multiplicity
 _atom_site_fract_x
 _atom_site_fract_y
 _atom_site_fract_z
 _atom_site_occupancy
  Ho  Ho0  1  0.99448723  0.99923165  0.00723788  1
  Ho  Ho1  1  0.00551277  0.50076835  0.99276212  1
  Ho  Ho2  1  0.10642541  0.37391124  0.40272624  1
  Ho  Ho3  1  0.11206784  0.87003061  0.40553376  1
  Ho  Ho4  1  0.15911412  0.28604767  0.73412176  1
  Ho  Ho5  1  0.15999726  0.76720397  0.73459179  1
  Ho  Ho6  1  0.48135106  0.06384252  0.26411276  1
  Ho  Ho7  1  0.46553224  0.56619649  0.26719821  1
  Ho  Ho8  1  0.35382436  0.17416835  0.95549590  1
  Ho  Ho9  1  0.35536142  0.67065528  0.95605962  1
  Ho  Ho10  1  0.64463858  0.82934472  0.04394038  1
  Ho  Ho11  1  0.64617564  0.32583165  0.04450410  1
  Ho  Ho12  1  0.51864894  0.43615748  0.73588724  1
  Ho  Ho13  1  0.53446776  0.93380351  0.73280179  1
  Ho  Ho14  1  0.84088588  0.21395233  0.26587824  1
  Ho  Ho15  1  0.84000274  0.73279603  0.26540821  1
  Ho  Ho16  1  0.89357459  0.12608876  0.59727376  1
  Ho  Ho17  1  0.88793216  0.62996939  0.59446624  1
  B  B18  1  0.18381539  0.40850196  0.17949985  1
  B  B19  1  0.18604557  0.90947867  0.17969041  1
  B  B20  1  0.34236694  0.03236772  0.53076043  1
  B  B21  1  0.35162406  0.53266169  0.51465648  1
  B  B22  1  0.65763306  0.46763228  0.46923957  1
  B  B23  1  0.64837594  0.96733831  0.48534352  1
  B  B24  1  0.81618461  0.09149804  0.82050015  1
  B  B25  1  0.81395443  0.59052133  0.82030959  1
  O  O26  1  0.03431291  0.43414623  0.22931030  1
  O  O27  1  0.03451909  0.93476272  0.22851260  1
  O  O28  1  0.02832225  0.35094608  0.58448292  1
  O  O29  1  0.03274480  0.84053692  0.58627804  1
  O  O30  1  0.22229141  0.92719918  0.06877264  1
  O  O31  1  0.22203619  0.42743525  0.06773719  1
  O  O32  1  0.11892273  0.22490724  0.91273790  1
  O  O33  1  0.11950916  0.75892166  0.91324346  1
  O  O34  1  0.28959412  0.86640166  0.24971575  1
  O  O35  1  0.28890503  0.36457068  0.24915156  1
  O  O36  1  0.29230355  0.06952375  0.43233605  1
  O  O37  1  0.26714640  0.57332085  0.43253593  1
  O  O38  1  0.25875529  0.02836368  0.63197147  1
  O  O39  1  0.30148414  0.51848437  0.62311882  1
  O  O40  1  0.50425153  0.60143541  0.08835626  1
  O  O41  1  0.50003622  0.10307926  0.08909567  1
  O  O42  1  0.39434585  0.20094943  0.76550970  1
  O  O43  1  0.39493560  0.71903386  0.76566698  1
  O  O44  1  0.50318333  0.50780667  0.46776281  1
  O  O45  1  0.49681667  0.99219333  0.53223719  1
  O  O46  1  0.60565415  0.29905057  0.23449030  1
  O  O47  1  0.60506440  0.78096614  0.23433302  1
  O  O48  1  0.49996378  0.39692074  0.91090433  1
  O  O49  1  0.49574847  0.89856459  0.91164374  1
  O  O50  1  0.74124471  0.47163632  0.36802853  1
  O  O51  1  0.69851586  0.98151563  0.37688118  1
  O  O52  1  0.70769645  0.43047625  0.56766395  1
  O  O53  1  0.73285360  0.92667915  0.56746407  1
  O  O54  1  0.71109497  0.13542932  0.75084844  1
  O  O55  1  0.71040588  0.63359834  0.75028425  1
  O  O56  1  0.88107727  0.27509276  0.08726210  1
  O  O57  1  0.88049084  0.74107834  0.08675654  1
  O  O58  1  0.77796381  0.07256475  0.93226281  1
  O  O59  1  0.77770859  0.57280082  0.93122736  1
  O  O60  1  0.97167775  0.14905392  0.41551708  1
  O  O61  1  0.96725520  0.65946308  0.41372196  1
  O  O62  1  0.96568709  0.06585377  0.77068970  1
  O  O63  1  0.96548091  0.56523728  0.77148740  1
