# generated using pymatgen
data_Li2Cu2P4O13
_symmetry_space_group_name_H-M   'P 1'
_cell_length_a   11.77684381
_cell_length_b   8.46161041
_cell_length_c   4.72081040
_cell_angle_alpha   90.00000000
_cell_angle_beta   95.76527737
_cell_angle_gamma   90.00000000
_symmetry_Int_Tables_number   1
_chemical_formula_structural   Li2Cu2P4O13
_chemical_formula_sum   'Li4 Cu4 P8 O26'
_cell_volume   468.05421747
_cell_formula_units_Z   2
loop_
 _symmetry_equiv_pos_site_id
 _symmetry_equiv_pos_as_xyz
  1  'x, y, z'
loop_
 _atom_site_type_symbol
 _atom_site_label
 _atom_site_symmetry_multiplicity
 _atom_site_fract_x
 _atom_site_fract_y
 _atom_site_fract_z
 _atom_site_occupancy
  Li  Li0  1  0.38372873  0.06200738  0.01103624  1
  Li  Li1  1  0.38372873  0.43799262  0.01103624  1
  Li  Li2  1  0.61627127  0.56200738  0.98896376  1
  Li  Li3  1  0.61627127  0.93799262  0.98896376  1
  Cu  Cu4  1  0.12743928  0.47579606  0.01728023  1
  Cu  Cu5  1  0.12743928  0.02420394  0.01728023  1
  Cu  Cu6  1  0.87256072  0.97579606  0.98271977  1
  Cu  Cu7  1  0.87256072  0.52420394  0.98271977  1
  P  P8  1  0.01166552  0.75000000  0.58429789  1
  P  P9  1  0.29053839  0.25000000  0.45258087  1
  P  P10  1  0.25411986  0.75000000  0.70864039  1
  P  P11  1  0.47384641  0.75000000  0.37267781  1
  P  P12  1  0.52615359  0.25000000  0.62732219  1
  P  P13  1  0.74588014  0.25000000  0.29135961  1
  P  P14  1  0.70946161  0.75000000  0.54741913  1
  P  P15  1  0.98833448  0.25000000  0.41570211  1
  O  O16  1  0.00595001  0.59820129  0.77468307  1
  O  O17  1  0.00595001  0.90179871  0.77468307  1
  O  O18  1  0.06771527  0.25000000  0.68446152  1
  O  O19  1  0.14101071  0.75000000  0.48214608  1
  O  O20  1  0.25389670  0.59565831  0.87401293  1
  O  O21  1  0.25389670  0.90434169  0.87401293  1
  O  O22  1  0.24173473  0.40273459  0.31271697  1
  O  O23  1  0.24173473  0.09726541  0.31271697  1
  O  O24  1  0.30531332  0.25000000  0.77464204  1
  O  O25  1  0.35678123  0.75000000  0.52845157  1
  O  O26  1  0.42685781  0.25000000  0.35913803  1
  O  O27  1  0.52184141  0.09688075  0.78525826  1
  O  O28  1  0.52184141  0.40311925  0.78525826  1
  O  O29  1  0.47815859  0.90311925  0.21474174  1
  O  O30  1  0.47815859  0.59688075  0.21474174  1
  O  O31  1  0.57314219  0.75000000  0.64086197  1
  O  O32  1  0.64321877  0.25000000  0.47154843  1
  O  O33  1  0.69468668  0.75000000  0.22535796  1
  O  O34  1  0.75826527  0.59726541  0.68728303  1
  O  O35  1  0.75826527  0.90273459  0.68728303  1
  O  O36  1  0.74610330  0.09565831  0.12598707  1
  O  O37  1  0.74610330  0.40434169  0.12598707  1
  O  O38  1  0.85898929  0.25000000  0.51785392  1
  O  O39  1  0.93228473  0.75000000  0.31553848  1
  O  O40  1  0.99404999  0.09820129  0.22531693  1
  O  O41  1  0.99404999  0.40179871  0.22531693  1
