# generated using pymatgen
data_Li4Sn(PO3)6
_symmetry_space_group_name_H-M   'P 1'
_cell_length_a   7.41576811
_cell_length_b   7.41576811
_cell_length_c   14.49811631
_cell_angle_alpha   86.68332532
_cell_angle_beta   93.31667468
_cell_angle_gamma   113.76920765
_symmetry_Int_Tables_number   1
_chemical_formula_structural   Li4Sn(PO3)6
_chemical_formula_sum   'Li8 Sn2 P12 O36'
_cell_volume   727.93087250
_cell_formula_units_Z   2
loop_
 _symmetry_equiv_pos_site_id
 _symmetry_equiv_pos_as_xyz
  1  'x, y, z'
loop_
 _atom_site_type_symbol
 _atom_site_label
 _atom_site_symmetry_multiplicity
 _atom_site_fract_x
 _atom_site_fract_y
 _atom_site_fract_z
 _atom_site_occupancy
  Li  Li0  1  0.03265783  0.67918373  0.93064284  1
  Li  Li1  1  0.32081627  0.96734217  0.43064284  1
  Li  Li2  1  0.23304243  0.57117214  0.55123747  1
  Li  Li3  1  0.42882786  0.76695757  0.05123747  1
  Li  Li4  1  0.57117214  0.23304243  0.94876253  1
  Li  Li5  1  0.76695757  0.42882786  0.44876253  1
  Li  Li6  1  0.67918373  0.03265783  0.56935716  1
  Li  Li7  1  0.96734217  0.32081627  0.06935716  1
  Sn  Sn8  1  0.62879602  0.62879602  0.75000000  1
  Sn  Sn9  1  0.37120398  0.37120398  0.25000000  1
  P  P10  1  0.04151211  0.85631860  0.60832755  1
  P  P11  1  0.14368140  0.95848789  0.10832755  1
  P  P12  1  0.36586592  0.93079447  0.74300920  1
  P  P13  1  0.06920553  0.63413408  0.24300920  1
  P  P14  1  0.23001870  0.38335474  0.89785700  1
  P  P15  1  0.61664526  0.76998130  0.39785700  1
  P  P16  1  0.38335474  0.23001870  0.60214300  1
  P  P17  1  0.76998130  0.61664526  0.10214300  1
  P  P18  1  0.93079447  0.36586592  0.75699080  1
  P  P19  1  0.63413408  0.06920553  0.25699080  1
  P  P20  1  0.85631860  0.04151211  0.89167245  1
  P  P21  1  0.95848789  0.14368140  0.39167245  1
  O  O22  1  0.13273692  0.83324312  0.71044099  1
  O  O23  1  0.10066071  0.75169065  0.53822359  1
  O  O24  1  0.16675688  0.86726308  0.21044099  1
  O  O25  1  0.24830935  0.89933929  0.03822359  1
  O  O26  1  0.37721399  0.91453987  0.84524398  1
  O  O27  1  0.08546013  0.62278601  0.34524398  1
  O  O28  1  0.17878899  0.50323250  0.96415420  1
  O  O29  1  0.47648054  0.84925906  0.68408308  1
  O  O30  1  0.16152389  0.42519021  0.79241081  1
  O  O31  1  0.49676750  0.82121101  0.46415420  1
  O  O32  1  0.15074094  0.52351946  0.18408308  1
  O  O33  1  0.57480979  0.83847611  0.29241081  1
  O  O34  1  0.09176397  0.15124631  0.91309886  1
  O  O35  1  0.81741839  0.82802119  0.87935675  1
  O  O36  1  0.43723075  0.39922879  0.89552828  1
  O  O37  1  0.84875369  0.90823603  0.41309886  1
  O  O38  1  0.39922879  0.43723075  0.60447172  1
  O  O39  1  0.17197881  0.18258161  0.37935675  1
  O  O40  1  0.82802119  0.81741839  0.62064325  1
  O  O41  1  0.60077121  0.56276925  0.39552828  1
  O  O42  1  0.15124631  0.09176397  0.58690114  1
  O  O43  1  0.56276925  0.60077121  0.10447172  1
  O  O44  1  0.18258161  0.17197881  0.12064325  1
  O  O45  1  0.90823603  0.84875369  0.08690114  1
  O  O46  1  0.42519021  0.16152389  0.70758919  1
  O  O47  1  0.84925906  0.47648054  0.81591692  1
  O  O48  1  0.50323250  0.17878899  0.53584580  1
  O  O49  1  0.83847611  0.57480979  0.20758919  1
  O  O50  1  0.52351946  0.15074094  0.31591692  1
  O  O51  1  0.82121101  0.49676750  0.03584580  1
  O  O52  1  0.91453987  0.37721399  0.65475602  1
  O  O53  1  0.62278601  0.08546013  0.15475602  1
  O  O54  1  0.75169065  0.10066071  0.96177641  1
  O  O55  1  0.83324312  0.13273692  0.78955901  1
  O  O56  1  0.89933929  0.24830935  0.46177641  1
  O  O57  1  0.86726308  0.16675688  0.28955901  1
