# generated using pymatgen
data_Sr7Bi23O40
_symmetry_space_group_name_H-M   'P 1'
_cell_length_a   6.92548462
_cell_length_b   14.09425408
_cell_length_c   14.09425388
_cell_angle_alpha   90.88669646
_cell_angle_beta   94.74612294
_cell_angle_gamma   94.74612269
_symmetry_Int_Tables_number   1
_chemical_formula_structural   Sr7Bi23O40
_chemical_formula_sum   'Sr7 Bi23 O40'
_cell_volume   1365.97018816
_cell_formula_units_Z   1
loop_
 _symmetry_equiv_pos_site_id
 _symmetry_equiv_pos_as_xyz
  1  'x, y, z'
loop_
 _atom_site_type_symbol
 _atom_site_label
 _atom_site_symmetry_multiplicity
 _atom_site_fract_x
 _atom_site_fract_y
 _atom_site_fract_z
 _atom_site_occupancy
  Sr  Sr0  1  0.00000000  0.80172068  0.19827932  1
  Sr  Sr1  1  0.00000000  0.39827932  0.60172068  1
  Sr  Sr2  1  0.50000000  0.69950549  0.30049451  1
  Sr  Sr3  1  0.00000000  0.00113620  0.99886380  1
  Sr  Sr4  1  0.00000000  0.19886380  0.80113620  1
  Sr  Sr5  1  0.50000000  0.50049451  0.49950549  1
  Sr  Sr6  1  0.50000000  0.10000000  0.90000000  1
  Bi  Bi7  1  0.00000000  0.60000000  0.40000000  1
  Bi  Bi8  1  0.38031646  0.95502325  0.36548626  1
  Bi  Bi9  1  0.12655188  0.94098294  0.74098294  1
  Bi  Bi10  1  0.50000000  0.90013567  0.09986433  1
  Bi  Bi11  1  0.10623651  0.54094554  0.13839526  1
  Bi  Bi12  1  0.11873479  0.74314089  0.93427211  1
  Bi  Bi13  1  0.61968354  0.63451374  0.04497675  1
  Bi  Bi14  1  0.37929852  0.76272351  0.56272351  1
  Bi  Bi15  1  0.10623651  0.33839526  0.34094554  1
  Bi  Bi16  1  0.38031646  0.56548626  0.75502325  1
  Bi  Bi17  1  0.11873479  0.13427211  0.54314089  1
  Bi  Bi18  1  0.39867315  0.15992828  0.16424624  1
  Bi  Bi19  1  0.89376349  0.86160474  0.45905446  1
  Bi  Bi20  1  0.60132685  0.83575376  0.84007172  1
  Bi  Bi21  1  0.62070148  0.43727649  0.23727649  1
  Bi  Bi22  1  0.89376349  0.65905446  0.66160474  1
  Bi  Bi23  1  0.87344812  0.25901706  0.05901706  1
  Bi  Bi24  1  0.50000000  0.29986433  0.70013567  1
  Bi  Bi25  1  0.61968354  0.24497675  0.43451374  1
  Bi  Bi26  1  0.39867315  0.36424624  0.95992828  1
  Bi  Bi27  1  0.88126521  0.45685911  0.86572789  1
  Bi  Bi28  1  0.60132685  0.04007172  0.63575376  1
  Bi  Bi29  1  0.88126521  0.06572789  0.25685911  1
  O  O30  1  0.04069727  0.95963341  0.34241256  1
  O  O31  1  0.17125906  0.84959417  0.03962320  1
  O  O32  1  0.13355458  0.64134592  0.25015292  1
  O  O33  1  0.03494719  0.76296220  0.56296220  1
  O  O34  1  0.35626147  0.85530070  0.25361928  1
  O  O35  1  0.56754248  0.84854898  0.46031373  1
  O  O36  1  0.43245752  0.53968627  0.15145102  1
  O  O37  1  0.04069727  0.54241256  0.75963341  1
  O  O38  1  0.48945254  0.95427102  0.75427102  1
  O  O39  1  0.32853127  0.65653161  0.45653161  1
  O  O40  1  0.13355458  0.45015292  0.44134592  1
  O  O41  1  0.07413244  0.16271867  0.15042526  1
  O  O42  1  0.82874094  0.96037680  0.15040583  1
  O  O43  1  0.64373853  0.74638072  0.14469930  1
  O  O44  1  0.35626147  0.45361928  0.65530070  1
  O  O45  1  0.86644542  0.74984708  0.35865508  1
  O  O46  1  0.07413244  0.35042526  0.96271867  1
  O  O47  1  0.37091231  0.04429015  0.06738600  1
  O  O48  1  0.67146873  0.54346839  0.34346839  1
  O  O49  1  0.51054746  0.24572898  0.04572898  1
  O  O50  1  0.17125906  0.23962320  0.64959417  1
  O  O51  1  0.62908769  0.93261400  0.95570985  1
  O  O52  1  0.43245752  0.35145102  0.33968627  1
  O  O53  1  0.56754248  0.66031373  0.64854898  1
  O  O54  1  0.95930273  0.65758744  0.04036659  1
  O  O55  1  0.44491262  0.71822501  0.94388179  1
  O  O56  1  0.37091231  0.26738600  0.84429015  1
  O  O57  1  0.44491262  0.14388179  0.51822501  1
  O  O58  1  0.55508738  0.48177499  0.85611821  1
  O  O59  1  0.96505281  0.43703780  0.23703780  1
  O  O60  1  0.64373853  0.34469930  0.54638072  1
  O  O61  1  0.55508738  0.05611821  0.28177499  1
  O  O62  1  0.86644542  0.55865508  0.54984708  1
  O  O63  1  0.15403761  0.04636408  0.84636408  1
  O  O64  1  0.92586756  0.84957474  0.83728133  1
  O  O65  1  0.82874094  0.35040583  0.76037680  1
  O  O66  1  0.62908769  0.15570985  0.73261400  1
  O  O67  1  0.95930273  0.24036659  0.45758744  1
  O  O68  1  0.92586756  0.03728133  0.64957474  1
  O  O69  1  0.84596239  0.15363592  0.95363592  1
