# generated using pymatgen
data_LiIO4
_symmetry_space_group_name_H-M   'P 1'
_cell_length_a   5.34373884
_cell_length_b   8.65958886
_cell_length_c   9.03520495
_cell_angle_alpha   90.00000000
_cell_angle_beta   107.87771414
_cell_angle_gamma   90.00000000
_symmetry_Int_Tables_number   1
_chemical_formula_structural   LiIO4
_chemical_formula_sum   'Li4 I4 O16'
_cell_volume   397.91188417
_cell_formula_units_Z   4
loop_
 _symmetry_equiv_pos_site_id
 _symmetry_equiv_pos_as_xyz
  1  'x, y, z'
loop_
 _atom_site_type_symbol
 _atom_site_label
 _atom_site_symmetry_multiplicity
 _atom_site_fract_x
 _atom_site_fract_y
 _atom_site_fract_z
 _atom_site_occupancy
  Li  Li0  1  0.29025102  0.55030701  0.85616992  1
  Li  Li1  1  0.29025102  0.94969299  0.35616992  1
  Li  Li2  1  0.70974898  0.05030701  0.64383008  1
  Li  Li3  1  0.70974898  0.44969299  0.14383008  1
  I  I4  1  0.15301972  0.28940395  0.54584045  1
  I  I5  1  0.15301972  0.21059605  0.04584045  1
  I  I6  1  0.84698028  0.78940395  0.95415955  1
  I  I7  1  0.84698028  0.71059605  0.45415955  1
  O  O8  1  0.16266473  0.74046550  0.93692667  1
  O  O9  1  0.10459308  0.09773429  0.87259607  1
  O  O10  1  0.16266473  0.75953450  0.43692667  1
  O  O11  1  0.10459308  0.40226571  0.37259607  1
  O  O12  1  0.36159870  0.38840686  0.71217977  1
  O  O13  1  0.31744043  0.10958267  0.53331084  1
  O  O14  1  0.68255957  0.60958267  0.96668916  1
  O  O15  1  0.63840130  0.88840686  0.78782023  1
  O  O16  1  0.36159870  0.11159314  0.21217977  1
  O  O17  1  0.31744043  0.39041733  0.03331084  1
  O  O18  1  0.68255957  0.89041733  0.46668916  1
  O  O19  1  0.63840130  0.61159314  0.28782023  1
  O  O20  1  0.89540692  0.59773429  0.62740393  1
  O  O21  1  0.83733527  0.24046550  0.56307333  1
  O  O22  1  0.89540692  0.90226571  0.12740393  1
  O  O23  1  0.83733527  0.25953450  0.06307333  1
