# generated using pymatgen
data_Li7Bi2P7O24
_symmetry_space_group_name_H-M   'P 1'
_cell_length_a   16.15529713
_cell_length_b   5.24686106
_cell_length_c   12.18278555
_cell_angle_alpha   90.00000000
_cell_angle_beta   95.48378786
_cell_angle_gamma   90.00000000
_symmetry_Int_Tables_number   1
_chemical_formula_structural   Li7Bi2P7O24
_chemical_formula_sum   'Li14 Bi4 P14 O48'
_cell_volume   1027.94269901
_cell_formula_units_Z   2
loop_
 _symmetry_equiv_pos_site_id
 _symmetry_equiv_pos_as_xyz
  1  'x, y, z'
loop_
 _atom_site_type_symbol
 _atom_site_label
 _atom_site_symmetry_multiplicity
 _atom_site_fract_x
 _atom_site_fract_y
 _atom_site_fract_z
 _atom_site_occupancy
  Li  Li0  1  0.03283528  0.76780905  0.52328618  1
  Li  Li1  1  0.13187352  0.77967037  0.88466350  1
  Li  Li2  1  0.03283528  0.23219095  0.02328618  1
  Li  Li3  1  0.13187352  0.22032963  0.38466350  1
  Li  Li4  1  0.42354534  0.16655519  0.55902824  1
  Li  Li5  1  0.42354534  0.83344481  0.05902824  1
  Li  Li6  1  0.50000000  0.71194285  0.75000000  1
  Li  Li7  1  0.50000000  0.28805715  0.25000000  1
  Li  Li8  1  0.57645466  0.16655519  0.94097176  1
  Li  Li9  1  0.57645466  0.83344481  0.44097176  1
  Li  Li10  1  0.86812648  0.77967037  0.61533650  1
  Li  Li11  1  0.96716472  0.76780905  0.97671382  1
  Li  Li12  1  0.86812648  0.22032963  0.11533650  1
  Li  Li13  1  0.96716472  0.23219095  0.47671382  1
  Bi  Bi14  1  0.27671078  0.66843037  0.69153553  1
  Bi  Bi15  1  0.27671078  0.33156963  0.19153553  1
  Bi  Bi16  1  0.72328922  0.66843037  0.80846447  1
  Bi  Bi17  1  0.72328922  0.33156963  0.30846447  1
  P  P18  1  0.00000000  0.46599054  0.75000000  1
  P  P19  1  0.00000000  0.53400946  0.25000000  1
  P  P20  1  0.12995654  0.13528726  0.65823717  1
  P  P21  1  0.12995654  0.86471274  0.15823717  1
  P  P22  1  0.27746773  0.39150512  0.94775248  1
  P  P23  1  0.27746773  0.60849488  0.44775248  1
  P  P24  1  0.39843381  0.18088900  0.80861355  1
  P  P25  1  0.39843381  0.81911100  0.30861355  1
  P  P26  1  0.60156619  0.18088900  0.69138645  1
  P  P27  1  0.60156619  0.81911100  0.19138645  1
  P  P28  1  0.72253227  0.39150512  0.55224752  1
  P  P29  1  0.72253227  0.60849488  0.05224752  1
  P  P30  1  0.87004346  0.13528726  0.84176283  1
  P  P31  1  0.87004346  0.86471274  0.34176283  1
  O  O32  1  0.01703586  0.60690136  0.85812062  1
  O  O33  1  0.01703586  0.39309864  0.35812062  1
  O  O34  1  0.07785509  0.27980519  0.74896960  1
  O  O35  1  0.07352680  0.11350052  0.54993516  1
  O  O36  1  0.07785509  0.72019481  0.24896960  1
  O  O37  1  0.07352680  0.88649948  0.04993516  1
  O  O38  1  0.14811497  0.87916002  0.71706900  1
  O  O39  1  0.21468635  0.24468186  0.01113335  1
  O  O40  1  0.20768437  0.29034107  0.64557080  1
  O  O41  1  0.14811497  0.12083998  0.21706900  1
  O  O42  1  0.21468635  0.75531814  0.51113335  1
  O  O43  1  0.23468588  0.59660734  0.87225707  1
  O  O44  1  0.20768437  0.70965893  0.14557080  1
  O  O45  1  0.23468588  0.40339266  0.37225707  1
  O  O46  1  0.31125646  0.17459379  0.86747262  1
  O  O47  1  0.31125646  0.82540621  0.36747262  1
  O  O48  1  0.37987432  0.01453808  0.70372817  1
  O  O49  1  0.34945150  0.50480139  0.52723848  1
  O  O50  1  0.41057951  0.46287846  0.77783494  1
  O  O51  1  0.37987432  0.98546192  0.20372817  1
  O  O52  1  0.34945150  0.49519861  0.02723848  1
  O  O53  1  0.41057951  0.53712154  0.27783494  1
  O  O54  1  0.46407795  0.06312148  0.89004208  1
  O  O55  1  0.46407795  0.93687852  0.39004208  1
  O  O56  1  0.53592205  0.06312148  0.60995792  1
  O  O57  1  0.53592205  0.93687852  0.10995792  1
  O  O58  1  0.58942049  0.46287846  0.72216506  1
  O  O59  1  0.65054850  0.50480139  0.97276152  1
  O  O60  1  0.62012568  0.01453808  0.79627183  1
  O  O61  1  0.58942049  0.53712154  0.22216506  1
  O  O62  1  0.65054850  0.49519861  0.47276152  1
  O  O63  1  0.62012568  0.98546192  0.29627183  1
  O  O64  1  0.68874354  0.17459379  0.63252738  1
  O  O65  1  0.68874354  0.82540621  0.13252738  1
  O  O66  1  0.76531412  0.59660734  0.62774293  1
  O  O67  1  0.79231563  0.29034107  0.85442920  1
  O  O68  1  0.76531412  0.40339266  0.12774293  1
  O  O69  1  0.78531365  0.24468186  0.48886665  1
  O  O70  1  0.85188503  0.87916002  0.78293100  1
  O  O71  1  0.79231563  0.70965893  0.35442920  1
  O  O72  1  0.78531365  0.75531814  0.98886665  1
  O  O73  1  0.85188503  0.12083998  0.28293100  1
  O  O74  1  0.92647320  0.11350052  0.95006484  1
  O  O75  1  0.92214491  0.27980519  0.75103040  1
  O  O76  1  0.92647320  0.88649948  0.45006484  1
  O  O77  1  0.92214491  0.72019481  0.25103040  1
  O  O78  1  0.98296414  0.60690136  0.64187938  1
  O  O79  1  0.98296414  0.39309864  0.14187938  1
