# generated using pymatgen
data_LiSbP2O7
_symmetry_space_group_name_H-M   'P 1'
_cell_length_a   7.46006218
_cell_length_b   9.04540583
_cell_length_c   8.80860810
_cell_angle_alpha   90.00000000
_cell_angle_beta   111.03278949
_cell_angle_gamma   90.00000000
_symmetry_Int_Tables_number   1
_chemical_formula_structural   LiSbP2O7
_chemical_formula_sum   'Li4 Sb4 P8 O28'
_cell_volume   554.79692192
_cell_formula_units_Z   4
loop_
 _symmetry_equiv_pos_site_id
 _symmetry_equiv_pos_as_xyz
  1  'x, y, z'
loop_
 _atom_site_type_symbol
 _atom_site_label
 _atom_site_symmetry_multiplicity
 _atom_site_fract_x
 _atom_site_fract_y
 _atom_site_fract_z
 _atom_site_occupancy
  Li  Li0  1  0.07355277  0.56774896  0.89055597  1
  Li  Li1  1  0.42644723  0.06774896  0.60944403  1
  Li  Li2  1  0.57355277  0.93225104  0.39055597  1
  Li  Li3  1  0.92644723  0.43225104  0.10944403  1
  Sb  Sb4  1  0.13617906  0.93771816  0.85333289  1
  Sb  Sb5  1  0.36382094  0.43771816  0.64666711  1
  Sb  Sb6  1  0.63617906  0.56228184  0.35333289  1
  Sb  Sb7  1  0.86382094  0.06228184  0.14666711  1
  P  P8  1  0.06076627  0.72454082  0.54230328  1
  P  P9  1  0.43923373  0.22454082  0.95769672  1
  P  P10  1  0.18695550  0.72531710  0.24445348  1
  P  P11  1  0.31304450  0.22531710  0.25554652  1
  P  P12  1  0.68695550  0.77468290  0.74445348  1
  P  P13  1  0.81304450  0.27468290  0.75554652  1
  P  P14  1  0.56076627  0.77545918  0.04230328  1
  P  P15  1  0.93923373  0.27545918  0.45769672  1
  O  O16  1  0.11557541  0.59273200  0.65995332  1
  O  O17  1  0.14309167  0.87562587  0.62471449  1
  O  O18  1  0.34460429  0.75725405  0.94526931  1
  O  O19  1  0.15539571  0.25725405  0.55473069  1
  O  O20  1  0.35690833  0.37562587  0.87528551  1
  O  O21  1  0.16624526  0.68524210  0.41901968  1
  O  O22  1  0.38442459  0.09273200  0.84004668  1
  O  O23  1  0.08976089  0.23212764  0.20353516  1
  O  O24  1  0.10017177  0.87865524  0.19422595  1
  O  O25  1  0.09524770  0.60262612  0.12699911  1
  O  O26  1  0.66624526  0.81475790  0.91901968  1
  O  O27  1  0.40475230  0.10262712  0.37300089  1
  O  O28  1  0.58976089  0.26787236  0.70353516  1
  O  O29  1  0.60017177  0.62134476  0.69422595  1
  O  O30  1  0.39982823  0.37865524  0.30577405  1
  O  O31  1  0.41023911  0.73212764  0.29646484  1
  O  O32  1  0.59524770  0.89737388  0.62699911  1
  O  O33  1  0.33375474  0.18524210  0.08098032  1
  O  O34  1  0.90475230  0.39737288  0.87300089  1
  O  O35  1  0.89982823  0.12134476  0.80577405  1
  O  O36  1  0.91023911  0.76787236  0.79646484  1
  O  O37  1  0.61557541  0.90726800  0.15995332  1
  O  O38  1  0.83375474  0.31475790  0.58098032  1
  O  O39  1  0.64309167  0.62437413  0.12471449  1
  O  O40  1  0.84460429  0.74274595  0.44526931  1
  O  O41  1  0.65539571  0.24274595  0.05473069  1
  O  O42  1  0.85690833  0.12437413  0.37528551  1
  O  O43  1  0.88442459  0.40726800  0.34004668  1
