# generated using pymatgen
data_Rb3P3O10
_symmetry_space_group_name_H-M   'P 1'
_cell_length_a   7.87671627
_cell_length_b   7.79451558
_cell_length_c   10.31796027
_cell_angle_alpha   68.65119564
_cell_angle_beta   86.00472948
_cell_angle_gamma   83.87603895
_symmetry_Int_Tables_number   1
_chemical_formula_structural   Rb3P3O10
_chemical_formula_sum   'Rb6 P6 O20'
_cell_volume   586.31285728
_cell_formula_units_Z   2
loop_
 _symmetry_equiv_pos_site_id
 _symmetry_equiv_pos_as_xyz
  1  'x, y, z'
loop_
 _atom_site_type_symbol
 _atom_site_label
 _atom_site_symmetry_multiplicity
 _atom_site_fract_x
 _atom_site_fract_y
 _atom_site_fract_z
 _atom_site_occupancy
  Rb  Rb0  1  0.76299528  0.72535648  0.99795748  1
  Rb  Rb1  1  0.23700472  0.27464352  0.00204252  1
  Rb  Rb2  1  0.62096877  0.79094698  0.38336734  1
  Rb  Rb3  1  0.37903123  0.20905302  0.61663266  1
  Rb  Rb4  1  0.90555288  0.25639236  0.34538989  1
  Rb  Rb5  1  0.09444712  0.74360764  0.65461011  1
  P  P6  1  0.62859415  0.50173350  0.74420572  1
  P  P7  1  0.37140585  0.49826650  0.25579428  1
  P  P8  1  0.91809507  0.23858175  0.73287027  1
  P  P9  1  0.08190493  0.76141825  0.26712973  1
  P  P10  1  0.74848137  0.20727082  0.00407464  1
  P  P11  1  0.25151863  0.79272918  0.99592536  1
  O  O12  1  0.65743535  0.05194643  0.10425677  1
  O  O13  1  0.34256465  0.94805357  0.89574323  1
  O  O14  1  0.74647706  0.37245485  0.67040448  1
  O  O15  1  0.25352294  0.62754515  0.32959552  1
  O  O16  1  0.85212897  0.12535826  0.89104229  1
  O  O17  1  0.14787103  0.87464174  0.10895771  1
  O  O18  1  0.73026393  0.65387927  0.74498500  1
  O  O19  1  0.26973607  0.34612073  0.25501500  1
  O  O20  1  0.93739132  0.65106498  0.26782163  1
  O  O21  1  0.06260868  0.34893502  0.73217837  1
  O  O22  1  0.94752760  0.10489390  0.65641467  1
  O  O23  1  0.05247240  0.89510610  0.34358533  1
  O  O24  1  0.86234095  0.31350591  0.05097338  1
  O  O25  1  0.13765905  0.68649409  0.94902662  1
  O  O26  1  0.60326443  0.35319368  0.90207976  1
  O  O27  1  0.39673557  0.64680632  0.09792024  1
  O  O28  1  0.54087565  0.45746124  0.32241049  1
  O  O29  1  0.45912435  0.54253876  0.67758951  1
  O  O30  1  0.70911930  0.98632753  0.59167876  1
  O  O31  1  0.29088070  0.01367247  0.40832124  1
