# generated using pymatgen
data_BiOF
_symmetry_space_group_name_H-M   'P 1'
_cell_length_a   11.62875046
_cell_length_b   5.67747067
_cell_length_c   11.80126835
_cell_angle_alpha   90.00000000
_cell_angle_beta   90.00000000
_cell_angle_gamma   90.00000000
_symmetry_Int_Tables_number   1
_chemical_formula_structural   BiOF
_chemical_formula_sum   'Bi16 O16 F16'
_cell_volume   779.14203692
_cell_formula_units_Z   16
loop_
 _symmetry_equiv_pos_site_id
 _symmetry_equiv_pos_as_xyz
  1  'x, y, z'
loop_
 _atom_site_type_symbol
 _atom_site_label
 _atom_site_symmetry_multiplicity
 _atom_site_fract_x
 _atom_site_fract_y
 _atom_site_fract_z
 _atom_site_occupancy
  Bi  Bi0  1  0.13845380  0.27008722  0.96888096  1
  Bi  Bi1  1  0.13845380  0.22991278  0.46888096  1
  Bi  Bi2  1  0.11620206  0.74548660  0.75197403  1
  Bi  Bi3  1  0.11620206  0.75451340  0.25197403  1
  Bi  Bi4  1  0.38379794  0.25451340  0.25197403  1
  Bi  Bi5  1  0.38379794  0.24548660  0.75197403  1
  Bi  Bi6  1  0.36154620  0.72991278  0.46888096  1
  Bi  Bi7  1  0.36154620  0.77008722  0.96888096  1
  Bi  Bi8  1  0.63845380  0.27008722  0.53111904  1
  Bi  Bi9  1  0.63845380  0.22991278  0.03111904  1
  Bi  Bi10  1  0.61620206  0.75451340  0.24802597  1
  Bi  Bi11  1  0.61620206  0.74548660  0.74802597  1
  Bi  Bi12  1  0.88379794  0.24548660  0.74802597  1
  Bi  Bi13  1  0.88379794  0.25451340  0.24802597  1
  Bi  Bi14  1  0.86154620  0.72991278  0.03111904  1
  Bi  Bi15  1  0.86154620  0.77008722  0.53111904  1
  O  O16  1  0.97883804  0.54093890  0.15215109  1
  O  O17  1  0.97883804  0.95906110  0.65215109  1
  O  O18  1  0.23380067  0.50630986  0.36865149  1
  O  O19  1  0.23380067  0.99369014  0.86865149  1
  O  O20  1  0.26619933  0.49369014  0.86865149  1
  O  O21  1  0.26619933  0.00630986  0.36865149  1
  O  O22  1  0.52116196  0.04093890  0.15215109  1
  O  O23  1  0.52116196  0.45906110  0.65215109  1
  O  O24  1  0.47883804  0.54093890  0.34784891  1
  O  O25  1  0.47883804  0.95906110  0.84784891  1
  O  O26  1  0.73380067  0.99369014  0.63134851  1
  O  O27  1  0.73380067  0.50630986  0.13134851  1
  O  O28  1  0.76619933  0.49369014  0.63134851  1
  O  O29  1  0.76619933  0.00630986  0.13134851  1
  O  O30  1  0.02116196  0.04093890  0.34784891  1
  O  O31  1  0.02116196  0.45906110  0.84784891  1
  F  F32  1  0.99598960  0.03473601  0.11694243  1
  F  F33  1  0.99598960  0.46526399  0.61694243  1
  F  F34  1  0.25641160  0.02031094  0.11054287  1
  F  F35  1  0.25641160  0.47968906  0.61054287  1
  F  F36  1  0.24358840  0.52031094  0.11054287  1
  F  F37  1  0.24358840  0.97968906  0.61054287  1
  F  F38  1  0.50401040  0.96526399  0.61694243  1
  F  F39  1  0.50401040  0.53473601  0.11694243  1
  F  F40  1  0.49598960  0.03473601  0.38305757  1
  F  F41  1  0.49598960  0.46526399  0.88305757  1
  F  F42  1  0.75641160  0.02031094  0.38945713  1
  F  F43  1  0.75641160  0.47968906  0.88945713  1
  F  F44  1  0.74358840  0.97968906  0.88945713  1
  F  F45  1  0.74358840  0.52031094  0.38945713  1
  F  F46  1  0.00401040  0.96526399  0.88305757  1
  F  F47  1  0.00401040  0.53473601  0.38305757  1
