# generated using pymatgen
data_LiBiP2O7
_symmetry_space_group_name_H-M   'P 1'
_cell_length_a   6.80525959
_cell_length_b   6.92067455
_cell_length_c   6.75381693
_cell_angle_alpha   83.69174330
_cell_angle_beta   83.14636894
_cell_angle_gamma   67.50520183
_symmetry_Int_Tables_number   1
_chemical_formula_structural   LiBiP2O7
_chemical_formula_sum   'Li2 Bi2 P4 O14'
_cell_volume   291.06678545
_cell_formula_units_Z   2
loop_
 _symmetry_equiv_pos_site_id
 _symmetry_equiv_pos_as_xyz
  1  'x, y, z'
loop_
 _atom_site_type_symbol
 _atom_site_label
 _atom_site_symmetry_multiplicity
 _atom_site_fract_x
 _atom_site_fract_y
 _atom_site_fract_z
 _atom_site_occupancy
  Li  Li0  1  0.34362030  0.66033642  0.58774065  1
  Li  Li1  1  0.65637970  0.33966358  0.41225935  1
  Bi  Bi2  1  0.24488943  0.11238866  0.15977145  1
  Bi  Bi3  1  0.75511057  0.88761134  0.84022855  1
  P  P4  1  0.24956636  0.23593046  0.63656835  1
  P  P5  1  0.17740023  0.64337613  0.11322580  1
  P  P6  1  0.82259977  0.35662387  0.88677420  1
  P  P7  1  0.75043364  0.76406954  0.36343165  1
  O  O8  1  0.15634195  0.15240150  0.48202780  1
  O  O9  1  0.04506212  0.37560162  0.77690786  1
  O  O10  1  0.11896068  0.75177986  0.90313577  1
  O  O11  1  0.38107819  0.04892545  0.77657240  1
  O  O12  1  0.33081612  0.41549205  0.10818624  1
  O  O13  1  0.36359920  0.37861717  0.55089309  1
  O  O14  1  0.24202555  0.77535446  0.24111055  1
  O  O15  1  0.75797445  0.22464554  0.75888945  1
  O  O16  1  0.63640080  0.62138283  0.44910691  1
  O  O17  1  0.66918388  0.58450795  0.89181376  1
  O  O18  1  0.61892181  0.95107455  0.22342760  1
  O  O19  1  0.88103932  0.24822014  0.09686423  1
  O  O20  1  0.95493788  0.62439838  0.22309214  1
  O  O21  1  0.84365805  0.84759850  0.51797220  1
