# generated using pymatgen
data_Ca19(Cu12O23)2
_symmetry_space_group_name_H-M   'P 1'
_cell_length_a   10.93000563
_cell_length_b   6.47113292
_cell_length_c   16.95170482
_cell_angle_alpha   89.87280766
_cell_angle_beta   105.07357504
_cell_angle_gamma   90.14239514
_symmetry_Int_Tables_number   1
_chemical_formula_structural   Ca19(Cu12O23)2
_chemical_formula_sum   'Ca19 Cu24 O46'
_cell_volume   1157.72692007
_cell_formula_units_Z   1
loop_
 _symmetry_equiv_pos_site_id
 _symmetry_equiv_pos_as_xyz
  1  'x, y, z'
loop_
 _atom_site_type_symbol
 _atom_site_label
 _atom_site_symmetry_multiplicity
 _atom_site_fract_x
 _atom_site_fract_y
 _atom_site_fract_z
 _atom_site_occupancy
  Ca  Ca0  1  0.25158783  0.25133973  0.95517331  1
  Ca  Ca1  1  0.25372865  0.25047758  0.75930101  1
  Ca  Ca2  1  0.24514127  0.74493175  0.64949722  1
  Ca  Ca3  1  0.24908567  0.24991648  0.55456934  1
  Ca  Ca4  1  0.25250827  0.74819006  0.45551117  1
  Ca  Ca5  1  0.25505364  0.25085529  0.36037615  1
  Ca  Ca6  1  0.25088394  0.75347384  0.25493465  1
  Ca  Ca7  1  0.24431713  0.25446396  0.14953865  1
  Ca  Ca8  1  0.24868454  0.75074369  0.03674449  1
  Ca  Ca9  1  0.74840138  0.25174279  0.94747795  1
  Ca  Ca10  1  0.75187746  0.74088318  0.84851500  1
  Ca  Ca11  1  0.74934935  0.24431036  0.73849314  1
  Ca  Ca12  1  0.74898101  0.75117095  0.63908898  1
  Ca  Ca13  1  0.74705284  0.25222652  0.54176959  1
  Ca  Ca14  1  0.75168025  0.75072338  0.44609761  1
  Ca  Ca15  1  0.75596599  0.25417015  0.34850526  1
  Ca  Ca16  1  0.74792886  0.75391378  0.24145487  1
  Ca  Ca17  1  0.74717369  0.24850331  0.14150334  1
  Ca  Ca18  1  0.74841492  0.75095558  0.04294052  1
  Cu  Cu19  1  0.00501251  0.48131369  0.91669589  1
  Cu  Cu20  1  0.00288327  0.97400771  0.83432362  1
  Cu  Cu21  1  0.00067743  0.47530630  0.74993382  1
  Cu  Cu22  1  0.00128912  0.99949177  0.50382493  1
  Cu  Cu23  1  0.00396521  0.51418438  0.41860230  1
  Cu  Cu24  1  0.00392104  0.01704396  0.33498229  1
  Cu  Cu25  1  0.99985185  0.52069976  0.24981278  1
  Cu  Cu26  1  0.99695396  0.00530564  0.99905025  1
  Cu  Cu27  1  0.50091326  0.50022635  0.91949972  1
  Cu  Cu28  1  0.49857014  0.99563319  0.83369663  1
  Cu  Cu29  1  0.50173604  0.47836961  0.75422735  1
  Cu  Cu30  1  0.49771003  0.99339778  0.66674023  1
  Cu  Cu31  1  0.49752439  0.49579288  0.58640270  1
  Cu  Cu32  1  0.50069437  0.99935922  0.50122263  1
  Cu  Cu33  1  0.50124935  0.50463273  0.41834531  1
  Cu  Cu34  1  0.50143497  0.00691270  0.33404767  1
  Cu  Cu35  1  0.49913907  0.50307545  0.24984511  1
  Cu  Cu36  1  0.49776951  0.00432486  0.16529122  1
  Cu  Cu37  1  0.50102826  0.49856914  0.08301120  1
  Cu  Cu38  1  0.49720911  0.00523609  0.99757248  1
  Cu  Cu39  1  0.99478675  0.99962769  0.66739567  1
  Cu  Cu40  1  0.99743897  0.48595780  0.58195651  1
  Cu  Cu41  1  0.99768618  0.01626688  0.16614860  1
  Cu  Cu42  1  0.99677699  0.51568219  0.08082888  1
  O  O43  1  0.11797303  0.95710077  0.93878298  1
  O  O44  1  0.12382192  0.42000910  0.84603080  1
  O  O45  1  0.11783793  0.49734649  0.68907074  1
  O  O46  1  0.12251382  0.04142280  0.61308731  1
  O  O47  1  0.12571856  0.55880814  0.52421491  1
  O  O48  1  0.12650214  0.05616373  0.43749378  1
  O  O49  1  0.12541838  0.54852769  0.34913591  1
  O  O50  1  0.38384109  0.54715079  0.98211519  1
  O  O51  1  0.12102065  0.02957768  0.26962984  1
  O  O52  1  0.38326372  0.08993103  0.88977369  1
  O  O53  1  0.11551877  0.50112839  0.18720695  1
  O  O54  1  0.11685507  0.96556582  0.10261876  1
  O  O55  1  0.37769060  0.98662159  0.73178938  1
  O  O56  1  0.12499646  0.44555300  0.02329904  1
  O  O57  1  0.36999379  0.45055433  0.65845778  1
  O  O58  1  0.37517919  0.94312947  0.56538577  1
  O  O59  1  0.37621800  0.43885127  0.48038042  1
  O  O60  1  0.38061944  0.94991448  0.39316230  1
  O  O61  1  0.62035517  0.94743606  0.93389639  1
  O  O62  1  0.38132111  0.47875437  0.31132017  1
  O  O63  1  0.61263333  0.46885431  0.85478027  1
  O  O64  1  0.38093842  0.01397568  0.23080610  1
  O  O65  1  0.61864367  0.98807546  0.77077063  1
  O  O66  1  0.37943728  0.53601241  0.14715092  1
  O  O67  1  0.62334146  0.53000321  0.68803425  1
  O  O68  1  0.37612912  0.05280049  0.06427636  1
  O  O69  1  0.62186039  0.05401980  0.60842295  1
  O  O70  1  0.62382219  0.56262186  0.52057950  1
  O  O71  1  0.62322948  0.05276999  0.43413811  1
  O  O72  1  0.62169965  0.53420968  0.34934460  1
  O  O73  1  0.87549944  0.55758248  0.97504237  1
  O  O74  1  0.61885816  0.01162883  0.26914364  1
  O  O75  1  0.87458545  0.03461257  0.89772769  1
  O  O76  1  0.61712940  0.47571503  0.18834895  1
  O  O77  1  0.88366979  0.49500968  0.81189818  1
  O  O78  1  0.61971683  0.94639244  0.10638832  1
  O  O79  1  0.88843463  0.96987841  0.73406505  1
  O  O80  1  0.63087500  0.43774137  0.02894978  1
  O  O81  1  0.87556848  0.45035746  0.65022856  1
  O  O82  1  0.86761182  0.93728863  0.55817625  1
  O  O83  1  0.87534852  0.44335430  0.47570152  1
  O  O84  1  0.88362219  0.96786479  0.39381991  1
  O  O85  1  0.88361329  0.50416871  0.31224406  1
  O  O86  1  0.88046222  0.02961888  0.23344672  1
  O  O87  1  0.87468585  0.54968924  0.15058577  1
  O  O88  1  0.87412766  0.05744812  0.06239641  1
