# generated using pymatgen
data_Li2AgF4
_symmetry_space_group_name_H-M   'P 1'
_cell_length_a   8.94437871
_cell_length_b   8.94437910
_cell_length_c   8.94437873
_cell_angle_alpha   105.18631900
_cell_angle_beta   105.18632276
_cell_angle_gamma   105.18632410
_symmetry_Int_Tables_number   1
_chemical_formula_structural   Li2AgF4
_chemical_formula_sum   'Li12 Ag6 F24'
_cell_volume   623.06994045
_cell_formula_units_Z   6
loop_
 _symmetry_equiv_pos_site_id
 _symmetry_equiv_pos_as_xyz
  1  'x, y, z'
loop_
 _atom_site_type_symbol
 _atom_site_label
 _atom_site_symmetry_multiplicity
 _atom_site_fract_x
 _atom_site_fract_y
 _atom_site_fract_z
 _atom_site_occupancy
  Li  Li0  1  0.14569954  0.71445510  0.90112300  1
  Li  Li1  1  0.09887700  0.85430046  0.28554490  1
  Li  Li2  1  0.18893755  0.61076393  0.45026997  1
  Li  Li3  1  0.38923607  0.54973003  0.81106245  1
  Li  Li4  1  0.28554490  0.09887700  0.85430046  1
  Li  Li5  1  0.54973003  0.81106245  0.38923607  1
  Li  Li6  1  0.45026997  0.18893755  0.61076393  1
  Li  Li7  1  0.71445510  0.90112300  0.14569954  1
  Li  Li8  1  0.61076393  0.45026997  0.18893755  1
  Li  Li9  1  0.81106245  0.38923607  0.54973003  1
  Li  Li10  1  0.90112300  0.14569954  0.71445510  1
  Li  Li11  1  0.85430046  0.28554490  0.09887700  1
  Ag  Ag12  1  0.11413175  0.18315355  0.46869812  1
  Ag  Ag13  1  0.18315355  0.46869812  0.11413175  1
  Ag  Ag14  1  0.53130188  0.88586825  0.81684645  1
  Ag  Ag15  1  0.46869812  0.11413175  0.18315355  1
  Ag  Ag16  1  0.81684645  0.53130188  0.88586825  1
  Ag  Ag17  1  0.88586825  0.81684645  0.53130188  1
  F  F18  1  0.05449601  0.73884953  0.43222973  1
  F  F19  1  0.28655889  0.93100484  0.95630771  1
  F  F20  1  0.04369229  0.71344111  0.06899516  1
  F  F21  1  0.26115047  0.56777027  0.94550399  1
  F  F22  1  0.06899516  0.04369229  0.71344111  1
  F  F23  1  0.07691956  0.38481010  0.28113068  1
  F  F24  1  0.32161267  0.66329799  0.66684481  1
  F  F25  1  0.33315519  0.67838733  0.33670201  1
  F  F26  1  0.33670201  0.33315519  0.67838733  1
  F  F27  1  0.28113068  0.07691956  0.38481010  1
  F  F28  1  0.61518990  0.71886932  0.92308044  1
  F  F29  1  0.43222973  0.05449601  0.73884953  1
  F  F30  1  0.56777027  0.94550399  0.26115047  1
  F  F31  1  0.38481010  0.28113068  0.07691956  1
  F  F32  1  0.71886932  0.92308044  0.61518990  1
  F  F33  1  0.66329799  0.66684481  0.32161267  1
  F  F34  1  0.66684481  0.32161267  0.66329799  1
  F  F35  1  0.67838733  0.33670201  0.33315519  1
  F  F36  1  0.92308044  0.61518990  0.71886932  1
  F  F37  1  0.93100484  0.95630771  0.28655889  1
  F  F38  1  0.73884953  0.43222973  0.05449601  1
  F  F39  1  0.95630771  0.28655889  0.93100484  1
  F  F40  1  0.71344111  0.06899516  0.04369229  1
  F  F41  1  0.94550399  0.26115047  0.56777027  1
