# generated using pymatgen
data_Sr5Nb5O16
_symmetry_space_group_name_H-M   'P 1'
_cell_length_a   4.04835243
_cell_length_b   33.20085272
_cell_length_c   5.74999858
_cell_angle_alpha   90.00000000
_cell_angle_beta   90.00000000
_cell_angle_gamma   90.00000000
_symmetry_Int_Tables_number   1
_chemical_formula_structural   Sr5Nb5O16
_chemical_formula_sum   'Sr10 Nb10 O32'
_cell_volume   772.85013767
_cell_formula_units_Z   2
loop_
 _symmetry_equiv_pos_site_id
 _symmetry_equiv_pos_as_xyz
  1  'x, y, z'
loop_
 _atom_site_type_symbol
 _atom_site_label
 _atom_site_symmetry_multiplicity
 _atom_site_fract_x
 _atom_site_fract_y
 _atom_site_fract_z
 _atom_site_occupancy
  Sr  Sr0  1  0.00000000  0.52968798  0.02369284  1
  Sr  Sr1  1  0.00000000  0.75140202  0.07481063  1
  Sr  Sr2  1  0.00000000  0.66469494  0.56943046  1
  Sr  Sr3  1  0.00000000  0.84185945  0.56490349  1
  Sr  Sr4  1  0.00000000  0.96763626  0.12927739  1
  Sr  Sr5  1  0.50000000  0.03236374  0.62927739  1
  Sr  Sr6  1  0.50000000  0.15814055  0.06490349  1
  Sr  Sr7  1  0.50000000  0.24859798  0.57481063  1
  Sr  Sr8  1  0.50000000  0.33530506  0.06943046  1
  Sr  Sr9  1  0.50000000  0.47031202  0.52369284  1
  Nb  Nb10  1  0.00000000  0.07295684  0.09951865  1
  Nb  Nb11  1  0.00000000  0.15933536  0.57486381  1
  Nb  Nb12  1  0.00000000  0.24806590  0.07416084  1
  Nb  Nb13  1  0.00000000  0.42348355  0.04507310  1
  Nb  Nb14  1  0.00000000  0.33803276  0.56438237  1
  Nb  Nb15  1  0.50000000  0.57651645  0.54507310  1
  Nb  Nb16  1  0.50000000  0.66196724  0.06438237  1
  Nb  Nb17  1  0.50000000  0.75193410  0.57416084  1
  Nb  Nb18  1  0.50000000  0.84066464  0.07486381  1
  Nb  Nb19  1  0.50000000  0.92704316  0.59951865  1
  O  O20  1  0.00000000  0.04017019  0.36327431  1
  O  O21  1  0.00000000  0.12899038  0.27893166  1
  O  O22  1  0.00000000  0.02979233  0.88013333  1
  O  O23  1  0.00000000  0.11744885  0.79914421  1
  O  O24  1  0.00000000  0.21291516  0.36246099  1
  O  O25  1  0.00000000  0.29659469  0.29684981  1
  O  O26  1  0.00000000  0.20067971  0.85450022  1
  O  O27  1  0.00000000  0.38104820  0.32822500  1
  O  O28  1  0.00000000  0.28660350  0.79454225  1
  O  O29  1  0.00000000  0.46654502  0.26443624  1
  O  O30  1  0.00000000  0.37044153  0.86479581  1
  O  O31  1  0.00000000  0.45821608  0.78545723  1
  O  O32  1  0.00000000  0.66610706  0.07444871  1
  O  O33  1  0.00000000  0.83439983  0.06661436  1
  O  O34  1  0.00000000  0.75156996  0.57367445  1
  O  O35  1  0.00000000  0.91965470  0.57302885  1
  O  O36  1  0.50000000  0.08034530  0.07302885  1
  O  O37  1  0.50000000  0.16560017  0.56661436  1
  O  O38  1  0.50000000  0.24843004  0.07367445  1
  O  O39  1  0.50000000  0.33389294  0.57444871  1
  O  O40  1  0.50000000  0.54178392  0.28545723  1
  O  O41  1  0.50000000  0.53345498  0.76443624  1
  O  O42  1  0.50000000  0.71339650  0.29454225  1
  O  O43  1  0.50000000  0.61895180  0.82822500  1
  O  O44  1  0.50000000  0.62955847  0.36479581  1
  O  O45  1  0.50000000  0.70340531  0.79684981  1
  O  O46  1  0.50000000  0.78708484  0.86246099  1
  O  O47  1  0.50000000  0.79932029  0.35450022  1
  O  O48  1  0.50000000  0.88255115  0.29914421  1
  O  O49  1  0.50000000  0.87100962  0.77893166  1
  O  O50  1  0.50000000  0.97020767  0.38013333  1
  O  O51  1  0.50000000  0.95982981  0.86327431  1
