# generated using pymatgen
data_Li2FeP2O7
_symmetry_space_group_name_H-M   'P 1'
_cell_length_a   5.17579243
_cell_length_b   7.20322852
_cell_length_c   8.76887485
_cell_angle_alpha   112.85831896
_cell_angle_beta   91.39823998
_cell_angle_gamma   111.58806491
_symmetry_Int_Tables_number   1
_chemical_formula_structural   Li2FeP2O7
_chemical_formula_sum   'Li4 Fe2 P4 O14'
_cell_volume   274.72582482
_cell_formula_units_Z   2
loop_
 _symmetry_equiv_pos_site_id
 _symmetry_equiv_pos_as_xyz
  1  'x, y, z'
loop_
 _atom_site_type_symbol
 _atom_site_label
 _atom_site_symmetry_multiplicity
 _atom_site_fract_x
 _atom_site_fract_y
 _atom_site_fract_z
 _atom_site_occupancy
  Li  Li0  1  0.07423278  0.31527805  0.00834052  1
  Li  Li1  1  0.31907515  0.61530345  0.74996802  1
  Li  Li2  1  0.68092485  0.38469655  0.25003198  1
  Li  Li3  1  0.92576722  0.68472195  0.99165948  1
  Fe  Fe4  1  0.14357233  0.14939608  0.33396144  1
  Fe  Fe5  1  0.85642767  0.85060392  0.66603856  1
  P  P6  1  0.24805674  0.64607540  0.39288681  1
  P  P7  1  0.47910214  0.83358245  0.14082258  1
  P  P8  1  0.52089786  0.16641755  0.85917742  1
  P  P9  1  0.75194326  0.35392460  0.60711319  1
  O  O10  1  0.99314061  0.70472399  0.43071802  1
  O  O11  1  0.44058581  0.69070018  0.54790491  1
  O  O12  1  0.14690181  0.40375003  0.25779449  1
  O  O13  1  0.19965542  0.08934108  0.84857471  1
  O  O14  1  0.30466156  0.61158065  0.98934647  1
  O  O15  1  0.44758682  0.80201777  0.31507734  1
  O  O16  1  0.63817755  0.99865164  0.85216580  1
  O  O17  1  0.36182245  0.00134836  0.14783420  1
  O  O18  1  0.55241318  0.19798223  0.68492266  1
  O  O19  1  0.69533844  0.38841935  0.01065353  1
  O  O20  1  0.80034458  0.91065892  0.15142529  1
  O  O21  1  0.85309819  0.59624997  0.74220551  1
  O  O22  1  0.55941419  0.30929982  0.45209509  1
  O  O23  1  0.00685939  0.29527601  0.56928198  1
