# generated using pymatgen
data_Li2CoBO4
_symmetry_space_group_name_H-M   'P 1'
_cell_length_a   6.03720137
_cell_length_b   10.20043050
_cell_length_c   4.78822833
_cell_angle_alpha   90.00063187
_cell_angle_beta   89.99996426
_cell_angle_gamma   90.00049061
_symmetry_Int_Tables_number   1
_chemical_formula_structural   Li2CoBO4
_chemical_formula_sum   'Li8 Co4 B4 O16'
_cell_volume   294.86893073
_cell_formula_units_Z   4
loop_
 _symmetry_equiv_pos_site_id
 _symmetry_equiv_pos_as_xyz
  1  'x, y, z'
loop_
 _atom_site_type_symbol
 _atom_site_label
 _atom_site_symmetry_multiplicity
 _atom_site_fract_x
 _atom_site_fract_y
 _atom_site_fract_z
 _atom_site_occupancy
  Li  Li0  1  0.00508522  0.84200186  0.75825502  1
  Li  Li1  1  0.23959401  0.07443353  0.75560769  1
  Li  Li2  1  0.26042147  0.57444455  0.75561509  1
  Li  Li3  1  0.49491566  0.34200016  0.75825586  1
  Li  Li4  1  0.50508687  0.65800034  0.25825534  1
  Li  Li5  1  0.73957574  0.42556862  0.25561572  1
  Li  Li6  1  0.76041123  0.92556178  0.25561943  1
  Li  Li7  1  0.99491516  0.15799296  0.25825554  1
  Co  Co8  1  0.01509960  0.66334488  0.26078835  1
  Co  Co9  1  0.48490001  0.16334615  0.26078193  1
  Co  Co10  1  0.51509405  0.83665879  0.76079095  1
  Co  Co11  1  0.98491058  0.33665985  0.76078483  1
  B  B12  1  0.23911774  0.40808861  0.26395945  1
  B  B13  1  0.26088250  0.90808140  0.26396285  1
  B  B14  1  0.73911326  0.09191332  0.76396054  1
  B  B15  1  0.76088614  0.59191763  0.76396131  1
  O  O16  1  0.03696597  0.34245704  0.14970587  1
  O  O17  1  0.05251614  0.84132751  0.16955774  1
  O  O18  1  0.25312916  0.04819726  0.17186942  1
  O  O19  1  0.23068760  0.40251571  0.57337003  1
  O  O20  1  0.26931574  0.90250930  0.57337506  1
  O  O21  1  0.24687339  0.54820387  0.17187580  1
  O  O22  1  0.44748622  0.34133302  0.16955468  1
  O  O23  1  0.46302883  0.84245014  0.14971112  1
  O  O24  1  0.53695338  0.15753512  0.64971198  1
  O  O25  1  0.55252167  0.65867344  0.66955084  1
  O  O26  1  0.75312763  0.45179812  0.67187908  1
  O  O27  1  0.73067595  0.09747897  0.07337357  1
  O  O28  1  0.76931875  0.59749384  0.07336859  1
  O  O29  1  0.74687538  0.95179626  0.67186819  1
  O  O30  1  0.94747945  0.15867124  0.66955651  1
  O  O31  1  0.96303552  0.65754474  0.64970160  1
