# generated using pymatgen
data_KBaP3O10
_symmetry_space_group_name_H-M   'P 1'
_cell_length_a   7.22662781
_cell_length_b   7.58114665
_cell_length_c   17.55642438
_cell_angle_alpha   90.00000000
_cell_angle_beta   90.00000000
_cell_angle_gamma   97.40949480
_symmetry_Int_Tables_number   1
_chemical_formula_structural   KBaP3O10
_chemical_formula_sum   'K4 Ba4 P12 O40'
_cell_volume   953.81684312
_cell_formula_units_Z   4
loop_
 _symmetry_equiv_pos_site_id
 _symmetry_equiv_pos_as_xyz
  1  'x, y, z'
loop_
 _atom_site_type_symbol
 _atom_site_label
 _atom_site_symmetry_multiplicity
 _atom_site_fract_x
 _atom_site_fract_y
 _atom_site_fract_z
 _atom_site_occupancy
  K  K0  1  0.00452310  0.11129945  0.74455564  1
  K  K1  1  0.50452310  0.61129945  0.75544436  1
  K  K2  1  0.99547690  0.88870055  0.25544436  1
  K  K3  1  0.49547690  0.38870055  0.24455564  1
  Ba  Ba4  1  0.34603008  0.27209736  0.54547939  1
  Ba  Ba5  1  0.84603008  0.77209736  0.95452061  1
  Ba  Ba6  1  0.65396992  0.72790264  0.45452061  1
  Ba  Ba7  1  0.15396992  0.22790264  0.04547939  1
  P  P8  1  0.70088772  0.23863568  0.89272366  1
  P  P9  1  0.20088772  0.73863568  0.60727634  1
  P  P10  1  0.29911228  0.76136432  0.10727634  1
  P  P11  1  0.79911228  0.26136432  0.39272366  1
  P  P12  1  0.50466679  0.12241269  0.74783077  1
  P  P13  1  0.00466679  0.62241269  0.75216923  1
  P  P14  1  0.49533321  0.87758731  0.25216923  1
  P  P15  1  0.99533321  0.37758731  0.24783077  1
  P  P16  1  0.88516667  0.46143442  0.60508172  1
  P  P17  1  0.38516667  0.96143442  0.89491828  1
  P  P18  1  0.11483333  0.53856558  0.39491828  1
  P  P19  1  0.61483333  0.03856558  0.10508172  1
  O  O20  1  0.63566878  0.25982559  0.80391116  1
  O  O21  1  0.13566878  0.75982559  0.69608884  1
  O  O22  1  0.36433122  0.74017441  0.19608884  1
  O  O23  1  0.86433122  0.24017441  0.30391116  1
  O  O24  1  0.50631697  0.14164161  0.92942452  1
  O  O25  1  0.00631697  0.64164161  0.57057548  1
  O  O26  1  0.49368303  0.85835839  0.07057548  1
  O  O27  1  0.99368303  0.35835839  0.42942452  1
  O  O28  1  0.35036460  0.02613910  0.80776456  1
  O  O29  1  0.85036460  0.52613910  0.69223544  1
  O  O30  1  0.64963540  0.97386090  0.19223544  1
  O  O31  1  0.14963540  0.47386090  0.30776456  1
  O  O32  1  0.73265766  0.42222858  0.92607467  1
  O  O33  1  0.23265766  0.92222858  0.57392533  1
  O  O34  1  0.26734234  0.57777142  0.07392533  1
  O  O35  1  0.76734234  0.07777142  0.42607467  1
  O  O36  1  0.85045690  0.11948160  0.89556916  1
  O  O37  1  0.35045690  0.61948160  0.60443084  1
  O  O38  1  0.14954310  0.88051840  0.10443084  1
  O  O39  1  0.64954310  0.38051840  0.39556916  1
  O  O40  1  0.61948246  0.98833073  0.71502406  1
  O  O41  1  0.11948246  0.48833073  0.78497594  1
  O  O42  1  0.38051754  0.01166927  0.28497594  1
  O  O43  1  0.88051754  0.51166927  0.21502406  1
  O  O44  1  0.40145623  0.23460618  0.69735126  1
  O  O45  1  0.90145623  0.73460618  0.80264874  1
  O  O46  1  0.59854377  0.76539382  0.30264874  1
  O  O47  1  0.09854377  0.26539382  0.19735126  1
  O  O48  1  0.70196021  0.44763285  0.56487665  1
  O  O49  1  0.20196021  0.94763285  0.93512335  1
  O  O50  1  0.29803979  0.55236715  0.43512335  1
  O  O51  1  0.79803979  0.05236715  0.06487665  1
  O  O52  1  0.50098109  0.81147763  0.89228649  1
  O  O53  1  0.00098109  0.31147763  0.60771351  1
  O  O54  1  0.49901891  0.18852237  0.10771351  1
  O  O55  1  -0.00098109  0.68852237  0.39228649  1
  O  O56  1  0.41669046  0.00578461  0.42319044  1
  O  O57  1  0.91669046  0.50578461  0.07680956  1
  O  O58  1  0.58330954  0.99421539  0.57680956  1
  O  O59  1  0.08330954  0.49421539  0.92319044  1
