# generated using pymatgen
data_Ti7Sn3O20
_symmetry_space_group_name_H-M   'P 1'
_cell_length_a   4.70743238
_cell_length_b   4.70743238
_cell_length_c   15.28502039
_cell_angle_alpha   90.00000000
_cell_angle_beta   90.00000000
_cell_angle_gamma   89.99476778
_symmetry_Int_Tables_number   1
_chemical_formula_structural   Ti7Sn3O20
_chemical_formula_sum   'Ti7 Sn3 O20'
_cell_volume   338.71482241
_cell_formula_units_Z   1
loop_
 _symmetry_equiv_pos_site_id
 _symmetry_equiv_pos_as_xyz
  1  'x, y, z'
loop_
 _atom_site_type_symbol
 _atom_site_label
 _atom_site_symmetry_multiplicity
 _atom_site_fract_x
 _atom_site_fract_y
 _atom_site_fract_z
 _atom_site_occupancy
  Ti  Ti0  1  0.00000000  0.00000000  0.40166163  1
  Ti  Ti1  1  0.00000000  0.00000000  0.99833837  1
  Ti  Ti2  1  0.00000000  0.00000000  0.60305497  1
  Ti  Ti3  1  0.00000000  0.00000000  0.79694503  1
  Ti  Ti4  1  0.50000000  0.50000000  0.70000000  1
  Ti  Ti5  1  0.50000000  0.50000000  0.10062902  1
  Ti  Ti6  1  0.50000000  0.50000000  0.29937098  1
  Sn  Sn7  1  0.00000000  0.00000000  0.20000000  1
  Sn  Sn8  1  0.50000000  0.50000000  0.49967313  1
  Sn  Sn9  1  0.50000000  0.50000000  0.90032687  1
  O  O10  1  0.20025968  0.79974032  0.09522420  1
  O  O11  1  0.18689710  0.81310290  0.50143891  1
  O  O12  1  0.20025968  0.79974032  0.30477580  1
  O  O13  1  0.19354123  0.80645877  0.70000000  1
  O  O14  1  0.18689710  0.81310290  0.89856109  1
  O  O15  1  0.29933514  0.29933514  0.00434616  1
  O  O16  1  0.31312993  0.31312993  0.20000000  1
  O  O17  1  0.30065245  0.30065245  0.79465045  1
  O  O18  1  0.29933514  0.29933514  0.39565384  1
  O  O19  1  0.30065245  0.30065245  0.60534955  1
  O  O20  1  0.70066486  0.70066486  0.00434616  1
  O  O21  1  0.68687007  0.68687007  0.20000000  1
  O  O22  1  0.70066486  0.70066486  0.39565384  1
  O  O23  1  0.69934755  0.69934755  0.60534955  1
  O  O24  1  0.69934755  0.69934755  0.79465045  1
  O  O25  1  0.79974032  0.20025968  0.09522420  1
  O  O26  1  0.81310290  0.18689710  0.50143891  1
  O  O27  1  0.80645877  0.19354123  0.70000000  1
  O  O28  1  0.79974032  0.20025968  0.30477580  1
  O  O29  1  0.81310290  0.18689710  0.89856109  1
