# generated using pymatgen
data_Li3Cu2F7
_symmetry_space_group_name_H-M   'P 1'
_cell_length_a   7.08861400
_cell_length_b   8.63907735
_cell_length_c   8.93681595
_cell_angle_alpha   90.00000000
_cell_angle_beta   102.60511236
_cell_angle_gamma   90.00000000
_symmetry_Int_Tables_number   1
_chemical_formula_structural   Li3Cu2F7
_chemical_formula_sum   'Li12 Cu8 F28'
_cell_volume   534.09144093
_cell_formula_units_Z   4
loop_
 _symmetry_equiv_pos_site_id
 _symmetry_equiv_pos_as_xyz
  1  'x, y, z'
loop_
 _atom_site_type_symbol
 _atom_site_label
 _atom_site_symmetry_multiplicity
 _atom_site_fract_x
 _atom_site_fract_y
 _atom_site_fract_z
 _atom_site_occupancy
  Li  Li0  1  0.06402911  0.30908662  0.95371468  1
  Li  Li1  1  0.06402911  0.19091338  0.45371468  1
  Li  Li2  1  0.22756745  0.83306760  0.85997275  1
  Li  Li3  1  0.28895918  0.15405201  0.80455376  1
  Li  Li4  1  0.22756745  0.66693240  0.35997275  1
  Li  Li5  1  0.28895918  0.34594799  0.30455376  1
  Li  Li6  1  0.71104082  0.65405201  0.69544624  1
  Li  Li7  1  0.77243255  0.33306760  0.64002725  1
  Li  Li8  1  0.71104082  0.84594799  0.19544624  1
  Li  Li9  1  0.77243255  0.16693240  0.14002725  1
  Li  Li10  1  0.93597089  0.80908662  0.54628532  1
  Li  Li11  1  0.93597089  0.69091338  0.04628532  1
  Cu  Cu12  1  0.18651023  0.50491023  0.65864117  1
  Cu  Cu13  1  0.18651023  0.99508977  0.15864117  1
  Cu  Cu14  1  0.37052794  0.92741362  0.57887527  1
  Cu  Cu15  1  0.37052794  0.57258638  0.07887527  1
  Cu  Cu16  1  0.62947206  0.42741362  0.92112473  1
  Cu  Cu17  1  0.62947206  0.07258638  0.42112473  1
  Cu  Cu18  1  0.81348977  0.00491023  0.84135883  1
  Cu  Cu19  1  0.81348977  0.49508977  0.34135883  1
  F  F20  1  0.07104654  0.32659466  0.73486993  1
  F  F21  1  0.15440245  0.07872661  0.95397900  1
  F  F22  1  0.15965341  0.04772101  0.61176234  1
  F  F23  1  0.07104654  0.17340534  0.23486993  1
  F  F24  1  0.25916419  0.60727860  0.85423520  1
  F  F25  1  0.15440245  0.42127339  0.45397900  1
  F  F26  1  0.20026548  0.70831033  0.57050865  1
  F  F27  1  0.15965341  0.45227899  0.11176234  1
  F  F28  1  0.41447323  0.31097614  0.94460425  1
  F  F29  1  0.25916419  0.89272140  0.35423520  1
  F  F30  1  0.20026548  0.79168967  0.07050865  1
  F  F31  1  0.45250824  0.94487090  0.79966092  1
  F  F32  1  0.41447323  0.18902386  0.44460425  1
  F  F33  1  0.54749176  0.44487090  0.70033908  1
  F  F34  1  0.45250824  0.55512910  0.29966092  1
  F  F35  1  0.58552677  0.81097614  0.55539575  1
  F  F36  1  0.54749176  0.05512910  0.20033908  1
  F  F37  1  0.79973452  0.20831033  0.92949135  1
  F  F38  1  0.74083581  0.10727860  0.64576480  1
  F  F39  1  0.58552677  0.68902386  0.05539575  1
  F  F40  1  0.84034659  0.54772101  0.88823766  1
  F  F41  1  0.79973452  0.29168967  0.42949135  1
  F  F42  1  0.84559755  0.57872661  0.54602100  1
  F  F43  1  0.74083581  0.39272140  0.14576480  1
  F  F44  1  0.92895346  0.82659466  0.76513007  1
  F  F45  1  0.84034659  0.95227899  0.38823766  1
  F  F46  1  0.84559755  0.92127339  0.04602100  1
  F  F47  1  0.92895346  0.67340534  0.26513007  1
