# generated using pymatgen
data_Mn3Fe5O12
_symmetry_space_group_name_H-M   'P 1'
_cell_length_a   8.24588738
_cell_length_b   8.33134465
_cell_length_c   8.26383687
_cell_angle_alpha   109.72184710
_cell_angle_beta   109.40086679
_cell_angle_gamma   108.81272572
_symmetry_Int_Tables_number   1
_chemical_formula_structural   Mn3Fe5O12
_chemical_formula_sum   'Mn6 Fe10 O24'
_cell_volume   439.57012833
_cell_formula_units_Z   2
loop_
 _symmetry_equiv_pos_site_id
 _symmetry_equiv_pos_as_xyz
  1  'x, y, z'
loop_
 _atom_site_type_symbol
 _atom_site_label
 _atom_site_symmetry_multiplicity
 _atom_site_fract_x
 _atom_site_fract_y
 _atom_site_fract_z
 _atom_site_occupancy
  Mn  Mn0  1  0.78302103  0.24960027  0.03566738  1
  Mn  Mn1  1  0.00016159  0.00356899  0.00381680  1
  Mn  Mn2  1  0.50155795  0.50161892  0.00334890  1
  Mn  Mn3  1  0.52778389  0.28125933  0.25268872  1
  Mn  Mn4  1  0.50200853  0.99839653  0.49955992  1
  Mn  Mn5  1  0.96909873  0.22142244  0.75154283  1
  Fe  Fe6  1  0.74769065  0.95702701  0.20990819  1
  Fe  Fe7  1  0.75202327  0.46563856  0.71369166  1
  Fe  Fe8  1  0.28837503  0.24990254  0.53808972  1
  Fe  Fe9  1  0.71290418  0.75067334  0.46305436  1
  Fe  Fe10  1  0.25109764  0.54182206  0.28980549  1
  Fe  Fe11  1  0.24912464  0.03710530  0.78752193  1
  Fe  Fe12  1  0.99839725  0.49701632  0.49452194  1
  Fe  Fe13  1  0.04230629  0.79025425  0.25114145  1
  Fe  Fe14  1  0.46073571  0.70875424  0.74820935  1
  Fe  Fe15  1  0.21055263  0.74923004  0.95892696  1
  O  O16  1  0.78512982  0.22371815  0.26687807  1
  O  O17  1  0.53697130  0.25764664  0.99702036  1
  O  O18  1  0.27074995  0.04596228  0.05172421  1
  O  O19  1  0.78298294  0.73487830  0.22661412  1
  O  O20  1  0.00939179  0.45975837  0.73639644  1
  O  O21  1  0.49524809  0.23056516  0.45653318  1
  O  O22  1  0.74446572  0.24640749  0.78767270  1
  O  O23  1  0.05146498  0.04810296  0.26945802  1
  O  O24  1  0.76388848  0.52960738  0.49576148  1
  O  O25  1  0.04314463  0.26454002  0.06592683  1
  O  O26  1  0.44101832  0.49741139  0.20752326  1
  O  O27  1  0.27972410  0.00016285  0.54562364  1
  O  O28  1  0.54715711  0.49702255  0.78201533  1
  O  O29  1  0.95189916  0.73655122  0.94640531  1
  O  O30  1  0.71381144  0.00369542  0.44715542  1
  O  O31  1  0.26167966  0.75754347  0.21199375  1
  O  O32  1  0.23212659  0.45321402  0.50143066  1
  O  O33  1  0.96247192  0.96912720  0.74428756  1
  O  O34  1  0.48998683  0.77266284  0.54752604  1
  O  O35  1  0.21613094  0.26159944  0.75516159  1
  O  O36  1  0.00702505  0.55744845  0.28227071  1
  O  O37  1  0.73361136  0.93498269  0.94545988  1
  O  O38  1  0.45920436  0.74014830  0.00269019  1
  O  O39  1  0.22387644  0.77395130  0.72497363  1
