# generated using pymatgen
data_Li5MnP3O11
_symmetry_space_group_name_H-M   'P 1'
_cell_length_a   5.37798479
_cell_length_b   8.57452460
_cell_length_c   9.63373609
_cell_angle_alpha   95.48694919
_cell_angle_beta   88.68880343
_cell_angle_gamma   95.65316190
_symmetry_Int_Tables_number   1
_chemical_formula_structural   Li5MnP3O11
_chemical_formula_sum   'Li10 Mn2 P6 O22'
_cell_volume   440.01994593
_cell_formula_units_Z   2
loop_
 _symmetry_equiv_pos_site_id
 _symmetry_equiv_pos_as_xyz
  1  'x, y, z'
loop_
 _atom_site_type_symbol
 _atom_site_label
 _atom_site_symmetry_multiplicity
 _atom_site_fract_x
 _atom_site_fract_y
 _atom_site_fract_z
 _atom_site_occupancy
  Li  Li0  1  0.22179081  0.66303327  0.33885339  1
  Li  Li1  1  0.28733165  0.37819050  0.83304033  1
  Li  Li2  1  0.31914715  0.61466143  0.67962718  1
  Li  Li3  1  0.17175619  0.37966412  0.15349622  1
  Li  Li4  1  0.51127832  0.99556195  0.84086735  1
  Li  Li5  1  0.48872168  0.00443805  0.15913265  1
  Li  Li6  1  0.82824381  0.62033588  0.84650378  1
  Li  Li7  1  0.68085285  0.38533857  0.32037282  1
  Li  Li8  1  0.71266835  0.62180950  0.16695967  1
  Li  Li9  1  0.77820919  0.33696673  0.66114661  1
  Mn  Mn10  1  0.00000000  0.00000000  0.00000000  1
  Mn  Mn11  1  0.50000000  0.00000000  0.50000000  1
  P  P12  1  0.03760053  0.04728389  0.31146919  1
  P  P13  1  0.22238221  0.70231108  0.01530349  1
  P  P14  1  0.26988890  0.32763614  0.47829647  1
  P  P15  1  0.73011110  0.67236386  0.52170353  1
  P  P16  1  0.77761779  0.29768892  0.98469651  1
  P  P17  1  0.96239947  0.95271611  0.68853081  1
  O  O18  1  0.95158361  0.74157016  0.05964586  1
  O  O19  1  0.05245103  0.18453910  0.44019035  1
  O  O20  1  0.12802989  0.13066603  0.18220636  1
  O  O21  1  0.20736734  0.60028356  0.87222761  1
  O  O22  1  0.18006879  0.39973609  0.61896530  1
  O  O23  1  0.23780880  0.01605184  0.69244121  1
  O  O24  1  0.22796854  0.93133724  0.33770075  1
  O  O25  1  0.28633661  0.43222675  0.35747435  1
  O  O26  1  0.34031990  0.61685238  0.12904477  1
  O  O27  1  0.36970516  0.86489133  0.99477017  1
  O  O28  1  0.47888854  0.74620790  0.51634372  1
  O  O29  1  0.52111146  0.25379210  0.48365628  1
  O  O30  1  0.63029484  0.13510867  0.00522983  1
  O  O31  1  0.65968010  0.38314762  0.87095523  1
  O  O32  1  0.71366339  0.56777325  0.64252565  1
  O  O33  1  0.77203146  0.06866276  0.66229925  1
  O  O34  1  0.76219120  0.98394816  0.30755879  1
  O  O35  1  0.81993121  0.60026391  0.38103470  1
  O  O36  1  0.79263266  0.39971644  0.12777239  1
  O  O37  1  0.87197011  0.86933397  0.81779364  1
  O  O38  1  0.94754897  0.81546090  0.55980965  1
  O  O39  1  0.04841639  0.25842984  0.94035414  1
