# generated using pymatgen
data_Li6TiFe3(PO4)6
_symmetry_space_group_name_H-M   'P 1'
_cell_length_a   8.57726392
_cell_length_b   8.64040090
_cell_length_c   8.63487130
_cell_angle_alpha   61.62246627
_cell_angle_beta   61.59725402
_cell_angle_gamma   61.75471417
_symmetry_Int_Tables_number   1
_chemical_formula_structural   Li6TiFe3(PO4)6
_chemical_formula_sum   'Li6 Ti1 Fe3 P6 O24'
_cell_volume   469.32719577
_cell_formula_units_Z   1
loop_
 _symmetry_equiv_pos_site_id
 _symmetry_equiv_pos_as_xyz
  1  'x, y, z'
loop_
 _atom_site_type_symbol
 _atom_site_label
 _atom_site_symmetry_multiplicity
 _atom_site_fract_x
 _atom_site_fract_y
 _atom_site_fract_z
 _atom_site_occupancy
  Li  Li0  1  0.02710072  0.00824396  -0.00011063  1
  Li  Li1  1  0.74672273  0.15335569  0.35703944  1
  Li  Li2  1  0.48008859  0.50799538  0.49701064  1
  Li  Li3  1  0.28191240  0.84775782  0.65256202  1
  Li  Li4  1  0.65418236  0.28821970  0.84530300  1
  Li  Li5  1  0.84536483  0.65403721  0.28208232  1
  Ti  Ti6  1  0.85111481  0.84959898  0.85065025  1
  Fe  Fe7  1  0.14635348  0.14748852  0.13892808  1
  Fe  Fe8  1  0.35405887  0.36432187  0.35381726  1
  Fe  Fe9  1  0.64833089  0.65038489  0.64881832  1
  P  P10  1  0.04998700  0.74748892  0.44374741  1
  P  P11  1  0.44553979  0.04964032  0.74573117  1
  P  P12  1  0.74792208  0.44704028  0.04775503  1
  P  P13  1  0.24389499  0.54544833  0.95888629  1
  P  P14  1  0.54787904  0.96424091  0.24468050  1
  P  P15  1  0.95626843  0.24298846  0.53966948  1
  O  O16  1  0.13108511  0.28307908  0.49856667  1
  O  O17  1  0.29392731  0.51663642  0.12165349  1
  O  O18  1  0.05834474  0.91776057  0.26432089  1
  O  O19  1  0.53837086  0.12225494  0.29026190  1
  O  O20  1  0.23965423  0.59118049  0.43966935  1
  O  O21  1  0.98951129  0.80624752  0.61728135  1
  O  O22  1  0.25899169  0.08170674  0.90341611  1
  O  O23  1  0.46539006  0.22862551  0.57646570  1
  O  O24  1  0.59265754  0.43917987  0.24059295  1
  O  O25  1  0.17831653  0.38935420  0.00208440  1
  O  O26  1  0.08507719  0.73998682  0.92807415  1
  O  O27  1  0.37899019  0.01752338  0.19153959  1
  O  O28  1  0.61722308  0.98448410  0.81068474  1
  O  O29  1  0.90418356  0.25637499  0.07744655  1
  O  O30  1  0.81112340  0.61512243  0.99131327  1
  O  O31  1  0.40462258  0.56152735  0.77008296  1
  O  O32  1  0.56158190  0.77514948  0.40346283  1
  O  O33  1  0.73763494  0.92925223  0.08080175  1
  O  O34  1  0.97496249  0.18790178  0.38494159  1
  O  O35  1  0.77081951  0.40502225  0.56517490  1
  O  O36  1  0.46211564  0.89788961  0.68980137  1
  O  O37  1  0.93221235  0.08173466  0.73268211  1
  O  O38  1  0.68667443  0.46903501  0.89802223  1
  O  O39  1  0.89981036  0.68371833  0.46608756  1
