# generated using pymatgen
data_K2HS2NO7
_symmetry_space_group_name_H-M   'P 1'
_cell_length_a   7.76979339
_cell_length_b   10.17719905
_cell_length_c   11.24365721
_cell_angle_alpha   90.00000000
_cell_angle_beta   109.83090646
_cell_angle_gamma   90.00000000
_symmetry_Int_Tables_number   1
_chemical_formula_structural   K2HS2NO7
_chemical_formula_sum   'K8 H4 S8 N4 O28'
_cell_volume   836.36435436
_cell_formula_units_Z   4
loop_
 _symmetry_equiv_pos_site_id
 _symmetry_equiv_pos_as_xyz
  1  'x, y, z'
loop_
 _atom_site_type_symbol
 _atom_site_label
 _atom_site_symmetry_multiplicity
 _atom_site_fract_x
 _atom_site_fract_y
 _atom_site_fract_z
 _atom_site_occupancy
  K  K0  1  0.65591580  0.59676681  0.18936765  1
  K  K1  1  0.34408420  0.09676681  0.31063235  1
  K  K2  1  0.34408420  0.40323319  0.81063235  1
  K  K3  1  0.65591580  0.90323319  0.68936765  1
  K  K4  1  0.04938764  0.75388689  0.01804252  1
  K  K5  1  0.95061236  0.25388689  0.48195748  1
  K  K6  1  0.95061236  0.24611311  0.98195748  1
  K  K7  1  0.04938764  0.74611311  0.51804252  1
  H  H8  1  0.35839718  0.44770364  0.41883461  1
  H  H9  1  0.64160282  0.94770364  0.08116539  1
  H  H10  1  0.64160282  0.55229636  0.58116539  1
  H  H11  1  0.35839718  0.05229636  0.91883461  1
  S  S12  1  0.44247452  0.74383701  0.37442690  1
  S  S13  1  0.55752548  0.24383701  0.12557310  1
  S  S14  1  0.55752548  0.25616299  0.62557310  1
  S  S15  1  0.44247452  0.75616299  0.87442690  1
  S  S16  1  0.08882675  0.45932893  0.26525521  1
  S  S17  1  0.91117325  0.95932893  0.23474479  1
  S  S18  1  0.91117325  0.54067107  0.73474479  1
  S  S19  1  0.08882675  0.04067107  0.76525521  1
  N  N20  1  0.30873976  0.51202262  0.34370923  1
  N  N21  1  0.69126024  0.01202262  0.15629077  1
  N  N22  1  0.69126024  0.48797738  0.65629077  1
  N  N23  1  0.30873976  0.98797738  0.84370923  1
  O  O24  1  0.29748546  0.63753106  0.40274412  1
  O  O25  1  0.70251454  0.13753106  0.09725588  1
  O  O26  1  0.70251454  0.36246894  0.59725588  1
  O  O27  1  0.29748546  0.86246894  0.90274412  1
  O  O28  1  0.62381000  0.68387208  0.43188612  1
  O  O29  1  0.37619000  0.18387208  0.06811388  1
  O  O30  1  0.37619000  0.31612792  0.56811388  1
  O  O31  1  0.62381000  0.81612792  0.93188612  1
  O  O32  1  0.38777530  0.75940756  0.23778377  1
  O  O33  1  0.61222470  0.25940756  0.26221623  1
  O  O34  1  0.61222470  0.24059244  0.76221623  1
  O  O35  1  0.38777530  0.74059244  0.73778377  1
  O  O36  1  0.40537452  0.85704860  0.44203727  1
  O  O37  1  0.59462548  0.35704860  0.05796273  1
  O  O38  1  0.59462548  0.14295140  0.55796273  1
  O  O39  1  0.40537452  0.64295140  0.94203727  1
  O  O40  1  0.98207101  0.48146332  0.34937465  1
  O  O41  1  0.01792899  0.98146332  0.15062535  1
  O  O42  1  0.01792899  0.51853668  0.65062535  1
  O  O43  1  0.98207101  0.01853668  0.84937465  1
  O  O44  1  0.02256724  0.53602839  0.14931508  1
  O  O45  1  0.97743276  0.03602839  0.35068492  1
  O  O46  1  0.97743276  0.46397161  0.85068492  1
  O  O47  1  0.02256724  0.96397161  0.64931508  1
  O  O48  1  0.12401248  0.32036470  0.24697095  1
  O  O49  1  0.87598752  0.82036470  0.25302905  1
  O  O50  1  0.87598752  0.67963530  0.75302905  1
  O  O51  1  0.12401248  0.17963530  0.74697095  1
