# generated using pymatgen
data_Li3Mn(Si2O5)3
_symmetry_space_group_name_H-M   'P 1'
_cell_length_a   9.72602055
_cell_length_b   8.01827093
_cell_length_c   14.94268616
_cell_angle_alpha   90.00000000
_cell_angle_beta   90.00000000
_cell_angle_gamma   90.00000000
_symmetry_Int_Tables_number   1
_chemical_formula_structural   Li3Mn(Si2O5)3
_chemical_formula_sum   'Li12 Mn4 Si24 O60'
_cell_volume   1165.31834806
_cell_formula_units_Z   4
loop_
 _symmetry_equiv_pos_site_id
 _symmetry_equiv_pos_as_xyz
  1  'x, y, z'
loop_
 _atom_site_type_symbol
 _atom_site_label
 _atom_site_symmetry_multiplicity
 _atom_site_fract_x
 _atom_site_fract_y
 _atom_site_fract_z
 _atom_site_occupancy
  Li  Li0  1  0.91632066  0.25000000  0.06624381  1
  Li  Li1  1  0.58367934  0.25000000  0.56624381  1
  Li  Li2  1  0.49790490  0.99884000  0.24188284  1
  Li  Li3  1  0.49790490  0.50116000  0.24188284  1
  Li  Li4  1  0.50209510  0.49884000  0.75811716  1
  Li  Li5  1  0.50209510  0.00116000  0.75811716  1
  Li  Li6  1  0.41632066  0.75000000  0.43375619  1
  Li  Li7  1  0.08367934  0.75000000  0.93375619  1
  Li  Li8  1  0.99790490  0.49884000  0.25811716  1
  Li  Li9  1  0.99790490  0.00116000  0.25811716  1
  Li  Li10  1  0.00209510  0.50116000  0.74188284  1
  Li  Li11  1  0.00209510  0.99884000  0.74188284  1
  Mn  Mn12  1  0.74664276  0.25000000  0.25131021  1
  Mn  Mn13  1  0.75335724  0.25000000  0.75131021  1
  Mn  Mn14  1  0.25335724  0.75000000  0.74868979  1
  Mn  Mn15  1  0.24664276  0.75000000  0.24868979  1
  Si  Si16  1  0.97650566  0.75000000  0.40142117  1
  Si  Si17  1  0.97797700  0.75000000  0.59936905  1
  Si  Si18  1  0.79325142  0.56203164  0.10022080  1
  Si  Si19  1  0.79325142  0.93796836  0.10022080  1
  Si  Si20  1  0.79477422  0.94008755  0.89929457  1
  Si  Si21  1  0.79477422  0.55991245  0.89929457  1
  Si  Si22  1  0.70522578  0.94008755  0.39929457  1
  Si  Si23  1  0.70674858  0.56203164  0.60022080  1
  Si  Si24  1  0.70522578  0.55991245  0.39929457  1
  Si  Si25  1  0.70674858  0.93796836  0.60022080  1
  Si  Si26  1  0.52202300  0.75000000  0.09936905  1
  Si  Si27  1  0.52349434  0.75000000  0.90142117  1
  Si  Si28  1  0.47797700  0.25000000  0.90063095  1
  Si  Si29  1  0.47650566  0.25000000  0.09857883  1
  Si  Si30  1  0.29325142  0.43796836  0.39977920  1
  Si  Si31  1  0.29325142  0.06203164  0.39977920  1
  Si  Si32  1  0.29477422  0.05991245  0.60070543  1
  Si  Si33  1  0.29477422  0.44008755  0.60070543  1
  Si  Si34  1  0.20522578  0.05991245  0.10070543  1
  Si  Si35  1  0.20674858  0.43796836  0.89977920  1
  Si  Si36  1  0.20674858  0.06203164  0.89977920  1
  Si  Si37  1  0.20522578  0.44008755  0.10070543  1
  Si  Si38  1  0.02349434  0.25000000  0.59857883  1
  Si  Si39  1  0.02202300  0.25000000  0.40063095  1
  O  O40  1  0.95082506  0.25000000  0.49982811  1
  O  O41  1  0.91798260  0.25000000  0.31777283  1
  O  O42  1  0.92151685  0.25000000  0.68234072  1
  O  O43  1  0.87251836  0.58807589  0.39264454  1
  O  O44  1  0.87251836  0.91192411  0.39264454  1
  O  O45  1  0.87432991  0.58718371  0.60906517  1
  O  O46  1  0.87432991  0.91281629  0.60906517  1
  O  O47  1  0.86138361  0.75000000  0.10814960  1
  O  O48  1  0.86734265  0.75000000  0.89819407  1
  O  O49  1  0.85231802  0.07214129  0.16947759  1
  O  O50  1  0.85231802  0.42785871  0.16947759  1
  O  O51  1  0.84713681  0.05615023  0.82014641  1
  O  O52  1  0.84713681  0.44384977  0.82014641  1
  O  O53  1  0.83128462  0.48313366  0.99986860  1
  O  O54  1  0.83128462  0.01686634  0.99986860  1
  O  O55  1  0.66871538  0.48313366  0.49986860  1
  O  O56  1  0.66871538  0.01686634  0.49986860  1
  O  O57  1  0.64768198  0.07214129  0.66947759  1
  O  O58  1  0.65286319  0.05615023  0.32014641  1
  O  O59  1  0.65286319  0.44384977  0.32014641  1
  O  O60  1  0.64768198  0.42785871  0.66947759  1
  O  O61  1  0.63265735  0.75000000  0.39819407  1
  O  O62  1  0.63861639  0.75000000  0.60814960  1
  O  O63  1  0.62567009  0.91281629  0.10906517  1
  O  O64  1  0.62567009  0.58718371  0.10906517  1
  O  O65  1  0.62748164  0.58807589  0.89264454  1
  O  O66  1  0.62748164  0.91192411  0.89264454  1
  O  O67  1  0.57848315  0.25000000  0.18234072  1
  O  O68  1  0.58201740  0.25000000  0.81777283  1
  O  O69  1  0.54917494  0.25000000  0.99982811  1
  O  O70  1  0.45082506  0.75000000  0.00017189  1
  O  O71  1  0.41798260  0.75000000  0.18222717  1
  O  O72  1  0.42151685  0.75000000  0.81765928  1
  O  O73  1  0.37432991  0.08718371  0.89093483  1
  O  O74  1  0.37432991  0.41281629  0.89093483  1
  O  O75  1  0.37251836  0.08807589  0.10735546  1
  O  O76  1  0.37251836  0.41192411  0.10735546  1
  O  O77  1  0.36734265  0.25000000  0.60180593  1
  O  O78  1  0.36138361  0.25000000  0.39185040  1
  O  O79  1  0.34713681  0.55615023  0.67985359  1
  O  O80  1  0.34713681  0.94384977  0.67985359  1
  O  O81  1  0.35231802  0.57214129  0.33052241  1
  O  O82  1  0.35231802  0.92785871  0.33052241  1
  O  O83  1  0.33128462  0.98313366  0.50013140  1
  O  O84  1  0.33128462  0.51686634  0.50013140  1
  O  O85  1  0.16871538  0.98313366  0.00013140  1
  O  O86  1  0.16871538  0.51686634  0.00013140  1
  O  O87  1  0.15286319  0.55615023  0.17985359  1
  O  O88  1  0.14768198  0.57214129  0.83052241  1
  O  O89  1  0.15286319  0.94384977  0.17985359  1
  O  O90  1  0.14768198  0.92785871  0.83052241  1
  O  O91  1  0.13265735  0.25000000  0.10180593  1
  O  O92  1  0.13861639  0.25000000  0.89185040  1
  O  O93  1  0.12748164  0.41192411  0.60735546  1
  O  O94  1  0.12567109  0.41281629  0.39093483  1
  O  O95  1  0.12567109  0.08718371  0.39093483  1
  O  O96  1  0.12748164  0.08807589  0.60735546  1
  O  O97  1  0.07848315  0.75000000  0.31765928  1
  O  O98  1  0.08201740  0.75000000  0.68222717  1
  O  O99  1  0.04917494  0.75000000  0.50017189  1
