# generated using pymatgen
data_Co3Cu3(TeO8)2
_symmetry_space_group_name_H-M   'P 1'
_cell_length_a   5.82561220
_cell_length_b   5.73653424
_cell_length_c   9.20420383
_cell_angle_alpha   89.95273459
_cell_angle_beta   87.33466924
_cell_angle_gamma   118.98496674
_symmetry_Int_Tables_number   1
_chemical_formula_structural   Co3Cu3(TeO8)2
_chemical_formula_sum   'Co3 Cu3 Te2 O16'
_cell_volume   268.67946884
_cell_formula_units_Z   1
loop_
 _symmetry_equiv_pos_site_id
 _symmetry_equiv_pos_as_xyz
  1  'x, y, z'
loop_
 _atom_site_type_symbol
 _atom_site_label
 _atom_site_symmetry_multiplicity
 _atom_site_fract_x
 _atom_site_fract_y
 _atom_site_fract_z
 _atom_site_occupancy
  Co  Co0  1  0.65836573  0.82986566  0.21362956  1
  Co  Co1  1  0.83078107  0.66037035  0.71326724  1
  Co  Co2  1  0.82567549  0.16579823  0.71018069  1
  Cu  Cu3  1  0.16005509  0.82582481  0.21242586  1
  Cu  Cu4  1  0.16317008  0.32937867  0.21213502  1
  Cu  Cu5  1  0.33344322  0.16665405  0.71268755  1
  Te  Te6  1  0.34912118  0.67625469  0.48824030  1
  Te  Te7  1  0.65911903  0.33516609  0.98872532  1
  O  O8  1  0.16252158  0.82912150  0.59127077  1
  O  O9  1  0.04631275  0.51261965  0.34869332  1
  O  O10  1  0.34803807  0.66815790  0.12083694  1
  O  O11  1  0.97743201  0.99079165  0.30435634  1
  O  O12  1  0.98546704  0.99117274  0.80517527  1
  O  O13  1  0.16698302  0.32659627  0.59680721  1
  O  O14  1  0.50413641  0.97790541  0.34361067  1
  O  O15  1  0.52571505  0.54142652  0.35348199  1
  O  O16  1  0.30954374  0.15686029  0.09140115  1
  O  O17  1  0.67705047  0.84208410  0.60159958  1
  O  O18  1  0.52761429  0.50107947  0.84440652  1
  O  O19  1  0.51844763  0.03679255  0.83988165  1
  O  O20  1  0.67638691  0.34065384  0.61457290  1
  O  O21  1  0.82304198  0.66090376  0.09188344  1
  O  O22  1  0.95965903  0.48034723  0.83159931  1
  O  O23  1  0.81192013  0.15437454  0.08485440  1
