# generated using pymatgen
data_LiFePO4
_symmetry_space_group_name_H-M   'P 1'
_cell_length_a   10.40130372
_cell_length_b   6.22502480
_cell_length_c   4.80621210
_cell_angle_alpha   90.00000000
_cell_angle_beta   90.00000000
_cell_angle_gamma   90.00000000
_symmetry_Int_Tables_number   1
_chemical_formula_structural   LiFePO4
_chemical_formula_sum   'Li4 Fe4 P4 O16'
_cell_volume   311.19441670
_cell_formula_units_Z   4
loop_
 _symmetry_equiv_pos_site_id
 _symmetry_equiv_pos_as_xyz
  1  'x, y, z'
loop_
 _atom_site_type_symbol
 _atom_site_label
 _atom_site_symmetry_multiplicity
 _atom_site_fract_x
 _atom_site_fract_y
 _atom_site_fract_z
 _atom_site_occupancy
  Li  Li0  1  0.21295971  0.75000000  0.49498417  1
  Li  Li1  1  0.28704029  0.25000000  0.99498417  1
  Li  Li2  1  0.71295971  0.75000000  0.00501583  1
  Li  Li3  1  0.78704029  0.25000000  0.50501583  1
  Fe  Fe4  1  0.00000000  0.00000000  0.00000000  1
  Fe  Fe5  1  0.00000000  0.50000000  0.00000000  1
  Fe  Fe6  1  0.50000000  0.00000000  0.50000000  1
  Fe  Fe7  1  0.50000000  0.50000000  0.50000000  1
  P  P8  1  0.09609399  0.25000000  0.42028187  1
  P  P9  1  0.40390601  0.75000000  0.92028187  1
  P  P10  1  0.59609399  0.25000000  0.07971813  1
  P  P11  1  0.90390601  0.75000000  0.57971813  1
  O  O12  1  0.04476633  0.75000000  0.71129387  1
  O  O13  1  0.08825696  0.25000000  0.74509203  1
  O  O14  1  0.15995426  0.04508308  0.30187705  1
  O  O15  1  0.15995426  0.45491692  0.30187705  1
  O  O16  1  0.34004574  0.95491692  0.80187705  1
  O  O17  1  0.34004574  0.54508308  0.80187705  1
  O  O18  1  0.41174304  0.75000000  0.24509203  1
  O  O19  1  0.45523367  0.25000000  0.21129387  1
  O  O20  1  0.54476633  0.75000000  0.78870613  1
  O  O21  1  0.58825696  0.25000000  0.75490797  1
  O  O22  1  0.65995426  0.04508308  0.19812295  1
  O  O23  1  0.65995426  0.45491692  0.19812295  1
  O  O24  1  0.84004574  0.54508308  0.69812295  1
  O  O25  1  0.84004574  0.95491692  0.69812295  1
  O  O26  1  0.91174304  0.75000000  0.25490797  1
  O  O27  1  0.95523367  0.25000000  0.28870613  1
