# generated using pymatgen
data_Li2MnCo3O8
_symmetry_space_group_name_H-M   'P 1'
_cell_length_a   5.67134981
_cell_length_b   5.67974775
_cell_length_c   9.16251490
_cell_angle_alpha   89.72459601
_cell_angle_beta   90.13790411
_cell_angle_gamma   120.04898392
_symmetry_Int_Tables_number   1
_chemical_formula_structural   Li2MnCo3O8
_chemical_formula_sum   'Li4 Mn2 Co6 O16'
_cell_volume   255.47076912
_cell_formula_units_Z   2
loop_
 _symmetry_equiv_pos_site_id
 _symmetry_equiv_pos_as_xyz
  1  'x, y, z'
loop_
 _atom_site_type_symbol
 _atom_site_label
 _atom_site_symmetry_multiplicity
 _atom_site_fract_x
 _atom_site_fract_y
 _atom_site_fract_z
 _atom_site_occupancy
  Li  Li0  1  0.33461706  0.66838556  0.89631388  1
  Li  Li1  1  0.99807052  0.00039606  0.99834163  1
  Li  Li2  1  0.00192948  0.00232554  0.49834163  1
  Li  Li3  1  0.66538294  0.33376849  0.39631388  1
  Mn  Mn4  1  0.33224534  0.66137114  0.48496899  1
  Mn  Mn5  1  0.66775466  0.32912579  0.98496899  1
  Co  Co6  1  0.16888408  0.83091649  0.21065897  1
  Co  Co7  1  0.16909300  0.34057001  0.21357994  1
  Co  Co8  1  0.65915359  0.83065088  0.21366436  1
  Co  Co9  1  0.34084641  0.17149629  0.71366436  1
  Co  Co10  1  0.83111592  0.66203141  0.71065897  1
  Co  Co11  1  0.83090700  0.17147701  0.71357994  1
  O  O12  1  0.16046183  0.83139711  0.60385264  1
  O  O13  1  0.03973947  0.52264431  0.33738606  1
  O  O14  1  0.33239840  0.66725077  0.10791125  1
  O  O15  1  0.00026577  0.99904997  0.30814876  1
  O  O16  1  0.99973423  0.99878420  0.80814876  1
  O  O17  1  0.16501370  0.33041887  0.59927265  1
  O  O18  1  0.47673486  0.95961748  0.33778828  1
  O  O19  1  0.48036880  0.51972517  0.33894928  1
  O  O20  1  0.32887087  0.16071783  0.10308233  1
  O  O21  1  0.67112913  0.83184697  0.60308233  1
  O  O22  1  0.52326514  0.48288161  0.83778828  1
  O  O23  1  0.51963120  0.03935538  0.83894928  1
  O  O24  1  0.66760160  0.33485237  0.60791125  1
  O  O25  1  0.83953817  0.67093528  0.10385264  1
  O  O26  1  0.96026053  0.48290484  0.83738606  1
  O  O27  1  0.83498630  0.16540417  0.09927265  1
