# generated using pymatgen
data_Li2Mn2(Si2O5)3
_symmetry_space_group_name_H-M   'P 1'
_cell_length_a   11.53275373
_cell_length_b   11.53275373
_cell_length_c   10.29763515
_cell_angle_alpha   90.00000000
_cell_angle_beta   90.00000000
_cell_angle_gamma   78.49725151
_symmetry_Int_Tables_number   1
_chemical_formula_structural   Li2Mn2(Si2O5)3
_chemical_formula_sum   'Li8 Mn8 Si24 O60'
_cell_volume   1342.12202923
_cell_formula_units_Z   4
loop_
 _symmetry_equiv_pos_site_id
 _symmetry_equiv_pos_as_xyz
  1  'x, y, z'
loop_
 _atom_site_type_symbol
 _atom_site_label
 _atom_site_symmetry_multiplicity
 _atom_site_fract_x
 _atom_site_fract_y
 _atom_site_fract_z
 _atom_site_occupancy
  Li  Li0  1  0.99651172  0.49651172  0.75000000  1
  Li  Li1  1  0.50348828  0.00348828  0.25000000  1
  Li  Li2  1  0.60367261  0.60367261  0.74178748  1
  Li  Li3  1  0.39632739  0.39632739  0.25821252  1
  Li  Li4  1  0.10367261  0.10367261  0.75821252  1
  Li  Li5  1  0.89632739  0.89632739  0.24178748  1
  Li  Li6  1  0.49651172  0.99651172  0.75000000  1
  Li  Li7  1  0.00348828  0.50348828  0.25000000  1
  Mn  Mn8  1  0.24374792  0.75625208  0.00000000  1
  Mn  Mn9  1  0.15877942  0.65877942  0.25000000  1
  Mn  Mn10  1  0.34122058  0.84122058  0.75000000  1
  Mn  Mn11  1  0.25625208  0.74374792  0.50000000  1
  Mn  Mn12  1  0.74374792  0.25625208  0.50000000  1
  Mn  Mn13  1  0.84122058  0.34122058  0.75000000  1
  Mn  Mn14  1  0.65877942  0.15877942  0.25000000  1
  Mn  Mn15  1  0.75625208  0.24374792  0.00000000  1
  Si  Si16  1  0.18671452  0.96726813  0.19108511  1
  Si  Si17  1  0.03273187  0.81328548  0.80891489  1
  Si  Si18  1  0.19607594  0.41764744  0.45931582  1
  Si  Si19  1  0.08235256  0.30392406  0.95931582  1
  Si  Si20  1  0.58235256  0.80392406  0.54068418  1
  Si  Si21  1  0.69607594  0.91764744  0.04068418  1
  Si  Si22  1  0.31328548  0.53273187  0.69108511  1
  Si  Si23  1  0.46726813  0.68671452  0.30891489  1
  Si  Si24  1  0.75831932  0.97544212  0.51366728  1
  Si  Si25  1  0.02455788  0.24168068  0.48633272  1
  Si  Si26  1  0.52455788  0.74168068  0.01366728  1
  Si  Si27  1  0.25831932  0.47544212  0.98633272  1
  Si  Si28  1  0.97544212  0.75831932  0.51366728  1
  Si  Si29  1  0.24168068  0.02455788  0.48633272  1
  Si  Si30  1  0.74168068  0.52455788  0.01366728  1
  Si  Si31  1  0.47544212  0.25831932  0.98633272  1
  Si  Si32  1  0.68671452  0.46726813  0.30891489  1
  Si  Si33  1  0.53273187  0.31328548  0.69108511  1
  Si  Si34  1  0.41764744  0.19607594  0.45931582  1
  Si  Si35  1  0.91764744  0.69607594  0.04068418  1
  Si  Si36  1  0.30392406  0.08235256  0.95931582  1
  Si  Si37  1  0.80392406  0.58235256  0.54068418  1
  Si  Si38  1  0.81328548  0.03273187  0.80891489  1
  Si  Si39  1  0.96726813  0.18671452  0.19108511  1
  O  O40  1  0.24775347  0.98863954  0.33144969  1
  O  O41  1  0.01136046  0.75224653  0.66855031  1
  O  O42  1  0.16345136  0.83639405  0.16615600  1
  O  O43  1  0.16360595  0.83654864  0.83384400  1
  O  O44  1  0.24845871  0.91051146  0.57602937  1
  O  O45  1  0.08948854  0.75154129  0.42397063  1
  O  O46  1  0.25154129  0.58948854  0.07602937  1
  O  O47  1  0.41051146  0.74845871  0.92397063  1
  O  O48  1  0.33654864  0.66360595  0.66615600  1
  O  O49  1  0.33639405  0.66345136  0.33384400  1
  O  O50  1  0.15718436  0.48441793  0.32580956  1
  O  O51  1  0.01558207  0.34281564  0.82580956  1
  O  O52  1  0.51558207  0.84281564  0.67419044  1
  O  O53  1  0.65718436  0.98441793  0.17419044  1
  O  O54  1  0.99585273  0.28043769  0.07973453  1
  O  O55  1  0.21956231  0.50414727  0.57973453  1
  O  O56  1  0.49585273  0.78043769  0.42026547  1
  O  O57  1  0.71956231  0.00414727  0.92026547  1
  O  O58  1  0.14951016  0.40625815  0.01611019  1
  O  O59  1  0.09374185  0.35048984  0.51611019  1
  O  O60  1  0.64951016  0.90625815  0.48388981  1
  O  O61  1  0.59374185  0.85048984  0.98388981  1
  O  O62  1  0.48863954  0.74775347  0.16855031  1
  O  O63  1  0.25224653  0.51136046  0.83144969  1
  O  O64  1  0.94028242  0.94028242  0.81904352  1
  O  O65  1  0.61752611  0.61752611  0.97400069  1
  O  O66  1  0.32311310  0.32311310  0.42903753  1
  O  O67  1  0.05971758  0.05971758  0.18095648  1
  O  O68  1  0.17688690  0.17688690  0.92903753  1
  O  O69  1  0.11752611  0.11752611  0.52599931  1
  O  O70  1  0.44028242  0.44028242  0.68095648  1
  O  O71  1  0.38247389  0.38247389  0.02599931  1
  O  O72  1  0.55971758  0.55971758  0.31904352  1
  O  O73  1  0.82311310  0.82311310  0.07096247  1
  O  O74  1  0.88247389  0.88247389  0.47400069  1
  O  O75  1  0.67688690  0.67688690  0.57096247  1
  O  O76  1  0.74775347  0.48863954  0.16855031  1
  O  O77  1  0.51136046  0.25224653  0.83144969  1
  O  O78  1  0.85048984  0.59374185  0.98388981  1
  O  O79  1  0.40625815  0.14951016  0.01611019  1
  O  O80  1  0.35048984  0.09374185  0.51611019  1
  O  O81  1  0.90625815  0.64951016  0.48388981  1
  O  O82  1  0.00414727  0.71956231  0.92026547  1
  O  O83  1  0.28043769  0.99585273  0.07973453  1
  O  O84  1  0.50414727  0.21956231  0.57973453  1
  O  O85  1  0.78043769  0.49585273  0.42026547  1
  O  O86  1  0.84281564  0.51558207  0.67419044  1
  O  O87  1  0.34281564  0.01558207  0.82580956  1
  O  O88  1  0.48441793  0.15718436  0.32580956  1
  O  O89  1  0.98441793  0.65718436  0.17419044  1
  O  O90  1  0.66345136  0.33639405  0.33384400  1
  O  O91  1  0.66360595  0.33654864  0.66615600  1
  O  O92  1  0.58948854  0.25154129  0.07602937  1
  O  O93  1  0.74845871  0.41051146  0.92397063  1
  O  O94  1  0.91051146  0.24845871  0.57602937  1
  O  O95  1  0.75154129  0.08948854  0.42397063  1
  O  O96  1  0.83639405  0.16345136  0.16615600  1
  O  O97  1  0.83654864  0.16360595  0.83384400  1
  O  O98  1  0.98863954  0.24775347  0.33144969  1
  O  O99  1  0.75224653  0.01136046  0.66855031  1
