# generated using pymatgen
data_VCo3(PO4)4
_symmetry_space_group_name_H-M   'P 1'
_cell_length_a   4.86060621
_cell_length_b   9.86322449
_cell_length_c   5.91284661
_cell_angle_alpha   90.00000000
_cell_angle_beta   90.00000000
_cell_angle_gamma   91.40720449
_symmetry_Int_Tables_number   1
_chemical_formula_structural   VCo3(PO4)4
_chemical_formula_sum   'V1 Co3 P4 O16'
_cell_volume   283.38376737
_cell_formula_units_Z   1
loop_
 _symmetry_equiv_pos_site_id
 _symmetry_equiv_pos_as_xyz
  1  'x, y, z'
loop_
 _atom_site_type_symbol
 _atom_site_label
 _atom_site_symmetry_multiplicity
 _atom_site_fract_x
 _atom_site_fract_y
 _atom_site_fract_z
 _atom_site_occupancy
  V  V0  1  0.97658135  0.27232981  0.25000000  1
  Co  Co1  1  0.03086592  0.72370425  0.75000000  1
  Co  Co2  1  0.46644023  0.23100575  0.75000000  1
  Co  Co3  1  0.55362832  0.77404490  0.25000000  1
  P  P4  1  0.09222235  0.59755347  0.25000000  1
  P  P5  1  0.39245330  0.09718642  0.25000000  1
  P  P6  1  0.58430728  0.90165317  0.75000000  1
  P  P7  1  0.92746270  0.40448599  0.75000000  1
  O  O8  1  0.15128029  0.44010581  0.25000000  1
  O  O9  1  0.24578946  0.66524655  0.04680474  1
  O  O10  1  0.24578946  0.66524655  0.45319526  1
  O  O11  1  0.23635283  0.39214309  0.75000000  1
  O  O12  1  0.27080483  0.87284733  0.75000000  1
  O  O13  1  0.24128940  0.17120564  0.04964359  1
  O  O14  1  0.24128940  0.17120564  0.45035641  1
  O  O15  1  0.34371152  0.94530764  0.25000000  1
  O  O16  1  0.64952350  0.05188332  0.75000000  1
  O  O17  1  0.72625900  0.82740862  0.54373947  1
  O  O18  1  0.72625900  0.82740862  0.95626053  1
  O  O19  1  0.70466301  0.13339085  0.25000000  1
  O  O20  1  0.78065394  0.61175962  0.25000000  1
  O  O21  1  0.78054411  0.33283122  0.54277728  1
  O  O22  1  0.78054411  0.33283122  0.95722272  1
  O  O23  1  0.85128269  0.55721449  0.75000000  1
