# generated using pymatgen
data_BaPO4
_symmetry_space_group_name_H-M   'P 1'
_cell_length_a   5.30912313
_cell_length_b   14.06858249
_cell_length_c   16.10225319
_cell_angle_alpha   90.00000000
_cell_angle_beta   90.00000000
_cell_angle_gamma   90.00000000
_symmetry_Int_Tables_number   1
_chemical_formula_structural   BaPO4
_chemical_formula_sum   'Ba12 P12 O48'
_cell_volume   1202.70686583
_cell_formula_units_Z   12
loop_
 _symmetry_equiv_pos_site_id
 _symmetry_equiv_pos_as_xyz
  1  'x, y, z'
loop_
 _atom_site_type_symbol
 _atom_site_label
 _atom_site_symmetry_multiplicity
 _atom_site_fract_x
 _atom_site_fract_y
 _atom_site_fract_z
 _atom_site_occupancy
  Ba  Ba0  1  0.25319024  0.61494096  0.08645805  1
  Ba  Ba1  1  0.74680976  0.38505904  0.58645805  1
  Ba  Ba2  1  0.75319024  0.88505904  0.58645805  1
  Ba  Ba3  1  0.24680976  0.11494096  0.08645805  1
  Ba  Ba4  1  0.23832515  0.62932539  0.42045348  1
  Ba  Ba5  1  0.76167485  0.37067461  0.92045348  1
  Ba  Ba6  1  0.73832515  0.87067461  0.92045348  1
  Ba  Ba7  1  0.26167485  0.12932539  0.42045348  1
  Ba  Ba8  1  0.77999474  0.87191023  0.24792374  1
  Ba  Ba9  1  0.22000526  0.12808977  0.74792374  1
  Ba  Ba10  1  0.27999474  0.62808977  0.74792374  1
  Ba  Ba11  1  0.72000526  0.37191023  0.24792374  1
  P  P12  1  0.26883298  0.86877031  0.08541467  1
  P  P13  1  0.73116702  0.13122969  0.58541467  1
  P  P14  1  0.76883298  0.63122969  0.58541467  1
  P  P15  1  0.23116702  0.36877031  0.08541467  1
  P  P16  1  0.71552221  0.62099870  0.24912131  1
  P  P17  1  0.28447779  0.37900130  0.74912131  1
  P  P18  1  0.21552221  0.87900130  0.74912131  1
  P  P19  1  0.78447779  0.12099870  0.24912131  1
  P  P20  1  0.30430390  0.88049491  0.41652332  1
  P  P21  1  0.69569610  0.11950509  0.91652332  1
  P  P22  1  0.80430390  0.61950509  0.91652332  1
  P  P23  1  0.19569610  0.38049491  0.41652332  1
  O  O24  1  0.31517735  0.93258336  0.00848868  1
  O  O25  1  0.68482265  0.06741664  0.50848868  1
  O  O26  1  0.81517735  0.56741664  0.50848868  1
  O  O27  1  0.18482265  0.43258336  0.00848868  1
  O  O28  1  0.21408614  0.93027564  0.16301736  1
  O  O29  1  0.78591386  0.06972436  0.66301736  1
  O  O30  1  0.71408614  0.56972436  0.66301736  1
  O  O31  1  0.28591386  0.43027564  0.16301736  1
  O  O32  1  0.03540837  0.80347732  0.07259289  1
  O  O33  1  0.96459163  0.19652268  0.57259289  1
  O  O34  1  0.53540837  0.69652268  0.57259289  1
  O  O35  1  0.46459163  0.30347732  0.07259289  1
  O  O36  1  0.50916654  0.80660295  0.09689836  1
  O  O37  1  0.49083346  0.19339705  0.59689836  1
  O  O38  1  0.00916654  0.69339705  0.59689836  1
  O  O39  1  0.99083346  0.30660295  0.09689836  1
  O  O40  1  0.49181795  0.69017616  0.22992207  1
  O  O41  1  0.50818205  0.30982384  0.72992207  1
  O  O42  1  0.99181795  0.80982384  0.72992207  1
  O  O43  1  0.00818205  0.19017616  0.22992207  1
  O  O44  1  0.95101910  0.67899261  0.27399818  1
  O  O45  1  0.04898090  0.32100739  0.77399818  1
  O  O46  1  0.45101910  0.82100739  0.77399818  1
  O  O47  1  0.54898090  0.17899261  0.27399818  1
  O  O48  1  0.78220339  0.55964944  0.17277739  1
  O  O49  1  0.21779661  0.44035056  0.67277739  1
  O  O50  1  0.28220339  0.94035056  0.67277739  1
  O  O51  1  0.71779661  0.05964944  0.17277739  1
  O  O52  1  0.61584331  0.55838639  0.32106216  1
  O  O53  1  0.38415669  0.44161361  0.82106216  1
  O  O54  1  0.11584331  0.94161361  0.82106216  1
  O  O55  1  0.88415669  0.05838639  0.32106216  1
  O  O56  1  0.39606599  0.94755507  0.34658988  1
  O  O57  1  0.60393401  0.05244493  0.84658988  1
  O  O58  1  0.89606599  0.55244493  0.84658988  1
  O  O59  1  0.10393401  0.44755507  0.34658988  1
  O  O60  1  0.21262731  0.93767861  0.49261131  1
  O  O61  1  0.78737269  0.06232139  0.99261131  1
  O  O62  1  0.71262731  0.56232139  0.99261131  1
  O  O63  1  0.28737269  0.43767861  0.49261131  1
  O  O64  1  0.07898982  0.81861306  0.38836900  1
  O  O65  1  0.92101018  0.18138694  0.88836900  1
  O  O66  1  0.57898982  0.68138694  0.88836900  1
  O  O67  1  0.42101018  0.31861306  0.38836900  1
  O  O68  1  0.53398351  0.81587344  0.43777817  1
  O  O69  1  0.46601649  0.18412656  0.93777817  1
  O  O70  1  0.03398351  0.68412656  0.93777817  1
  O  O71  1  0.96601649  0.31587344  0.43777817  1
