# generated using pymatgen
data_Li4Fe(PO3)6
_symmetry_space_group_name_H-M   'P 1'
_cell_length_a   7.61989223
_cell_length_b   7.32367159
_cell_length_c   7.55424606
_cell_angle_alpha   66.60714711
_cell_angle_beta   106.72439628
_cell_angle_gamma   80.44510420
_symmetry_Int_Tables_number   1
_chemical_formula_structural   Li4Fe(PO3)6
_chemical_formula_sum   'Li4 Fe1 P6 O18'
_cell_volume   351.21285920
_cell_formula_units_Z   1
loop_
 _symmetry_equiv_pos_site_id
 _symmetry_equiv_pos_as_xyz
  1  'x, y, z'
loop_
 _atom_site_type_symbol
 _atom_site_label
 _atom_site_symmetry_multiplicity
 _atom_site_fract_x
 _atom_site_fract_y
 _atom_site_fract_z
 _atom_site_occupancy
  Li  Li0  1  0.12291100  0.24021371  0.91845482  1
  Li  Li1  1  0.15515262  0.62261877  0.56364064  1
  Li  Li2  1  0.45166088  0.47488941  0.99558071  1
  Li  Li3  1  0.85954999  0.36964549  0.44549105  1
  Fe  Fe4  1  0.85337091  0.78591408  0.06605121  1
  P  P5  1  0.22125049  0.98616852  0.68745494  1
  P  P6  1  0.21792947  0.32978282  0.32163569  1
  P  P7  1  0.50038000  0.20815132  0.73308803  1
  P  P8  1  0.51021717  0.77632320  0.27544853  1
  P  P9  1  0.79350164  0.67571065  0.67560540  1
  P  P10  1  0.76206478  0.02694442  0.30500915  1
  O  O11  1  0.06947611  0.11957890  0.71461645  1
  O  O12  1  0.06631318  0.49274427  0.32371480  1
  O  O13  1  0.19335666  0.10273053  0.44098182  1
  O  O14  1  0.24774997  0.75926913  0.75029862  1
  O  O15  1  0.39232539  0.36801476  0.77487849  1
  O  O16  1  0.42968809  0.00264685  0.79830444  1
  O  O17  1  0.23173981  0.35577056  0.12064488  1
  O  O18  1  0.29882533  0.82138545  0.18693119  1
  O  O19  1  0.42985690  0.30084807  0.48019546  1
  O  O20  1  0.58369786  0.69012743  0.53033872  1
  O  O21  1  0.71666952  0.12010548  0.83226446  1
  O  O22  1  0.78553289  0.65556706  0.87823732  1
  O  O23  1  0.55662693  -0.00008737  0.20437194  1
  O  O24  1  0.64850906  0.63819051  0.23457061  1
  O  O25  1  0.73113540  0.25446473  0.23731290  1
  O  O26  1  0.80453197  0.90857256  0.55211491  1
  O  O27  1  0.94691804  0.51581379  0.67715465  1
  O  O28  1  0.91905994  0.89789187  0.27561019  1
