# generated using pymatgen
data_Li2Cu2F5
_symmetry_space_group_name_H-M   'P 1'
_cell_length_a   17.83559333
_cell_length_b   2.92750111
_cell_length_c   7.74674022
_cell_angle_alpha   90.00000000
_cell_angle_beta   90.00000000
_cell_angle_gamma   90.00000000
_symmetry_Int_Tables_number   1
_chemical_formula_structural   Li2Cu2F5
_chemical_formula_sum   'Li8 Cu8 F20'
_cell_volume   404.48611911
_cell_formula_units_Z   4
loop_
 _symmetry_equiv_pos_site_id
 _symmetry_equiv_pos_as_xyz
  1  'x, y, z'
loop_
 _atom_site_type_symbol
 _atom_site_label
 _atom_site_symmetry_multiplicity
 _atom_site_fract_x
 _atom_site_fract_y
 _atom_site_fract_z
 _atom_site_occupancy
  Li  Li0  1  0.02585093  0.75000000  0.14702891  1
  Li  Li1  1  0.12695632  0.75000000  0.86251920  1
  Li  Li2  1  0.37304368  0.25000000  0.36251920  1
  Li  Li3  1  0.47414907  0.25000000  0.64702891  1
  Li  Li4  1  0.52585093  0.75000000  0.35297109  1
  Li  Li5  1  0.62695632  0.75000000  0.63748080  1
  Li  Li6  1  0.87304368  0.25000000  0.13748080  1
  Li  Li7  1  0.97414907  0.25000000  0.85297109  1
  Cu  Cu8  1  0.08606730  0.25000000  0.50553044  1
  Cu  Cu9  1  0.19786502  0.25000000  0.17624102  1
  Cu  Cu10  1  0.30213498  0.75000000  0.67624102  1
  Cu  Cu11  1  0.41393270  0.75000000  0.00553044  1
  Cu  Cu12  1  0.58606730  0.25000000  0.99446956  1
  Cu  Cu13  1  0.69786502  0.25000000  0.32375898  1
  Cu  Cu14  1  0.80213498  0.75000000  0.82375898  1
  Cu  Cu15  1  0.91393270  0.75000000  0.49446956  1
  F  F16  1  0.01380058  0.25000000  0.32380376  1
  F  F17  1  0.06775066  0.25000000  0.99297774  1
  F  F18  1  0.14601542  0.25000000  0.70185650  1
  F  F19  1  0.15822584  0.75000000  0.32580704  1
  F  F20  1  0.21494188  0.75000000  0.01219103  1
  F  F21  1  0.28505812  0.25000000  0.51219103  1
  F  F22  1  0.34177416  0.25000000  0.82580704  1
  F  F23  1  0.35398458  0.75000000  0.20185650  1
  F  F24  1  0.43224934  0.75000000  0.49297774  1
  F  F25  1  0.48619942  0.75000000  0.82380376  1
  F  F26  1  0.51380058  0.25000000  0.17619624  1
  F  F27  1  0.56775066  0.25000000  0.50702226  1
  F  F28  1  0.64601542  0.25000000  0.79814350  1
  F  F29  1  0.65822584  0.75000000  0.17419296  1
  F  F30  1  0.71494188  0.75000000  0.48780897  1
  F  F31  1  0.78505812  0.25000000  0.98780897  1
  F  F32  1  0.84177416  0.25000000  0.67419296  1
  F  F33  1  0.85398458  0.75000000  0.29814350  1
  F  F34  1  0.93224934  0.75000000  0.00702226  1
  F  F35  1  0.98619942  0.75000000  0.67619624  1
