# generated using pymatgen
data_Li2CrSiO4
_symmetry_space_group_name_H-M   'P 1'
_cell_length_a   6.57724743
_cell_length_b   10.54488237
_cell_length_c   5.01318499
_cell_angle_alpha   89.99670947
_cell_angle_beta   90.00000291
_cell_angle_gamma   90.00002836
_symmetry_Int_Tables_number   1
_chemical_formula_structural   Li2CrSiO4
_chemical_formula_sum   'Li8 Cr4 Si4 O16'
_cell_volume   347.69596418
_cell_formula_units_Z   4
loop_
 _symmetry_equiv_pos_site_id
 _symmetry_equiv_pos_as_xyz
  1  'x, y, z'
loop_
 _atom_site_type_symbol
 _atom_site_label
 _atom_site_symmetry_multiplicity
 _atom_site_fract_x
 _atom_site_fract_y
 _atom_site_fract_z
 _atom_site_occupancy
  Li  Li0  1  0.00196716  0.41036888  0.18210348  1
  Li  Li1  1  0.00193299  0.91038903  0.31792942  1
  Li  Li2  1  0.49806553  0.91038960  0.31792968  1
  Li  Li3  1  0.49803416  0.41036745  0.18210314  1
  Li  Li4  1  0.50199317  0.08963360  0.68210169  1
  Li  Li5  1  0.50194430  0.58961015  0.81782799  1
  Li  Li6  1  0.99805601  0.58961235  0.81783046  1
  Li  Li7  1  0.99800407  0.08963357  0.68210290  1
  Cr  Cr8  1  0.25000055  0.14861434  0.19275323  1
  Cr  Cr9  1  0.24998774  0.64873406  0.30728442  1
  Cr  Cr10  1  0.74999830  0.35138223  0.69283460  1
  Cr  Cr11  1  0.74999152  0.85124715  0.80757819  1
  Si  Si12  1  0.25000331  0.33237102  0.66918660  1
  Si  Si13  1  0.25000106  0.83243462  0.83072069  1
  Si  Si14  1  0.75000258  0.66758770  0.33074917  1
  Si  Si15  1  0.74999878  0.16759650  0.16926742  1
  O  O16  1  0.04250119  0.40317628  0.78105592  1
  O  O17  1  0.04243806  0.90317420  0.71886334  1
  O  O18  1  0.24999961  0.34013630  0.34104142  1
  O  O19  1  0.25000277  0.68130051  0.73793734  1
  O  O20  1  0.24999742  0.18125924  0.76205787  1
  O  O21  1  0.24999523  0.84024592  0.15884982  1
  O  O22  1  0.45756642  0.90317060  0.71887138  1
  O  O23  1  0.45750939  0.40317041  0.78104851  1
  O  O24  1  0.54248010  0.59684287  0.21884128  1
  O  O25  1  0.54249437  0.09682068  0.28112829  1
  O  O26  1  0.75000082  0.65978304  0.65888923  1
  O  O27  1  0.75000224  0.15982283  0.84107623  1
  O  O28  1  0.75000440  0.31872958  0.26202851  1
  O  O29  1  0.74999971  0.81873109  0.23802043  1
  O  O30  1  0.95753151  0.59684680  0.21884230  1
  O  O31  1  0.95749552  0.09681742  0.28114504  1
