# generated using pymatgen
data_Li2Fe(PO3)5
_symmetry_space_group_name_H-M   'P 1'
_cell_length_a   12.45644674
_cell_length_b   9.61331785
_cell_length_c   5.35173995
_cell_angle_alpha   90.00000000
_cell_angle_beta   94.65229181
_cell_angle_gamma   90.00000000
_symmetry_Int_Tables_number   1
_chemical_formula_structural   Li2Fe(PO3)5
_chemical_formula_sum   'Li4 Fe2 P10 O30'
_cell_volume   638.74752943
_cell_formula_units_Z   2
loop_
 _symmetry_equiv_pos_site_id
 _symmetry_equiv_pos_as_xyz
  1  'x, y, z'
loop_
 _atom_site_type_symbol
 _atom_site_label
 _atom_site_symmetry_multiplicity
 _atom_site_fract_x
 _atom_site_fract_y
 _atom_site_fract_z
 _atom_site_occupancy
  Li  Li0  1  0.07861220  0.59587031  0.12006369  1
  Li  Li1  1  0.44019756  0.63602077  0.34341046  1
  Li  Li2  1  0.57861220  0.40412969  0.62006369  1
  Li  Li3  1  0.94019756  0.36397923  0.84341046  1
  Fe  Fe4  1  0.49311285  0.00876431  0.53067331  1
  Fe  Fe5  1  0.99311285  0.99123569  0.03067331  1
  P  P6  1  0.08046055  0.19353650  0.47228954  1
  P  P7  1  0.14415220  0.48159334  0.60922949  1
  P  P8  1  0.24511889  0.01200080  0.27078510  1
  P  P9  1  0.36078769  0.47479013  0.88186112  1
  P  P10  1  0.40997001  0.18054102  0.03732798  1
  P  P11  1  0.58046055  0.80646350  0.97228954  1
  P  P12  1  0.64415220  0.51840666  0.10922949  1
  P  P13  1  0.74511889  0.98799920  0.77078510  1
  P  P14  1  0.86078769  0.52520987  0.38186112  1
  P  P15  1  0.90997001  0.81945898  0.53732798  1
  O  O16  1  0.01131022  0.15360438  0.23482949  1
  O  O17  1  0.03454859  0.16974338  0.71838324  1
  O  O18  1  0.06500865  0.49168193  0.80491824  1
  O  O19  1  0.11098011  0.35005787  0.42381788  1
  O  O20  1  0.15329503  0.93317066  0.13428836  1
  O  O21  1  0.16329139  0.60161631  0.44285381  1
  O  O22  1  0.19617849  0.11618433  0.46832238  1
  O  O23  1  0.25220068  0.41450018  0.74028736  1
  O  O24  1  0.29374847  0.11048108  0.06208132  1
  O  O25  1  0.34087154  0.59352217  0.04972712  1
  O  O26  1  0.33828411  0.93888175  0.41333118  1
  O  O27  1  0.38682542  0.33926800  0.06713217  1
  O  O28  1  0.44252797  0.48335489  0.69278739  1
  O  O29  1  0.44531498  0.14505968  0.78177273  1
  O  O30  1  0.48760339  0.14067630  0.25882764  1
  O  O31  1  0.51131022  0.84639562  0.73482949  1
  O  O32  1  0.53454859  0.83025662  0.21838324  1
  O  O33  1  0.56500865  0.50831807  0.30491824  1
  O  O34  1  0.61098011  0.64994213  0.92381788  1
  O  O35  1  0.65329503  0.06682934  0.63428836  1
  O  O36  1  0.66329139  0.39838369  0.94285381  1
  O  O37  1  0.69617849  0.88381567  0.96832238  1
  O  O38  1  0.75220068  0.58549982  0.24028736  1
  O  O39  1  0.79374847  0.88951892  0.56208132  1
  O  O40  1  0.84087154  0.40647783  0.54972712  1
  O  O41  1  0.83828411  0.06111825  0.91333118  1
  O  O42  1  0.88682542  0.66073200  0.56713217  1
  O  O43  1  0.94252797  0.51664511  0.19278739  1
  O  O44  1  0.94531498  0.85494032  0.28177273  1
  O  O45  1  0.98760339  0.85932370  0.75882764  1
