# generated using pymatgen
data_LiFe2C2O7
_symmetry_space_group_name_H-M   'P 1'
_cell_length_a   4.87417452
_cell_length_b   4.86983900
_cell_length_c   15.96618878
_cell_angle_alpha   89.81598350
_cell_angle_beta   90.15492928
_cell_angle_gamma   59.76284747
_symmetry_Int_Tables_number   1
_chemical_formula_structural   LiFe2C2O7
_chemical_formula_sum   'Li2 Fe4 C4 O14'
_cell_volume   327.41388537
_cell_formula_units_Z   2
loop_
 _symmetry_equiv_pos_site_id
 _symmetry_equiv_pos_as_xyz
  1  'x, y, z'
loop_
 _atom_site_type_symbol
 _atom_site_label
 _atom_site_symmetry_multiplicity
 _atom_site_fract_x
 _atom_site_fract_y
 _atom_site_fract_z
 _atom_site_occupancy
  Li  Li0  1  0.00273778  0.00100138  0.01141897  1
  Li  Li1  1  0.99762829  0.99847488  0.51158247  1
  Fe  Fe2  1  0.67025172  0.66479027  0.13471271  1
  Fe  Fe3  1  0.67050283  0.66270898  0.36541548  1
  Fe  Fe4  1  0.33140737  0.33227639  0.63514583  1
  Fe  Fe5  1  0.33359403  0.33350010  0.86578820  1
  C  C6  1  0.33576652  0.33260332  0.08203548  1
  C  C7  1  0.33557875  0.33267080  0.41312993  1
  C  C8  1  0.66509019  0.66586290  0.58216089  1
  C  C9  1  0.66544080  0.66675093  0.91338998  1
  O  O10  1  0.07474396  0.60625646  0.41383848  1
  O  O11  1  0.39192055  0.92719576  0.91384094  1
  O  O12  1  0.30973735  0.61145295  0.08344993  1
  O  O13  1  0.38755547  0.69151441  0.58330117  1
  O  O14  1  0.08141819  0.31057753  0.08021735  1
  O  O15  1  0.68720540  0.92095908  0.58129965  1
  O  O16  1  0.32515075  0.34260452  0.75629663  1
  O  O17  1  0.66870539  0.66393965  0.25589496  1
  O  O18  1  0.32359494  0.07288243  0.41289301  1
  O  O19  1  0.92429561  0.67908472  0.91394382  1
  O  O20  1  0.60711430  0.32020370  0.41393379  1
  O  O21  1  0.67832698  0.39402763  0.91363235  1
  O  O22  1  0.61385037  0.07904724  0.08160743  1
  O  O23  1  0.91941248  0.38758796  0.58109054  1
