# generated using pymatgen
data_Li10Fe(SiO5)2
_symmetry_space_group_name_H-M   'P 1'
_cell_length_a   6.17261025
_cell_length_b   15.40500439
_cell_length_c   5.16096552
_cell_angle_alpha   79.60126262
_cell_angle_beta   89.95757929
_cell_angle_gamma   78.44047295
_symmetry_Int_Tables_number   1
_chemical_formula_structural   Li10Fe(SiO5)2
_chemical_formula_sum   'Li20 Fe2 Si4 O20'
_cell_volume   472.58099910
_cell_formula_units_Z   2
loop_
 _symmetry_equiv_pos_site_id
 _symmetry_equiv_pos_as_xyz
  1  'x, y, z'
loop_
 _atom_site_type_symbol
 _atom_site_label
 _atom_site_symmetry_multiplicity
 _atom_site_fract_x
 _atom_site_fract_y
 _atom_site_fract_z
 _atom_site_occupancy
  Li  Li0  1  0.50871235  0.98192667  0.75823888  1
  Li  Li1  1  0.35930533  0.86562431  0.23832594  1
  Li  Li2  1  0.77376643  0.86535404  0.23754178  1
  Li  Li3  1  0.13216127  0.73657123  0.48271611  1
  Li  Li4  1  0.34599283  0.73792509  0.02152597  1
  Li  Li5  1  0.91717650  0.73792295  0.02088926  1
  Li  Li6  1  0.67394116  0.65127772  0.41404490  1
  Li  Li7  1  0.43776923  0.61040564  0.78647712  1
  Li  Li8  1  0.95117352  0.61049869  0.78576522  1
  Li  Li9  1  0.73090214  0.54030756  0.13476378  1
  Li  Li10  1  0.26879496  0.45951260  0.86361486  1
  Li  Li11  1  0.56188510  0.39039237  0.21400367  1
  Li  Li12  1  0.04832361  0.38987385  0.21514295  1
  Li  Li13  1  0.32710937  0.34668467  0.58320370  1
  Li  Li14  1  0.08368054  0.26208745  0.97817550  1
  Li  Li15  1  0.65498318  0.26236083  0.97829896  1
  Li  Li16  1  0.86963244  0.26226555  0.51737665  1
  Li  Li17  1  0.64009269  0.13330988  0.76229719  1
  Li  Li18  1  0.22881937  0.13217260  0.76717345  1
  Li  Li19  1  0.49054271  0.01659492  0.24168370  1
  Fe  Fe20  1  0.03545902  0.92833318  0.89592853  1
  Fe  Fe21  1  0.96281073  0.07097780  0.10355958  1
  Si  Si22  1  0.60036363  0.79943956  0.69170669  1
  Si  Si23  1  0.21887398  0.56242629  0.30837326  1
  Si  Si24  1  0.78015834  0.43787090  0.69256384  1
  Si  Si25  1  0.40007811  0.20032804  0.30771155  1
  O  O26  1  0.54936332  0.89991939  0.49908486  1
  O  O27  1  0.09221560  0.81556402  0.13019180  1
  O  O28  1  0.59646342  0.80698755  0.00938312  1
  O  O29  1  0.41255177  0.74270560  0.63059058  1
  O  O30  1  0.84553037  0.74306603  0.63044362  1
  O  O31  1  0.41755551  0.61343493  0.16919438  1
  O  O32  1  0.96927603  0.61339123  0.16899953  1
  O  O33  1  0.21307252  0.57346698  0.61998169  1
  O  O34  1  0.72747646  0.54442654  0.73505075  1
  O  O35  1  0.27196141  0.45615148  0.26603223  1
  O  O36  1  0.78641513  0.42738973  0.38095316  1
  O  O37  1  0.58109030  0.38716999  0.83125159  1
  O  O38  1  0.02883290  0.38686879  0.83313096  1
  O  O39  1  0.15597255  0.25760199  0.36868428  1
  O  O40  1  0.58822146  0.25692836  0.36918044  1
  O  O41  1  0.40411501  0.19286896  0.98978018  1
  O  O42  1  0.90843622  0.18393203  0.87050071  1
  O  O43  1  0.44970172  0.09957540  0.49977676  1
  O  O44  1  0.24907201  0.99975491  0.99993081  1
  O  O45  1  0.74957175  0.99964171  0.99820751  1
