# generated using pymatgen
data_LiFeP2O7
_symmetry_space_group_name_H-M   'P 1'
_cell_length_a   7.12046670
_cell_length_b   10.16914989
_cell_length_c   8.08470524
_cell_angle_alpha   90.00000000
_cell_angle_beta   111.12028178
_cell_angle_gamma   90.00000000
_symmetry_Int_Tables_number   1
_chemical_formula_structural   LiFeP2O7
_chemical_formula_sum   'Li4 Fe4 P8 O28'
_cell_volume   546.08212642
_cell_formula_units_Z   4
loop_
 _symmetry_equiv_pos_site_id
 _symmetry_equiv_pos_as_xyz
  1  'x, y, z'
loop_
 _atom_site_type_symbol
 _atom_site_label
 _atom_site_symmetry_multiplicity
 _atom_site_fract_x
 _atom_site_fract_y
 _atom_site_fract_z
 _atom_site_occupancy
  Li  Li0  1  0.10335527  0.15657228  0.55241550  1
  Li  Li1  1  0.10335527  0.34342772  0.05241550  1
  Li  Li2  1  0.89664473  0.65657228  0.94758450  1
  Li  Li3  1  0.89664473  0.84342772  0.44758450  1
  Fe  Fe4  1  0.23558263  0.60614232  0.75530359  1
  Fe  Fe5  1  0.23558263  0.89385768  0.25530359  1
  Fe  Fe6  1  0.76441737  0.10614232  0.74469641  1
  Fe  Fe7  1  0.76441737  0.39385768  0.24469641  1
  P  P8  1  0.13900545  0.90969044  0.81328835  1
  P  P9  1  0.13900545  0.59030956  0.31328835  1
  P  P10  1  0.46948078  0.85339648  0.70404387  1
  P  P11  1  0.53051922  0.35339648  0.79595613  1
  P  P12  1  0.46948078  0.64660352  0.20404387  1
  P  P13  1  0.53051922  0.14660352  0.29595613  1
  P  P14  1  0.86099455  0.40969044  0.68671165  1
  P  P15  1  0.86099455  0.09030956  0.18671165  1
  O  O16  1  0.97426460  0.53066478  0.79030890  1
  O  O17  1  0.06164782  0.78345871  0.70349666  1
  O  O18  1  0.97426460  0.96933522  0.29030890  1
  O  O19  1  0.13167435  0.60122989  0.49697456  1
  O  O20  1  0.06164782  0.71654129  0.20349666  1
  O  O21  1  0.37028354  0.92904215  0.83118887  1
  O  O22  1  0.32702951  0.41931165  0.75691666  1
  O  O23  1  0.13167435  0.89877011  0.99697456  1
  O  O24  1  0.32424345  0.87617808  0.51427539  1
  O  O25  1  0.49063500  0.70840227  0.76194523  1
  O  O26  1  0.37028354  0.57095785  0.33118887  1
  O  O27  1  0.32702951  0.08068835  0.25691666  1
  O  O28  1  0.32424345  0.62382192  0.01427539  1
  O  O29  1  0.50936500  0.20840227  0.73805477  1
  O  O30  1  0.49063500  0.79159773  0.26194523  1
  O  O31  1  0.67575655  0.37617808  0.98572461  1
  O  O32  1  0.67297049  0.91931165  0.74308334  1
  O  O33  1  0.62971646  0.42904215  0.66881113  1
  O  O34  1  0.50936500  0.29159773  0.23805477  1
  O  O35  1  0.67575655  0.12382192  0.48572461  1
  O  O36  1  0.86832565  0.10122989  0.00302544  1
  O  O37  1  0.67297049  0.58068835  0.24308334  1
  O  O38  1  0.62971646  0.07095785  0.16881113  1
  O  O39  1  0.93835218  0.28345871  0.79650334  1
  O  O40  1  0.86832565  0.39877011  0.50302544  1
  O  O41  1  0.02573540  0.03066478  0.70969110  1
  O  O42  1  0.93835218  0.21654129  0.29650334  1
  O  O43  1  0.02573540  0.46933522  0.20969110  1
