# generated using pymatgen
data_LiFe4(PO4)3
_symmetry_space_group_name_H-M   'P 1'
_cell_length_a   6.83342198
_cell_length_b   10.50994479
_cell_length_c   6.83342198
_cell_angle_alpha   71.02878473
_cell_angle_beta   90.00000000
_cell_angle_gamma   108.97121527
_symmetry_Int_Tables_number   1
_chemical_formula_structural   LiFe4(PO4)3
_chemical_formula_sum   'Li2 Fe8 P6 O24'
_cell_volume   435.82614032
_cell_formula_units_Z   2
loop_
 _symmetry_equiv_pos_site_id
 _symmetry_equiv_pos_as_xyz
  1  'x, y, z'
loop_
 _atom_site_type_symbol
 _atom_site_label
 _atom_site_symmetry_multiplicity
 _atom_site_fract_x
 _atom_site_fract_y
 _atom_site_fract_z
 _atom_site_occupancy
  Li  Li0  1  0.25000000  0.50000000  0.25000000  1
  Li  Li1  1  0.50000000  0.00000000  0.50000000  1
  Fe  Fe2  1  0.37500000  0.25000000  0.11493945  1
  Fe  Fe3  1  0.77504872  0.55009645  0.22495128  1
  Fe  Fe4  1  0.63506055  0.75000000  0.37500000  1
  Fe  Fe5  1  0.87500000  0.25000000  0.63506055  1
  Fe  Fe6  1  0.22495128  0.44990355  0.77504872  1
  Fe  Fe7  1  0.52504872  0.05009645  0.97495128  1
  Fe  Fe8  1  0.97495128  0.94990355  0.52504872  1
  Fe  Fe9  1  0.11493945  0.75000000  0.87500000  1
  P  P10  1  0.00000000  0.00000000  0.00000000  1
  P  P11  1  0.87500000  0.25000000  0.22914900  1
  P  P12  1  0.37500000  0.25000000  0.52085100  1
  P  P13  1  0.22914900  0.75000000  0.37500000  1
  P  P14  1  0.75000000  0.50000000  0.75000000  1
  P  P15  1  0.52085100  0.75000000  0.87500000  1
  O  O16  1  0.23163530  0.08582267  0.00969616  1
  O  O17  1  0.66919272  0.20781583  0.13238693  1
  O  O18  1  0.08080728  0.29218417  0.09020276  1
  O  O19  1  0.61761307  0.70781583  0.08080728  1
  O  O20  1  0.27521091  0.11924636  0.44242165  1
  O  O21  1  0.47478909  0.38075364  0.31166802  1
  O  O22  1  0.90596455  0.38075364  0.30757835  1
  O  O23  1  0.84403545  0.11924636  0.43833198  1
  O  O24  1  0.09020276  0.70781583  0.21137589  1
  O  O25  1  0.90448117  0.91417733  0.23163530  1
  O  O26  1  0.43833198  0.88075364  0.27521091  1
  O  O27  1  0.21137589  0.29218417  0.61761307  1
  O  O28  1  0.53862411  0.20781583  0.65979724  1
  O  O29  1  0.30757835  0.61924636  0.47478909  1
  O  O30  1  0.74030384  0.58582267  0.51836470  1
  O  O31  1  0.89581263  0.41417733  0.74030384  1
  O  O32  1  0.85418737  0.08582267  0.90448117  1
  O  O33  1  0.13238693  0.79218417  0.53862411  1
  O  O34  1  0.65979724  0.79218417  0.66919272  1
  O  O35  1  0.51836470  0.41417733  0.84551883  1
  O  O36  1  0.84551883  0.58582267  0.89581263  1
  O  O37  1  0.31166802  0.61924636  0.90596455  1
  O  O38  1  0.44242165  0.88075364  0.84403545  1
  O  O39  1  0.00969616  0.91417733  0.85418737  1
