# generated using pymatgen
data_LiFeSiO4
_symmetry_space_group_name_H-M   'P 1'
_cell_length_a   8.76513561
_cell_length_b   8.76519419
_cell_length_c   8.15492788
_cell_angle_alpha   90.00905003
_cell_angle_beta   89.98922627
_cell_angle_gamma   119.99971839
_symmetry_Int_Tables_number   1
_chemical_formula_structural   LiFeSiO4
_chemical_formula_sum   'Li6 Fe6 Si6 O24'
_cell_volume   542.59047031
_cell_formula_units_Z   6
loop_
 _symmetry_equiv_pos_site_id
 _symmetry_equiv_pos_as_xyz
  1  'x, y, z'
loop_
 _atom_site_type_symbol
 _atom_site_label
 _atom_site_symmetry_multiplicity
 _atom_site_fract_x
 _atom_site_fract_y
 _atom_site_fract_z
 _atom_site_occupancy
  Li  Li0  1  0.33332335  0.66666710  0.25296578  1
  Li  Li1  1  0.33333521  0.66666234  0.66164176  1
  Li  Li2  1  -0.00001199  -0.00001259  0.06837422  1
  Li  Li3  1  -0.00000498  -0.00000785  0.56837105  1
  Li  Li4  1  0.66664471  0.33332876  0.75297706  1
  Li  Li5  1  0.66666408  0.33332966  0.16164942  1
  Fe  Fe6  1  0.04406991  0.68637631  0.00744695  1
  Fe  Fe7  1  0.31364927  0.35769478  0.00746516  1
  Fe  Fe8  1  0.64225849  0.95590876  0.00743135  1
  Fe  Fe9  1  0.35768698  0.04405276  0.50745514  1
  Fe  Fe10  1  0.68636258  0.64228101  0.50743134  1
  Fe  Fe11  1  0.95593541  0.31366308  0.50745959  1
  Si  Si12  1  0.04131237  0.68843345  0.39586782  1
  Si  Si13  1  0.31196909  0.35299279  0.39592551  1
  Si  Si14  1  0.64673823  0.95864933  0.39601166  1
  Si  Si15  1  0.35288050  0.04113481  0.89582700  1
  Si  Si16  1  0.68831683  0.64692077  0.89594393  1
  Si  Si17  1  0.95883597  0.31203698  0.89601165  1
  O  O18  1  0.11047962  0.87507079  0.49593584  1
  O  O19  1  0.14720987  0.73267667  0.21927692  1
  O  O20  1  0.23954761  0.82626863  0.86816217  1
  O  O21  1  0.09912752  0.56175017  0.49716583  1
  O  O22  1  0.46292457  0.90094004  0.49700889  1
  O  O23  1  0.12473018  0.23534433  0.49603082  1
  O  O24  1  0.17376457  0.41328554  0.86814081  1
  O  O25  1  0.26728356  0.41455330  0.21916976  1
  O  O26  1  0.23536814  0.11055295  0.99599077  1
  O  O27  1  0.58546667  0.85278459  0.21917627  1
  O  O28  1  0.58663591  0.76054543  0.86813336  1
  O  O29  1  0.43811902  0.53722974  0.49707481  1
  O  O30  1  0.56184804  0.46274204  0.99708466  1
  O  O31  1  0.41324222  0.23958907  0.36814723  1
  O  O32  1  0.41453345  0.14722887  0.71926329  1
  O  O33  1  0.76465455  0.88947673  0.49597421  1
  O  O34  1  0.73266732  0.58546498  0.71922770  1
  O  O35  1  0.82615394  0.58667059  0.36815292  1
  O  O36  1  0.87508248  0.76460712  0.99592901  1
  O  O37  1  0.53735108  0.09912111  0.99714459  1
  O  O38  1  0.90091706  0.43802093  0.99701177  1
  O  O39  1  0.76056555  0.17391097  0.36811306  1
  O  O40  1  0.85274960  0.26730527  0.71914348  1
  O  O41  1  0.88941046  0.12474792  0.99602644  1
