# generated using pymatgen
data_Li6Cr5(P2O7)4
_symmetry_space_group_name_H-M   'P 1'
_cell_length_a   12.90252225
_cell_length_b   9.17391653
_cell_length_c   10.81002175
_cell_angle_alpha   68.53248409
_cell_angle_beta   89.82521177
_cell_angle_gamma   73.59337625
_symmetry_Int_Tables_number   1
_chemical_formula_structural   Li6Cr5(P2O7)4
_chemical_formula_sum   'Li12 Cr10 P16 O56'
_cell_volume   1135.05579614
_cell_formula_units_Z   2
loop_
 _symmetry_equiv_pos_site_id
 _symmetry_equiv_pos_as_xyz
  1  'x, y, z'
loop_
 _atom_site_type_symbol
 _atom_site_label
 _atom_site_symmetry_multiplicity
 _atom_site_fract_x
 _atom_site_fract_y
 _atom_site_fract_z
 _atom_site_occupancy
  Li  Li0  1  0.01852784  0.81930592  0.00486291  1
  Li  Li1  1  0.18219064  0.09751340  0.86203825  1
  Li  Li2  1  0.06948498  0.88744601  0.59790886  1
  Li  Li3  1  0.25000000  0.50000000  0.50000000  1
  Li  Li4  1  0.43051502  0.11255399  0.40209114  1
  Li  Li5  1  0.31780936  0.90248660  0.13796175  1
  Li  Li6  1  0.48147216  0.18069408  0.99513709  1
  Li  Li7  1  0.67739981  0.08002739  0.87072306  1
  Li  Li8  1  0.58010805  0.87817511  0.58328939  1
  Li  Li9  1  0.75000000  0.50000000  0.50000000  1
  Li  Li10  1  0.91989195  0.12182489  0.41671061  1
  Li  Li11  1  0.82260019  0.91997261  0.12927694  1
  Cr  Cr12  1  0.13996381  0.09770951  0.28503160  1
  Cr  Cr13  1  0.17970368  0.48460488  0.24465929  1
  Cr  Cr14  1  0.32029632  0.51539512  0.75534071  1
  Cr  Cr15  1  0.36003619  0.90229049  0.71496840  1
  Cr  Cr16  1  0.63651402  0.09678159  0.27786967  1
  Cr  Cr17  1  0.50748950  0.79784897  0.99095388  1
  Cr  Cr18  1  0.68329440  0.46932998  0.24956411  1
  Cr  Cr19  1  0.81670560  0.53067002  0.75043589  1
  Cr  Cr20  1  0.99251050  0.20215103  0.00904612  1
  Cr  Cr21  1  0.86348598  0.90321841  0.72213033  1
  P  P22  1  0.14649347  0.19591768  0.56076379  1
  P  P23  1  0.06845856  0.55507917  0.80409763  1
  P  P24  1  0.03984413  0.80919259  0.29795873  1
  P  P25  1  0.21678844  0.28792749  0.03629423  1
  P  P26  1  0.28321156  0.71207251  0.96370577  1
  P  P27  1  0.46015587  0.19080741  0.70204127  1
  P  P28  1  0.43154144  0.44492083  0.19590237  1
  P  P29  1  0.35350653  0.80408232  0.43923621  1
  P  P30  1  0.65025651  0.18883383  0.56219073  1
  P  P31  1  0.56508288  0.55997106  0.81185885  1
  P  P32  1  0.54264922  0.79827122  0.29504978  1
  P  P33  1  0.71890153  0.27960851  0.03728152  1
  P  P34  1  0.78109847  0.72039149  0.96271848  1
  P  P35  1  0.95735078  0.20172878  0.70495022  1
  P  P36  1  0.93491712  0.44002894  0.18814115  1
  P  P37  1  0.84974349  0.81116617  0.43780927  1
  O  O38  1  0.01429851  0.11630508  0.85134372  1
  O  O39  1  0.03747480  0.29065076  0.61097524  1
  O  O40  1  0.01444725  0.52945036  0.19818192  1
  O  O41  1  0.11213780  0.09491329  0.49123106  1
  O  O42  1  0.01873274  0.73659378  0.78351510  1
  O  O43  1  0.16528163  0.15700828  0.02393338  1
  O  O44  1  0.13126775  0.46702909  0.95735681  1
  O  O45  1  0.05365253  0.93314582  0.35709164  1
  O  O46  1  0.21772271  0.08128258  0.69466473  1
  O  O47  1  0.19383542  0.32517346  0.47165534  1
  O  O48  1  0.21814431  0.27713332  0.18329241  1
  O  O49  1  0.14549312  0.67371980  0.31443227  1
  O  O50  1  0.15641049  0.53488344  0.71210094  1
  O  O51  1  0.17588120  0.72880933  0.01986149  1
  O  O52  1  0.32411880  0.27119067  0.98013851  1
  O  O53  1  0.34358951  0.46511656  0.28789906  1
  O  O54  1  0.35450688  0.32628020  0.68556773  1
  O  O55  1  0.28185569  0.72286668  0.81670759  1
  O  O56  1  0.30616458  0.67482654  0.52834466  1
  O  O57  1  0.28227729  0.91871742  0.30533527  1
  O  O58  1  0.44634747  0.06685418  0.64290836  1
  O  O59  1  0.36873225  0.53297091  0.04264319  1
  O  O60  1  0.33471837  0.84299172  0.97606662  1
  O  O61  1  0.48126726  0.26340622  0.21648490  1
  O  O62  1  0.51770004  0.10202318  0.84651476  1
  O  O63  1  0.38786220  0.90508671  0.50876894  1
  O  O64  1  0.48555275  0.47054964  0.80181808  1
  O  O65  1  0.53844723  0.28353883  0.60637920  1
  O  O66  1  0.46252520  0.70934924  0.38902476  1
  O  O67  1  0.51623520  0.53339479  0.19232784  1
  O  O68  1  0.62105473  0.08381873  0.49305652  1
  O  O69  1  0.48570149  0.88369492  0.14865628  1
  O  O70  1  0.50944324  0.72989931  0.82145775  1
  O  O71  1  0.67395350  0.14654683  0.02597710  1
  O  O72  1  0.63457979  0.45859491  0.95802955  1
  O  O73  1  0.55374905  0.92643226  0.34980944  1
  O  O74  1  0.72017945  0.08110886  0.69791063  1
  O  O75  1  0.69685327  0.32026366  0.47335286  1
  O  O76  1  0.71978773  0.27150876  0.18342316  1
  O  O77  1  0.64908119  0.66328086  0.31409011  1
  O  O78  1  0.64506909  0.57956385  0.70681721  1
  O  O79  1  0.67374699  0.72308244  0.02067955  1
  O  O80  1  0.82625301  0.27691756  0.97932045  1
  O  O81  1  0.85493091  0.42043615  0.29318279  1
  O  O82  1  0.85091881  0.33671914  0.68590989  1
  O  O83  1  0.78021227  0.72849124  0.81657684  1
  O  O84  1  0.80314673  0.67973634  0.52664714  1
  O  O85  1  0.77982055  0.91889114  0.30208937  1
  O  O86  1  0.94625095  0.07356774  0.65019056  1
  O  O87  1  0.86542021  0.54140509  0.04197045  1
  O  O88  1  0.82604650  0.85345317  0.97402290  1
  O  O89  1  0.99055676  0.27010069  0.17854225  1
  O  O90  1  0.87894527  0.91618127  0.50694348  1
  O  O91  1  0.98376480  0.46660521  0.80767216  1
  O  O92  1  0.96155277  0.71646117  0.39362080  1
  O  O93  1  0.98229996  0.89797682  0.15348524  1
