# generated using pymatgen
data_LiMnPO4F
_symmetry_space_group_name_H-M   'P 1'
_cell_length_a   10.85759953
_cell_length_b   12.52220326
_cell_length_c   6.16141670
_cell_angle_alpha   90.00000000
_cell_angle_beta   90.00000000
_cell_angle_gamma   90.00000000
_symmetry_Int_Tables_number   1
_chemical_formula_structural   LiMnPO4F
_chemical_formula_sum   'Li8 Mn8 P8 O32 F8'
_cell_volume   837.71279634
_cell_formula_units_Z   8
loop_
 _symmetry_equiv_pos_site_id
 _symmetry_equiv_pos_as_xyz
  1  'x, y, z'
loop_
 _atom_site_type_symbol
 _atom_site_label
 _atom_site_symmetry_multiplicity
 _atom_site_fract_x
 _atom_site_fract_y
 _atom_site_fract_z
 _atom_site_occupancy
  Li  Li0  1  0.17244378  0.38612063  0.80134532  1
  Li  Li1  1  0.17244378  0.88612063  0.69865468  1
  Li  Li2  1  0.46538419  0.60575377  0.60137078  1
  Li  Li3  1  0.46538419  0.10575377  0.89862922  1
  Li  Li4  1  0.67244378  0.11387937  0.30134532  1
  Li  Li5  1  0.67244378  0.61387937  0.19865468  1
  Li  Li6  1  0.96538419  0.39424623  0.39862922  1
  Li  Li7  1  0.96538419  0.89424623  0.10137078  1
  Mn  Mn8  1  0.00453534  0.12209458  0.99080004  1
  Mn  Mn9  1  0.00453534  0.62209458  0.50919996  1
  Mn  Mn10  1  0.24684563  0.25813885  0.23581244  1
  Mn  Mn11  1  0.24684563  0.75813885  0.26418756  1
  Mn  Mn12  1  0.50453534  0.37790542  0.49080004  1
  Mn  Mn13  1  0.50453534  0.87790542  0.00919996  1
  Mn  Mn14  1  0.74684563  0.24186115  0.73581244  1
  Mn  Mn15  1  0.74684563  0.74186115  0.76418756  1
  P  P16  1  0.24134566  0.50465560  0.34942735  1
  P  P17  1  0.24134566  0.00465560  0.15057265  1
  P  P18  1  0.50223844  0.31530016  0.99127134  1
  P  P19  1  0.50223844  0.81530016  0.50872866  1
  P  P20  1  0.74134566  0.99534440  0.84942735  1
  P  P21  1  0.74134566  0.49534440  0.65057265  1
  P  P22  1  0.00223844  0.18469984  0.49127134  1
  P  P23  1  0.00223844  0.68469984  0.00872866  1
  O  O24  1  0.03029115  0.61086358  0.81625731  1
  O  O25  1  0.03029115  0.11086358  0.68374269  1
  O  O26  1  0.10402563  0.77023578  0.06047366  1
  O  O27  1  0.10402563  0.27023578  0.43952634  1
  O  O28  1  0.11913501  0.99773144  0.01044281  1
  O  O29  1  0.11913501  0.49773144  0.48955719  1
  O  O30  1  0.23938177  0.41172783  0.18102742  1
  O  O31  1  0.23938177  0.91172783  0.31897258  1
  O  O32  1  0.24382210  0.10771588  0.28539623  1
  O  O33  1  0.24382210  0.60771588  0.21460377  1
  O  O34  1  0.35103805  0.49611063  0.50473832  1
  O  O35  1  0.35103805  0.99611063  0.99526168  1
  O  O36  1  0.38837048  0.24231543  0.03331176  1
  O  O37  1  0.38837048  0.74231543  0.46668824  1
  O  O38  1  0.48154447  0.39040641  0.79789887  1
  O  O39  1  0.48154447  0.89040641  0.70210113  1
  O  O40  1  0.53029115  0.38913642  0.18374269  1
  O  O41  1  0.53029115  0.88913642  0.31625731  1
  O  O42  1  0.60402563  0.22976422  0.93952634  1
  O  O43  1  0.60402563  0.72976422  0.56047366  1
  O  O44  1  0.61913501  0.50226856  0.51044281  1
  O  O45  1  0.61913501  0.00226856  0.98955719  1
  O  O46  1  0.73938177  0.08827217  0.68102742  1
  O  O47  1  0.73938177  0.58827217  0.81897258  1
  O  O48  1  0.74382210  0.39228412  0.78539623  1
  O  O49  1  0.74382210  0.89228412  0.71460377  1
  O  O50  1  0.85103805  0.00388937  0.00473832  1
  O  O51  1  0.85103805  0.50388937  0.49526168  1
  O  O52  1  0.88837048  0.75768457  0.96668824  1
  O  O53  1  0.88837048  0.25768457  0.53331176  1
  O  O54  1  0.98154447  0.10959359  0.29789887  1
  O  O55  1  0.98154447  0.60959359  0.20210113  1
  F  F56  1  0.12974489  0.25921741  0.95859849  1
  F  F57  1  0.12974489  0.75921741  0.54140151  1
  F  F58  1  0.37985342  0.27028346  0.48616479  1
  F  F59  1  0.37985342  0.77028346  0.01383521  1
  F  F60  1  0.62974489  0.24078259  0.45859849  1
  F  F61  1  0.62974489  0.74078259  0.04140151  1
  F  F62  1  0.87985342  0.22971654  0.98616479  1
  F  F63  1  0.87985342  0.72971654  0.51383521  1
