# generated using pymatgen
data_LiMnSiO4
_symmetry_space_group_name_H-M   'P 1'
_cell_length_a   19.07208575
_cell_length_b   8.15525769
_cell_length_c   5.55631208
_cell_angle_alpha   90.00000000
_cell_angle_beta   90.00000000
_cell_angle_gamma   90.00000000
_symmetry_Int_Tables_number   1
_chemical_formula_structural   LiMnSiO4
_chemical_formula_sum   'Li12 Mn12 Si12 O48'
_cell_volume   864.21641244
_cell_formula_units_Z   12
loop_
 _symmetry_equiv_pos_site_id
 _symmetry_equiv_pos_as_xyz
  1  'x, y, z'
loop_
 _atom_site_type_symbol
 _atom_site_label
 _atom_site_symmetry_multiplicity
 _atom_site_fract_x
 _atom_site_fract_y
 _atom_site_fract_z
 _atom_site_occupancy
  Li  Li0  1  0.08318710  0.56259316  0.03668504  1
  Li  Li1  1  0.08394469  0.07341130  0.48301056  1
  Li  Li2  1  0.25022904  0.93014984  0.99802547  1
  Li  Li3  1  0.24977096  0.43014984  0.49802547  1
  Li  Li4  1  0.41605531  0.57341130  0.98301056  1
  Li  Li5  1  0.41681290  0.06259316  0.53668504  1
  Li  Li6  1  0.58318710  0.93740684  0.03668504  1
  Li  Li7  1  0.58394469  0.42658870  0.48301056  1
  Li  Li8  1  0.75022904  0.56985016  0.99802547  1
  Li  Li9  1  0.74977096  0.06985016  0.49802547  1
  Li  Li10  1  0.91605531  0.92658870  0.98301056  1
  Li  Li11  1  0.91681290  0.43740684  0.53668504  1
  Mn  Mn12  1  0.99912567  0.24807807  0.98516709  1
  Mn  Mn13  1  0.00087433  0.75192193  0.48516709  1
  Mn  Mn14  1  0.16696531  0.75071042  0.50981872  1
  Mn  Mn15  1  0.16687527  0.24847007  0.02236517  1
  Mn  Mn16  1  0.33312473  0.74847007  0.52236517  1
  Mn  Mn17  1  0.33303469  0.25071042  0.00981772  1
  Mn  Mn18  1  0.49912567  0.25192193  0.98516709  1
  Mn  Mn19  1  0.50087433  0.74807807  0.48516709  1
  Mn  Mn20  1  0.66696531  0.74928958  0.50981872  1
  Mn  Mn21  1  0.66687527  0.25152993  0.02236517  1
  Mn  Mn22  1  0.83312473  0.75152993  0.52236517  1
  Mn  Mn23  1  0.83303469  0.24928958  0.00981772  1
  Si  Si24  1  0.08287702  0.90318339  0.98504633  1
  Si  Si25  1  0.08332392  0.40450306  0.51106946  1
  Si  Si26  1  0.24964904  0.59612603  0.02211942  1
  Si  Si27  1  0.25035096  0.09612603  0.52211942  1
  Si  Si28  1  0.41667608  0.90450306  0.01106946  1
  Si  Si29  1  0.41712298  0.40318339  0.48504633  1
  Si  Si30  1  0.58287702  0.59681661  0.98504633  1
  Si  Si31  1  0.58332392  0.09549694  0.51106946  1
  Si  Si32  1  0.74964904  0.90387397  0.02211942  1
  Si  Si33  1  0.75035096  0.40387397  0.52211942  1
  Si  Si34  1  0.91667608  0.59549694  0.01106946  1
  Si  Si35  1  0.91712298  0.09681661  0.48504633  1
  O  O36  1  0.98802222  0.98394001  0.48091564  1
  O  O37  1  0.01197778  0.01605999  0.98091564  1
  O  O38  1  0.01285761  0.51883718  0.49694969  1
  O  O39  1  0.08039407  0.28014990  0.74873414  1
  O  O40  1  0.08660407  0.27954168  0.27315296  1
  O  O41  1  0.08301329  0.77258886  0.21120723  1
  O  O42  1  0.08296271  0.78778038  0.73207572  1
  O  O43  1  0.15341884  0.01703370  0.00740695  1
  O  O44  1  0.15392424  0.51828566  0.52004049  1
  O  O45  1  0.17951531  0.48059028  0.02310811  1
  O  O46  1  0.17953868  0.98351914  0.50934603  1
  O  O47  1  0.25126686  0.22641427  0.29605691  1
  O  O48  1  0.24982727  0.21366428  0.77369886  1
  O  O49  1  0.24873314  0.72641427  0.79605691  1
  O  O50  1  0.25017273  0.71366428  0.27369886  1
  O  O51  1  0.32046032  0.48351914  0.00934603  1
  O  O52  1  0.32048469  0.98059028  0.52310811  1
  O  O53  1  0.34607576  0.01828566  0.02004049  1
  O  O54  1  0.34658116  0.51703370  0.50740695  1
  O  O55  1  0.41703729  0.28778038  0.23207572  1
  O  O56  1  0.41698671  0.27258886  0.71120723  1
  O  O57  1  0.41339593  0.77954168  0.77315296  1
  O  O58  1  0.41960593  0.78014990  0.24873414  1
  O  O59  1  0.48714239  0.01883718  0.99694969  1
  O  O60  1  0.48802222  0.51605999  0.48091564  1
  O  O61  1  0.51197778  0.48394001  0.98091564  1
  O  O62  1  0.51285761  0.98116282  0.49694969  1
  O  O63  1  0.58039407  0.21985010  0.74873414  1
  O  O64  1  0.58660407  0.22045832  0.27315296  1
  O  O65  1  0.58301329  0.72741114  0.21120723  1
  O  O66  1  0.58296271  0.71221962  0.73207572  1
  O  O67  1  0.65341884  0.48296630  0.00740695  1
  O  O68  1  0.65392424  0.98171434  0.52004049  1
  O  O69  1  0.67951531  0.01940972  0.02310811  1
  O  O70  1  0.67953868  0.51648086  0.50934603  1
  O  O71  1  0.74982727  0.28633572  0.77369886  1
  O  O72  1  0.75126686  0.27358573  0.29605691  1
  O  O73  1  0.75017273  0.78633572  0.27369886  1
  O  O74  1  0.74873314  0.77358573  0.79605691  1
  O  O75  1  0.82046132  0.01648086  0.00934603  1
  O  O76  1  0.82048469  0.51940972  0.52310811  1
  O  O77  1  0.84607576  0.48171434  0.02004049  1
  O  O78  1  0.84658116  0.98296630  0.50740695  1
  O  O79  1  0.91703729  0.21221962  0.23207572  1
  O  O80  1  0.91698671  0.22741114  0.71120723  1
  O  O81  1  0.91339593  0.72045832  0.77315296  1
  O  O82  1  0.91960593  0.71985010  0.24873414  1
  O  O83  1  0.98714239  0.48116282  0.99694969  1
