# generated using pymatgen
data_Li3Fe2(PO4)3
_symmetry_space_group_name_H-M   'P 1'
_cell_length_a   9.78082679
_cell_length_b   9.78202882
_cell_length_c   9.78202864
_cell_angle_alpha   86.45220158
_cell_angle_beta   86.55111447
_cell_angle_gamma   86.55110950
_symmetry_Int_Tables_number   1
_chemical_formula_structural   Li3Fe2(PO4)3
_chemical_formula_sum   'Li12 Fe8 P12 O48'
_cell_volume   930.92594624
_cell_formula_units_Z   4
loop_
 _symmetry_equiv_pos_site_id
 _symmetry_equiv_pos_as_xyz
  1  'x, y, z'
loop_
 _atom_site_type_symbol
 _atom_site_label
 _atom_site_symmetry_multiplicity
 _atom_site_fract_x
 _atom_site_fract_y
 _atom_site_fract_z
 _atom_site_occupancy
  Li  Li0  1  0.14934910  0.03994645  0.72933264  1
  Li  Li1  1  0.27929218  0.82415324  0.98416063  1
  Li  Li2  1  0.35065090  0.77066736  0.46005355  1
  Li  Li3  1  0.22070782  0.51583937  0.67584676  1
  Li  Li4  1  0.49316658  0.51531715  0.46799020  1
  Li  Li5  1  0.00683342  0.03200980  0.98468285  1
  Li  Li6  1  0.48283391  0.34274020  0.76833576  1
  Li  Li7  1  0.01716609  0.73166424  0.15725980  1
  Li  Li8  1  0.75742395  0.49953814  0.33754473  1
  Li  Li9  1  0.65293829  0.24522474  0.50004558  1
  Li  Li10  1  0.74257605  0.16245527  0.00046186  1
  Li  Li11  1  0.84706171  -0.00004558  0.25477526  1
  Fe  Fe12  1  0.52894206  0.97183075  0.75012112  1
  Fe  Fe13  1  0.02650376  0.25515756  0.47906229  1
  Fe  Fe14  1  0.25000000  0.47033768  0.02966232  1
  Fe  Fe15  1  0.25000000  0.24772484  0.25227516  1
  Fe  Fe16  1  0.75000000  0.74920003  0.75079997  1
  Fe  Fe17  1  0.97105794  0.74987888  0.52816925  1
  Fe  Fe18  1  0.75000000  0.52674467  0.97325533  1
  Fe  Fe19  1  0.47349624  0.02093771  0.24484244  1
  P  P20  1  0.15096345  0.95009163  0.32754600  1
  P  P21  1  0.05182726  0.67332239  0.84807388  1
  P  P22  1  0.17240526  0.54958084  0.34848323  1
  P  P23  1  0.44817274  0.65192612  0.82667761  1
  P  P24  1  0.65294895  0.82096138  0.45039400  1
  P  P25  1  0.67687475  0.84665685  0.04905000  1
  P  P26  1  0.32759474  0.15151677  0.95041916  1
  P  P27  1  0.34903655  0.17245400  0.54990837  1
  P  P28  1  0.55058727  0.33972325  0.17982061  1
  P  P29  1  0.82312525  0.45095000  0.65334315  1
  P  P30  1  0.94941273  0.32017939  0.16027675  1
  P  P31  1  0.84705105  0.04960600  0.67903862  1
  O  O32  1  0.06886633  0.90535209  0.21130358  1
  O  O33  1  0.10694824  0.88235159  0.47000292  1
  O  O34  1  0.09616632  0.78752618  0.93318301  1
  O  O35  1  0.08824809  0.68994563  0.69060040  1
  O  O36  1  0.30812061  0.91267594  0.31085599  1
  O  O37  1  0.02903006  0.61739930  0.39052658  1
  O  O38  1  0.12172188  0.53112407  0.89053494  1
  O  O39  1  0.41175191  0.80939960  0.81005437  1
  O  O40  1  0.18722273  0.58512724  0.19075933  1
  O  O41  1  0.60331324  0.96151916  0.38173262  1
  O  O42  1  0.53231976  0.89182839  0.11008715  1
  O  O43  1  0.28622099  0.59480799  0.43343735  1
  O  O44  1  0.37827812  0.60946506  0.96887593  1
  O  O45  1  0.10937610  0.32680311  0.12503888  1
  O  O46  1  0.16913155  0.38910525  0.37915176  1
  O  O47  1  0.66975913  0.87720320  0.88732275  1
  O  O48  1  0.62365010  0.83298314  0.61136235  1
  O  O49  1  0.40383368  0.56681699  0.71247382  1
  O  O50  1  0.57438555  0.70014368  0.41226673  1
  O  O51  1  0.78947825  0.93476553  0.09139736  1
  O  O52  1  0.60789592  0.62414195  0.83481925  1
  O  O53  1  0.87634990  0.88863765  0.66701686  1
  O  O54  1  0.31277727  0.30924067  0.91487276  1
  O  O55  1  0.19187939  0.18914401  0.58732406  1
  O  O56  1  0.81032732  0.81038897  0.41178154  1
  O  O57  1  0.70508520  0.69175402  0.08412970  1
  O  O58  1  0.12146507  0.11005419  0.33397088  1
  O  O59  1  0.39062390  0.37496112  0.17319689  1
  O  O60  1  0.21377901  0.06656265  0.90519201  1
  O  O61  1  0.43113367  0.28869642  0.59464791  1
  O  O62  1  0.59824208  0.40131506  0.30771741  1
  O  O63  1  0.33086845  0.12084824  0.11089475  1
  O  O64  1  0.37853493  0.16602912  0.38994581  1
  O  O65  1  0.83024087  0.61267725  0.62279680  1
  O  O66  1  0.89210408  0.66518075  0.87585805  1
  O  O67  1  0.61777118  0.39375503  0.04068322  1
  O  O68  1  0.71052175  0.40860264  0.56523447  1
  O  O69  1  0.39305176  0.02999708  0.61764841  1
  O  O70  1  0.47096994  0.10947342  0.88260070  1
  O  O71  1  0.79491480  0.41587030  0.80824598  1
  O  O72  1  0.58540806  0.18170544  0.18266560  1
  O  O73  1  0.88222882  0.45931678  0.10624497  1
  O  O74  1  0.96768024  0.38991285  0.60817161  1
  O  O75  1  0.68967268  0.08821846  0.68961103  1
  O  O76  1  0.91459194  0.31733440  0.31829456  1
  O  O77  1  0.90175792  0.19228259  0.09868494  1
  O  O78  1  0.89668676  0.11826738  0.53848084  1
  O  O79  1  0.92561445  0.08773327  0.79985632  1
