# generated using pymatgen
data_Li2MnNi3O8
_symmetry_space_group_name_H-M   'P 1'
_cell_length_a   5.74502131
_cell_length_b   5.73977951
_cell_length_c   5.86382306
_cell_angle_alpha   60.69734081
_cell_angle_beta   61.00892176
_cell_angle_gamma   60.03017913
_symmetry_Int_Tables_number   1
_chemical_formula_structural   Li2MnNi3O8
_chemical_formula_sum   'Li2 Mn1 Ni3 O8'
_cell_volume   138.49345269
_cell_formula_units_Z   1
loop_
 _symmetry_equiv_pos_site_id
 _symmetry_equiv_pos_as_xyz
  1  'x, y, z'
loop_
 _atom_site_type_symbol
 _atom_site_label
 _atom_site_symmetry_multiplicity
 _atom_site_fract_x
 _atom_site_fract_y
 _atom_site_fract_z
 _atom_site_occupancy
  Li  Li0  1  0.00000000  0.00000000  0.50000000  1
  Li  Li1  1  0.00000000  0.50000000  0.50000000  1
  Mn  Mn2  1  0.50000000  0.00000000  0.00000000  1
  Ni  Ni3  1  0.50000000  0.50000000  0.00000000  1
  Ni  Ni4  1  0.00000000  0.00000000  0.00000000  1
  Ni  Ni5  1  0.00000000  0.50000000  0.00000000  1
  O  O6  1  0.75442859  0.74232981  0.78616950  1
  O  O7  1  0.75442859  0.21707209  0.78616950  1
  O  O8  1  0.21106609  0.74676945  0.79539501  1
  O  O9  1  0.22375460  0.23958366  0.79707807  1
  O  O10  1  0.77624540  0.76041634  0.20292193  1
  O  O11  1  0.78893391  0.25323055  0.20460499  1
  O  O12  1  0.24557141  0.78292791  0.21383050  1
  O  O13  1  0.24557141  0.25767019  0.21383050  1
