# generated using pymatgen
data_LiFeSiO4
_symmetry_space_group_name_H-M   'P 1'
_cell_length_a   5.26662347
_cell_length_b   5.97150863
_cell_length_c   11.35990603
_cell_angle_alpha   89.99942669
_cell_angle_beta   90.00028939
_cell_angle_gamma   89.99960728
_symmetry_Int_Tables_number   1
_chemical_formula_structural   LiFeSiO4
_chemical_formula_sum   'Li4 Fe4 Si4 O16'
_cell_volume   357.26549468
_cell_formula_units_Z   4
loop_
 _symmetry_equiv_pos_site_id
 _symmetry_equiv_pos_as_xyz
  1  'x, y, z'
loop_
 _atom_site_type_symbol
 _atom_site_label
 _atom_site_symmetry_multiplicity
 _atom_site_fract_x
 _atom_site_fract_y
 _atom_site_fract_z
 _atom_site_occupancy
  Li  Li0  1  0.19095257  0.01516595  0.33162474  1
  Li  Li1  1  0.30896222  0.01516660  0.83162497  1
  Li  Li2  1  0.80897068  0.51515401  0.66830776  1
  Li  Li3  1  0.69094666  0.51515554  0.16830691  1
  Fe  Fe4  1  0.18587184  0.24174220  0.57620742  1
  Fe  Fe5  1  0.81399459  0.74173874  0.42370908  1
  Fe  Fe6  1  0.68588844  0.74175281  0.92372783  1
  Fe  Fe7  1  0.31402733  0.24173593  0.07623371  1
  Si  Si8  1  0.68615722  0.24944469  0.41416981  1
  Si  Si9  1  0.31375419  0.74945632  0.58577633  1
  Si  Si10  1  0.18615886  0.74945006  0.08577267  1
  Si  Si11  1  0.81376575  0.24945271  0.91416628  1
  O  O12  1  0.37799852  0.22603072  0.43551475  1
  O  O13  1  0.62194322  0.72604009  0.56441880  1
  O  O14  1  0.87798798  0.72604405  0.06442655  1
  O  O15  1  0.12194015  0.22602740  0.93552695  1
  O  O16  1  0.83338510  0.27245260  0.54189179  1
  O  O17  1  0.16649450  0.77246666  0.45804747  1
  O  O18  1  0.33341006  0.77246507  0.95805687  1
  O  O19  1  0.66652602  0.27245388  0.04190107  1
  O  O20  1  0.78916386  0.02396672  0.34602235  1
  O  O21  1  0.25303783  0.97569193  0.66452821  1
  O  O22  1  0.24687731  0.97567868  0.16453347  1
  O  O23  1  0.71075421  0.02396680  0.84602439  1
  O  O24  1  0.21075906  0.52395931  0.65392098  1
  O  O25  1  0.74688127  0.47567716  0.33541453  1
  O  O26  1  0.75303075  0.47569619  0.83541936  1
  O  O27  1  0.28915981  0.52396716  0.15392497  1
