# generated using pymatgen
data_Li6Mg(Ni6O13)2
_symmetry_space_group_name_H-M   'P 1'
_cell_length_a   7.48631673
_cell_length_b   7.68266762
_cell_length_c   8.12835660
_cell_angle_alpha   78.06770190
_cell_angle_beta   75.35769129
_cell_angle_gamma   86.61706186
_symmetry_Int_Tables_number   1
_chemical_formula_structural   Li6Mg(Ni6O13)2
_chemical_formula_sum   'Li6 Mg1 Ni12 O26'
_cell_volume   442.53366723
_cell_formula_units_Z   1
loop_
 _symmetry_equiv_pos_site_id
 _symmetry_equiv_pos_as_xyz
  1  'x, y, z'
loop_
 _atom_site_type_symbol
 _atom_site_label
 _atom_site_symmetry_multiplicity
 _atom_site_fract_x
 _atom_site_fract_y
 _atom_site_fract_z
 _atom_site_occupancy
  Li  Li0  1  0.97614606  0.99247617  0.49411487  1
  Li  Li1  1  0.39597585  0.93343981  0.43725863  1
  Li  Li2  1  0.53111609  0.68568085  0.17748717  1
  Li  Li3  1  0.43562511  0.31570809  0.81202067  1
  Li  Li4  1  0.94577228  0.61211806  0.10964945  1
  Li  Li5  1  0.85430309  0.24973905  0.74662997  1
  Mg  Mg6  1  0.00468165  0.00119501  0.00167971  1
  Ni  Ni7  1  0.07666253  0.38480047  0.38171013  1
  Ni  Ni8  1  0.23410741  0.15224603  0.15534100  1
  Ni  Ni9  1  0.15294260  0.77271448  0.76825574  1
  Ni  Ni10  1  0.30319369  0.54405319  0.53774010  1
  Ni  Ni11  1  0.46185087  0.30707089  0.30938473  1
  Ni  Ni12  1  0.61774423  0.06907470  0.08031629  1
  Ni  Ni13  1  0.38716734  0.92150167  0.92137035  1
  Ni  Ni14  1  0.53705135  0.69379076  0.68998139  1
  Ni  Ni15  1  0.69179219  0.46115410  0.46162438  1
  Ni  Ni16  1  0.84672429  0.23155358  0.23216479  1
  Ni  Ni17  1  0.77097501  0.84380326  0.84321517  1
  Ni  Ni18  1  0.92151720  0.61308966  0.61490149  1
  O  O19  1  0.00302156  0.03719714  0.23975235  1
  O  O20  1  0.05683336  0.36920871  0.16185976  1
  O  O21  1  0.07931326  0.41204485  0.60666162  1
  O  O22  1  0.15256226  0.75108854  0.54167728  1
  O  O23  1  0.23987212  0.17969972  0.38122534  1
  O  O24  1  0.30741878  0.51125110  0.31088868  1
  O  O25  1  0.17224068  0.78629129  0.98794387  1
  O  O26  1  0.40573165  0.92784262  0.14888864  1
  O  O27  1  0.24923313  0.12900189  0.92793008  1
  O  O28  1  0.46354774  0.27228692  0.08486166  1
  O  O29  1  0.30342056  0.56564309  0.76123516  1
  O  O30  1  0.36726837  0.90857054  0.69808757  1
  O  O31  1  0.45795628  0.34163437  0.53599574  1
  O  O32  1  0.51409622  0.68186648  0.46675431  1
  O  O33  1  0.61700248  0.10156594  0.30562507  1
  O  O34  1  0.68246709  0.43715879  0.23743672  1
  O  O35  1  0.54520219  0.71883424  0.91276338  1
  O  O36  1  0.76312180  0.85868424  0.07196627  1
  O  O37  1  0.61492509  0.05170536  0.85259447  1
  O  O38  1  0.82820559  0.21028876  0.01033034  1
  O  O39  1  0.69795303  0.46879210  0.68542039  1
  O  O40  1  0.77273007  0.81638100  0.61873387  1
  O  O41  1  0.86834828  0.24516159  0.45633214  1
  O  O42  1  0.92203271  0.58057952  0.37423475  1
  O  O43  1  0.92903726  0.64870763  0.85486210  1
  O  O44  1  0.99025662  0.97130572  0.75824440  1
