# generated using pymatgen
data_Li3Co2(SiO4)2
_symmetry_space_group_name_H-M   'P 1'
_cell_length_a   6.43037030
_cell_length_b   5.33980382
_cell_length_c   5.05634744
_cell_angle_alpha   89.38062647
_cell_angle_beta   89.55685949
_cell_angle_gamma   89.72222134
_symmetry_Int_Tables_number   1
_chemical_formula_structural   Li3Co2(SiO4)2
_chemical_formula_sum   'Li3 Co2 Si2 O8'
_cell_volume   173.60206904
_cell_formula_units_Z   1
loop_
 _symmetry_equiv_pos_site_id
 _symmetry_equiv_pos_as_xyz
  1  'x, y, z'
loop_
 _atom_site_type_symbol
 _atom_site_label
 _atom_site_symmetry_multiplicity
 _atom_site_fract_x
 _atom_site_fract_y
 _atom_site_fract_z
 _atom_site_occupancy
  Li  Li0  1  0.00568508  0.82978665  0.50346874  1
  Li  Li1  1  0.49957643  0.18164933  0.00527766  1
  Li  Li2  1  0.75866690  0.65366830  0.99380983  1
  Co  Co3  1  0.01556961  0.17586381  0.00738969  1
  Co  Co4  1  0.50262576  0.82869057  0.50070232  1
  Si  Si5  1  0.25425563  0.67751487  0.00170070  1
  Si  Si6  1  0.75260694  0.31508509  0.51088876  1
  O  O7  1  0.03972773  0.81464793  0.89485968  1
  O  O8  1  0.26700228  0.73398037  0.32352888  1
  O  O9  1  0.25826138  0.38140572  0.94370790  1
  O  O10  1  0.47074661  0.81121353  0.87444099  1
  O  O11  1  0.54520093  0.16009390  0.40779719  1
  O  O12  1  0.73088887  0.61356918  0.40639307  1
  O  O13  1  0.75735173  0.31351612  0.83638529  1
  O  O14  1  0.95468611  0.17542263  0.38770931  1
