# generated using pymatgen
data_Li4Fe5(NiO6)2
_symmetry_space_group_name_H-M   'P 1'
_cell_length_a   5.17242000
_cell_length_b   8.87294043
_cell_length_c   9.76634947
_cell_angle_alpha   90.00000133
_cell_angle_beta   99.21343773
_cell_angle_gamma   90.00000586
_symmetry_Int_Tables_number   1
_chemical_formula_structural   Li4Fe5(NiO6)2
_chemical_formula_sum   'Li8 Fe10 Ni4 O24'
_cell_volume   442.43981980
_cell_formula_units_Z   2
loop_
 _symmetry_equiv_pos_site_id
 _symmetry_equiv_pos_as_xyz
  1  'x, y, z'
loop_
 _atom_site_type_symbol
 _atom_site_label
 _atom_site_symmetry_multiplicity
 _atom_site_fract_x
 _atom_site_fract_y
 _atom_site_fract_z
 _atom_site_occupancy
  Li  Li0  1  0.24177232  0.09369520  0.99532882  1
  Li  Li1  1  0.76286562  0.08411348  0.50676368  1
  Li  Li2  1  0.49043424  0.41628659  0.75297564  1
  Li  Li3  1  0.74822527  0.41033161  0.50538741  1
  Li  Li4  1  0.25822768  0.59369520  0.50467118  1
  Li  Li5  1  0.73713438  0.58411348  0.99323632  1
  Li  Li6  1  0.00956576  0.91628659  0.74702436  1
  Li  Li7  1  0.75177473  0.91033161  0.99461259  1
  Fe  Fe8  1  0.99542781  0.08158582  0.25232651  1
  Fe  Fe9  1  0.50252112  0.07812848  0.74674098  1
  Fe  Fe10  1  0.25800663  0.24854889  0.50598107  1
  Fe  Fe11  1  0.00892486  0.41975849  0.24621122  1
  Fe  Fe12  1  0.73846526  0.25714035  0.99012866  1
  Fe  Fe13  1  0.99747888  0.57812848  0.75325902  1
  Fe  Fe14  1  0.50457219  0.58158582  0.24767349  1
  Fe  Fe15  1  0.24199337  0.74854889  0.99401893  1
  Fe  Fe16  1  0.76153474  0.75714035  0.50987134  1
  Fe  Fe17  1  0.49107514  0.91975849  0.25378878  1
  Ni  Ni18  1  0.00472235  0.25148393  0.75379539  1
  Ni  Ni19  1  0.49615667  0.25314260  0.24352483  1
  Ni  Ni20  1  0.00384333  0.75314260  0.25647517  1
  Ni  Ni21  1  0.49527765  0.75148393  0.74620461  1
  O  O22  1  0.12812061  0.10352981  0.63781098  1
  O  O23  1  0.36036069  0.09166146  0.36347861  1
  O  O24  1  0.10132659  0.24604835  0.13018572  1
  O  O25  1  0.39624689  0.23251342  0.87352656  1
  O  O26  1  0.63723614  0.08422862  0.12978792  1
  O  O27  1  0.87276004  0.09943561  0.86783463  1
  O  O28  1  0.60641528  0.23827635  0.61810588  1
  O  O29  1  0.11305048  0.40390457  0.63406480  1
  O  O30  1  0.36518512  0.41642075  0.37008017  1
  O  O31  1  0.89451920  0.25184582  0.37283034  1
  O  O32  1  0.65162305  0.41807510  0.13076537  1
  O  O33  1  0.13963931  0.59166146  0.13652139  1
  O  O34  1  0.86605995  0.40468371  0.85954863  1
  O  O35  1  0.37187939  0.60352981  0.86218902  1
  O  O36  1  0.10375311  0.73251342  0.62647344  1
  O  O37  1  0.62723996  0.59943561  0.63216537  1
  O  O38  1  0.86276386  0.58422862  0.37021208  1
  O  O39  1  0.39867341  0.74604935  0.36981428  1
  O  O40  1  0.60548080  0.75184582  0.12716966  1
  O  O41  1  0.13481488  0.91642075  0.12991983  1
  O  O42  1  0.38694952  0.90390457  0.86593520  1
  O  O43  1  0.89358472  0.73827635  0.88189412  1
  O  O44  1  0.63394005  0.90468371  0.64045137  1
  O  O45  1  0.84837695  0.91807510  0.36923463  1
