# generated using pymatgen
data_Li2Cr2P4H3O16
_symmetry_space_group_name_H-M   'P 1'
_cell_length_a   4.90246671
_cell_length_b   8.07367603
_cell_length_c   7.47102932
_cell_angle_alpha   90.04683452
_cell_angle_beta   103.48804126
_cell_angle_gamma   89.11781355
_symmetry_Int_Tables_number   1
_chemical_formula_structural   Li2Cr2P4H3O16
_chemical_formula_sum   'Li2 Cr2 P4 H3 O16'
_cell_volume   287.51892216
_cell_formula_units_Z   1
loop_
 _symmetry_equiv_pos_site_id
 _symmetry_equiv_pos_as_xyz
  1  'x, y, z'
loop_
 _atom_site_type_symbol
 _atom_site_label
 _atom_site_symmetry_multiplicity
 _atom_site_fract_x
 _atom_site_fract_y
 _atom_site_fract_z
 _atom_site_occupancy
  Li  Li0  1  0.39343978  0.87180741  0.84808492  1
  Li  Li1  1  0.58996122  0.12495438  0.15243604  1
  Cr  Cr2  1  0.99932109  0.99856786  0.49874087  1
  Cr  Cr3  1  0.49875544  0.50001269  0.00134614  1
  P  P4  1  0.11066405  0.33785019  0.25322659  1
  P  P5  1  0.37255955  0.84285878  0.23679361  1
  P  P6  1  0.62406682  0.15970196  0.75535928  1
  P  P7  1  0.88501420  0.66120590  0.74894707  1
  H  H8  1  0.45589992  0.39874906  0.48204856  1
  H  H9  1  0.55063309  0.61793249  0.50975828  1
  H  H10  1  0.95660523  0.01348729  0.97932099  1
  O  O11  1  0.98784363  0.83172798  0.70087530  1
  O  O12  1  0.12955816  0.55127806  0.84291374  1
  O  O13  1  0.17944257  0.82976280  0.37323787  1
  O  O14  1  0.25372066  0.42394886  0.44103251  1
  O  O15  1  0.36700941  0.05627298  0.66092947  1
  O  O16  1  0.54693029  0.32997256  0.81512428  1
  O  O17  1  0.25401791  0.94687420  0.06260222  1
  O  O18  1  0.33249216  0.31875552  0.13584643  1
  O  O19  1  0.66441805  0.68184094  0.86703147  1
  O  O20  1  0.74925580  0.05355099  0.93751281  1
  O  O21  1  0.45066037  0.66643849  0.18940150  1
  O  O22  1  0.63634282  0.93996991  0.34250560  1
  O  O23  1  0.73937195  0.57188641  0.56255801  1
  O  O24  1  0.82833451  0.17049174  0.62944246  1
  O  O25  1  0.86712543  0.44873970  0.15871551  1
  O  O26  1  0.00308189  0.16720385  0.29727349  1
