# generated using pymatgen
data_Li3V3P8O29
_symmetry_space_group_name_H-M   'P 1'
_cell_length_a   9.80136838
_cell_length_b   9.78094303
_cell_length_c   14.15049975
_cell_angle_alpha   89.62055682
_cell_angle_beta   89.96706273
_cell_angle_gamma   59.92376321
_symmetry_Int_Tables_number   1
_chemical_formula_structural   Li3V3P8O29
_chemical_formula_sum   'Li6 V6 P16 O58'
_cell_volume   1173.88080493
_cell_formula_units_Z   2
loop_
 _symmetry_equiv_pos_site_id
 _symmetry_equiv_pos_as_xyz
  1  'x, y, z'
loop_
 _atom_site_type_symbol
 _atom_site_label
 _atom_site_symmetry_multiplicity
 _atom_site_fract_x
 _atom_site_fract_y
 _atom_site_fract_z
 _atom_site_occupancy
  Li  Li0  1  0.09387029  0.22385106  0.94263396  1
  Li  Li1  1  0.31018275  0.77822677  0.55654475  1
  Li  Li2  1  0.69288133  0.22502940  0.44161606  1
  Li  Li3  1  0.77385937  0.31099610  0.05792626  1
  Li  Li4  1  0.77258245  0.90762509  0.55849360  1
  Li  Li5  1  0.91478992  0.77549723  0.05813266  1
  V  V6  1  0.00193633  0.56538903  0.25698527  1
  V  V7  1  0.43116458  0.99956921  0.24685097  1
  V  V8  1  0.43144785  0.56602219  0.75526020  1
  V  V9  1  0.56200944  0.43815302  0.24795705  1
  V  V10  1  0.56327676  0.00400182  0.75659822  1
  V  V11  1  0.99482186  0.43522128  0.73986995  1
  P  P12  1  0.08526761  0.23385962  0.16029617  1
  P  P13  1  0.23303626  0.08349976  0.65782537  1
  P  P14  1  0.08735114  0.68618670  0.66026357  1
  P  P15  1  0.33879508  0.32802023  0.36926250  1
  P  P16  1  0.32677355  0.33444709  0.87077048  1
  P  P17  1  0.22500881  0.68759594  0.15763876  1
  P  P18  1  0.31647107  0.77148308  0.34017352  1
  P  P19  1  0.68363222  0.08672587  0.15841043  1
  P  P20  1  0.31415052  0.91403297  0.84241205  1
  P  P21  1  0.67932579  0.23113239  0.65939612  1
  P  P22  1  0.77271938  0.31707083  0.84020760  1
  P  P23  1  0.67112243  0.66611898  0.13061388  1
  P  P24  1  0.65883330  0.67438864  0.62920131  1
  P  P25  1  0.91337452  0.31315795  0.34355860  1
  P  P26  1  0.76594958  0.91437780  0.34155914  1
  P  P27  1  0.91437894  0.76400680  0.84184947  1
  O  O28  1  0.00039152  0.23565049  0.43021251  1
  O  O29  1  0.09019233  0.25525675  0.66541606  1
  O  O30  1  0.20863986  0.99932840  0.75009400  1
  O  O31  1  0.23447219  0.00299007  0.92821252  1
  O  O32  1  0.09372975  0.38509001  0.17938350  1
  O  O33  1  0.25361222  0.08897908  0.16566090  1
  O  O34  1  0.17995323  0.33257975  0.83036866  1
  O  O35  1  0.09727390  0.52215319  0.67533931  1
  O  O36  1  0.98744019  0.75703442  0.93389750  1
  O  O37  1  0.08121065  0.66084253  0.16360901  1
  O  O38  1  0.33982644  0.18256420  0.32295216  1
  O  O39  1  0.18724661  0.47809414  0.32594805  1
  O  O40  1  0.38464803  0.09159945  0.67804410  1
  O  O41  1  0.34425795  0.32744556  0.47369533  1
  O  O42  1  0.33568767  0.32985892  0.97514568  1
  O  O43  1  0.52362123  0.09383638  0.17493270  1
  O  O44  1  0.33254496  0.48140764  0.82543744  1
  O  O45  1  0.47782751  0.18508668  0.82549907  1
  O  O46  1  0.25650628  0.66182198  0.66110241  1
  O  O47  1  0.20404089  0.78786271  0.25353807  1
  O  O48  1  0.23837723  0.76202088  0.07061590  1
  O  O49  1  0.25403043  0.75679443  0.43215620  1
  O  O50  1  0.37994412  0.52379904  0.17978701  1
  O  O51  1  0.48889504  0.33065712  0.32737240  1
  O  O52  1  0.65805193  0.08400340  0.66517933  1
  O  O53  1  0.34343389  0.74307882  0.83430423  1
  O  O54  1  0.52074428  0.38405014  0.68130475  1
  O  O55  1  0.23944155  0.99608533  0.57204501  1
  O  O56  1  0.75743245  0.99716892  0.43186975  1
  O  O57  1  0.47872647  0.61844751  0.31808954  1
  O  O58  1  0.65956846  0.25686291  0.15917019  1
  O  O59  1  0.78480533  0.01045484  0.25511074  1
  O  O60  1  0.34179272  0.91468452  0.32936743  1
  O  O61  1  0.51201161  0.67082124  0.67120741  1
  O  O62  1  0.61881211  0.47953077  0.82096193  1
  O  O63  1  0.76275806  0.24783228  0.93146862  1
  O  O64  1  0.74920019  0.23958030  0.56845198  1
  O  O65  1  0.79019451  0.21002339  0.74982503  1
  O  O66  1  0.74251767  0.33945080  0.33707456  1
  O  O67  1  0.52383972  0.81435550  0.17488200  1
  O  O68  1  0.47673729  0.90508917  0.82485030  1
  O  O69  1  0.67042724  0.51336167  0.17145674  1
  O  O70  1  0.66479422  0.66926108  0.52448192  1
  O  O71  1  0.67401279  0.66207247  0.02586288  1
  O  O72  1  0.61527877  0.90595323  0.32306655  1
  O  O73  1  0.81248772  0.52123349  0.67322392  1
  O  O74  1  0.66557066  0.81934015  0.66998089  1
  O  O75  1  0.91919751  0.33836635  0.83426376  1
  O  O76  1  0.99207262  0.21312536  0.24723212  1
  O  O77  1  0.00082366  0.24556148  0.06968637  1
  O  O78  1  0.90554731  0.47623771  0.32296817  1
  O  O79  1  0.81970490  0.66619030  0.17290412  1
  O  O80  1  0.74509936  0.90920616  0.82958186  1
  O  O81  1  0.90708308  0.61319889  0.81774444  1
  O  O82  1  0.77109743  0.99289478  0.07539484  1
  O  O83  1  0.91163534  0.74598409  0.33450646  1
  O  O84  1  0.99233375  0.77125533  0.57624486  1
  O  O85  1  0.01140009  0.78423294  0.75621986  1
