# generated using pymatgen
data_Li3Mn2F7
_symmetry_space_group_name_H-M   'P 1'
_cell_length_a   7.59856064
_cell_length_b   10.87448271
_cell_length_c   8.00691624
_cell_angle_alpha   90.00000000
_cell_angle_beta   71.55537996
_cell_angle_gamma   90.00000000
_symmetry_Int_Tables_number   1
_chemical_formula_structural   Li3Mn2F7
_chemical_formula_sum   'Li12 Mn8 F28'
_cell_volume   627.62760704
_cell_formula_units_Z   4
loop_
 _symmetry_equiv_pos_site_id
 _symmetry_equiv_pos_as_xyz
  1  'x, y, z'
loop_
 _atom_site_type_symbol
 _atom_site_label
 _atom_site_symmetry_multiplicity
 _atom_site_fract_x
 _atom_site_fract_y
 _atom_site_fract_z
 _atom_site_occupancy
  Li  Li0  1  0.04166480  0.91549339  0.20962499  1
  Li  Li1  1  0.11767014  0.29323611  0.52825394  1
  Li  Li2  1  0.19463327  0.59623037  0.69521516  1
  Li  Li3  1  0.45833520  0.41549339  0.29037501  1
  Li  Li4  1  0.61767014  0.20676389  0.02825394  1
  Li  Li5  1  0.30536673  0.09623037  0.80478484  1
  Li  Li6  1  0.69463327  0.90376963  0.19521516  1
  Li  Li7  1  0.38232986  0.79323611  0.97174606  1
  Li  Li8  1  0.54166480  0.58450661  0.70962499  1
  Li  Li9  1  0.80536673  0.40376963  0.30478484  1
  Li  Li10  1  0.88232986  0.70676389  0.47174606  1
  Li  Li11  1  0.95833520  0.08450661  0.79037501  1
  Mn  Mn12  1  0.14734799  0.22127599  0.14489740  1
  Mn  Mn13  1  0.11634282  0.58359564  0.11553101  1
  Mn  Mn14  1  0.38365718  0.08359564  0.38446899  1
  Mn  Mn15  1  0.35265201  0.72127599  0.35510260  1
  Mn  Mn16  1  0.64734799  0.27872401  0.64489740  1
  Mn  Mn17  1  0.61634282  0.91640436  0.61553101  1
  Mn  Mn18  1  0.88365718  0.41640436  0.88446899  1
  Mn  Mn19  1  0.85265201  0.77872401  0.85510260  1
  F  F20  1  0.18400113  0.04538318  0.25468827  1
  F  F21  1  0.18489385  0.13601550  0.61710182  1
  F  F22  1  0.18419128  0.77003901  0.19869814  1
  F  F23  1  0.07627060  0.71915698  0.58503331  1
  F  F24  1  0.94283681  0.60624800  0.92845869  1
  F  F25  1  0.12030954  0.42865043  0.67142692  1
  F  F26  1  0.05889981  0.12593123  0.96982705  1
  F  F27  1  0.31580872  0.27003901  0.30130186  1
  F  F28  1  0.31599887  0.54538318  0.24531173  1
  F  F29  1  0.68489385  0.36398450  0.11710182  1
  F  F30  1  0.44110019  0.62593123  0.53017295  1
  F  F31  1  0.57627060  0.78084302  0.08503331  1
  F  F32  1  0.37969046  0.92865043  0.82857308  1
  F  F33  1  0.44283681  0.89375200  0.42845869  1
  F  F34  1  0.55716319  0.10624800  0.57154131  1
  F  F35  1  0.62030954  0.07134957  0.17142692  1
  F  F36  1  0.42372940  0.21915698  0.91496669  1
  F  F37  1  0.55889981  0.37406877  0.46982705  1
  F  F38  1  0.31510615  0.63601550  0.88289818  1
  F  F39  1  0.68400113  0.45461682  0.75468827  1
  F  F40  1  0.68419128  0.72996099  0.69869814  1
  F  F41  1  0.94110019  0.87406877  0.03017295  1
  F  F42  1  0.87969046  0.57134957  0.32857308  1
  F  F43  1  0.05716319  0.39375200  0.07154131  1
  F  F44  1  0.92372940  0.28084302  0.41496669  1
  F  F45  1  0.81580872  0.22996099  0.80130186  1
  F  F46  1  0.81510615  0.86398450  0.38289818  1
  F  F47  1  0.81599887  0.95461682  0.74531173  1
