# generated using pymatgen
data_Mn3(O2F)2
_symmetry_space_group_name_H-M   'P 1'
_cell_length_a   4.71234556
_cell_length_b   7.72585534
_cell_length_c   5.54310166
_cell_angle_alpha   95.84292269
_cell_angle_beta   94.93195642
_cell_angle_gamma   85.26384908
_symmetry_Int_Tables_number   1
_chemical_formula_structural   Mn3(O2F)2
_chemical_formula_sum   'Mn6 O8 F4'
_cell_volume   199.45990802
_cell_formula_units_Z   2
loop_
 _symmetry_equiv_pos_site_id
 _symmetry_equiv_pos_as_xyz
  1  'x, y, z'
loop_
 _atom_site_type_symbol
 _atom_site_label
 _atom_site_symmetry_multiplicity
 _atom_site_fract_x
 _atom_site_fract_y
 _atom_site_fract_z
 _atom_site_occupancy
  Mn  Mn0  1  0.51955613  0.00534383  0.48904975  1
  Mn  Mn1  1  0.49347458  0.66425884  0.17106706  1
  Mn  Mn2  1  0.51806529  0.33922770  0.81740956  1
  Mn  Mn3  1  0.98709819  0.65688451  0.66953459  1
  Mn  Mn4  1  0.98082513  0.32475655  0.34121437  1
  Mn  Mn5  1  0.99921792  0.00561825  0.00873509  1
  O  O6  1  0.80016662  0.42862339  0.61941474  1
  O  O7  1  0.82332157  0.11147048  0.28984592  1
  O  O8  1  0.69423630  0.10546663  0.79699273  1
  O  O9  1  0.69678094  0.76560716  0.46625240  1
  O  O10  1  0.70536677  0.43644237  0.12176628  1
  O  O11  1  0.30610902  0.56526778  0.86407021  1
  O  O12  1  0.30195651  0.23234847  0.53789005  1
  O  O13  1  0.30929920  0.89902397  0.20510135  1
  F  F14  1  0.80539237  0.76213315  0.96072028  1
  F  F15  1  0.17828741  0.55423307  0.37464020  1
  F  F16  1  0.20310779  0.24876820  0.04956960  1
  F  F17  1  0.17773926  0.89452566  0.71672581  1
