# generated using pymatgen
data_Mn3O5F
_symmetry_space_group_name_H-M   'P 1'
_cell_length_a   4.56448210
_cell_length_b   7.52851118
_cell_length_c   5.46589653
_cell_angle_alpha   93.94518125
_cell_angle_beta   91.95567707
_cell_angle_gamma   88.73389987
_symmetry_Int_Tables_number   1
_chemical_formula_structural   Mn3O5F
_chemical_formula_sum   'Mn6 O10 F2'
_cell_volume   187.23775291
_cell_formula_units_Z   2
loop_
 _symmetry_equiv_pos_site_id
 _symmetry_equiv_pos_as_xyz
  1  'x, y, z'
loop_
 _atom_site_type_symbol
 _atom_site_label
 _atom_site_symmetry_multiplicity
 _atom_site_fract_x
 _atom_site_fract_y
 _atom_site_fract_z
 _atom_site_occupancy
  Mn  Mn0  1  0.49483022  0.99821878  0.50401534  1
  Mn  Mn1  1  0.51431284  0.67103803  0.15710001  1
  Mn  Mn2  1  0.51563634  0.33972461  0.82353739  1
  Mn  Mn3  1  0.99681635  0.67153188  0.67364102  1
  Mn  Mn4  1  0.97762649  0.32338105  0.34643964  1
  Mn  Mn5  1  0.99535280  0.99446681  0.99978938  1
  O  O6  1  0.80422756  0.43881981  0.63372170  1
  O  O7  1  0.80835635  0.76936812  0.96122255  1
  O  O8  1  0.80257192  0.09800412  0.29515017  1
  O  O9  1  0.69448708  0.10363495  0.79628573  1
  O  O10  1  0.69405079  0.76802624  0.46354129  1
  O  O11  1  0.69818068  0.43474052  0.12827819  1
  O  O12  1  0.30489581  0.56446194  0.87108007  1
  O  O13  1  0.30679681  0.23307327  0.53423927  1
  O  O14  1  0.30577936  0.89760836  0.20363088  1
  O  O15  1  0.19279060  0.89813204  0.70641301  1
  F  F16  1  0.19284967  0.56185124  0.36908166  1
  F  F17  1  0.20043931  0.23392123  0.03283372  1
