# generated using pymatgen
data_LaCo5H4
_symmetry_space_group_name_H-M   'P 1'
_cell_length_a   4.04160293
_cell_length_b   5.44736264
_cell_length_c   5.22630343
_cell_angle_alpha   121.40933666
_cell_angle_beta   90.00000000
_cell_angle_gamma   90.00000000
_symmetry_Int_Tables_number   1
_chemical_formula_structural   LaCo5H4
_chemical_formula_sum   'La1 Co5 H4'
_cell_volume   98.20208710
_cell_formula_units_Z   1
loop_
 _symmetry_equiv_pos_site_id
 _symmetry_equiv_pos_as_xyz
  1  'x, y, z'
loop_
 _atom_site_type_symbol
 _atom_site_label
 _atom_site_symmetry_multiplicity
 _atom_site_fract_x
 _atom_site_fract_y
 _atom_site_fract_z
 _atom_site_occupancy
  La  La0  1  0.50000000  0.50000000  0.00000000  1
  Co  Co1  1  0.50000000  0.13452258  0.26904516  1
  Co  Co2  1  0.50000000  0.86547742  0.73095484  1
  Co  Co3  1  0.00000000  0.50000000  0.50000000  1
  Co  Co4  1  0.00000000  0.00000000  0.50000000  1
  Co  Co5  1  0.00000000  0.00000000  0.00000000  1
  H  H6  1  0.00000000  0.35290886  0.70581772  1
  H  H7  1  0.00000000  0.64709114  0.29418228  1
  H  H8  1  0.50000000  0.50000000  0.50000000  1
  H  H9  1  0.50000000  0.00000000  0.50000000  1
