# generated using pymatgen
data_Li3V3P8O29
_symmetry_space_group_name_H-M   'P 1'
_cell_length_a   9.78464986
_cell_length_b   9.78554214
_cell_length_c   14.04408050
_cell_angle_alpha   90.05475764
_cell_angle_beta   90.06457367
_cell_angle_gamma   59.85820421
_symmetry_Int_Tables_number   1
_chemical_formula_structural   Li3V3P8O29
_chemical_formula_sum   'Li6 V6 P16 O58'
_cell_volume   1162.87087937
_cell_formula_units_Z   2
loop_
 _symmetry_equiv_pos_site_id
 _symmetry_equiv_pos_as_xyz
  1  'x, y, z'
loop_
 _atom_site_type_symbol
 _atom_site_label
 _atom_site_symmetry_multiplicity
 _atom_site_fract_x
 _atom_site_fract_y
 _atom_site_fract_z
 _atom_site_occupancy
  Li  Li0  1  0.22490133  0.68925699  0.94152158  1
  Li  Li1  1  0.31065387  0.77864682  0.55561294  1
  Li  Li2  1  0.68853481  0.22521987  0.44149168  1
  Li  Li3  1  0.77843486  0.31139556  0.05562359  1
  Li  Li4  1  0.77343644  0.90634752  0.55805902  1
  Li  Li5  1  0.90593905  0.77367785  0.05783504  1
  V  V6  1  0.00200161  0.56256628  0.25664036  1
  V  V7  1  0.42924164  0.00113867  0.24640463  1
  V  V8  1  0.43570457  0.56615911  0.74948267  1
  V  V9  1  0.56584789  0.43569445  0.24953341  1
  V  V10  1  0.56255994  0.00211959  0.75674529  1
  V  V11  1  0.00132728  0.42914813  0.74627556  1
  P  P12  1  0.08363332  0.23173786  0.15830963  1
  P  P13  1  0.23182929  0.08362342  0.65827974  1
  P  P14  1  0.08634446  0.68381950  0.65755888  1
  P  P15  1  0.33786813  0.32929001  0.37070872  1
  P  P16  1  0.32935914  0.33817510  0.87072534  1
  P  P17  1  0.22702268  0.68166956  0.15879553  1
  P  P18  1  0.31668809  0.77286323  0.34046184  1
  P  P19  1  0.68384037  0.08636212  0.15760690  1
  P  P20  1  0.31181653  0.91600023  0.84516435  1
  P  P21  1  0.68166098  0.22703013  0.65887672  1
  P  P22  1  0.77303528  0.31669699  0.84035790  1
  P  P23  1  0.66920424  0.66644195  0.12961657  1
  P  P24  1  0.66627181  0.66933167  0.62952853  1
  P  P25  1  0.91602181  0.31171655  0.34531391  1
  P  P26  1  0.76634568  0.91384124  0.34112596  1
  P  P27  1  0.91387826  0.76616462  0.84106694  1
  O  O28  1  0.99909218  0.23856151  0.43439159  1
  O  O29  1  0.08855072  0.25436086  0.66433960  1
  O  O30  1  0.20881018  0.99905806  0.75096998  1
  O  O31  1  0.23839116  0.99918035  0.93432314  1
  O  O32  1  0.09240171  0.38423069  0.17863336  1
  O  O33  1  0.25432087  0.08828346  0.16451973  1
  O  O34  1  0.18426606  0.33737663  0.82426716  1
  O  O35  1  0.09511235  0.52297147  0.67473607  1
  O  O36  1  0.99829848  0.75711755  0.93202526  1
  O  O37  1  0.08023835  0.66091314  0.16325816  1
  O  O38  1  0.33750874  0.18413987  0.32406518  1
  O  O39  1  0.18702699  0.47954274  0.32702717  1
  O  O40  1  0.38435010  0.09226690  0.67870773  1
  O  O41  1  0.34360656  0.32947037  0.47608523  1
  O  O42  1  0.33002974  0.34421919  0.97609556  1
  O  O43  1  0.52313054  0.09477372  0.17473130  1
  O  O44  1  0.32977347  0.48987987  0.82856253  1
  O  O45  1  0.47967375  0.18698177  0.82723708  1
  O  O46  1  0.25595726  0.66108004  0.65917508  1
  O  O47  1  0.20714468  0.79062284  0.24991494  1
  O  O48  1  0.24108793  0.74946218  0.06764010  1
  O  O49  1  0.24951485  0.75768809  0.43134367  1
  O  O50  1  0.38051799  0.51995159  0.18045706  1
  O  O51  1  0.48956345  0.33012827  0.32884423  1
  O  O52  1  0.66058668  0.08045696  0.66356935  1
  O  O53  1  0.33752967  0.74437921  0.83753702  1
  O  O54  1  0.52017771  0.38073840  0.68040898  1
  O  O55  1  0.24253087  0.99403771  0.57123561  1
  O  O56  1  0.75714411  0.99828423  0.43210388  1
  O  O57  1  0.47901747  0.61826270  0.31952121  1
  O  O58  1  0.66087675  0.25605666  0.15912669  1
  O  O59  1  0.78680798  0.00825803  0.25394085  1
  O  O60  1  0.34161644  0.91584750  0.33208484  1
  O  O61  1  0.51314910  0.67056813  0.67164863  1
  O  O62  1  0.61846873  0.47903125  0.81943605  1
  O  O63  1  0.75814349  0.24972063  0.93134186  1
  O  O64  1  0.74938228  0.24054039  0.56756696  1
  O  O65  1  0.79096516  0.20687420  0.74990156  1
  O  O66  1  0.74431390  0.33751426  0.33754721  1
  O  O67  1  0.52067807  0.81424528  0.17425356  1
  O  O68  1  0.47643775  0.90439160  0.82380159  1
  O  O69  1  0.66973444  0.51358696  0.17136445  1
  O  O70  1  0.66128313  0.66933025  0.52379065  1
  O  O71  1  0.66986712  0.66223198  0.02386874  1
  O  O72  1  0.61516388  0.90616154  0.32244800  1
  O  O73  1  0.81419556  0.52067199  0.67408572  1
  O  O74  1  0.66792549  0.81819765  0.67047492  1
  O  O75  1  0.91603045  0.34161524  0.83176234  1
  O  O76  1  0.99885868  0.20890207  0.25098576  1
  O  O77  1  0.99416257  0.24237078  0.07127943  1
  O  O78  1  0.90464693  0.47626291  0.32386042  1
  O  O79  1  0.81815609  0.66757069  0.17095516  1
  O  O80  1  0.74528699  0.91166621  0.83472695  1
  O  O81  1  0.90631639  0.61497483  0.82235620  1
  O  O82  1  0.76999025  0.99267511  0.07291360  1
  O  O83  1  0.91195098  0.74533498  0.33466389  1
  O  O84  1  0.99271065  0.76993050  0.57281664  1
  O  O85  1  0.00791976  0.78688501  0.75378811  1
