# generated using pymatgen
data_Fe7(SiO6)2
_symmetry_space_group_name_H-M   'P 1'
_cell_length_a   5.94035961
_cell_length_b   5.94035961
_cell_length_c   13.39883522
_cell_angle_alpha   102.65813116
_cell_angle_beta   77.34186884
_cell_angle_gamma   90.02417826
_symmetry_Int_Tables_number   1
_chemical_formula_structural   Fe7(SiO6)2
_chemical_formula_sum   'Fe14 Si4 O24'
_cell_volume   449.54907705
_cell_formula_units_Z   2
loop_
 _symmetry_equiv_pos_site_id
 _symmetry_equiv_pos_as_xyz
  1  'x, y, z'
loop_
 _atom_site_type_symbol
 _atom_site_label
 _atom_site_symmetry_multiplicity
 _atom_site_fract_x
 _atom_site_fract_y
 _atom_site_fract_z
 _atom_site_occupancy
  Fe  Fe0  1  0.70819231  0.54173680  0.08334876  1
  Fe  Fe1  1  0.20813335  0.54160566  0.08344964  1
  Fe  Fe2  1  0.87485408  0.87671627  0.24692998  1
  Fe  Fe3  1  0.87514757  0.36895056  0.24654966  1
  Fe  Fe4  1  0.33429806  0.66790277  0.33340476  1
  Fe  Fe5  1  0.54382735  0.20819318  0.41952030  1
  Fe  Fe6  1  0.03569943  0.20847453  0.42017536  1
  Fe  Fe7  1  0.20839434  0.54186665  0.58344964  1
  Fe  Fe8  1  0.20826320  0.04180769  0.58334876  1
  Fe  Fe9  1  0.38104944  0.87485243  0.74654966  1
  Fe  Fe10  1  0.87328373  0.87514592  0.74692998  1
  Fe  Fe11  1  0.08209723  0.41570194  0.83340476  1
  Fe  Fe12  1  0.54180682  0.20617265  0.91952030  1
  Fe  Fe13  1  0.54152547  0.71430057  0.92017536  1
  Si  Si14  1  0.00573026  0.99847407  0.99712569  1
  Si  Si15  1  0.41101074  0.08475819  0.16949368  1
  Si  Si16  1  0.75152593  0.74426974  0.49712569  1
  Si  Si17  1  0.66524181  0.33898926  0.66949368  1
  O  O18  1  0.97141367  0.80543075  0.07371050  1
  O  O19  1  0.97155704  0.26788981  0.07342650  1
  O  O20  1  0.44524896  0.27784695  0.09290736  1
  O  O21  1  0.44518181  0.81545604  0.09313504  1
  O  O22  1  0.14371762  0.12307959  0.24602854  1
  O  O23  1  0.60642025  0.12198925  0.24392404  1
  O  O24  1  0.12570141  0.61941974  0.23886089  1
  O  O25  1  0.63500093  0.62163610  0.24353705  1
  O  O26  1  0.28800137  0.96832827  0.42330943  1
  O  O27  1  0.28591454  0.45885618  0.42776384  1
  O  O28  1  0.78881454  0.93990068  0.42278902  1
  O  O29  1  0.78991477  0.47713570  0.42061198  1
  O  O30  1  0.94456925  0.77858633  0.57371050  1
  O  O31  1  0.48211019  0.77844296  0.57342650  1
  O  O32  1  0.93454396  0.30481819  0.59313504  1
  O  O33  1  0.47215305  0.30475104  0.59290736  1
  O  O34  1  0.62801075  0.14357975  0.74392404  1
  O  O35  1  0.62692041  0.60628238  0.74602854  1
  O  O36  1  0.12836390  0.11499907  0.74353705  1
  O  O37  1  0.13058026  0.62429859  0.73886089  1
  O  O38  1  0.29114382  0.46408546  0.92776384  1
  O  O39  1  0.78167173  0.46199863  0.92330943  1
  O  O40  1  0.27286430  0.96008523  0.92061198  1
  O  O41  1  0.81009932  0.96118546  0.92278902  1
