# generated using pymatgen
data_Li2MnF5
_symmetry_space_group_name_H-M   'P 1'
_cell_length_a   9.92916925
_cell_length_b   5.13619843
_cell_length_c   7.41644969
_cell_angle_alpha   90.00000000
_cell_angle_beta   109.71572462
_cell_angle_gamma   90.00000000
_symmetry_Int_Tables_number   1
_chemical_formula_structural   Li2MnF5
_chemical_formula_sum   'Li8 Mn4 F20'
_cell_volume   356.05312748
_cell_formula_units_Z   4
loop_
 _symmetry_equiv_pos_site_id
 _symmetry_equiv_pos_as_xyz
  1  'x, y, z'
loop_
 _atom_site_type_symbol
 _atom_site_label
 _atom_site_symmetry_multiplicity
 _atom_site_fract_x
 _atom_site_fract_y
 _atom_site_fract_z
 _atom_site_occupancy
  Li  Li0  1  0.25458457  0.25523065  0.52799646  1
  Li  Li1  1  0.25458457  0.24476935  0.02799646  1
  Li  Li2  1  0.51927763  0.69847753  0.62282181  1
  Li  Li3  1  0.48072237  0.19847753  0.87717819  1
  Li  Li4  1  0.51927763  0.80152247  0.12282181  1
  Li  Li5  1  0.48072237  0.30152247  0.37717819  1
  Li  Li6  1  0.74541543  0.75523065  0.97200354  1
  Li  Li7  1  0.74541543  0.74476935  0.47200354  1
  Mn  Mn8  1  0.14317180  0.75522060  0.78576895  1
  Mn  Mn9  1  0.14317180  0.74477940  0.28576895  1
  Mn  Mn10  1  0.85682820  0.25522060  0.71423105  1
  Mn  Mn11  1  0.85682820  0.24477940  0.21423105  1
  F  F12  1  0.03546226  0.42403525  0.83300541  1
  F  F13  1  0.03546226  0.07596475  0.33300541  1
  F  F14  1  0.14317708  0.59095293  0.53858613  1
  F  F15  1  0.14317708  0.90904707  0.03858613  1
  F  F16  1  0.24400240  0.07316916  0.75880935  1
  F  F17  1  0.30808231  0.57890465  0.91804531  1
  F  F18  1  0.24400240  0.42683084  0.25880935  1
  F  F19  1  0.30808231  0.92109535  0.41804531  1
  F  F20  1  0.44695125  0.35706855  0.62886346  1
  F  F21  1  0.44695125  0.14293145  0.12886346  1
  F  F22  1  0.55304875  0.85706855  0.87113654  1
  F  F23  1  0.55304875  0.64293145  0.37113654  1
  F  F24  1  0.69191769  0.07890465  0.58195469  1
  F  F25  1  0.75599760  0.57316916  0.74119065  1
  F  F26  1  0.69191769  0.42109535  0.08195469  1
  F  F27  1  0.75599760  0.92683084  0.24119065  1
  F  F28  1  0.85682292  0.09095293  0.96141387  1
  F  F29  1  0.85682292  0.40904707  0.46141387  1
  F  F30  1  0.96453774  0.92403525  0.66699459  1
  F  F31  1  0.96453774  0.57596475  0.16699459  1
