# generated using pymatgen
data_LiCoGeO4
_symmetry_space_group_name_H-M   'P 1'
_cell_length_a   5.14067099
_cell_length_b   6.60476569
_cell_length_c   5.42989946
_cell_angle_alpha   90.00000000
_cell_angle_beta   90.00000000
_cell_angle_gamma   89.84113200
_symmetry_Int_Tables_number   1
_chemical_formula_structural   LiCoGeO4
_chemical_formula_sum   'Li2 Co2 Ge2 O8'
_cell_volume   184.36027328
_cell_formula_units_Z   2
loop_
 _symmetry_equiv_pos_site_id
 _symmetry_equiv_pos_as_xyz
  1  'x, y, z'
loop_
 _atom_site_type_symbol
 _atom_site_label
 _atom_site_symmetry_multiplicity
 _atom_site_fract_x
 _atom_site_fract_y
 _atom_site_fract_z
 _atom_site_occupancy
  Li  Li0  1  0.50084619  0.99636707  0.82977372  1
  Li  Li1  1  0.00084619  0.49636707  0.17022628  1
  Co  Co2  1  0.00131422  0.00281533  0.16933024  1
  Co  Co3  1  0.50131422  0.50281533  0.83066976  1
  Ge  Ge4  1  0.00334282  0.24629331  0.67999028  1
  Ge  Ge5  1  0.50334282  0.74629331  0.32000972  1
  O  O6  1  0.34538442  0.26092490  0.72834788  1
  O  O7  1  0.38825427  0.53026068  0.15717034  1
  O  O8  1  0.43498669  0.73293016  0.63866028  1
  O  O9  1  0.36184740  0.96053955  0.17384023  1
  O  O10  1  0.84538442  0.76092490  0.27165212  1
  O  O11  1  0.88825427  0.03026068  0.84282966  1
  O  O12  1  0.93498669  0.23293016  0.36133972  1
  O  O13  1  0.86184740  0.46053955  0.82615977  1
