# generated using pymatgen
data_LiP4WO12
_symmetry_space_group_name_H-M   'P 1'
_cell_length_a   6.97315930
_cell_length_b   8.92632313
_cell_length_c   7.48051602
_cell_angle_alpha   90.00000000
_cell_angle_beta   96.29700813
_cell_angle_gamma   90.00000000
_symmetry_Int_Tables_number   1
_chemical_formula_structural   LiP4WO12
_chemical_formula_sum   'Li2 P8 W2 O24'
_cell_volume   462.81302831
_cell_formula_units_Z   2
loop_
 _symmetry_equiv_pos_site_id
 _symmetry_equiv_pos_as_xyz
  1  'x, y, z'
loop_
 _atom_site_type_symbol
 _atom_site_label
 _atom_site_symmetry_multiplicity
 _atom_site_fract_x
 _atom_site_fract_y
 _atom_site_fract_z
 _atom_site_occupancy
  Li  Li0  1  0.30267662  0.51780852  0.68056803  1
  Li  Li1  1  0.69732338  0.01780852  0.31943197  1
  P  P2  1  0.03663052  0.11556986  0.60504448  1
  P  P3  1  0.07300409  0.83145824  0.08948164  1
  P  P4  1  0.42454754  0.98064522  0.61660009  1
  P  P5  1  0.42438188  0.64693902  0.05310998  1
  P  P6  1  0.57561812  0.14693902  0.94689002  1
  P  P7  1  0.57545246  0.48064522  0.38339991  1
  P  P8  1  0.92699591  0.33145824  0.91051836  1
  P  P9  1  0.96336948  0.61556986  0.39495552  1
  W  W10  1  0.25538797  0.18063446  0.24400192  1
  W  W11  1  0.74461203  0.68063446  0.75599808  1
  O  O12  1  0.00441161  0.20216944  0.78753623  1
  O  O13  1  0.96364309  0.81526958  0.90650051  1
  O  O14  1  0.12795949  0.22541630  0.48601078  1
  O  O15  1  0.07341759  0.98205806  0.17982322  1
  O  O16  1  0.20709055  0.99273844  0.66990629  1
  O  O17  1  0.14142373  0.53614611  0.46472624  1
  O  O18  1  0.29864207  0.79656714  0.07642686  1
  O  O19  1  0.31700165  0.53430517  0.93602835  1
  O  O20  1  0.43471825  0.02250908  0.42027972  1
  O  O21  1  0.37889700  0.19224072  0.99376570  1
  O  O22  1  0.54335149  0.10470083  0.73515831  1
  O  O23  1  0.49876663  0.82732379  0.66783850  1
  O  O24  1  0.50123337  0.32732379  0.33216150  1
  O  O25  1  0.45664851  0.60470083  0.26484169  1
  O  O26  1  0.62110300  0.69224072  0.00623430  1
  O  O27  1  0.56528175  0.52250908  0.57972028  1
  O  O28  1  0.68299835  0.03430517  0.06397165  1
  O  O29  1  0.70135693  0.29656714  0.92357314  1
  O  O30  1  0.85857627  0.03614611  0.53527376  1
  O  O31  1  0.79290945  0.49273844  0.33009371  1
  O  O32  1  0.92658241  0.48205806  0.82017678  1
  O  O33  1  0.87204051  0.72541630  0.51398922  1
  O  O34  1  0.03635691  0.31526958  0.09349949  1
  O  O35  1  0.99558839  0.70216944  0.21246377  1
