# generated using pymatgen
data_Li2Co(SiO3)2
_symmetry_space_group_name_H-M   'P 1'
_cell_length_a   5.60625442
_cell_length_b   5.60625442
_cell_length_c   9.42698387
_cell_angle_alpha   90.67220002
_cell_angle_beta   89.32779998
_cell_angle_gamma   61.83605367
_symmetry_Int_Tables_number   1
_chemical_formula_structural   Li2Co(SiO3)2
_chemical_formula_sum   'Li4 Co2 Si4 O12'
_cell_volume   261.14218006
_cell_formula_units_Z   2
loop_
 _symmetry_equiv_pos_site_id
 _symmetry_equiv_pos_as_xyz
  1  'x, y, z'
loop_
 _atom_site_type_symbol
 _atom_site_label
 _atom_site_symmetry_multiplicity
 _atom_site_fract_x
 _atom_site_fract_y
 _atom_site_fract_z
 _atom_site_occupancy
  Li  Li0  1  0.62254932  0.74713290  0.88612255  1
  Li  Li1  1  0.25286710  0.37745068  0.38612255  1
  Li  Li2  1  0.74713290  0.62254932  0.61387745  1
  Li  Li3  1  0.37745068  0.25286710  0.11387745  1
  Co  Co4  1  0.25339450  0.25339450  0.75000000  1
  Co  Co5  1  0.74660550  0.74660550  0.25000000  1
  Si  Si6  1  0.14561222  0.80237616  0.63234751  1
  Si  Si7  1  0.19762384  0.85438778  0.13234751  1
  Si  Si8  1  0.80237616  0.14561222  0.86765249  1
  Si  Si9  1  0.85438778  0.19762384  0.36765249  1
  O  O10  1  0.38191898  0.86118019  0.69563434  1
  O  O11  1  0.13881981  0.61808102  0.19563434  1
  O  O12  1  0.23122290  0.48937140  0.58945336  1
  O  O13  1  0.51062860  0.76877710  0.08945336  1
  O  O14  1  0.89070577  0.89070577  0.75000000  1
  O  O15  1  0.00000000  0.00000000  0.50000000  1
  O  O16  1  0.10929423  0.10929423  0.25000000  1
  O  O17  1  0.00000000  0.00000000  0.00000000  1
  O  O18  1  0.48937140  0.23122290  0.91054664  1
  O  O19  1  0.76877710  0.51062860  0.41054664  1
  O  O20  1  0.86118019  0.38191898  0.80436566  1
  O  O21  1  0.61808102  0.13881981  0.30436566  1
