# generated using pymatgen
data_LiP3W2O13
_symmetry_space_group_name_H-M   'P 1'
_cell_length_a   6.46688166
_cell_length_b   7.49744881
_cell_length_c   11.28038367
_cell_angle_alpha   74.91623214
_cell_angle_beta   85.49783854
_cell_angle_gamma   80.48157616
_symmetry_Int_Tables_number   1
_chemical_formula_structural   LiP3W2O13
_chemical_formula_sum   'Li2 P6 W4 O26'
_cell_volume   520.45520740
_cell_formula_units_Z   2
loop_
 _symmetry_equiv_pos_site_id
 _symmetry_equiv_pos_as_xyz
  1  'x, y, z'
loop_
 _atom_site_type_symbol
 _atom_site_label
 _atom_site_symmetry_multiplicity
 _atom_site_fract_x
 _atom_site_fract_y
 _atom_site_fract_z
 _atom_site_occupancy
  Li  Li0  1  0.26524608  0.56592860  0.79537124  1
  Li  Li1  1  0.73475392  0.43407140  0.20462876  1
  P  P2  1  0.11788760  0.47443615  0.30784169  1
  P  P3  1  0.25920540  0.80142647  0.33402052  1
  P  P4  1  0.26158614  0.92583528  0.89233802  1
  P  P5  1  0.73841386  0.07416472  0.10766198  1
  P  P6  1  0.74079460  0.19857353  0.66597948  1
  P  P7  1  0.88211240  0.52556385  0.69215831  1
  W  W8  1  0.22537172  0.21114821  0.08610385  1
  W  W9  1  0.24098349  0.19530002  0.59599948  1
  W  W10  1  0.75901651  0.80469998  0.40400052  1
  W  W11  1  0.77462828  0.78885179  0.91389615  1
  O  O12  1  0.13225747  0.38612973  0.19947037  1
  O  O13  1  0.11349222  0.46180085  0.66145585  1
  O  O14  1  0.07589855  0.78306498  0.42936807  1
  O  O15  1  0.22291691  0.10191714  0.78573583  1
  O  O16  1  0.24612999  0.35197925  0.41626441  1
  O  O17  1  0.09103118  0.79872980  0.90133658  1
  O  O18  1  0.23729689  0.65451515  0.25362105  1
  O  O19  1  0.24992410  0.37869643  0.94500639  1
  O  O20  1  0.27071600  0.98536111  0.01205907  1
  O  O21  1  0.24350299  0.99518508  0.24903787  1
  O  O22  1  0.53350636  0.20582580  0.12767097  1
  O  O23  1  0.30828101  0.96830768  0.58020510  1
  O  O24  1  0.53000996  0.26874437  0.60517767  1
  O  O25  1  0.46999004  0.73125563  0.39482233  1
  O  O26  1  0.69171899  0.03169232  0.41979490  1
  O  O27  1  0.46649364  0.79417420  0.87232903  1
  O  O28  1  0.75649701  0.00481492  0.75096213  1
  O  O29  1  0.72928400  0.01463889  0.98794093  1
  O  O30  1  0.75007590  0.62130357  0.05499361  1
  O  O31  1  0.76270311  0.34548485  0.74637895  1
  O  O32  1  0.90896882  0.20127020  0.09866342  1
  O  O33  1  0.75387001  0.64802075  0.58373559  1
  O  O34  1  0.77708309  0.89808286  0.21426417  1
  O  O35  1  0.92410145  0.21693502  0.57063193  1
  O  O36  1  0.88650778  0.53819915  0.33854415  1
  O  O37  1  0.86774253  0.61387027  0.80052963  1
