# generated using pymatgen
data_Mn3O5F
_symmetry_space_group_name_H-M   'P 1'
_cell_length_a   4.54381196
_cell_length_b   7.56431996
_cell_length_c   5.44152567
_cell_angle_alpha   93.69187544
_cell_angle_beta   91.30481693
_cell_angle_gamma   88.76585918
_symmetry_Int_Tables_number   1
_chemical_formula_structural   Mn3O5F
_chemical_formula_sum   'Mn6 O10 F2'
_cell_volume   186.55555341
_cell_formula_units_Z   2
loop_
 _symmetry_equiv_pos_site_id
 _symmetry_equiv_pos_as_xyz
  1  'x, y, z'
loop_
 _atom_site_type_symbol
 _atom_site_label
 _atom_site_symmetry_multiplicity
 _atom_site_fract_x
 _atom_site_fract_y
 _atom_site_fract_z
 _atom_site_occupancy
  Mn  Mn0  1  0.48282402  0.99250204  0.51188088  1
  Mn  Mn1  1  0.51717598  0.67416496  0.15478612  1
  Mn  Mn2  1  0.50000000  0.33333300  0.83333300  1
  Mn  Mn3  1  0.98742694  0.66442508  0.67745733  1
  Mn  Mn4  1  0.00000000  0.33333300  0.33333300  1
  Mn  Mn5  1  0.01257306  0.00224192  0.98920967  1
  O  O6  1  0.80589621  0.43726290  0.63095217  1
  O  O7  1  0.80754209  0.77245840  0.96222856  1
  O  O8  1  0.69423774  0.10066484  0.79638792  1
  O  O9  1  0.69811388  0.76925071  0.46084550  1
  O  O10  1  0.68974996  0.43792398  0.13082397  1
  O  O11  1  0.30576226  0.56600216  0.87027808  1
  O  O12  1  0.31025004  0.22874302  0.53584203  1
  O  O13  1  0.30188612  0.89741629  0.20582150  1
  O  O14  1  0.19410379  0.22940410  0.03571383  1
  O  O15  1  0.19245791  0.89420860  0.70443844  1
  F  F16  1  0.79258211  0.08695073  0.29513040  1
  F  F17  1  0.20741789  0.57971627  0.37153660  1
