# generated using pymatgen
data_LiMn(CO3)2
_symmetry_space_group_name_H-M   'P 1'
_cell_length_a   7.32034694
_cell_length_b   9.79309927
_cell_length_c   8.29030349
_cell_angle_alpha   90.00000000
_cell_angle_beta   70.11018169
_cell_angle_gamma   90.00000000
_symmetry_Int_Tables_number   1
_chemical_formula_structural   LiMn(CO3)2
_chemical_formula_sum   'Li4 Mn4 C8 O24'
_cell_volume   558.87043119
_cell_formula_units_Z   4
loop_
 _symmetry_equiv_pos_site_id
 _symmetry_equiv_pos_as_xyz
  1  'x, y, z'
loop_
 _atom_site_type_symbol
 _atom_site_label
 _atom_site_symmetry_multiplicity
 _atom_site_fract_x
 _atom_site_fract_y
 _atom_site_fract_z
 _atom_site_occupancy
  Li  Li0  1  0.00877061  0.09774133  0.65781486  1
  Li  Li1  1  0.50877061  0.40225867  0.15781486  1
  Li  Li2  1  0.49122939  0.59774133  0.84218514  1
  Li  Li3  1  0.99122939  0.90225867  0.34218514  1
  Mn  Mn4  1  0.04542773  0.36383903  0.43262674  1
  Mn  Mn5  1  0.45457227  0.86383903  0.06737326  1
  Mn  Mn6  1  0.54542773  0.13616097  0.93262674  1
  Mn  Mn7  1  0.95457227  0.63616097  0.56737326  1
  C  C8  1  0.25039847  0.10811466  0.27211314  1
  C  C9  1  0.24960153  0.60811466  0.22788686  1
  C  C10  1  0.26082071  0.48626984  0.64098787  1
  C  C11  1  0.23917929  0.98626984  0.85901213  1
  C  C12  1  0.76082071  0.01373016  0.14098787  1
  C  C13  1  0.73917929  0.51373016  0.35901213  1
  C  C14  1  0.75039847  0.39188534  0.77211314  1
  C  C15  1  0.74960153  0.89188534  0.72788686  1
  O  O16  1  0.11745397  0.15267326  0.40676457  1
  O  O17  1  0.22569118  0.47639308  0.24387443  1
  O  O18  1  0.14704533  0.69389393  0.34173271  1
  O  O19  1  0.35295467  0.19389393  0.15826729  1
  O  O20  1  0.27430882  0.97639308  0.25612557  1
  O  O21  1  0.38254603  0.65267326  0.09323543  1
  O  O22  1  0.11573344  0.97676103  0.78612778  1
  O  O23  1  0.23020809  0.38210550  0.55351896  1
  O  O24  1  0.16304306  0.60158692  0.65379857  1
  O  O25  1  0.33695694  0.10158692  0.84620143  1
  O  O26  1  0.26979191  0.88210550  0.94648104  1
  O  O27  1  0.61573344  0.52323897  0.28612778  1
  O  O28  1  0.38426656  0.47676103  0.71387222  1
  O  O29  1  0.73020809  0.11789450  0.05351896  1
  O  O30  1  0.66304306  0.89841308  0.15379857  1
  O  O31  1  0.83695694  0.39841308  0.34620143  1
  O  O32  1  0.76979191  0.61789450  0.44648104  1
  O  O33  1  0.88426656  0.02323897  0.21387222  1
  O  O34  1  0.61745397  0.34732674  0.90676457  1
  O  O35  1  0.72569118  0.02360692  0.74387443  1
  O  O36  1  0.64704533  0.80610607  0.84173271  1
  O  O37  1  0.85295467  0.30610607  0.65826729  1
  O  O38  1  0.77430882  0.52360692  0.75612557  1
  O  O39  1  0.88254603  0.84732674  0.59323543  1
