# generated using pymatgen
data_LiVP2O7
_symmetry_space_group_name_H-M   'P 1'
_cell_length_a   5.22759401
_cell_length_b   8.23185637
_cell_length_c   13.21259821
_cell_angle_alpha   90.00000000
_cell_angle_beta   93.02947647
_cell_angle_gamma   90.00000000
_symmetry_Int_Tables_number   1
_chemical_formula_structural   LiVP2O7
_chemical_formula_sum   'Li4 V4 P8 O28'
_cell_volume   567.78054020
_cell_formula_units_Z   4
loop_
 _symmetry_equiv_pos_site_id
 _symmetry_equiv_pos_as_xyz
  1  'x, y, z'
loop_
 _atom_site_type_symbol
 _atom_site_label
 _atom_site_symmetry_multiplicity
 _atom_site_fract_x
 _atom_site_fract_y
 _atom_site_fract_z
 _atom_site_occupancy
  Li  Li0  1  0.19616696  0.74221836  0.26773951  1
  Li  Li1  1  0.30383304  0.24221836  0.23226049  1
  Li  Li2  1  0.69616696  0.75778164  0.76773951  1
  Li  Li3  1  0.80383304  0.25778164  0.73226049  1
  V  V4  1  0.21702776  0.64817725  0.87097390  1
  V  V5  1  0.28297224  0.14817725  0.62902610  1
  V  V6  1  0.71702776  0.85182275  0.37097390  1
  V  V7  1  0.78297224  0.35182275  0.12902610  1
  P  P8  1  0.22457101  0.79544122  0.51804150  1
  P  P9  1  0.22187484  0.54444709  0.67939527  1
  P  P10  1  0.27812516  0.04444709  0.82060473  1
  P  P11  1  0.27542899  0.29544122  0.98195850  1
  P  P12  1  0.72457101  0.70455878  0.01804150  1
  P  P13  1  0.72187484  0.95555291  0.17939527  1
  P  P14  1  0.77812516  0.45555291  0.32060473  1
  P  P15  1  0.77542899  0.20455878  0.48195850  1
  O  O16  1  0.96748393  0.93469520  0.24759521  1
  O  O17  1  0.01510480  0.64147731  0.73397896  1
  O  O18  1  0.06279771  0.17573479  0.50194099  1
  O  O19  1  0.15417308  0.41345688  0.90415035  1
  O  O20  1  0.13786376  0.36801878  0.66575661  1
  O  O21  1  0.13321657  0.27968250  0.07976325  1
  O  O22  1  0.25560461  0.61467827  0.56837658  1
  O  O23  1  0.24439539  0.11467827  0.93162342  1
  O  O24  1  0.36678343  0.77968250  0.42023675  1
  O  O25  1  0.36213624  0.86801878  0.83424339  1
  O  O26  1  0.34582692  0.91345688  0.59584965  1
  O  O27  1  0.43720229  0.67573479  0.99805901  1
  O  O28  1  0.48489520  0.14147731  0.76602104  1
  O  O29  1  0.53251607  0.43469520  0.25240479  1
  O  O30  1  0.46748393  0.56530480  0.74759521  1
  O  O31  1  0.51510480  0.85852269  0.23397896  1
  O  O32  1  0.56279771  0.32426521  0.00194099  1
  O  O33  1  0.65417308  0.08654312  0.40415035  1
  O  O34  1  0.63786376  0.13198122  0.16575661  1
  O  O35  1  0.63321657  0.22031750  0.57976325  1
  O  O36  1  0.75560461  0.88532173  0.06837658  1
  O  O37  1  0.74439539  0.38532173  0.43162342  1
  O  O38  1  0.86678343  0.72031750  0.92023675  1
  O  O39  1  0.86213624  0.63198122  0.33424339  1
  O  O40  1  0.84582692  0.58654312  0.09584965  1
  O  O41  1  0.93720229  0.82426521  0.49805901  1
  O  O42  1  0.98489520  0.35852269  0.26602104  1
  O  O43  1  0.03251607  0.06530480  0.75240479  1
