# generated using pymatgen
data_Co3OF5
_symmetry_space_group_name_H-M   'P 1'
_cell_length_a   4.69768347
_cell_length_b   14.15076250
_cell_length_c   3.15041228
_cell_angle_alpha   90.00004809
_cell_angle_beta   89.99986841
_cell_angle_gamma   90.15479952
_symmetry_Int_Tables_number   1
_chemical_formula_structural   Co3OF5
_chemical_formula_sum   'Co6 O2 F10'
_cell_volume   209.42542201
_cell_formula_units_Z   2
loop_
 _symmetry_equiv_pos_site_id
 _symmetry_equiv_pos_as_xyz
  1  'x, y, z'
loop_
 _atom_site_type_symbol
 _atom_site_label
 _atom_site_symmetry_multiplicity
 _atom_site_fract_x
 _atom_site_fract_y
 _atom_site_fract_z
 _atom_site_occupancy
  Co  Co0  1  0.02263752  0.00576188  0.00000150  1
  Co  Co1  1  0.97797370  0.33333762  0.00000050  1
  Co  Co2  1  0.03087943  0.66059138  0.99999930  1
  Co  Co3  1  0.47154440  0.15792648  0.49999973  1
  Co  Co4  1  0.47064975  0.50683065  0.50000150  1
  Co  Co5  1  0.52219656  0.83502639  0.49999955  1
  O  O6  1  0.20464986  0.59856243  0.49999811  1
  O  O7  1  0.29958136  0.10050625  0.00000039  1
  F  F8  1  0.18277041  0.27062535  0.50000016  1
  F  F9  1  0.20594824  0.93364143  0.49999992  1
  F  F10  1  0.31803108  0.77012062  0.99999968  1
  F  F11  1  0.29800902  0.43264281  0.99999938  1
  F  F12  1  0.69438444  0.56314843  -0.00000044  1
  F  F13  1  0.67705752  0.22873839  0.00000086  1
  F  F14  1  0.72047023  0.90334355  -0.00000022  1
  F  F15  1  0.80794216  0.06513393  0.50000028  1
  F  F16  1  0.77867024  0.40416437  0.50000044  1
  F  F17  1  0.81660510  0.72989804  0.49999933  1
