# generated using pymatgen
data_LiMn2O2F3
_symmetry_space_group_name_H-M   'P 1'
_cell_length_a   4.04974271
_cell_length_b   5.31434079
_cell_length_c   9.99362394
_cell_angle_alpha   89.34185576
_cell_angle_beta   89.91429566
_cell_angle_gamma   67.57337328
_symmetry_Int_Tables_number   1
_chemical_formula_structural   LiMn2O2F3
_chemical_formula_sum   'Li2 Mn4 O4 F6'
_cell_volume   198.79907714
_cell_formula_units_Z   2
loop_
 _symmetry_equiv_pos_site_id
 _symmetry_equiv_pos_as_xyz
  1  'x, y, z'
loop_
 _atom_site_type_symbol
 _atom_site_label
 _atom_site_symmetry_multiplicity
 _atom_site_fract_x
 _atom_site_fract_y
 _atom_site_fract_z
 _atom_site_occupancy
  Li  Li0  1  0.14042645  0.72039573  0.05918417  1
  Li  Li1  1  0.86710771  0.27185263  0.93889393  1
  Mn  Mn2  1  0.14462924  0.71292286  0.44133827  1
  Mn  Mn3  1  0.18843672  0.62569418  0.74841933  1
  Mn  Mn4  1  0.81583534  0.37054524  0.25044144  1
  Mn  Mn5  1  0.85795033  0.28584617  0.55795891  1
  O  O6  1  0.05135044  0.89907590  0.61320716  1
  O  O7  1  0.69440647  0.61493761  0.42362099  1
  O  O8  1  0.30866618  0.38456519  0.57567753  1
  O  O9  1  0.94967871  0.09913858  0.38621170  1
  F  F10  1  0.05896028  0.90065057  0.88041684  1
  F  F11  1  0.69382742  0.61965194  0.09288410  1
  F  F12  1  0.24156189  0.52049052  0.25986216  1
  F  F13  1  0.76458338  0.47294761  0.74092037  1
  F  F14  1  0.31154466  0.37797906  0.90730909  1
  F  F15  1  0.94611378  0.09421621  0.11875902  1
