# generated using pymatgen
data_Li3MnPCO7
_symmetry_space_group_name_H-M   'P 1'
_cell_length_a   5.25738258
_cell_length_b   6.51200919
_cell_length_c   8.55064087
_cell_angle_alpha   96.57815816
_cell_angle_beta   94.01919351
_cell_angle_gamma   93.17723943
_symmetry_Int_Tables_number   1
_chemical_formula_structural   Li3MnPCO7
_chemical_formula_sum   'Li6 Mn2 P2 C2 O14'
_cell_volume   289.50298965
_cell_formula_units_Z   2
loop_
 _symmetry_equiv_pos_site_id
 _symmetry_equiv_pos_as_xyz
  1  'x, y, z'
loop_
 _atom_site_type_symbol
 _atom_site_label
 _atom_site_symmetry_multiplicity
 _atom_site_fract_x
 _atom_site_fract_y
 _atom_site_fract_z
 _atom_site_occupancy
  Li  Li0  1  0.24692440  0.74342622  0.10800314  1
  Li  Li1  1  0.39562795  0.41728293  0.74633145  1
  Li  Li2  1  0.49812441  0.93405042  0.75292242  1
  Li  Li3  1  0.75646794  0.96214206  0.24158758  1
  Li  Li4  1  0.85887442  0.47874808  0.24834586  1
  Li  Li5  1  0.00709860  0.15183171  0.88703096  1
  Mn  Mn6  1  0.30737398  0.19564031  0.35561887  1
  Mn  Mn7  1  0.94735755  0.70085845  0.63902050  1
  P  P8  1  0.42484123  0.69407508  0.40925663  1
  P  P9  1  0.82999541  0.20229383  0.58530940  1
  C  C10  1  0.40590226  0.18449527  0.03990974  1
  C  C11  1  0.84849720  0.71158617  0.95470390  1
  O  O12  1  0.06700577  0.74624461  0.89537055  1
  O  O13  1  0.18747852  0.15042428  0.09947551  1
  O  O14  1  0.25244343  0.51401356  0.31467840  1
  O  O15  1  0.32549810  0.75626225  0.57363282  1
  O  O16  1  0.41552396  0.87817648  0.30632214  1
  O  O17  1  0.40022034  0.19020078  0.88718437  1
  O  O18  1  0.54823454  0.26097907  0.56668824  1
  O  O19  1  0.63830891  0.68824871  0.86461996  1
  O  O20  1  0.61622755  0.20770238  0.12946233  1
  O  O21  1  0.70657679  0.63532073  0.42788966  1
  O  O22  1  0.85348684  0.70539954  0.10713301  1
  O  O23  1  0.83921816  0.01827634  0.68839599  1
  O  O24  1  0.92940151  0.13972725  0.42105651  1
  O  O25  1  0.00234723  0.38255450  0.67966905  1
