# generated using pymatgen
data_Li2CrSiO4
_symmetry_space_group_name_H-M   'P 1'
_cell_length_a   6.57922852
_cell_length_b   5.29319068
_cell_length_c   4.96551942
_cell_angle_alpha   89.97508262
_cell_angle_beta   89.99987815
_cell_angle_gamma   90.00032273
_symmetry_Int_Tables_number   1
_chemical_formula_structural   Li2CrSiO4
_chemical_formula_sum   'Li4 Cr2 Si2 O8'
_cell_volume   172.92474879
_cell_formula_units_Z   2
loop_
 _symmetry_equiv_pos_site_id
 _symmetry_equiv_pos_as_xyz
  1  'x, y, z'
loop_
 _atom_site_type_symbol
 _atom_site_label
 _atom_site_symmetry_multiplicity
 _atom_site_fract_x
 _atom_site_fract_y
 _atom_site_fract_z
 _atom_site_occupancy
  Li  Li0  1  0.24850841  0.67301458  0.00792629  1
  Li  Li1  1  0.25162573  0.32707101  0.50791594  1
  Li  Li2  1  0.74837436  0.32707044  0.50791618  1
  Li  Li3  1  0.75149342  0.67301448  0.00792504  1
  Cr  Cr4  1  0.99999175  0.19938473  0.99442689  1
  Cr  Cr5  1  0.50000420  0.80004931  0.49438251  1
  Si  Si6  1  -0.00000181  0.83461180  0.51983655  1
  Si  Si7  1  0.49999837  0.16544421  0.01996382  1
  O  O8  1  0.99999921  0.13638715  0.42736121  1
  O  O9  1  -0.00000006  0.81705520  0.85124824  1
  O  O10  1  0.20753214  0.69246831  0.40960376  1
  O  O11  1  0.29240711  0.30762429  0.90958138  1
  O  O12  1  0.50000216  0.18291404  0.35130096  1
  O  O13  1  0.50000302  0.86378782  0.92743400  1
  O  O14  1  0.70759056  0.30763442  0.90957657  1
  O  O15  1  0.79247142  0.69246820  0.40959667  1
