# generated using pymatgen
data_Co3OF5
_symmetry_space_group_name_H-M   'P 1'
_cell_length_a   7.31409865
_cell_length_b   5.69962120
_cell_length_c   5.69962120
_cell_angle_alpha   73.70314660
_cell_angle_beta   72.62742824
_cell_angle_gamma   72.62742824
_symmetry_Int_Tables_number   1
_chemical_formula_structural   Co3OF5
_chemical_formula_sum   'Co6 O2 F10'
_cell_volume   211.58531233
_cell_formula_units_Z   2
loop_
 _symmetry_equiv_pos_site_id
 _symmetry_equiv_pos_as_xyz
  1  'x, y, z'
loop_
 _atom_site_type_symbol
 _atom_site_label
 _atom_site_symmetry_multiplicity
 _atom_site_fract_x
 _atom_site_fract_y
 _atom_site_fract_z
 _atom_site_occupancy
  Co  Co0  1  0.83333300  0.66666700  0.66666700  1
  Co  Co1  1  0.33333300  0.66666700  0.66666700  1
  Co  Co2  1  0.68803647  0.31009002  0.31009002  1
  Co  Co3  1  0.16171925  0.33074143  0.33074143  1
  Co  Co4  1  0.50494675  0.00259157  0.00259157  1
  Co  Co5  1  0.97863053  0.02324298  0.02324298  1
  O  O6  1  0.96855859  0.23531753  0.23531753  1
  O  O7  1  0.69810841  0.09801647  0.09801647  1
  F  F8  1  0.33333300  0.36705106  0.96628194  1
  F  F9  1  0.66118537  0.02740754  0.63090432  1
  F  F10  1  0.63718824  0.55313698  0.55313698  1
  F  F11  1  0.28987404  0.90690115  0.90690115  1
  F  F12  1  0.37679296  0.42643285  0.42643285  1
  F  F13  1  0.02947776  0.78019602  0.78019602  1
  F  F14  1  0.33333300  0.96628194  0.36705106  1
  F  F15  1  0.66118537  0.63090432  0.02740754  1
  F  F16  1  0.00548063  0.30592546  0.70242868  1
  F  F17  1  0.00548063  0.70242868  0.30592546  1
