# generated using pymatgen
data_Li2VPO4F
_symmetry_space_group_name_H-M   'P 1'
_cell_length_a   5.16959905
_cell_length_b   13.16305146
_cell_length_c   11.50344188
_cell_angle_alpha   90.00000000
_cell_angle_beta   90.00000000
_cell_angle_gamma   90.00000000
_symmetry_Int_Tables_number   1
_chemical_formula_structural   Li2VPO4F
_chemical_formula_sum   'Li16 V8 P8 O32 F8'
_cell_volume   782.78274272
_cell_formula_units_Z   8
loop_
 _symmetry_equiv_pos_site_id
 _symmetry_equiv_pos_as_xyz
  1  'x, y, z'
loop_
 _atom_site_type_symbol
 _atom_site_label
 _atom_site_symmetry_multiplicity
 _atom_site_fract_x
 _atom_site_fract_y
 _atom_site_fract_z
 _atom_site_occupancy
  Li  Li0  1  0.21605255  0.24318773  0.17630965  1
  Li  Li1  1  0.21605255  0.75681227  0.67630965  1
  Li  Li2  1  0.23132736  0.63302084  0.41030781  1
  Li  Li3  1  0.23132736  0.36697916  0.91030781  1
  Li  Li4  1  0.26867264  0.13302084  0.41030781  1
  Li  Li5  1  0.26867264  0.86697916  0.91030781  1
  Li  Li6  1  0.28394745  0.25681227  0.67630965  1
  Li  Li7  1  0.28394745  0.74318773  0.17630965  1
  Li  Li8  1  0.71605255  0.25681227  0.82369035  1
  Li  Li9  1  0.71605255  0.74318773  0.32369035  1
  Li  Li10  1  0.73132736  0.13302084  0.08969219  1
  Li  Li11  1  0.73132736  0.86697916  0.58969219  1
  Li  Li12  1  0.76867264  0.63302084  0.08969219  1
  Li  Li13  1  0.76867264  0.36697916  0.58969219  1
  Li  Li14  1  0.78394745  0.75681227  0.82369035  1
  Li  Li15  1  0.78394745  0.24318773  0.32369035  1
  V  V16  1  0.22054155  0.51250971  0.17139836  1
  V  V17  1  0.22054155  0.48749029  0.67139836  1
  V  V18  1  0.27945845  0.01250971  0.17139836  1
  V  V19  1  0.27945845  0.98749029  0.67139836  1
  V  V20  1  0.72054155  0.01250971  0.32860164  1
  V  V21  1  0.72054155  0.98749029  0.82860164  1
  V  V22  1  0.77945845  0.51250971  0.32860164  1
  V  V23  1  0.77945845  0.48749029  0.82860164  1
  P  P24  1  0.20620395  0.86950318  0.41455059  1
  P  P25  1  0.20620395  0.13049682  0.91455059  1
  P  P26  1  0.29379605  0.36950318  0.41455059  1
  P  P27  1  0.29379605  0.63049682  0.91455059  1
  P  P28  1  0.70620395  0.36950318  0.08544941  1
  P  P29  1  0.70620395  0.63049682  0.58544941  1
  P  P30  1  0.79379605  0.13049682  0.58544941  1
  P  P31  1  0.79379605  0.86950318  0.08544941  1
  O  O32  1  0.09653496  0.12352927  0.59397966  1
  O  O33  1  0.09653496  0.87647073  0.09397966  1
  O  O34  1  0.17751103  0.46664036  0.35483045  1
  O  O35  1  0.17751103  0.53335964  0.85483045  1
  O  O36  1  0.18671548  0.27384363  0.35451853  1
  O  O37  1  0.18671548  0.72615637  0.85451853  1
  O  O38  1  0.20885116  0.62987039  0.04377673  1
  O  O39  1  0.20885116  0.37012961  0.54377673  1
  O  O40  1  0.29114884  0.12987039  0.04377673  1
  O  O41  1  0.29114884  0.87012961  0.54377673  1
  O  O42  1  0.31328452  0.22615637  0.85451853  1
  O  O43  1  0.31328452  0.77384363  0.35451853  1
  O  O44  1  0.32248897  0.96664036  0.35483045  1
  O  O45  1  0.32248897  0.03335964  0.85483045  1
  O  O46  1  0.40346504  0.37647073  0.09397966  1
  O  O47  1  0.40346504  0.62352927  0.59397966  1
  O  O48  1  0.59653496  0.62352927  0.90602034  1
  O  O49  1  0.59653496  0.37647073  0.40602034  1
  O  O50  1  0.67751103  0.03335964  0.64516955  1
  O  O51  1  0.67751103  0.96664036  0.14516955  1
  O  O52  1  0.68671548  0.22615637  0.64548147  1
  O  O53  1  0.68671548  0.77384363  0.14548147  1
  O  O54  1  0.70885116  0.12987039  0.45622327  1
  O  O55  1  0.70885116  0.87012961  0.95622327  1
  O  O56  1  0.79114884  0.37012961  0.95622327  1
  O  O57  1  0.79114884  0.62987039  0.45622327  1
  O  O58  1  0.81328452  0.27384363  0.14548147  1
  O  O59  1  0.81328452  0.72615637  0.64548147  1
  O  O60  1  0.82248897  0.46664036  0.14516955  1
  O  O61  1  0.82248897  0.53335964  0.64516955  1
  O  O62  1  0.90346504  0.12352927  0.90602034  1
  O  O63  1  0.90346504  0.87647073  0.40602034  1
  F  F64  1  0.00000000  0.10413766  0.25000000  1
  F  F65  1  0.00000000  0.63238214  0.25000000  1
  F  F66  1  0.00000000  0.36761786  0.75000000  1
  F  F67  1  0.00000000  0.89586234  0.75000000  1
  F  F68  1  0.50000000  0.13238214  0.25000000  1
  F  F69  1  0.50000000  0.60413766  0.25000000  1
  F  F70  1  0.50000000  0.39586234  0.75000000  1
  F  F71  1  0.50000000  0.86761786  0.75000000  1
