# generated using pymatgen
data_LiMn4(PO4)3
_symmetry_space_group_name_H-M   'P 1'
_cell_length_a   9.31283598
_cell_length_b   6.69111967
_cell_length_c   15.06182538
_cell_angle_alpha   90.00000000
_cell_angle_beta   90.15586702
_cell_angle_gamma   90.00000000
_symmetry_Int_Tables_number   1
_chemical_formula_structural   LiMn4(PO4)3
_chemical_formula_sum   'Li4 Mn16 P12 O48'
_cell_volume   938.54857028
_cell_formula_units_Z   4
loop_
 _symmetry_equiv_pos_site_id
 _symmetry_equiv_pos_as_xyz
  1  'x, y, z'
loop_
 _atom_site_type_symbol
 _atom_site_label
 _atom_site_symmetry_multiplicity
 _atom_site_fract_x
 _atom_site_fract_y
 _atom_site_fract_z
 _atom_site_occupancy
  Li  Li0  1  0.65791913  0.75000000  0.67760973  1
  Li  Li1  1  0.84461219  0.25000000  0.50863822  1
  Li  Li2  1  0.83862012  0.25000000  0.83609836  1
  Li  Li3  1  0.84187275  0.25000000  0.17249445  1
  Mn  Mn4  1  0.00094098  0.50927043  0.66777867  1
  Mn  Mn5  1  0.99236715  0.99667430  0.99450012  1
  Mn  Mn6  1  0.99236715  0.50332570  0.99450012  1
  Mn  Mn7  1  0.00595322  0.00136903  0.33875752  1
  Mn  Mn8  1  0.00595322  0.49863097  0.33875752  1
  Mn  Mn9  1  0.00094098  0.99072957  0.66777867  1
  Mn  Mn10  1  0.15019879  0.75000000  0.15976503  1
  Mn  Mn11  1  0.34462925  0.25000000  0.65956324  1
  Mn  Mn12  1  0.35500193  0.25000000  0.99417921  1
  Mn  Mn13  1  0.50551448  0.00237182  0.16735735  1
  Mn  Mn14  1  0.50551448  0.49762818  0.16735735  1
  Mn  Mn15  1  0.49061866  0.99804141  0.49754189  1
  Mn  Mn16  1  0.50542628  0.99050937  0.83329081  1
  Mn  Mn17  1  0.49061866  0.50195859  0.49754189  1
  Mn  Mn18  1  0.50542628  0.50949063  0.83329081  1
  Mn  Mn19  1  0.64695272  0.75000000  0.34058797  1
  P  P20  1  0.17869676  0.25000000  0.49327724  1
  P  P21  1  0.17653437  0.25000000  0.16257410  1
  P  P22  1  0.17719481  0.25000000  0.82523199  1
  P  P23  1  0.32745812  0.75000000  0.32367860  1
  P  P24  1  0.31807634  0.75000000  0.66562323  1
  P  P25  1  0.31754032  0.75000000  0.99524865  1
  P  P26  1  0.68151814  0.25000000  0.33763217  1
  P  P27  1  0.67656004  0.25000000  0.00807188  1
  P  P28  1  0.68044236  0.25000000  0.67037807  1
  P  P29  1  0.82012296  0.75000000  0.83591643  1
  P  P30  1  0.82730361  0.75000000  0.17356206  1
  P  P31  1  0.82052855  0.75000000  0.50703362  1
  O  O32  1  0.11905865  0.05922073  0.11492057  1
  O  O33  1  0.12062714  0.06045666  0.78216301  1
  O  O34  1  0.12219584  0.05970573  0.45013422  1
  O  O35  1  0.12219584  0.44029427  0.45013422  1
  O  O36  1  0.12062714  0.43954334  0.78216301  1
  O  O37  1  0.11905865  0.44077927  0.11492057  1
  O  O38  1  0.12985833  0.25000000  0.26014859  1
  O  O39  1  0.13583904  0.25000000  0.59610703  1
  O  O40  1  0.14501293  0.25000000  0.92908587  1
  O  O41  1  0.15723104  0.75000000  0.30689279  1
  O  O42  1  0.14961435  0.75000000  0.99270193  1
  O  O43  1  0.15388294  0.75000000  0.65488580  1
  O  O44  1  0.34415998  0.25000000  0.14088248  1
  O  O45  1  0.34884742  0.25000000  0.49337170  1
  O  O46  1  0.34980764  0.25000000  0.81245044  1
  O  O47  1  0.36108332  0.75000000  0.09690239  1
  O  O48  1  0.37928729  0.75000000  0.42226809  1
  O  O49  1  0.37797654  0.75000000  0.76246766  1
  O  O50  1  0.38412973  0.93896152  0.27769486  1
  O  O51  1  0.37826375  0.94134254  0.61880638  1
  O  O52  1  0.37501147  0.94205800  0.95104810  1
  O  O53  1  0.37826375  0.55865746  0.61880638  1
  O  O54  1  0.37501147  0.55794200  0.95104810  1
  O  O55  1  0.38412973  0.56103848  0.27769486  1
  O  O56  1  0.61369476  0.06226139  0.05156152  1
  O  O57  1  0.62076409  0.05837027  0.38122177  1
  O  O58  1  0.61369476  0.43773861  0.05156152  1
  O  O59  1  0.62076409  0.44162973  0.38122177  1
  O  O60  1  0.61716280  0.06017909  0.71396352  1
  O  O61  1  0.61716280  0.43982091  0.71396352  1
  O  O62  1  0.64624921  0.25000000  0.23592037  1
  O  O63  1  0.63495850  0.25000000  0.90626010  1
  O  O64  1  0.63965386  0.25000000  0.56904414  1
  O  O65  1  0.65893762  0.75000000  0.19300113  1
  O  O66  1  0.65282616  0.75000000  0.84389052  1
  O  O67  1  0.65010622  0.75000000  0.51634675  1
  O  O68  1  0.84697101  0.25000000  0.68735058  1
  O  O69  1  0.84520062  0.25000000  0.02285930  1
  O  O70  1  0.84756557  0.25000000  0.35578708  1
  O  O71  1  0.85983159  0.75000000  0.73449860  1
  O  O72  1  0.85616917  0.75000000  0.40357722  1
  O  O73  1  0.87486948  0.75000000  0.07488861  1
  O  O74  1  0.87605010  0.55557266  0.87966045  1
  O  O75  1  0.87605010  0.94442734  0.87966045  1
  O  O76  1  0.87633294  0.55652141  0.54934777  1
  O  O77  1  0.88539191  0.55836785  0.21899377  1
  O  O78  1  0.88539191  0.94163215  0.21899377  1
  O  O79  1  0.87633294  0.94347859  0.54934777  1
