# generated using pymatgen
data_Li4Mn5O10
_symmetry_space_group_name_H-M   'P 1'
_cell_length_a   7.95256113
_cell_length_b   6.58500230
_cell_length_c   7.97005213
_cell_angle_alpha   114.48649495
_cell_angle_beta   83.46448463
_cell_angle_gamma   91.06664953
_symmetry_Int_Tables_number   1
_chemical_formula_structural   Li4Mn5O10
_chemical_formula_sum   'Li8 Mn10 O20'
_cell_volume   377.17717303
_cell_formula_units_Z   2
loop_
 _symmetry_equiv_pos_site_id
 _symmetry_equiv_pos_as_xyz
  1  'x, y, z'
loop_
 _atom_site_type_symbol
 _atom_site_label
 _atom_site_symmetry_multiplicity
 _atom_site_fract_x
 _atom_site_fract_y
 _atom_site_fract_z
 _atom_site_occupancy
  Li  Li0  1  0.04859142  0.33231983  0.76454495  1
  Li  Li1  1  0.15421303  0.05404035  0.41041410  1
  Li  Li2  1  0.00037582  0.49632256  0.48674435  1
  Li  Li3  1  0.49962418  0.00367744  0.51325565  1
  Li  Li4  1  0.34578697  0.44595965  0.58958590  1
  Li  Li5  1  0.45140858  0.16768017  0.23545505  1
  Li  Li6  1  0.65808244  0.57247381  0.41630310  1
  Li  Li7  1  0.84191756  0.92752619  0.58369690  1
  Mn  Mn8  1  0.09752000  0.21088622  0.10772169  1
  Mn  Mn9  1  0.40248000  0.28911378  0.89227831  1
  Mn  Mn10  1  0.29824188  0.60419350  0.31080144  1
  Mn  Mn11  1  0.20175812  0.89580650  0.68919856  1
  Mn  Mn12  1  0.25000000  0.75000000  0.00000000  1
  Mn  Mn13  1  0.79774493  0.09842623  0.30902938  1
  Mn  Mn14  1  0.70225507  0.40157377  0.69097062  1
  Mn  Mn15  1  0.75000000  0.25000000  0.00000000  1
  Mn  Mn16  1  0.60171959  0.71450072  0.11750085  1
  Mn  Mn17  1  0.89828041  0.78549928  0.88249915  1
  O  O18  1  0.26519449  0.15728189  0.65427933  1
  O  O19  1  0.23480551  0.34271811  0.34572067  1
  O  O20  1  0.14366037  0.64401933  0.75889836  1
  O  O21  1  0.19864217  0.46452368  0.06505939  1
  O  O22  1  0.10094875  0.77208482  0.46563164  1
  O  O23  1  0.62490858  0.15888617  0.75987648  1
  O  O24  1  0.01097790  0.94179001  0.13602154  1
  O  O25  1  0.67806721  0.98342866  0.08614830  1
  O  O26  1  0.59704450  0.28388600  0.46605120  1
  O  O27  1  0.48902210  0.55820999  0.86397846  1
  O  O28  1  0.52319364  0.45632899  0.16786685  1
  O  O29  1  0.39905125  0.72791518  0.53436836  1
  O  O30  1  0.30135783  0.03547632  0.93494061  1
  O  O31  1  0.97680636  0.04367101  0.83213315  1
  O  O32  1  0.35633963  0.85598067  0.24110164  1
  O  O33  1  0.90295550  0.21611400  0.53394880  1
  O  O34  1  0.82193279  0.51657134  0.91385170  1
  O  O35  1  0.87509142  0.34111383  0.24012352  1
  O  O36  1  0.78824942  0.65676697  0.65645922  1
  O  O37  1  0.71175058  0.84323303  0.34354078  1
