# generated using pymatgen
data_Li2Mn3F8
_symmetry_space_group_name_H-M   'P 1'
_cell_length_a   6.44165259
_cell_length_b   6.44177131
_cell_length_c   9.33906662
_cell_angle_alpha   90.00037352
_cell_angle_beta   89.99981402
_cell_angle_gamma   120.00061129
_symmetry_Int_Tables_number   1
_chemical_formula_structural   Li2Mn3F8
_chemical_formula_sum   'Li4 Mn6 F16'
_cell_volume   335.60933440
_cell_formula_units_Z   2
loop_
 _symmetry_equiv_pos_site_id
 _symmetry_equiv_pos_as_xyz
  1  'x, y, z'
loop_
 _atom_site_type_symbol
 _atom_site_label
 _atom_site_symmetry_multiplicity
 _atom_site_fract_x
 _atom_site_fract_y
 _atom_site_fract_z
 _atom_site_occupancy
  Li  Li0  1  0.33333598  0.66666055  0.54360721  1
  Li  Li1  1  0.33332727  0.66665006  0.91536114  1
  Li  Li2  1  0.66666402  0.33332458  0.04360721  1
  Li  Li3  1  0.66667273  0.33332279  0.41536114  1
  Mn  Mn4  1  0.16493933  0.83501736  0.24690756  1
  Mn  Mn5  1  0.16495947  0.32989951  0.24692264  1
  Mn  Mn6  1  0.32994490  0.16496909  0.74690807  1
  Mn  Mn7  1  0.67005510  0.83502419  0.24690807  1
  Mn  Mn8  1  0.83506067  0.67007803  0.74690756  1
  Mn  Mn9  1  0.83504053  0.16494104  0.74692264  1
  F  F10  1  0.17135521  0.82868952  0.64073595  1
  F  F11  1  0.02550081  0.51274752  0.37510030  1
  F  F12  1  0.33330305  0.66662186  0.12443249  1
  F  F13  1  0.99998218  0.99997600  0.36220005  1
  F  F14  1  0.00001782  0.99999382  0.86220005  1
  F  F15  1  0.17134114  0.34266054  0.64074914  1
  F  F16  1  0.48724145  0.97448367  0.37510988  1
  F  F17  1  0.48725736  0.51274192  0.37511041  1
  F  F18  1  0.65734303  0.82864750  0.64075516  1
  F  F19  1  0.34265697  0.17130447  0.14075516  1
  F  F20  1  0.51275855  0.48724222  0.87510988  1
  F  F21  1  0.51274264  0.02548456  0.87511041  1
  F  F22  1  0.82864479  0.65733431  0.14073595  1
  F  F23  1  0.66669695  0.33331881  0.62443249  1
  F  F24  1  0.97449919  0.48724670  0.87510030  1
  F  F25  1  0.82865886  0.17131940  0.14074914  1
