# generated using pymatgen
data_Li3Mn5F15
_symmetry_space_group_name_H-M   'P 1'
_cell_length_a   13.06534079
_cell_length_b   13.06082410
_cell_length_c   3.94268493
_cell_angle_alpha   90.00000000
_cell_angle_beta   90.00000000
_cell_angle_gamma   90.00000000
_symmetry_Int_Tables_number   1
_chemical_formula_structural   Li3Mn5F15
_chemical_formula_sum   'Li6 Mn10 F30'
_cell_volume   672.79599190
_cell_formula_units_Z   2
loop_
 _symmetry_equiv_pos_site_id
 _symmetry_equiv_pos_as_xyz
  1  'x, y, z'
loop_
 _atom_site_type_symbol
 _atom_site_label
 _atom_site_symmetry_multiplicity
 _atom_site_fract_x
 _atom_site_fract_y
 _atom_site_fract_z
 _atom_site_occupancy
  Li  Li0  1  0.00000000  0.00000000  0.67344177  1
  Li  Li1  1  0.16234637  0.66189465  0.62970734  1
  Li  Li2  1  0.33765363  0.16189465  0.62970734  1
  Li  Li3  1  0.50000000  0.50000000  0.67344177  1
  Li  Li4  1  0.66234637  0.83810535  0.62970734  1
  Li  Li5  1  0.83765363  0.33810535  0.62970734  1
  Mn  Mn6  1  0.00000000  0.50000000  0.58344452  1
  Mn  Mn7  1  0.07992256  0.21267324  0.59824886  1
  Mn  Mn8  1  0.21236473  0.91998763  0.59828004  1
  Mn  Mn9  1  0.28763527  0.41998763  0.59828004  1
  Mn  Mn10  1  0.42007744  0.71267324  0.59824886  1
  Mn  Mn11  1  0.50000000  0.00000000  0.58344452  1
  Mn  Mn12  1  0.57992256  0.28732676  0.59824886  1
  Mn  Mn13  1  0.71236473  0.58001237  0.59828004  1
  Mn  Mn14  1  0.78763527  0.08001237  0.59828004  1
  Mn  Mn15  1  0.92007744  0.78732676  0.59824886  1
  F  F16  1  0.00000000  0.50000000  0.08489411  1
  F  F17  1  0.01495951  0.65948413  0.59381049  1
  F  F18  1  0.06291287  0.86803620  0.61263071  1
  F  F19  1  0.08176939  0.21553866  0.09917768  1
  F  F20  1  0.13188100  0.06298713  0.61273878  1
  F  F21  1  0.15952985  0.51428379  0.59346596  1
  F  F22  1  0.21508699  0.91797845  0.09919381  1
  F  F23  1  0.23602058  0.26385278  0.59986063  1
  F  F24  1  0.26397942  0.76385278  0.59986063  1
  F  F25  1  0.28491301  0.41797845  0.09919381  1
  F  F26  1  0.34047015  0.01428379  0.59346596  1
  F  F27  1  0.36811900  0.56298713  0.61273878  1
  F  F28  1  0.41823061  0.71553866  0.09917768  1
  F  F29  1  0.43708713  0.36803620  0.61263071  1
  F  F30  1  0.48504049  0.15948413  0.59381049  1
  F  F31  1  0.50000000  0.00000000  0.08489411  1
  F  F32  1  0.51495951  0.84051587  0.59381049  1
  F  F33  1  0.56291287  0.63196380  0.61263071  1
  F  F34  1  0.58176939  0.28446134  0.09917768  1
  F  F35  1  0.63188100  0.43701287  0.61273878  1
  F  F36  1  0.65952985  0.98571621  0.59346596  1
  F  F37  1  0.71508699  0.58202155  0.09919381  1
  F  F38  1  0.73602058  0.23614722  0.59986063  1
  F  F39  1  0.76397942  0.73614722  0.59986063  1
  F  F40  1  0.78491301  0.08202155  0.09919381  1
  F  F41  1  0.84047015  0.48571621  0.59346596  1
  F  F42  1  0.86811900  0.93701287  0.61273878  1
  F  F43  1  0.91823061  0.78446134  0.09917768  1
  F  F44  1  0.93708713  0.13196380  0.61263071  1
  F  F45  1  0.98504049  0.34051587  0.59381049  1
