# generated using pymatgen
data_Li2Mn2FeO6
_symmetry_space_group_name_H-M   'P 1'
_cell_length_a   6.66710868
_cell_length_b   6.63441538
_cell_length_c   8.66393057
_cell_angle_alpha   70.87039717
_cell_angle_beta   109.10818026
_cell_angle_gamma   97.47712668
_symmetry_Int_Tables_number   1
_chemical_formula_structural   Li2Mn2FeO6
_chemical_formula_sum   'Li6 Mn6 Fe3 O18'
_cell_volume   342.00322721
_cell_formula_units_Z   3
loop_
 _symmetry_equiv_pos_site_id
 _symmetry_equiv_pos_as_xyz
  1  'x, y, z'
loop_
 _atom_site_type_symbol
 _atom_site_label
 _atom_site_symmetry_multiplicity
 _atom_site_fract_x
 _atom_site_fract_y
 _atom_site_fract_z
 _atom_site_occupancy
  Li  Li0  1  0.33636536  0.00292582  0.83774004  1
  Li  Li1  1  0.33030164  0.33040718  0.49559396  1
  Li  Li2  1  0.67176179  0.66949768  0.49522533  1
  Li  Li3  1  0.99490521  0.66383532  0.83810867  1
  Li  Li4  1  0.66771332  0.99791389  0.16801615  1
  Li  Li5  1  0.99895268  0.33541911  0.16531685  1
  Mn  Mn6  1  0.66145934  0.66908191  0.99855999  1
  Mn  Mn7  1  0.66945730  0.00339972  0.66521213  1
  Mn  Mn8  1  0.66876941  0.33164383  0.32735196  1
  Mn  Mn9  1  0.99720870  0.32993328  0.66812087  1
  Mn  Mn10  1  0.00520766  0.66425109  0.33477401  1
  Mn  Mn11  1  0.99789759  0.00168917  0.00598104  1
  Fe  Fe12  1  0.33333300  0.66666700  0.66666700  1
  Fe  Fe13  1  0.33758239  0.99538573  0.33369237  1
  Fe  Fe14  1  0.32908361  0.33794727  0.99964063  1
  O  O15  1  0.01496781  0.31077659  0.93830231  1
  O  O16  1  0.00566200  0.63874019  0.58089311  1
  O  O17  1  0.01223609  0.97887512  0.23804079  1
  O  O18  1  0.34580979  0.66030013  0.90297728  1
  O  O19  1  0.36334949  0.99386468  0.58143247  1
  O  O20  1  0.68539495  0.97400254  0.93905632  1
  O  O21  1  0.30331651  0.33946932  0.75190153  1
  O  O22  1  0.32085721  0.67303387  0.43035572  1
  O  O23  1  0.66100500  0.69459281  0.75244089  1
  O  O24  1  0.36033702  0.31705958  0.25347981  1
  O  O25  1  0.68437616  0.31845988  0.55977970  1
  O  O26  1  0.69336873  0.64515631  0.25515087  1
  O  O27  1  0.30632998  0.01627342  0.07985319  1
  O  O28  1  0.65169919  0.02255641  0.39503169  1
  O  O29  1  0.65443091  0.35445788  0.09529221  1
  O  O30  1  0.98229084  0.01487312  0.77355330  1
  O  O31  1  0.98127205  0.35933046  0.39427668  1
  O  O32  1  0.97329827  0.68817669  0.07818313  1
