# generated using pymatgen
data_Na2V13O22
_symmetry_space_group_name_H-M   'P 1'
_cell_length_a   7.75725567
_cell_length_b   14.07305399
_cell_length_c   7.75725567
_cell_angle_alpha   90.00000000
_cell_angle_beta   96.69903601
_cell_angle_gamma   90.00000000
_symmetry_Int_Tables_number   1
_chemical_formula_structural   Na2V13O22
_chemical_formula_sum   'Na4 V26 O44'
_cell_volume   841.06449378
_cell_formula_units_Z   2
loop_
 _symmetry_equiv_pos_site_id
 _symmetry_equiv_pos_as_xyz
  1  'x, y, z'
loop_
 _atom_site_type_symbol
 _atom_site_label
 _atom_site_symmetry_multiplicity
 _atom_site_fract_x
 _atom_site_fract_y
 _atom_site_fract_z
 _atom_site_occupancy
  Na  Na0  1  0.33831408  0.09345687  0.33831408  1
  Na  Na1  1  0.83831408  0.40654313  0.83831408  1
  Na  Na2  1  0.16168592  0.59345687  0.16168592  1
  Na  Na3  1  0.66168592  0.90654313  0.66168592  1
  V  V4  1  0.18855815  0.81780877  0.93262856  1
  V  V5  1  0.06737144  0.18219123  0.81144185  1
  V  V6  1  0.22889734  0.50000000  0.77110266  1
  V  V7  1  0.44735433  0.34814584  0.93786010  1
  V  V8  1  0.06213990  0.65185416  0.55264567  1
  V  V9  1  0.43786010  0.15185416  0.94735433  1
  V  V10  1  0.05264567  0.84814584  0.56213990  1
  V  V11  1  0.27110266  0.00000000  0.72889734  1
  V  V12  1  0.43262856  0.68219123  0.68855815  1
  V  V13  1  0.31144185  0.31780877  0.56737144  1
  V  V14  1  0.00000000  0.00000000  0.00000000  1
  V  V15  1  0.66907121  0.15968900  0.66907121  1
  V  V16  1  0.16907121  0.34031100  0.16907121  1
  V  V17  1  0.50000000  0.50000000  0.50000000  1
  V  V18  1  0.33092879  0.84031100  0.33092879  1
  V  V19  1  0.83092879  0.65968900  0.83092879  1
  V  V20  1  0.56737144  0.31780877  0.31144185  1
  V  V21  1  0.68855815  0.68219123  0.43262856  1
  V  V22  1  0.72889734  0.00000000  0.27110266  1
  V  V23  1  0.56213990  0.84814584  0.05264567  1
  V  V24  1  0.94735433  0.15185416  0.43786010  1
  V  V25  1  0.55264567  0.65185416  0.06213990  1
  V  V26  1  0.93786010  0.34814584  0.44735433  1
  V  V27  1  0.77110266  0.50000000  0.22889734  1
  V  V28  1  0.81144185  0.18219123  0.06737144  1
  V  V29  1  0.93262856  0.81780877  0.18855815  1
  O  O30  1  0.23198739  0.42505141  0.97918775  1
  O  O31  1  0.02081225  0.57494859  0.76801261  1
  O  O32  1  0.21506876  0.07819141  0.94718246  1
  O  O33  1  0.05281754  0.92180859  0.78493124  1
  O  O34  1  0.38962873  0.90652006  0.87987927  1
  O  O35  1  0.12012073  0.09347994  0.61037127  1
  O  O36  1  0.29043469  0.25000000  0.79043469  1
  O  O37  1  0.20956531  0.75000000  0.70956531  1
  O  O38  1  0.37987927  0.59347994  0.88962873  1
  O  O39  1  0.11037127  0.40652006  0.62012073  1
  O  O40  1  0.63008987  0.24156828  0.88572772  1
  O  O41  1  0.11427228  0.75843172  0.36991013  1
  O  O42  1  0.13008987  0.25843172  0.38572772  1
  O  O43  1  0.61427228  0.74156828  0.86991013  1
  O  O44  1  0.44718246  0.42180859  0.71506876  1
  O  O45  1  0.28493124  0.57819141  0.55281754  1
  O  O46  1  0.47918775  0.07494859  0.73198739  1
  O  O47  1  0.26801261  0.92505141  0.52081225  1
  O  O48  1  0.85979643  0.09954065  0.85979643  1
  O  O49  1  0.50422321  0.24131917  0.50422321  1
  O  O50  1  0.00422321  0.25868083  0.00422321  1
  O  O51  1  0.35979643  0.40045935  0.35979643  1
  O  O52  1  0.64020357  0.59954065  0.64020357  1
  O  O53  1  0.49577679  0.75868083  0.49577679  1
  O  O54  1  0.14020357  0.90045935  0.14020357  1
  O  O55  1  0.99577679  0.74131917  0.99577679  1
  O  O56  1  0.73198739  0.07494859  0.47918775  1
  O  O57  1  0.52081225  0.92505141  0.26801261  1
  O  O58  1  0.71506876  0.42180859  0.44718246  1
  O  O59  1  0.55281754  0.57819141  0.28493124  1
  O  O60  1  0.38572772  0.25843172  0.13008987  1
  O  O61  1  0.36991013  0.75843172  0.11427228  1
  O  O62  1  0.88572772  0.24156828  0.63008987  1
  O  O63  1  0.86991013  0.74156828  0.61427228  1
  O  O64  1  0.62012073  0.40652006  0.11037127  1
  O  O65  1  0.88962873  0.59347994  0.37987927  1
  O  O66  1  0.79043469  0.25000000  0.29043469  1
  O  O67  1  0.70956531  0.75000000  0.20956531  1
  O  O68  1  0.61037127  0.09347994  0.12012073  1
  O  O69  1  0.87987927  0.90652006  0.38962873  1
  O  O70  1  0.94718246  0.07819141  0.21506876  1
  O  O71  1  0.78493124  0.92180859  0.05281754  1
  O  O72  1  0.97918775  0.42505141  0.23198739  1
  O  O73  1  0.76801261  0.57494859  0.02081225  1
