# generated using pymatgen
data_LiFe2(BO3)2
_symmetry_space_group_name_H-M   'P 1'
_cell_length_a   5.25419327
_cell_length_b   9.13929601
_cell_length_c   10.10471996
_cell_angle_alpha   91.11798927
_cell_angle_beta   89.97258742
_cell_angle_gamma   89.95390602
_symmetry_Int_Tables_number   1
_chemical_formula_structural   LiFe2(BO3)2
_chemical_formula_sum   'Li4 Fe8 B8 O24'
_cell_volume   485.13230299
_cell_formula_units_Z   4
loop_
 _symmetry_equiv_pos_site_id
 _symmetry_equiv_pos_as_xyz
  1  'x, y, z'
loop_
 _atom_site_type_symbol
 _atom_site_label
 _atom_site_symmetry_multiplicity
 _atom_site_fract_x
 _atom_site_fract_y
 _atom_site_fract_z
 _atom_site_occupancy
  Li  Li0  1  0.84694414  0.82795491  0.64498174  1
  Li  Li1  1  0.66424811  0.68061456  0.91054209  1
  Li  Li2  1  0.34492655  0.31895293  0.66200345  1
  Li  Li3  1  0.31135067  0.32628377  0.16592567  1
  Fe  Fe4  1  0.85212424  0.16008436  0.62447818  1
  Fe  Fe5  1  0.81839499  0.51167871  0.14006520  1
  Fe  Fe6  1  0.67224909  0.01376598  0.88082310  1
  Fe  Fe7  1  0.67707498  0.33722761  0.38007377  1
  Fe  Fe8  1  0.34922794  0.65851420  0.62402401  1
  Fe  Fe9  1  0.31353570  0.99446590  0.12870947  1
  Fe  Fe10  1  0.16588759  0.83509965  0.37097463  1
  Fe  Fe11  1  0.16543526  0.50001804  0.88027347  1
  B  B12  1  0.83722833  0.49755002  0.63211616  1
  B  B13  1  0.82818749  0.17220253  0.12647209  1
  B  B14  1  0.66345789  0.00048669  0.38053231  1
  B  B15  1  0.67146732  0.34119410  0.87207576  1
  B  B16  1  0.33944092  0.99682668  0.63247550  1
  B  B17  1  0.32936526  0.66166774  0.12312599  1
  B  B18  1  0.17194836  0.50669615  0.37723276  1
  B  B19  1  0.17101945  0.83273898  0.87615326  1
  O  O20  1  0.91513871  0.49414108  0.34695457  1
  O  O21  1  0.91114935  0.84682563  0.86172606  1
  O  O22  1  0.79129568  0.21084002  0.83836808  1
  O  O23  1  0.75231292  0.13784375  0.42133979  1
  O  O24  1  0.82008539  0.88260007  0.38975120  1
  O  O25  1  0.80938508  0.46406830  0.91387025  1
  O  O26  1  0.72006816  0.62989822  0.64362540  1
  O  O27  1  0.68582270  0.05688058  0.07257857  1
  O  O28  1  0.70415933  0.37316636  0.58503102  1
  O  O29  1  0.68871698  0.29489531  0.17547825  1
  O  O30  1  0.58380284  0.67016284  0.10262854  1
  O  O31  1  0.59412516  0.98687998  0.67816196  1
  O  O32  1  0.41260396  0.98738863  0.33815867  1
  O  O33  1  0.41357676  0.35298419  0.85833979  1
  O  O34  1  0.29008811  0.69770129  0.84620900  1
  O  O35  1  0.26674954  0.63937781  0.42222932  1
  O  O36  1  0.32863020  0.38833781  0.35924568  1
  O  O37  1  0.32438772  0.94587231  0.91853852  1
  O  O38  1  0.19854672  0.53089756  0.08383821  1
  O  O39  1  0.22175718  0.12878011  0.62999354  1
  O  O40  1  0.21366513  0.86891885  0.59035529  1
  O  O41  1  0.18898173  0.77845250  0.17534126  1
  O  O42  1  0.08549000  0.16891531  0.13156644  1
  O  O43  1  0.09258238  0.48172798  0.67248695  1
