# generated using pymatgen
data_V2OF5
_symmetry_space_group_name_H-M   'P 1'
_cell_length_a   4.71597079
_cell_length_b   17.41434818
_cell_length_c   5.06356629
_cell_angle_alpha   90.00000000
_cell_angle_beta   90.00000000
_cell_angle_gamma   89.98993262
_symmetry_Int_Tables_number   1
_chemical_formula_structural   V2OF5
_chemical_formula_sum   'V8 O4 F20'
_cell_volume   415.84819759
_cell_formula_units_Z   4
loop_
 _symmetry_equiv_pos_site_id
 _symmetry_equiv_pos_as_xyz
  1  'x, y, z'
loop_
 _atom_site_type_symbol
 _atom_site_label
 _atom_site_symmetry_multiplicity
 _atom_site_fract_x
 _atom_site_fract_y
 _atom_site_fract_z
 _atom_site_occupancy
  V  V0  1  0.02357391  0.28848461  0.78002091  1
  V  V1  1  0.99965695  0.71268614  0.24836120  1
  V  V2  1  0.49965695  0.21268614  0.25163880  1
  V  V3  1  0.47151088  0.55675612  0.23257438  1
  V  V4  1  0.50389954  0.45085033  0.74022107  1
  V  V5  1  0.52357391  0.78848461  0.71997909  1
  V  V6  1  0.97151088  0.05675612  0.26742562  1
  V  V7  1  0.00389954  0.95085033  0.75977893  1
  O  O8  1  0.24090151  0.28115919  0.04444436  1
  O  O9  1  0.24503096  0.62588367  0.13724844  1
  O  O10  1  0.74503096  0.12588367  0.36275156  1
  O  O11  1  0.74090151  0.78115919  0.45555564  1
  F  F12  1  0.21410459  0.03564308  0.56754543  1
  F  F13  1  0.24142539  0.37104096  0.60603981  1
  F  F14  1  0.25435046  0.12603923  0.11528829  1
  F  F15  1  0.23893409  0.21407971  0.56669762  1
  F  F16  1  0.20992113  0.96989561  0.08007766  1
  F  F17  1  0.24962841  0.71488141  0.57484152  1
  F  F18  1  0.28003629  0.53525042  0.57046524  1
  F  F19  1  0.28487751  0.46653862  0.06803177  1
  F  F20  1  0.25320639  0.78273221  0.05129745  1
  F  F21  1  0.26217299  0.87015570  0.61390241  1
  F  F22  1  0.70992113  0.46989561  0.41992234  1
  F  F23  1  0.74962841  0.21488141  0.92515848  1
  F  F24  1  0.71410459  0.53564308  0.93245457  1
  F  F25  1  0.78003629  0.03525042  0.92953476  1
  F  F26  1  0.75320639  0.28273221  0.44870255  1
  F  F27  1  0.76217299  0.37015570  0.88609759  1
  F  F28  1  0.74142539  0.87104096  0.89396019  1
  F  F29  1  0.75435046  0.62603923  0.38471171  1
  F  F30  1  0.73893409  0.71407971  0.93330238  1
  F  F31  1  0.78487751  0.96653862  0.43196823  1
