# generated using pymatgen
data_VO2F
_symmetry_space_group_name_H-M   'P 1'
_cell_length_a   5.18094476
_cell_length_b   11.58635404
_cell_length_c   5.31798720
_cell_angle_alpha   79.12302241
_cell_angle_beta   89.05426765
_cell_angle_gamma   102.18778076
_symmetry_Int_Tables_number   1
_chemical_formula_structural   VO2F
_chemical_formula_sum   'V6 O12 F6'
_cell_volume   305.90023906
_cell_formula_units_Z   6
loop_
 _symmetry_equiv_pos_site_id
 _symmetry_equiv_pos_as_xyz
  1  'x, y, z'
loop_
 _atom_site_type_symbol
 _atom_site_label
 _atom_site_symmetry_multiplicity
 _atom_site_fract_x
 _atom_site_fract_y
 _atom_site_fract_z
 _atom_site_occupancy
  V  V0  1  0.87735240  0.67883666  0.18447903  1
  V  V1  1  0.63098286  0.34512427  0.34695588  1
  V  V2  1  0.53899718  0.01174784  0.46262671  1
  V  V3  1  0.36015969  0.68515368  0.63655299  1
  V  V4  1  0.02959638  0.01890944  0.96760248  1
  V  V5  1  0.16113045  0.35225722  0.85194675  1
  O  O6  1  0.99826686  0.16180296  0.91035655  1
  O  O7  1  0.96923838  0.35516157  0.10668484  1
  O  O8  1  0.66546987  0.15905990  0.41599015  1
  O  O9  1  0.66025326  0.49327578  0.25632005  1
  O  O10  1  0.63131279  0.69250904  0.44048558  1
  O  O11  1  0.29690723  0.02172673  0.78304368  1
  O  O12  1  0.69366804  0.96745800  0.22913105  1
  O  O13  1  0.36394481  0.30301925  0.55475050  1
  O  O14  1  0.31885318  0.49541784  0.75421175  1
  O  O15  1  0.33306973  0.82897619  0.59301677  1
  O  O16  1  0.10565574  0.63803018  0.39848244  1
  O  O17  1  0.99229415  0.82568025  0.08970626  1
  F  F18  1  0.88572252  0.35886619  0.60942350  1
  F  F19  1  0.77325605  0.96350771  0.72827850  1
  F  F20  1  0.44569874  0.29884887  0.05086677  1
  F  F21  1  0.21530567  0.02660987  0.28545032  1
  F  F22  1  0.53985901  0.68546946  0.95048258  1
  F  F23  1  0.01300501  0.63255111  0.89315387  1
