# generated using pymatgen
data_Mn6O5F7
_symmetry_space_group_name_H-M   'P 1'
_cell_length_a   5.79640631
_cell_length_b   5.12678659
_cell_length_c   14.47441352
_cell_angle_alpha   91.94610485
_cell_angle_beta   86.79994217
_cell_angle_gamma   90.05593802
_symmetry_Int_Tables_number   1
_chemical_formula_structural   Mn6O5F7
_chemical_formula_sum   'Mn12 O10 F14'
_cell_volume   429.21665284
_cell_formula_units_Z   2
loop_
 _symmetry_equiv_pos_site_id
 _symmetry_equiv_pos_as_xyz
  1  'x, y, z'
loop_
 _atom_site_type_symbol
 _atom_site_label
 _atom_site_symmetry_multiplicity
 _atom_site_fract_x
 _atom_site_fract_y
 _atom_site_fract_z
 _atom_site_occupancy
  Mn  Mn0  1  0.12024595  0.97028997  0.00522739  1
  Mn  Mn1  1  0.83911110  0.48191217  0.16821658  1
  Mn  Mn2  1  0.07763481  0.98386047  0.33021845  1
  Mn  Mn3  1  0.90384788  0.53428723  0.49866153  1
  Mn  Mn4  1  0.12570351  0.02635406  0.66697513  1
  Mn  Mn5  1  0.06792006  0.46381801  0.83122252  1
  Mn  Mn6  1  0.55153995  0.98170670  0.16818870  1
  Mn  Mn7  1  0.43182014  0.43846922  0.01030171  1
  Mn  Mn8  1  0.41793726  0.54479741  0.66023778  1
  Mn  Mn9  1  0.57673855  0.04974646  0.50709384  1
  Mn  Mn10  1  0.37525321  0.51839658  0.32486938  1
  Mn  Mn11  1  0.55051165  0.02667941  0.82523680  1
  O  O12  1  0.12378236  0.68295593  0.40207406  1
  O  O13  1  0.21608606  0.25662306  0.92894105  1
  O  O14  1  0.17063711  0.71754217  0.73647094  1
  O  O15  1  0.34759810  0.13712800  0.08144715  1
  O  O16  1  0.32937685  0.82432375  0.25628277  1
  O  O17  1  0.37357671  0.87448678  0.59231629  1
  O  O18  1  0.32480644  0.23929301  0.73943603  1
  O  O19  1  0.62884912  0.36930348  0.57169103  1
  O  O20  1  0.59215828  0.31589718  0.23896869  1
  O  O21  1  0.61177107  0.65093649  0.09837698  1
  F  F22  1  0.07367535  0.31102587  0.25217502  1
  F  F23  1  0.09515592  0.64595163  0.08582574  1
  F  F24  1  0.12809961  0.34242285  0.58240218  1
  F  F25  1  0.40988406  0.74565272  0.92979174  1
  F  F26  1  0.35305733  0.21263076  0.40480751  1
  F  F27  1  0.69738065  0.28387002  0.91759580  1
  F  F28  1  0.62092209  0.72101610  0.42896483  1
  F  F29  1  0.64874605  0.69119315  0.75291451  1
  F  F30  1  0.84982567  0.17331057  0.42024144  1
  F  F31  1  0.83767827  0.12889865  0.08966311  1
  F  F32  1  0.87732534  0.17599055  0.74899161  1
  F  F33  1  0.89161210  0.87414134  0.58208273  1
  F  F34  1  0.94495177  0.77212206  0.91351383  1
  F  F35  1  0.81477662  0.83296520  0.24857616  1
