# generated using pymatgen
data_Li6MnV3(PO4)6
_symmetry_space_group_name_H-M   'P 1'
_cell_length_a   8.62813057
_cell_length_b   16.66494708
_cell_length_c   6.36385749
_cell_angle_alpha   84.43753329
_cell_angle_beta   105.97514954
_cell_angle_gamma   100.70388551
_symmetry_Int_Tables_number   1
_chemical_formula_structural   Li6MnV3(PO4)6
_chemical_formula_sum   'Li12 Mn2 V6 P12 O48'
_cell_volume   863.38045789
_cell_formula_units_Z   2
loop_
 _symmetry_equiv_pos_site_id
 _symmetry_equiv_pos_as_xyz
  1  'x, y, z'
loop_
 _atom_site_type_symbol
 _atom_site_label
 _atom_site_symmetry_multiplicity
 _atom_site_fract_x
 _atom_site_fract_y
 _atom_site_fract_z
 _atom_site_occupancy
  Li  Li0  1  0.99306804  0.00275587  0.24626114  1
  Li  Li1  1  0.99610704  0.50352861  0.74692751  1
  Li  Li2  1  0.71201269  0.14397589  0.60613311  1
  Li  Li3  1  0.71316565  0.64413019  0.10466131  1
  Li  Li4  1  0.50046472  0.25028175  0.24906027  1
  Li  Li5  1  0.50084901  0.25029203  0.75116285  1
  Li  Li6  1  0.49951237  0.74971160  0.24962580  1
  Li  Li7  1  0.49979007  0.74948008  0.75123753  1
  Li  Li8  1  0.28930935  0.35721873  0.89381872  1
  Li  Li9  1  0.28689310  0.85556401  0.39288701  1
  Li  Li10  1  0.00627849  0.49814430  0.25113224  1
  Li  Li11  1  0.00619580  0.99627763  0.75392155  1
  Mn  Mn12  1  0.37605697  0.52850401  0.60410797  1
  Mn  Mn13  1  0.05692465  0.68800090  0.94368615  1
  V  V14  1  0.94336106  0.31017180  0.04981712  1
  V  V15  1  0.94105558  0.81128593  0.54735549  1
  V  V16  1  0.62334815  0.47104501  0.38861728  1
  V  V17  1  0.37950431  0.02838487  0.11208557  1
  V  V18  1  0.61995382  0.97128718  0.88754339  1
  V  V19  1  0.05718265  0.18988959  0.45193635  1
  P  P20  1  0.71363281  0.14311961  0.10683748  1
  P  P21  1  0.86276638  0.33051805  0.53292071  1
  P  P22  1  0.86132931  0.83213489  0.03108643  1
  P  P23  1  0.71404967  0.64272546  0.60694715  1
  P  P24  1  0.66432327  0.43057456  0.93275696  1
  P  P25  1  0.66118399  0.93147502  0.43178270  1
  P  P26  1  0.33857413  0.06866918  0.56798876  1
  P  P27  1  0.34016563  0.56699687  0.06764100  1
  P  P28  1  0.28786402  0.35760656  0.39302328  1
  P  P29  1  0.13733849  0.16925042  0.96766469  1
  P  P30  1  0.13410056  0.67009721  0.46432135  1
  P  P31  1  0.28342151  0.85627136  0.89258338  1
  O  O32  1  0.95054896  0.30027814  0.37397955  1
  O  O33  1  0.98824865  0.32993717  0.76144446  1
  O  O34  1  0.82833849  0.12953784  0.33783693  1
  O  O35  1  0.73679847  0.23106617  0.00084496  1
  O  O36  1  0.98732552  0.83043650  0.25942687  1
  O  O37  1  0.84348906  0.42207696  0.46988054  1
  O  O38  1  0.74033123  0.08595986  0.94614051  1
  O  O39  1  0.84852224  0.42008445  0.98007325  1
  O  O40  1  0.70416258  0.27176651  0.52366765  1
  O  O41  1  0.94573974  0.80623719  0.86574674  1
  O  O42  1  0.66063094  0.49370837  0.09597836  1
  O  O43  1  0.53780654  0.13149059  0.13716666  1
  O  O44  1  0.74411279  0.58604039  0.44836887  1
  O  O45  1  0.82975693  0.63109333  0.84152296  1
  O  O46  1  0.84465352  0.92200562  0.47039566  1
  O  O47  1  0.70344779  0.77266009  0.02355535  1
  O  O48  1  0.73452333  0.73064230  0.50074419  1
  O  O49  1  0.84077267  0.92446179  0.97564348  1
  O  O50  1  0.61282565  0.47294651  0.69930968  1
  O  O51  1  0.45549452  0.14812889  0.55638524  1
  O  O52  1  0.46289364  0.36810471  0.36254205  1
  O  O53  1  0.33984400  0.00588912  0.40302607  1
  O  O54  1  0.54484080  0.35174276  0.94405105  1
  O  O55  1  0.60078462  0.97512068  0.19859822  1
  O  O56  1  0.39892350  0.02494619  0.80112977  1
  O  O57  1  0.45443644  0.64733683  0.05665924  1
  O  O58  1  0.66023052  0.99427312  0.59710031  1
  O  O59  1  0.53863390  0.62966916  0.64135522  1
  O  O60  1  0.54407895  0.85214260  0.44400981  1
  O  O61  1  0.40499443  0.52366418  0.30310319  1
  O  O62  1  0.15693573  0.07746651  0.03008447  1
  O  O63  1  0.26269453  0.26979153  0.50014363  1
  O  O64  1  0.29573515  0.22790748  0.97625864  1
  O  O65  1  0.15509884  0.07864461  0.52926139  1
  O  O66  1  0.17229794  0.37144122  0.16344973  1
  O  O67  1  0.26284291  0.41471624  0.55817379  1
  O  O68  1  0.46029206  0.86775253  0.86583293  1
  O  O69  1  0.34126585  0.50523287  0.89862857  1
  O  O70  1  0.05012157  0.19936199  0.12728783  1
  O  O71  1  0.29515007  0.72715500  0.47721631  1
  O  O72  1  0.15668673  0.57312325  0.03614210  1
  O  O73  1  0.25733139  0.91407050  0.05286368  1
  O  O74  1  0.14641263  0.57834519  0.53098203  1
  O  O75  1  0.01144005  0.16981194  0.73916859  1
  O  O76  1  0.25913175  0.76817881  0.00014440  1
  O  O77  1  0.17136222  0.87099616  0.66073566  1
  O  O78  1  0.01121173  0.67084009  0.23276715  1
  O  O79  1  0.04701710  0.70234889  0.62364506  1
