# generated using pymatgen
data_Mn3OF5
_symmetry_space_group_name_H-M   'P 1'
_cell_length_a   4.85541984
_cell_length_b   8.11396008
_cell_length_c   5.90200133
_cell_angle_alpha   92.14356290
_cell_angle_beta   90.00000000
_cell_angle_gamma   90.00000000
_symmetry_Int_Tables_number   1
_chemical_formula_structural   Mn3OF5
_chemical_formula_sum   'Mn6 O2 F10'
_cell_volume   232.35656737
_cell_formula_units_Z   2
loop_
 _symmetry_equiv_pos_site_id
 _symmetry_equiv_pos_as_xyz
  1  'x, y, z'
loop_
 _atom_site_type_symbol
 _atom_site_label
 _atom_site_symmetry_multiplicity
 _atom_site_fract_x
 _atom_site_fract_y
 _atom_site_fract_z
 _atom_site_occupancy
  Mn  Mn0  1  0.52508927  0.66933120  0.15798298  1
  Mn  Mn1  1  0.48367946  0.01327412  0.49709538  1
  Mn  Mn2  1  0.48311627  0.32805364  0.81792137  1
  Mn  Mn3  1  0.98311627  0.67194636  0.68207863  1
  Mn  Mn4  1  0.02508927  0.33066880  0.34201702  1
  Mn  Mn5  1  0.98367946  0.98672588  0.00290462  1
  O  O6  1  0.80770204  0.77897504  0.97377543  1
  O  O7  1  0.30770204  0.22102496  0.52622457  1
  F  F8  1  0.79456713  0.09957558  0.30124659  1
  F  F9  1  0.81175135  0.43483457  0.62661849  1
  F  F10  1  0.68250693  0.78572520  0.46680495  1
  F  F11  1  0.70312646  0.09600256  0.79973825  1
  F  F12  1  0.70846210  0.42876398  0.12983889  1
  F  F13  1  0.31175135  0.56516543  0.87338151  1
  F  F14  1  0.29456713  0.90042442  0.19875341  1
  F  F15  1  0.18250693  0.21427480  0.03319505  1
  F  F16  1  0.20312646  0.90399744  0.70026175  1
  F  F17  1  0.20846210  0.57123602  0.37016111  1
