# generated using pymatgen
data_Li3Co3NiO8
_symmetry_space_group_name_H-M   'P 1'
_cell_length_a   5.64224771
_cell_length_b   5.64220151
_cell_length_c   9.24581547
_cell_angle_alpha   89.99477107
_cell_angle_beta   90.00479541
_cell_angle_gamma   60.00104102
_symmetry_Int_Tables_number   1
_chemical_formula_structural   Li3Co3NiO8
_chemical_formula_sum   'Li6 Co6 Ni2 O16'
_cell_volume   254.90663750
_cell_formula_units_Z   2
loop_
 _symmetry_equiv_pos_site_id
 _symmetry_equiv_pos_as_xyz
  1  'x, y, z'
loop_
 _atom_site_type_symbol
 _atom_site_label
 _atom_site_symmetry_multiplicity
 _atom_site_fract_x
 _atom_site_fract_y
 _atom_site_fract_z
 _atom_site_occupancy
  Li  Li0  1  0.16931009  0.16989024  0.44740612  1
  Li  Li1  1  0.16953301  0.66048314  0.44736065  1
  Li  Li2  1  0.66005893  0.17002881  0.44724785  1
  Li  Li3  1  0.33991971  0.83009353  0.94724802  1
  Li  Li4  1  0.83067960  0.33916659  0.94739366  1
  Li  Li5  1  0.83041141  0.83000512  0.94733556  1
  Co  Co6  1  0.16739536  0.16750202  0.71446048  1
  Co  Co7  1  0.16739774  0.66517179  0.71445075  1
  Co  Co8  1  0.66504620  0.16751308  0.71444595  1
  Co  Co9  1  0.33490768  0.83259104  0.21444262  1
  Co  Co10  1  0.83255506  0.33493965  0.21446839  1
  Co  Co11  1  0.83255240  0.83259169  0.21445745  1
  Ni  Ni12  1  0.33362588  0.33322096  0.99227911  1
  Ni  Ni13  1  0.66634794  0.66684210  0.49230258  1
  O  O14  1  0.00003968  0.99996532  0.32196517  1
  O  O15  1  0.15404377  0.15373793  0.10124231  1
  O  O16  1  0.03208713  0.48400052  0.83278562  1
  O  O17  1  0.15404519  0.69223216  0.10133909  1
  O  O18  1  0.00003147  0.99995705  0.82196192  1
  O  O19  1  0.33318769  0.33346589  0.60348363  1
  O  O20  1  0.48409553  0.03189208  0.83264845  1
  O  O21  1  0.48410126  0.48410124  0.83261824  1
  O  O22  1  0.30738639  0.84630278  0.60113555  1
  O  O23  1  0.69257424  0.15372289  0.10111567  1
  O  O24  1  0.51581530  0.51607011  0.33263281  1
  O  O25  1  0.66666376  0.66673152  0.10346987  1
  O  O26  1  0.51581923  0.96821258  0.33260465  1
  O  O27  1  0.84594998  0.30780813  0.60121452  1
  O  O28  1  0.96788572  0.51611115  0.33279131  1
  O  O29  1  0.84595364  0.84623491  0.60132201  1
