# generated using pymatgen
data_Li3Fe2(SiO4)2
_symmetry_space_group_name_H-M   'P 1'
_cell_length_a   5.18064356
_cell_length_b   6.60464321
_cell_length_c   10.59666802
_cell_angle_alpha   89.70287453
_cell_angle_beta   89.44827511
_cell_angle_gamma   90.34931105
_symmetry_Int_Tables_number   1
_chemical_formula_structural   Li3Fe2(SiO4)2
_chemical_formula_sum   'Li6 Fe4 Si4 O16'
_cell_volume   362.55026160
_cell_formula_units_Z   2
loop_
 _symmetry_equiv_pos_site_id
 _symmetry_equiv_pos_as_xyz
  1  'x, y, z'
loop_
 _atom_site_type_symbol
 _atom_site_label
 _atom_site_symmetry_multiplicity
 _atom_site_fract_x
 _atom_site_fract_y
 _atom_site_fract_z
 _atom_site_occupancy
  Li  Li0  1  0.63357318  0.24875957  0.91157915  1
  Li  Li1  1  0.23643695  0.99682262  0.83965215  1
  Li  Li2  1  0.75471337  0.49744351  0.66046051  1
  Li  Li3  1  0.64599063  0.25651073  0.42247000  1
  Li  Li4  1  0.23471606  0.50248704  0.34462155  1
  Li  Li5  1  0.75749135  0.99916777  0.15652389  1
  Fe  Fe6  1  0.23206173  0.52002489  0.82065885  1
  Fe  Fe7  1  0.75184006  0.98459663  0.66874575  1
  Fe  Fe8  1  0.24565323  0.99285245  0.33290851  1
  Fe  Fe9  1  0.75651982  0.51279134  0.16360265  1
  Si  Si10  1  0.74761489  0.74882321  0.91086272  1
  Si  Si11  1  0.25380911  0.23991269  0.59242365  1
  Si  Si12  1  0.74523400  0.74924279  0.41175144  1
  Si  Si13  1  0.25217275  0.25953103  0.09128191  1
  O  O14  1  0.20529218  0.25684817  0.94113630  1
  O  O15  1  0.05833901  0.75683061  0.88849237  1
  O  O16  1  0.62260084  0.95991893  0.85372483  1
  O  O17  1  0.63372358  0.53803319  0.84779279  1
  O  O18  1  0.13343266  0.04159721  0.66215274  1
  O  O19  1  0.13093392  0.44750678  0.64693362  1
  O  O20  1  0.57332823  0.24268505  0.60166599  1
  O  O21  1  0.68656608  0.74116682  0.55944538  1
  O  O22  1  0.20514504  0.23131631  0.43275570  1
  O  O23  1  0.05597785  0.75873642  0.37409626  1
  O  O24  1  0.63396288  0.54217635  0.33780114  1
  O  O25  1  0.61588465  0.95451570  0.34195581  1
  O  O26  1  0.11334189  0.44940630  0.16703743  1
  O  O27  1  0.14314400  0.05529820  0.16654221  1
  O  O28  1  0.57394686  0.27128663  0.11347782  1
  O  O29  1  0.68976021  0.74377004  0.06742689  1
