# generated using pymatgen
data_RbMg14Sn
_symmetry_space_group_name_H-M   'P 1'
_cell_length_a   6.54287238
_cell_length_b   6.66892105
_cell_length_c   10.64889952
_cell_angle_alpha   90.00000000
_cell_angle_beta   90.00000000
_cell_angle_gamma   120.63936076
_symmetry_Int_Tables_number   1
_chemical_formula_structural   RbMg14Sn
_chemical_formula_sum   'Rb1 Mg14 Sn1'
_cell_volume   399.78379045
_cell_formula_units_Z   1
loop_
 _symmetry_equiv_pos_site_id
 _symmetry_equiv_pos_as_xyz
  1  'x, y, z'
loop_
 _atom_site_type_symbol
 _atom_site_label
 _atom_site_symmetry_multiplicity
 _atom_site_fract_x
 _atom_site_fract_y
 _atom_site_fract_z
 _atom_site_occupancy
  Rb  Rb0  1  0.16876743  0.83438321  0.12500000  1
  Mg  Mg1  1  0.16476885  0.33238393  0.62500000  1
  Mg  Mg2  1  0.16840845  0.83420372  0.62500000  1
  Mg  Mg3  1  0.66529551  0.33837085  0.12500000  1
  Mg  Mg4  1  0.66917918  0.33171059  0.62500000  1
  Mg  Mg5  1  0.66529551  0.82692366  0.12500000  1
  Mg  Mg6  1  0.66917918  0.83746760  0.62500000  1
  Mg  Mg7  1  0.33513700  0.17651728  0.38815067  1
  Mg  Mg8  1  0.33513700  0.17651728  0.86184933  1
  Mg  Mg9  1  0.33513700  0.65862072  0.38815067  1
  Mg  Mg10  1  0.33513700  0.65862072  0.86184933  1
  Mg  Mg11  1  0.83222193  0.16611147  0.37137887  1
  Mg  Mg12  1  0.83222193  0.16611147  0.87862113  1
  Mg  Mg13  1  0.82087164  0.66043632  0.39127345  1
  Mg  Mg14  1  0.82087164  0.66043632  0.85872655  1
  Sn  Sn15  1  0.18237075  0.34118488  0.12500000  1
