# generated using pymatgen
data_LaMg6Sn
_symmetry_space_group_name_H-M   'P 1'
_cell_length_a   6.79939087
_cell_length_b   6.79939026
_cell_length_c   5.14234571
_cell_angle_alpha   90.00000000
_cell_angle_beta   90.00000000
_cell_angle_gamma   120.17908736
_symmetry_Int_Tables_number   1
_chemical_formula_structural   LaMg6Sn
_chemical_formula_sum   'La1 Mg6 Sn1'
_cell_volume   205.51584789
_cell_formula_units_Z   1
loop_
 _symmetry_equiv_pos_site_id
 _symmetry_equiv_pos_as_xyz
  1  'x, y, z'
loop_
 _atom_site_type_symbol
 _atom_site_label
 _atom_site_symmetry_multiplicity
 _atom_site_fract_x
 _atom_site_fract_y
 _atom_site_fract_z
 _atom_site_occupancy
  La  La0  1  0.32785464  0.17214536  0.75000000  1
  Mg  Mg1  1  0.15800280  0.81165620  0.25000000  1
  Mg  Mg2  1  0.68834380  0.34199720  0.25000000  1
  Mg  Mg3  1  0.66756901  0.83243099  0.25000000  1
  Mg  Mg4  1  0.32994712  0.67174653  0.75000000  1
  Mg  Mg5  1  0.82825347  0.17005288  0.75000000  1
  Mg  Mg6  1  0.83732100  0.66267900  0.75000000  1
  Sn  Sn7  1  0.16270816  0.33729184  0.25000000  1
