# generated using pymatgen
data_YbTl(MoO4)2
_symmetry_space_group_name_H-M   'P 1'
_cell_length_a   6.24163047
_cell_length_b   15.22521112
_cell_length_c   9.05711625
_cell_angle_alpha   90.00000000
_cell_angle_beta   90.00000000
_cell_angle_gamma   90.00000000
_symmetry_Int_Tables_number   1
_chemical_formula_structural   YbTl(MoO4)2
_chemical_formula_sum   'Yb4 Tl4 Mo8 O32'
_cell_volume   860.69904008
_cell_formula_units_Z   4
loop_
 _symmetry_equiv_pos_site_id
 _symmetry_equiv_pos_as_xyz
  1  'x, y, z'
loop_
 _atom_site_type_symbol
 _atom_site_label
 _atom_site_symmetry_multiplicity
 _atom_site_fract_x
 _atom_site_fract_y
 _atom_site_fract_z
 _atom_site_occupancy
  Yb  Yb0  1  0.75000000  0.89866189  0.69439635  1
  Yb  Yb1  1  0.25000000  0.10133811  0.30560365  1
  Yb  Yb2  1  0.25000000  0.60133811  0.19439635  1
  Yb  Yb3  1  0.75000000  0.39866189  0.80560365  1
  Tl  Tl4  1  0.75000000  0.62360120  0.57133548  1
  Tl  Tl5  1  0.25000000  0.37639880  0.42866452  1
  Tl  Tl6  1  0.25000000  0.87639880  0.07133548  1
  Tl  Tl7  1  0.75000000  0.12360120  0.92866452  1
  Mo  Mo8  1  0.75000000  0.95917123  0.27094962  1
  Mo  Mo9  1  0.25000000  0.04082877  0.72905038  1
  Mo  Mo10  1  0.25000000  0.54082877  0.77094962  1
  Mo  Mo11  1  0.75000000  0.45917123  0.22905038  1
  Mo  Mo12  1  0.75000000  0.71708647  0.00117201  1
  Mo  Mo13  1  0.25000000  0.28291353  0.99882799  1
  Mo  Mo14  1  0.25000000  0.78291353  0.50117201  1
  Mo  Mo15  1  0.75000000  0.21708647  0.49882799  1
  O  O16  1  0.75000000  0.84746835  0.21318327  1
  O  O17  1  0.25000000  0.15253165  0.78681673  1
  O  O18  1  0.25000000  0.65253165  0.71318327  1
  O  O19  1  0.75000000  0.34746835  0.28681673  1
  O  O20  1  0.75000000  0.96562221  0.46734525  1
  O  O21  1  0.25000000  0.03437779  0.53265475  1
  O  O22  1  0.25000000  0.53437779  0.96734525  1
  O  O23  1  0.75000000  0.46562221  0.03265475  1
  O  O24  1  0.75000000  0.64046273  0.84928790  1
  O  O25  1  0.25000000  0.35953727  0.15071210  1
  O  O26  1  0.25000000  0.85953727  0.34928790  1
  O  O27  1  0.75000000  0.14046273  0.65071210  1
  O  O28  1  0.75000000  0.82409435  0.91474496  1
  O  O29  1  0.25000000  0.17590565  0.08525504  1
  O  O30  1  0.25000000  0.67590565  0.41474496  1
  O  O31  1  0.75000000  0.32409435  0.58525504  1
  O  O32  1  0.00790578  0.80450790  0.60324130  1
  O  O33  1  0.99209422  0.19549210  0.39675870  1
  O  O34  1  0.99209422  0.69549210  0.10324130  1
  O  O35  1  0.50790578  0.19549210  0.39675870  1
  O  O36  1  0.00790578  0.30450790  0.89675870  1
  O  O37  1  0.49209422  0.80450790  0.60324130  1
  O  O38  1  0.49209422  0.30450790  0.89675870  1
  O  O39  1  0.50790578  0.69549210  0.10324130  1
  O  O40  1  0.48780524  0.98759265  0.80374326  1
  O  O41  1  0.51219476  0.01240735  0.19625674  1
  O  O42  1  0.51219476  0.51240735  0.30374326  1
  O  O43  1  0.98780524  0.01240735  0.19625674  1
  O  O44  1  0.48780524  0.48759265  0.69625674  1
  O  O45  1  0.01219476  0.98759265  0.80374326  1
  O  O46  1  0.01219476  0.48759265  0.69625674  1
  O  O47  1  0.98780524  0.51240735  0.30374326  1
