# generated using pymatgen
data_Li6MnV3(PO4)6
_symmetry_space_group_name_H-M   'P 1'
_cell_length_a   8.80239755
_cell_length_b   8.80108869
_cell_length_c   14.49407051
_cell_angle_alpha   106.30311618
_cell_angle_beta   73.66411314
_cell_angle_gamma   119.36800837
_symmetry_Int_Tables_number   1
_chemical_formula_structural   Li6MnV3(PO4)6
_chemical_formula_sum   'Li12 Mn2 V6 P12 O48'
_cell_volume   925.27129648
_cell_formula_units_Z   2
loop_
 _symmetry_equiv_pos_site_id
 _symmetry_equiv_pos_as_xyz
  1  'x, y, z'
loop_
 _atom_site_type_symbol
 _atom_site_label
 _atom_site_symmetry_multiplicity
 _atom_site_fract_x
 _atom_site_fract_y
 _atom_site_fract_z
 _atom_site_occupancy
  Li  Li0  1  0.01391387  0.85667251  0.11364002  1
  Li  Li1  1  0.99820144  0.49718608  0.99794698  1
  Li  Li2  1  0.10532569  0.76495160  0.63689663  1
  Li  Li3  1  0.25052314  0.24911736  0.24986857  1
  Li  Li4  1  0.48603075  0.64366182  0.38707850  1
  Li  Li5  1  0.39227115  0.73521543  0.86195726  1
  Li  Li6  1  0.60630519  0.26396871  0.13658330  1
  Li  Li7  1  0.51536231  0.35823088  0.61183859  1
  Li  Li8  1  0.75184437  0.75247605  0.74831142  1
  Li  Li9  1  0.50000848  0.00009035  0.50015736  1
  Li  Li10  1  0.89286255  0.23508291  0.36363403  1
  Li  Li11  1  0.98529552  0.14555716  0.88622569  1
  Mn  Mn12  1  0.07303195  0.42517144  0.78483120  1
  Mn  Mn13  1  0.82878172  0.67867943  0.53419674  1
  V  V14  1  0.17375699  0.31773734  0.46292250  1
  V  V15  1  0.56831008  0.92195239  0.28659798  1
  V  V16  1  0.32524662  0.18036743  0.03717140  1
  V  V17  1  0.67267598  0.81773087  0.96245241  1
  V  V18  1  0.43362588  0.07742563  0.71270629  1
  V  V19  1  0.93075174  0.57610187  0.21274983  1
  P  P20  1  0.33126191  0.86780116  0.11861636  1
  P  P21  1  0.16780660  0.63239166  0.38190965  1
  P  P22  1  0.07667529  0.82557833  0.87428470  1
  P  P23  1  0.11876037  0.08373931  0.63348026  1
  P  P24  1  0.43015438  0.67808553  0.62325553  1
  P  P25  1  0.61756397  0.58110818  0.13131734  1
  P  P26  1  0.38148582  0.41780835  0.86822295  1
  P  P27  1  0.57240800  0.32224243  0.37433707  1
  P  P28  1  0.88126622  0.91679849  0.36934099  1
  P  P29  1  0.92318221  0.17307000  0.12502725  1
  P  P30  1  0.83325043  0.36950991  0.61824212  1
  P  P31  1  0.66702807  0.13117556  0.88288237  1
  O  O32  1  0.14067934  0.71728052  0.11361522  1
  O  O33  1  0.08832544  0.61613079  0.29710498  1
  O  O34  1  0.05771091  0.67006703  0.48159200  1
  O  O35  1  0.44379150  0.83319925  0.01994964  1
  O  O36  1  0.40972946  0.88335642  0.20376432  1
  O  O37  1  0.10647353  0.18917375  0.12811155  1
  O  O38  1  0.19712658  0.89809795  0.78086246  1
  O  O39  1  0.17800833  0.45300490  0.36585671  1
  O  O40  1  0.14663886  0.94635863  0.96861004  1
  O  O41  1  0.03151127  0.10771601  0.36415093  1
  O  O42  1  0.35875451  0.78193265  0.38651869  1
  O  O43  1  0.06476707  0.64370932  0.87792760  1
  O  O44  1  0.44508245  0.86069377  0.61913751  1
  O  O45  1  0.13286950  0.16133576  0.54805133  1
  O  O46  1  0.63389104  0.66043607  0.04640615  1
  O  O47  1  0.35381769  0.55518009  0.53088661  1
  O  O48  1  0.08308931  0.19818372  0.73237069  1
  O  O49  1  0.46644278  0.39057614  0.13604896  1
  O  O50  1  0.31566271  0.61223669  0.71901707  1
  O  O51  1  0.58302996  0.69281006  0.23042076  1
  O  O52  1  0.31911546  0.04643308  0.13546551  1
  O  O53  1  0.20161978  0.42914439  0.88447204  1
  O  O54  1  0.38974592  0.30642320  0.36955607  1
  O  O55  1  0.70230291  0.92812554  0.38534962  1
  O  O56  1  0.30015966  0.07592136  0.61559792  1
  O  O57  1  0.61338855  0.69083496  0.62493885  1
  O  O58  1  0.79622664  0.56962404  0.11499784  1
  O  O59  1  0.67632586  0.95043528  0.86495326  1
  O  O60  1  0.41657640  0.30552583  0.76996899  1
  O  O61  1  0.69511351  0.39661865  0.28129581  1
  O  O62  1  0.53214570  0.60810442  0.86343869  1
  O  O63  1  0.91538610  0.80514983  0.26988247  1
  O  O64  1  0.63870492  0.43774567  0.46930088  1
  O  O65  1  0.36427028  0.34007368  0.95423981  1
  O  O66  1  0.86710273  0.83892067  0.45442099  1
  O  O67  1  0.55691070  0.13837701  0.37603738  1
  O  O68  1  0.93967698  0.35653035  0.12224065  1
  O  O69  1  0.64279600  0.21894404  0.61364410  1
  O  O70  1  0.97061768  0.89518434  0.64198139  1
  O  O71  1  0.85142447  0.05260305  0.03144910  1
  O  O72  1  0.82085918  0.54881735  0.63305695  1
  O  O73  1  0.80350044  0.10134878  0.21895934  1
  O  O74  1  0.89277033  0.80845456  0.87187353  1
  O  O75  1  0.59063870  0.11719916  0.79701584  1
  O  O76  1  0.54912900  0.16117317  0.98087104  1
  O  O77  1  0.94470879  0.33400179  0.51939030  1
  O  O78  1  0.91171717  0.38916547  0.70453123  1
  O  O79  1  0.85469318  0.28095767  0.89197987  1
