# generated using pymatgen
data_LiFe2(BO3)2
_symmetry_space_group_name_H-M   'P 1'
_cell_length_a   5.24665356
_cell_length_b   9.11349174
_cell_length_c   11.33475663
_cell_angle_alpha   67.18419063
_cell_angle_beta   76.91028306
_cell_angle_gamma   89.36196464
_symmetry_Int_Tables_number   1
_chemical_formula_structural   LiFe2(BO3)2
_chemical_formula_sum   'Li4 Fe8 B8 O24'
_cell_volume   484.81027034
_cell_formula_units_Z   4
loop_
 _symmetry_equiv_pos_site_id
 _symmetry_equiv_pos_as_xyz
  1  'x, y, z'
loop_
 _atom_site_type_symbol
 _atom_site_label
 _atom_site_symmetry_multiplicity
 _atom_site_fract_x
 _atom_site_fract_y
 _atom_site_fract_z
 _atom_site_occupancy
  Li  Li0  1  0.71466419  0.72298062  0.90036760  1
  Li  Li1  1  0.52784034  0.51091100  0.63368861  1
  Li  Li2  1  0.21773842  0.21995509  0.90516316  1
  Li  Li3  1  0.22851205  0.24742862  0.16584650  1
  Fe  Fe4  1  0.98439783  0.64470114  0.37496060  1
  Fe  Fe5  1  0.73215705  0.06540814  0.87974611  1
  Fe  Fe6  1  0.51210416  0.85387189  0.62936456  1
  Fe  Fe7  1  0.74920904  0.44663837  0.13343840  1
  Fe  Fe8  1  0.23773420  0.55913870  0.88223162  1
  Fe  Fe9  1  0.48935499  0.15124285  0.37996018  1
  Fe  Fe10  1  0.03486555  0.33865381  0.62666676  1
  Fe  Fe11  1  0.25094270  0.92329086  0.13399216  1
  B  B12  1  0.98215333  0.31673964  0.37535159  1
  B  B13  1  0.73612702  0.39517542  0.87414681  1
  B  B14  1  0.53372828  0.18510749  0.63402761  1
  B  B15  1  0.76436910  0.11193531  0.12173072  1
  B  B16  1  0.47097682  0.80737076  0.38702523  1
  B  B17  1  0.22834426  0.90123611  0.87435801  1
  B  B18  1  0.01107562  0.68037962  0.63141720  1
  B  B19  1  0.26532874  0.59938988  0.12593115  1
  O  O20  1  0.96591414  0.90131342  0.87885915  1
  O  O21  1  0.89403126  0.27986364  0.84678273  1
  O  O22  1  0.84123688  0.50369072  0.91167492  1
  O  O23  1  0.84795837  0.79168358  0.65040444  1
  O  O24  1  0.92827957  0.57116864  0.58672811  1
  O  O25  1  0.75412250  0.15265436  0.68584111  1
  O  O26  1  0.74177445  0.32340579  0.34254321  1
  O  O27  1  0.47962448  0.39496545  0.86255469  1
  O  O28  1  0.38199678  0.79636626  0.83148330  1
  O  O29  1  0.53655226  0.92397046  0.43145352  1
  O  O30  1  0.62843921  0.68676967  0.39344891  1
  O  O31  1  0.34834161  0.00420046  0.91423682  1
  O  O32  1  0.64106290  0.02187891  0.07256938  1
  O  O33  1  0.39936859  0.31186795  0.63661452  1
  O  O34  1  0.45486952  0.08142647  0.58091190  1
  O  O35  1  0.60614928  0.20433933  0.17862564  1
  O  O36  1  0.53174515  0.62559146  0.09655807  1
  O  O37  1  0.26156613  0.67177683  0.65980958  1
  O  O38  1  0.24326704  0.81816437  0.34246900  1
  O  O39  1  0.05035492  0.42275893  0.42483892  1
  O  O40  1  0.15094755  0.20777957  0.35576628  1
  O  O41  1  0.15164231  0.48494497  0.09399175  1
  O  O42  1  0.10444331  0.69218943  0.18056795  1
  O  O43  1  0.03214012  0.11563299  0.11033554  1
