# generated using pymatgen
data_Li6MnV3(PO4)6
_symmetry_space_group_name_H-M   'P 1'
_cell_length_a   8.63046465
_cell_length_b   8.62738077
_cell_length_c   12.73574953
_cell_angle_alpha   74.00233163
_cell_angle_beta   105.93532673
_cell_angle_gamma   85.57000429
_symmetry_Int_Tables_number   1
_chemical_formula_structural   Li6MnV3(PO4)6
_chemical_formula_sum   'Li12 Mn2 V6 P12 O48'
_cell_volume   864.45257746
_cell_formula_units_Z   2
loop_
 _symmetry_equiv_pos_site_id
 _symmetry_equiv_pos_as_xyz
  1  'x, y, z'
loop_
 _atom_site_type_symbol
 _atom_site_label
 _atom_site_symmetry_multiplicity
 _atom_site_fract_x
 _atom_site_fract_y
 _atom_site_fract_z
 _atom_site_occupancy
  Li  Li0  1  0.00180492  0.00562498  0.87429215  1
  Li  Li1  1  0.00664694  0.00488609  0.37627183  1
  Li  Li2  1  0.28751316  0.28823148  0.62575097  1
  Li  Li3  1  0.50006484  0.49925997  0.74937507  1
  Li  Li4  1  0.28776678  0.28834688  0.12481228  1
  Li  Li5  1  0.50083501  0.49954204  0.50042079  1
  Li  Li6  1  0.71058367  0.71473412  0.87378018  1
  Li  Li7  1  0.49967134  0.50026761  0.25068166  1
  Li  Li8  1  0.49850946  0.50050103  0.99902981  1
  Li  Li9  1  0.71251497  0.71043505  0.37656013  1
  Li  Li10  1  0.99247638  0.99624882  0.62632216  1
  Li  Li11  1  0.99698300  0.99507010  0.12418943  1
  Mn  Mn12  1  0.62465314  0.05744803  0.93363805  1
  Mn  Mn13  1  0.94279087  0.37469913  0.68384195  1
  V  V14  1  0.05826340  0.62266149  0.81888349  1
  V  V15  1  0.05746115  0.62082669  0.32114094  1
  V  V16  1  0.37885480  0.94197965  0.57082878  1
  V  V17  1  0.37698012  0.94194564  0.06948419  1
  V  V18  1  0.61917619  0.05626728  0.43037914  1
  V  V19  1  0.94333485  0.38069917  0.18008239  1
  P  P20  1  0.28620983  0.28596091  0.87501455  1
  P  P21  1  0.13909804  0.66472544  0.56778382  1
  P  P22  1  0.33549829  0.86067957  0.81821039  1
  P  P23  1  0.28654480  0.28630109  0.37508510  1
  P  P24  1  0.13721129  0.66098356  0.06828350  1
  P  P25  1  0.33851396  0.86286522  0.31791145  1
  P  P26  1  0.66044563  0.13287645  0.68369388  1
  P  P27  1  0.86734810  0.33934408  0.93203491  1
  P  P28  1  0.71606557  0.71191285  0.62545877  1
  P  P29  1  0.66091934  0.13816929  0.18119283  1
  P  P30  1  0.86193058  0.33892482  0.43299074  1
  P  P31  1  0.71255250  0.71503790  0.12501153  1
  O  O32  1  0.01270941  0.66088582  0.95404235  1
  O  O33  1  0.05436940  0.61371300  0.66312946  1
  O  O34  1  0.25651238  0.17247482  0.98287622  1
  O  O35  1  0.01201082  0.66041566  0.45506632  1
  O  O36  1  0.17061019  0.26285561  0.76355094  1
  O  O37  1  0.15112389  0.84095984  0.79898216  1
  O  O38  1  0.26576577  0.46163751  0.88456742  1
  O  O39  1  0.15968929  0.84951087  0.54781347  1
  O  O40  1  0.04927124  0.60129376  0.16295912  1
  O  O41  1  0.25991559  0.17217705  0.48407260  1
  O  O42  1  0.17175497  0.25928564  0.26664205  1
  O  O43  1  0.15498684  0.84284912  0.30306038  1
  O  O44  1  0.29626624  0.54570160  0.60129557  1
  O  O45  1  0.38615222  0.94564888  0.91338607  1
  O  O46  1  0.33925416  0.98701360  0.70477228  1
  O  O47  1  0.46154900  0.25984313  0.86446555  1
  O  O48  1  0.26361592  0.46252962  0.38354396  1
  O  O49  1  0.45479875  0.70346479  0.85177706  1
  O  O50  1  0.15660780  0.84438305  0.05451659  1
  O  O51  1  0.29589870  0.54383818  0.10245845  1
  O  O52  1  0.39813183  0.95044824  0.41268788  1
  O  O53  1  0.54659408  0.29398648  0.64889851  1
  O  O54  1  0.33971764  0.98884897  0.20422311  1
  O  O55  1  0.46242797  0.26300013  0.36569616  1
  O  O56  1  0.53912683  0.73446590  0.63293342  1
  O  O57  1  0.65835754  0.00996972  0.79923431  1
  O  O58  1  0.45574899  0.70449627  0.35184629  1
  O  O59  1  0.59708276  0.04711899  0.58795281  1
  O  O60  1  0.70602665  0.45216185  0.89841490  1
  O  O61  1  0.85683724  0.15523563  0.94634149  1
  O  O62  1  0.54407212  0.29661776  0.14723924  1
  O  O63  1  0.74080533  0.53602028  0.61536794  1
  O  O64  1  0.53745003  0.73611620  0.13513006  1
  O  O65  1  0.66039282  0.01282669  0.29530801  1
  O  O66  1  0.59915585  0.04951563  0.08624097  1
  O  O67  1  0.70377196  0.45686865  0.39796151  1
  O  O68  1  0.84427411  0.14467851  0.69741877  1
  O  O69  1  0.82741318  0.74109303  0.73416896  1
  O  O70  1  0.74239848  0.82828718  0.51670503  1
  O  O71  1  0.95306132  0.40469505  0.83576668  1
  O  O72  1  0.84104266  0.15590709  0.44586515  1
  O  O73  1  0.73722203  0.53914999  0.11594685  1
  O  O74  1  0.84394568  0.15789894  0.19436168  1
  O  O75  1  0.82845246  0.74316599  0.23264768  1
  O  O76  1  0.98696323  0.33703126  0.54843662  1
  O  O77  1  0.73666005  0.82913553  0.01362577  1
  O  O78  1  0.95038707  0.39875802  0.33841737  1
  O  O79  1  0.99039157  0.34456600  0.04574998  1
