# generated using pymatgen
data_Cr3(CuO6)2
_symmetry_space_group_name_H-M   'P 1'
_cell_length_a   8.62978104
_cell_length_b   12.19032726
_cell_length_c   9.01237753
_cell_angle_alpha   90.00000000
_cell_angle_beta   90.00000000
_cell_angle_gamma   90.72282863
_symmetry_Int_Tables_number   1
_chemical_formula_structural   Cr3(CuO6)2
_chemical_formula_sum   'Cr12 Cu8 O48'
_cell_volume   948.02536296
_cell_formula_units_Z   4
loop_
 _symmetry_equiv_pos_site_id
 _symmetry_equiv_pos_as_xyz
  1  'x, y, z'
loop_
 _atom_site_type_symbol
 _atom_site_label
 _atom_site_symmetry_multiplicity
 _atom_site_fract_x
 _atom_site_fract_y
 _atom_site_fract_z
 _atom_site_occupancy
  Cr  Cr0  1  0.03852165  0.49177220  0.24810595  1
  Cr  Cr1  1  0.10847853  0.85052940  0.37908015  1
  Cr  Cr2  1  0.11416877  0.14330217  0.11312062  1
  Cr  Cr3  1  0.39152147  0.64947060  0.87908015  1
  Cr  Cr4  1  0.38583123  0.35669783  0.61312062  1
  Cr  Cr5  1  0.46147835  0.00822780  0.74810595  1
  Cr  Cr6  1  0.53852165  0.99177220  0.25189405  1
  Cr  Cr7  1  0.61416877  0.64330217  0.38687938  1
  Cr  Cr8  1  0.60847853  0.35052940  0.12091985  1
  Cr  Cr9  1  0.88583123  0.85669783  0.88687938  1
  Cr  Cr10  1  0.89152147  0.14947060  0.62091985  1
  Cr  Cr11  1  0.96147835  0.50822780  0.75189405  1
  Cu  Cu12  1  0.25230798  0.88661623  0.02859343  1
  Cu  Cu13  1  0.24769202  0.61338377  0.52859343  1
  Cu  Cu14  1  0.25310260  0.38215525  0.96980034  1
  Cu  Cu15  1  0.24689740  0.11784475  0.46980034  1
  Cu  Cu16  1  0.75310260  0.88215525  0.53019966  1
  Cu  Cu17  1  0.74689740  0.61784475  0.03019966  1
  Cu  Cu18  1  0.75230798  0.38661623  0.47140657  1
  Cu  Cu19  1  0.74769202  0.11338377  0.97140657  1
  O  O20  1  0.06565897  0.44580209  0.88016132  1
  O  O21  1  0.06820432  0.90296374  0.88605126  1
  O  O22  1  0.06609450  0.60834488  0.66920984  1
  O  O23  1  0.07105822  0.18884342  0.57273430  1
  O  O24  1  0.09782052  0.58816842  0.36707581  1
  O  O25  1  0.12114396  0.83681383  0.19415003  1
  O  O26  1  0.13582040  0.98162310  0.42232111  1
  O  O27  1  0.12724597  0.24822479  0.99535212  1
  O  O28  1  0.16604962  0.18412173  0.28267758  1
  O  O29  1  0.19283028  0.43293394  0.17129641  1
  O  O30  1  0.23741123  0.77341631  0.46778813  1
  O  O31  1  0.26258977  0.72658369  0.96778813  1
  O  O32  1  0.23767904  0.04568925  0.05920640  1
  O  O33  1  0.26232096  0.45431075  0.55920640  1
  O  O34  1  0.30716972  0.06706606  0.67129641  1
  O  O35  1  0.33395038  0.31587827  0.78267758  1
  O  O36  1  0.36417960  0.51837690  0.92232111  1
  O  O37  1  0.37275403  0.25177521  0.49535212  1
  O  O38  1  0.37885604  0.66318617  0.69415003  1
  O  O39  1  0.40217948  0.91183158  0.86707581  1
  O  O40  1  0.43390550  0.89165512  0.16920984  1
  O  O41  1  0.43179568  0.59703626  0.38605126  1
  O  O42  1  0.42894178  0.31115658  0.07273430  1
  O  O43  1  0.43434103  0.05419791  0.38016132  1
  O  O44  1  0.56565897  0.94580209  0.61983868  1
  O  O45  1  0.57105822  0.68884342  0.92726570  1
  O  O46  1  0.56820432  0.40296374  0.61394874  1
  O  O47  1  0.56609450  0.10834488  0.83079016  1
  O  O48  1  0.59782052  0.08816842  0.13292419  1
  O  O49  1  0.62114396  0.33681383  0.30584997  1
  O  O50  1  0.62724597  0.74822479  0.50464788  1
  O  O51  1  0.63582040  0.48162310  0.07767889  1
  O  O52  1  0.66604962  0.68412173  0.21732242  1
  O  O53  1  0.69283028  0.93293394  0.32870359  1
  O  O54  1  0.73767904  0.54568925  0.44079360  1
  O  O55  1  0.76232096  0.95431075  0.94079360  1
  O  O56  1  0.73741023  0.27341631  0.03221187  1
  O  O57  1  0.76258977  0.22658369  0.53221187  1
  O  O58  1  0.80716972  0.56706606  0.82870359  1
  O  O59  1  0.83395038  0.81587827  0.71732242  1
  O  O60  1  0.87275403  0.75177521  0.00464788  1
  O  O61  1  0.86417960  0.01837690  0.57767889  1
  O  O62  1  0.87885604  0.16318617  0.80584997  1
  O  O63  1  0.90217948  0.41183158  0.63292419  1
  O  O64  1  0.92894178  0.81115658  0.42726570  1
  O  O65  1  0.93390550  0.39165512  0.33079016  1
  O  O66  1  0.93179568  0.09703626  0.11394874  1
  O  O67  1  0.93434103  0.55419791  0.11983868  1
