# generated using pymatgen
data_Li5Fe8(BO3)8
_symmetry_space_group_name_H-M   'P 1'
_cell_length_a   5.27166694
_cell_length_b   9.04378772
_cell_length_c   11.42009202
_cell_angle_alpha   113.07253879
_cell_angle_beta   77.73202762
_cell_angle_gamma   90.17671846
_symmetry_Int_Tables_number   1
_chemical_formula_structural   Li5Fe8(BO3)8
_chemical_formula_sum   'Li5 Fe8 B8 O24'
_cell_volume   487.52104298
_cell_formula_units_Z   1
loop_
 _symmetry_equiv_pos_site_id
 _symmetry_equiv_pos_as_xyz
  1  'x, y, z'
loop_
 _atom_site_type_symbol
 _atom_site_label
 _atom_site_symmetry_multiplicity
 _atom_site_fract_x
 _atom_site_fract_y
 _atom_site_fract_z
 _atom_site_occupancy
  Li  Li0  1  0.16785484  0.15198667  0.33742006  1
  Li  Li1  1  0.35445237  0.29812894  0.60005035  1
  Li  Li2  1  0.60695415  0.05415792  0.09480616  1
  Li  Li3  1  0.92021391  0.43075243  0.84092837  1
  Li  Li4  1  0.42724142  0.92602786  0.83653804  1
  Fe  Fe5  1  0.40440444  0.27264187  0.87047067  1
  Fe  Fe6  1  0.08808357  0.23174338  0.12191717  1
  Fe  Fe7  1  0.84281817  0.13316333  0.61146675  1
  Fe  Fe8  1  0.65563209  0.36498961  0.37709711  1
  Fe  Fe9  1  0.35351845  0.65432724  0.61888075  1
  Fe  Fe10  1  0.14578084  0.83004874  0.36570137  1
  Fe  Fe11  1  0.90989535  0.77380029  0.86611943  1
  Fe  Fe12  1  0.60284006  0.72681042  0.12685270  1
  B  B13  1  0.64889549  0.02290945  0.36397174  1
  B  B14  1  0.88716257  0.11080935  0.87596704  1
  B  B15  1  0.14344860  0.50596182  0.37184897  1
  B  B16  1  0.40810625  0.60486822  0.87446716  1
  B  B17  1  0.85805380  0.47508559  0.62535531  1
  B  B18  1  0.59954009  0.39323780  0.11988438  1
  B  B19  1  0.34099602  0.98716560  0.62683471  1
  B  B20  1  0.11055961  0.89233665  0.12003719  1
  O  O21  1  0.13294960  0.13075275  0.90466785  1
  O  O22  1  0.44024661  0.14414833  0.67292339  1
  O  O23  1  0.22807894  0.03364266  0.13247905  1
  O  O24  1  0.51023820  0.16563357  0.38041301  1
  O  O25  1  0.88645854  0.03297387  0.39780583  1
  O  O26  1  0.78596717  0.21918014  0.83481442  1
  O  O27  1  0.28468745  0.46392356  0.85691457  1
  O  O28  1  0.03597138  0.35263612  0.33655067  1
  O  O29  1  0.68767654  0.28954055  0.17240259  1
  O  O30  1  0.63055115  0.45342109  0.57568470  1
  O  O31  1  0.97778000  0.34628080  0.63585387  1
  O  O32  1  0.39204217  0.34505984  0.05986310  1
  O  O33  1  0.64155782  0.62186169  0.91708093  1
  O  O34  1  0.37210263  0.51545507  0.41631930  1
  O  O35  1  0.30793319  0.72233565  0.84340083  1
  O  O36  1  0.95993250  0.62153345  0.66673942  1
  O  O37  1  0.71919872  0.52620236  0.12250859  1
  O  O38  1  0.23101020  0.77522505  0.14348412  1
  O  O39  1  0.14431758  0.96840156  0.56339431  1
  O  O40  1  0.45234966  0.87290434  0.65451560  1
  O  O41  1  0.02176730  0.62732429  0.36154730  1
  O  O42  1  0.74363045  0.99136319  0.89578070  1
  O  O43  1  0.54019785  0.87777831  0.31607255  1
  O  O44  1  0.86744926  0.87163859  0.08620888  1
