# generated using pymatgen
data_Li13Mn2O9
_symmetry_space_group_name_H-M   'P 1'
_cell_length_a   5.72910005
_cell_length_b   5.80327069
_cell_length_c   8.21602000
_cell_angle_alpha   89.07163148
_cell_angle_beta   87.86052741
_cell_angle_gamma   60.35124024
_symmetry_Int_Tables_number   1
_chemical_formula_structural   Li13Mn2O9
_chemical_formula_sum   'Li13 Mn2 O9'
_cell_volume   237.23200878
_cell_formula_units_Z   1
loop_
 _symmetry_equiv_pos_site_id
 _symmetry_equiv_pos_as_xyz
  1  'x, y, z'
loop_
 _atom_site_type_symbol
 _atom_site_label
 _atom_site_symmetry_multiplicity
 _atom_site_fract_x
 _atom_site_fract_y
 _atom_site_fract_z
 _atom_site_occupancy
  Li  Li0  1  0.97266204  0.31934635  0.43786964  1
  Li  Li1  1  0.02287550  0.31026924  0.93549282  1
  Li  Li2  1  0.28774315  0.31254117  0.21254894  1
  Li  Li3  1  0.03010367  0.98012627  0.21422036  1
  Li  Li4  1  0.34959816  0.62441359  0.41743531  1
  Li  Li5  1  0.27572467  0.70041600  0.95368940  1
  Li  Li6  1  0.66522151  0.04745184  0.42588337  1
  Li  Li7  1  0.65338143  0.31379457  0.06540356  1
  Li  Li8  1  0.33882820  0.97014201  0.57930218  1
  Li  Li9  1  0.65774874  0.61853884  0.75006777  1
  Li  Li10  1  0.96860997  0.02116298  0.75015760  1
  Li  Li11  1  0.66759653  0.95083570  0.93535807  1
  Li  Li12  1  0.97683092  0.67189993  0.58592221  1
  Mn  Mn13  1  0.37664187  0.32644382  0.73588635  1
  Mn  Mn14  1  0.69086913  0.68333249  0.21941259  1
  O  O15  1  0.02997503  0.32176715  0.66852389  1
  O  O16  1  0.34324594  0.32633787  0.98054771  1
  O  O17  1  0.29956986  0.68308710  0.66292493  1
  O  O18  1  0.65883869  0.96391276  0.67046704  1
  O  O19  1  0.35264874  0.98193924  0.33616169  1
  O  O20  1  0.67927524  0.34024741  0.30750698  1
  O  O21  1  0.64536654  0.63838371  0.99325555  1
  O  O22  1  0.95932122  0.01562717  0.98617152  1
  O  O23  1  0.98885424  0.66063180  0.34585352  1
