# generated using pymatgen
data_LiFe2(BO3)2
_symmetry_space_group_name_H-M   'P 1'
_cell_length_a   5.28539811
_cell_length_b   9.06381696
_cell_length_c   11.35375433
_cell_angle_alpha   113.61540090
_cell_angle_beta   77.77053641
_cell_angle_gamma   90.26285484
_symmetry_Int_Tables_number   1
_chemical_formula_structural   LiFe2(BO3)2
_chemical_formula_sum   'Li4 Fe8 B8 O24'
_cell_volume   485.09172914
_cell_formula_units_Z   4
loop_
 _symmetry_equiv_pos_site_id
 _symmetry_equiv_pos_as_xyz
  1  'x, y, z'
loop_
 _atom_site_type_symbol
 _atom_site_label
 _atom_site_symmetry_multiplicity
 _atom_site_fract_x
 _atom_site_fract_y
 _atom_site_fract_z
 _atom_site_occupancy
  Li  Li0  1  0.61016964  0.04840935  0.09182909  1
  Li  Li1  1  0.93279857  0.43039872  0.83055925  1
  Li  Li2  1  0.11130795  0.55045080  0.10063667  1
  Li  Li3  1  0.66495047  0.67367464  0.35917479  1
  Fe  Fe4  1  0.40819324  0.26082925  0.86903322  1
  Fe  Fe5  1  0.10492831  0.21772347  0.12609515  1
  Fe  Fe6  1  0.84272108  0.14476531  0.61708356  1
  Fe  Fe7  1  0.64832825  0.34583931  0.37142063  1
  Fe  Fe8  1  0.34813001  0.64590915  0.62764324  1
  Fe  Fe9  1  0.15374077  0.85839620  0.37142021  1
  Fe  Fe10  1  0.90147644  0.78308549  0.86512536  1
  Fe  Fe11  1  0.59747672  0.71947961  0.11505938  1
  B  B12  1  0.64968619  0.01107330  0.36593461  1
  B  B13  1  0.88971423  0.12173079  0.88242638  1
  B  B14  1  0.14589443  0.52009931  0.37002503  1
  B  B15  1  0.40529925  0.59143955  0.86814966  1
  B  B16  1  0.85438478  0.48554349  0.61948695  1
  B  B17  1  0.60173653  0.39541409  0.12893966  1
  B  B18  1  0.34989873  0.97216723  0.62010560  1
  B  B19  1  0.10019348  0.89264279  0.12247240  1
  O  O20  1  0.12398248  0.15239784  0.92137623  1
  O  O21  1  0.45158288  0.11997274  0.67875038  1
  O  O22  1  0.24826825  0.01488046  0.12033102  1
  O  O23  1  0.54783903  0.14098025  0.35577679  1
  O  O24  1  0.87384788  0.01702530  0.41133659  1
  O  O25  1  0.78917212  0.23181914  0.84119692  1
  O  O26  1  0.26198483  0.47005565  0.88820296  1
  O  O27  1  0.01965158  0.37979119  0.33721346  1
  O  O28  1  0.68908359  0.28075818  0.16912679  1
  O  O29  1  0.63119930  0.47487697  0.56678401  1
  O  O30  1  0.93716087  0.36356346  0.64491714  1
  O  O31  1  0.37686102  0.37193936  0.07992281  1
  O  O32  1  0.64417703  0.61675120  0.90273997  1
  O  O33  1  0.38566589  0.52651086  0.40663033  1
  O  O34  1  0.29643612  0.68766836  0.81917850  1
  O  O35  1  0.97665583  0.62878583  0.64835565  1
  O  O36  1  0.73486744  0.52973108  0.14065250  1
  O  O37  1  0.18884861  0.77893917  0.16558517  1
  O  O38  1  0.13743341  0.96806271  0.56549887  1
  O  O39  1  0.46905338  0.83259308  0.61023553  1
  O  O40  1  0.04192829  0.65112932  0.35844644  1
  O  O41  1  0.75686250  0.99782909  0.89333096  1
  O  O42  1  0.53244821  0.86405445  0.33114720  1
  O  O43  1  0.86605436  0.87282440  0.08215794  1
