# generated using pymatgen
data_LiFe2(BO3)2
_symmetry_space_group_name_H-M   'P 1'
_cell_length_a   5.28313586
_cell_length_b   9.06982847
_cell_length_c   11.37982409
_cell_angle_alpha   113.82314109
_cell_angle_beta   77.66676690
_cell_angle_gamma   90.27683721
_symmetry_Int_Tables_number   1
_chemical_formula_structural   LiFe2(BO3)2
_chemical_formula_sum   'Li4 Fe8 B8 O24'
_cell_volume   485.28829833
_cell_formula_units_Z   4
loop_
 _symmetry_equiv_pos_site_id
 _symmetry_equiv_pos_as_xyz
  1  'x, y, z'
loop_
 _atom_site_type_symbol
 _atom_site_label
 _atom_site_symmetry_multiplicity
 _atom_site_fract_x
 _atom_site_fract_y
 _atom_site_fract_z
 _atom_site_occupancy
  Li  Li0  1  0.17430183  0.16127521  0.34419939  1
  Li  Li1  1  0.60865011  0.04869742  0.08887471  1
  Li  Li2  1  0.92933732  0.43115199  0.83421751  1
  Li  Li3  1  0.11174754  0.54990137  0.10381567  1
  Fe  Fe4  1  0.40658153  0.26033226  0.86467948  1
  Fe  Fe5  1  0.09679537  0.21865625  0.11837835  1
  Fe  Fe6  1  0.83838507  0.14252079  0.61601764  1
  Fe  Fe7  1  0.65283099  0.36038089  0.37442924  1
  Fe  Fe8  1  0.35044679  0.64803701  0.62926086  1
  Fe  Fe9  1  0.15213385  0.84453327  0.37052388  1
  Fe  Fe10  1  0.90357319  0.78269374  0.86632812  1
  Fe  Fe11  1  0.60575957  0.71836264  0.11984419  1
  B  B12  1  0.64795972  0.01968067  0.36571902  1
  B  B13  1  0.88739852  0.11759910  0.87940520  1
  B  B14  1  0.15110210  0.51217564  0.37122252  1
  B  B15  1  0.40647693  0.59454249  0.87037153  1
  B  B16  1  0.85800045  0.48545059  0.62248737  1
  B  B17  1  0.60484055  0.39299897  0.12174653  1
  B  B18  1  0.34112845  0.97443715  0.62106723  1
  B  B19  1  0.09716487  0.89546946  0.12862326  1
  O  O20  1  0.12483165  0.14761437  0.91512675  1
  O  O21  1  0.44363810  0.12502504  0.67208317  1
  O  O22  1  0.23266487  0.03027672  0.14299362  1
  O  O23  1  0.53576471  0.15586668  0.36548982  1
  O  O24  1  0.89092802  0.02439267  0.39849951  1
  O  O25  1  0.78742166  0.22381333  0.83499475  1
  O  O26  1  0.26633045  0.46996999  0.88609173  1
  O  O27  1  0.03398747  0.36459749  0.33772833  1
  O  O28  1  0.68636144  0.28655066  0.17202363  1
  O  O29  1  0.63682240  0.47655115  0.57037606  1
  O  O30  1  0.94860691  0.35792947  0.63972246  1
  O  O31  1  0.37455573  0.36667887  0.07663560  1
  O  O32  1  0.64509355  0.61974430  0.90483717  1
  O  O33  1  0.36934142  0.52306588  0.42306937  1
  O  O34  1  0.29718788  0.69259614  0.82378852  1
  O  O35  1  0.97594346  0.62985226  0.65625031  1
  O  O36  1  0.75167259  0.51375087  0.11422233  1
  O  O37  1  0.19377211  0.77678190  0.16238020  1
  O  O38  1  0.13073239  0.96379501  0.56252003  1
  O  O39  1  0.44951253  0.84490445  0.62862611  1
  O  O40  1  0.05980590  0.63399891  0.34728910  1
  O  O41  1  0.75199466  0.99812307  0.89738619  1
  O  O42  1  0.52300172  0.87897228  0.33209011  1
  O  O43  1  0.86750963  0.87826158  0.08607839  1
