# generated using pymatgen
data_LiFe2(BO3)2
_symmetry_space_group_name_H-M   'P 1'
_cell_length_a   5.30424659
_cell_length_b   9.06492026
_cell_length_c   10.18466962
_cell_angle_alpha   90.79180042
_cell_angle_beta   91.32867705
_cell_angle_gamma   89.47927534
_symmetry_Int_Tables_number   1
_chemical_formula_structural   LiFe2(BO3)2
_chemical_formula_sum   'Li4 Fe8 B8 O24'
_cell_volume   489.50786821
_cell_formula_units_Z   4
loop_
 _symmetry_equiv_pos_site_id
 _symmetry_equiv_pos_as_xyz
  1  'x, y, z'
loop_
 _atom_site_type_symbol
 _atom_site_label
 _atom_site_symmetry_multiplicity
 _atom_site_fract_x
 _atom_site_fract_y
 _atom_site_fract_z
 _atom_site_occupancy
  Li  Li0  1  0.33848245  0.01258723  0.85078047  1
  Li  Li1  1  0.65319201  0.99861167  0.12967294  1
  Li  Li2  1  0.14671546  0.49877494  0.58931076  1
  Li  Li3  1  0.83974420  0.50579761  0.85177665  1
  Fe  Fe4  1  0.15712878  0.16550979  0.12019468  1
  Fe  Fe5  1  0.84228092  0.17112271  0.36438341  1
  Fe  Fe6  1  0.33768264  0.34486064  0.87777631  1
  Fe  Fe7  1  0.65192290  0.32450706  0.61992083  1
  Fe  Fe8  1  0.34103821  0.66240113  0.36284915  1
  Fe  Fe9  1  0.15668480  0.83533670  0.62036746  1
  Fe  Fe10  1  0.66824185  0.66039626  0.12428650  1
  Fe  Fe11  1  0.83958317  0.84240649  0.87227653  1
  B  B12  1  0.15937134  0.17071376  0.62370910  1
  B  B13  1  0.32243623  0.33107036  0.38222445  1
  B  B14  1  0.83312418  0.16820625  0.86899829  1
  B  B15  1  0.65494556  0.33309510  0.12112985  1
  B  B16  1  0.33715521  0.67215669  0.86606993  1
  B  B17  1  0.66395611  0.66321611  0.62821709  1
  B  B18  1  0.17439631  0.82970382  0.11440337  1
  B  B19  1  0.84205380  0.83491528  0.36446411  1
  O  O20  1  0.25988023  0.03510305  0.65054334  1
  O  O21  1  0.08685912  0.17289110  0.90159754  1
  O  O22  1  0.69294909  0.04422044  0.88719836  1
  O  O23  1  0.19327759  0.20994470  0.33190118  1
  O  O24  1  0.29124450  0.30059831  0.65385033  1
  O  O25  1  0.77797547  0.20510558  0.16905144  1
  O  O26  1  0.91777021  0.18589062  0.56786984  1
  O  O27  1  0.41148865  0.32025100  0.07521199  1
  O  O28  1  0.21385194  0.46502022  0.40126644  1
  O  O29  1  0.57655711  0.30779629  0.42385944  1
  O  O30  1  0.71458663  0.29738762  0.81804108  1
  O  O31  1  0.19611050  0.54724565  0.85491690  1
  O  O32  1  0.78233948  0.46385084  0.11591518  1
  O  O33  1  0.30719765  0.70325536  0.15227965  1
  O  O34  1  0.41175888  0.67783335  0.58981313  1
  O  O35  1  0.77517364  0.52409756  0.63765898  1
  O  O36  1  0.59018438  0.66864689  0.91209419  1
  O  O37  1  0.07444346  0.81666676  0.43026701  1
  O  O38  1  0.22805509  0.80751076  0.82647289  1
  O  O39  1  0.71107172  0.71038466  0.31988096  1
  O  O40  1  0.80874136  0.78492138  0.66303260  1
  O  O41  1  0.29332660  0.96124482  0.10332749  1
  O  O42  1  0.91259286  0.81886400  0.08390151  1
  O  O43  1  0.74528173  0.97219045  0.33875263  1
