# generated using pymatgen
data_Na2Li4Ni2C4SO16
_symmetry_space_group_name_H-M   'P 1'
_cell_length_a   9.53182275
_cell_length_b   9.53180567
_cell_length_c   9.75896150
_cell_angle_alpha   120.60015722
_cell_angle_beta   120.59905919
_cell_angle_gamma   87.57340973
_symmetry_Int_Tables_number   1
_chemical_formula_structural   Na2Li4Ni2C4SO16
_chemical_formula_sum   'Na4 Li8 Ni4 C8 S2 O32'
_cell_volume   628.15918601
_cell_formula_units_Z   2
loop_
 _symmetry_equiv_pos_site_id
 _symmetry_equiv_pos_as_xyz
  1  'x, y, z'
loop_
 _atom_site_type_symbol
 _atom_site_label
 _atom_site_symmetry_multiplicity
 _atom_site_fract_x
 _atom_site_fract_y
 _atom_site_fract_z
 _atom_site_occupancy
  Na  Na0  1  0.65087075  0.90086489  0.80173241  1
  Na  Na1  1  0.90087252  0.65086248  0.30173264  1
  Na  Na2  1  0.09912852  0.34913413  0.69826688  1
  Na  Na3  1  0.34913057  0.09913280  0.19826536  1
  Li  Li4  1  0.02587741  0.82850986  0.01436190  1
  Li  Li5  1  0.82850885  0.02587766  0.51435875  1
  Li  Li6  1  0.81414502  0.51151492  0.48563191  1
  Li  Li7  1  0.51151249  0.81414241  0.98562725  1
  Li  Li8  1  0.48848034  0.18584923  0.01436112  1
  Li  Li9  1  0.18585157  0.48848324  0.51436448  1
  Li  Li10  1  0.17148802  0.97411811  0.48562972  1
  Li  Li11  1  0.97412012  0.17148965  0.98563462  1
  Ni  Ni12  1  0.50000163  0.49999968  0.49999980  1
  Ni  Ni13  1  0.50000026  0.49999915  0.99999998  1
  Ni  Ni14  1  0.50000021  0.00000027  0.49999940  1
  Ni  Ni15  1  0.99999936  0.49999944  0.00000007  1
  C  C16  1  0.71262478  0.65923967  0.93309383  1
  C  C17  1  0.65924699  0.71263696  0.43309268  1
  C  C18  1  0.72045620  0.27384368  0.93310082  1
  C  C19  1  0.72614997  0.27953331  0.56689586  1
  C  C20  1  0.27384960  0.72046568  0.43310256  1
  C  C21  1  0.27954236  0.72615401  0.06689877  1
  C  C22  1  0.34075427  0.28736560  0.56690533  1
  C  C23  1  0.28737386  0.34075803  0.06690462  1
  S  S24  1  0.12501558  0.87502403  0.74999955  1
  S  S25  1  0.87498352  0.12497519  0.24999953  1
  O  O26  1  0.85636567  0.65711576  0.95213112  1
  O  O27  1  0.65710126  0.85634701  0.45212351  1
  O  O28  1  0.65846877  0.68943065  0.55216317  1
  O  O29  1  0.68943549  0.65845279  0.05214230  1
  O  O30  1  0.58922579  0.67194981  0.79899559  1
  O  O31  1  0.31597367  0.93577434  0.87666895  1
  O  O32  1  0.39368788  0.86270403  0.55216007  1
  O  O33  1  0.67197012  0.58922747  0.29901267  1
  O  O34  1  0.93573193  0.31596825  0.37665492  1
  O  O35  1  0.86273056  0.39369660  0.05218125  1
  O  O36  1  0.87294785  0.29022407  0.70100322  1
  O  O37  1  0.29020295  0.87294782  0.20098411  1
  O  O38  1  0.70499784  0.40423611  0.54786032  1
  O  O39  1  0.40421891  0.70498927  0.04786625  1
  O  O40  1  0.06066883  0.94091883  0.87664597  1
  O  O41  1  0.05910217  0.93932069  0.62333736  1
  O  O42  1  0.94089461  0.06067733  0.37666080  1
  O  O43  1  0.93933050  0.05907775  0.12335332  1
  O  O44  1  0.59577780  0.29500690  0.95213046  1
  O  O45  1  0.29500277  0.59576384  0.45214022  1
  O  O46  1  0.70979529  0.12705073  0.79901347  1
  O  O47  1  0.12705188  0.70977345  0.29899403  1
  O  O48  1  0.13726847  0.60630009  0.94782068  1
  O  O49  1  0.06427030  0.68403062  0.62334514  1
  O  O50  1  0.32802823  0.41077363  0.70098304  1
  O  O51  1  0.60631059  0.13729540  0.44783835  1
  O  O52  1  0.68402540  0.06422752  0.12333008  1
  O  O53  1  0.41077321  0.32804543  0.20100066  1
  O  O54  1  0.31056254  0.34154611  0.94785619  1
  O  O55  1  0.34153689  0.31057187  0.44783704  1
  O  O56  1  0.34289793  0.14365442  0.54787272  1
  O  O57  1  0.14363513  0.34288434  0.04787117  1
