# generated using pymatgen
data_YbBeNF6
_symmetry_space_group_name_H-M   'P 1'
_cell_length_a   6.62682084
_cell_length_b   6.72848605
_cell_length_c   7.02247831
_cell_angle_alpha   109.02548798
_cell_angle_beta   90.00000000
_cell_angle_gamma   90.00000000
_symmetry_Int_Tables_number   1
_chemical_formula_structural   YbBeNF6
_chemical_formula_sum   'Yb2 Be2 N2 F12'
_cell_volume   296.01688705
_cell_formula_units_Z   2
loop_
 _symmetry_equiv_pos_site_id
 _symmetry_equiv_pos_as_xyz
  1  'x, y, z'
loop_
 _atom_site_type_symbol
 _atom_site_label
 _atom_site_symmetry_multiplicity
 _atom_site_fract_x
 _atom_site_fract_y
 _atom_site_fract_z
 _atom_site_occupancy
  Yb  Yb0  1  0.75000000  0.28828125  0.69317873  1
  Yb  Yb1  1  0.25000000  0.71171875  0.30682127  1
  Be  Be2  1  0.75000000  0.76337867  0.53502342  1
  Be  Be3  1  0.25000000  0.23662133  0.46497658  1
  N  N4  1  0.75000000  0.25891722  0.14429721  1
  N  N5  1  0.25000000  0.74108278  0.85570279  1
  F  F6  1  0.94215498  0.75771638  0.40320980  1
  F  F7  1  0.05784502  0.24228362  0.59679020  1
  F  F8  1  0.44215498  0.24228362  0.59679020  1
  F  F9  1  0.55784502  0.75771638  0.40320980  1
  F  F10  1  0.75000000  0.57128706  0.61210942  1
  F  F11  1  0.25000000  0.42871294  0.38789058  1
  F  F12  1  0.08723940  0.68228576  0.95124858  1
  F  F13  1  0.91276060  0.31771424  0.04875142  1
  F  F14  1  0.58723940  0.31771424  0.04875142  1
  F  F15  1  0.41276060  0.68228576  0.95124858  1
  F  F16  1  0.75000000  0.97378885  0.71608111  1
  F  F17  1  0.25000000  0.02621115  0.28391889  1
