# generated using pymatgen
data_Na2Li4Mn2C4SO16
_symmetry_space_group_name_H-M   'P 1'
_cell_length_a   9.72660686
_cell_length_b   9.72657897
_cell_length_c   9.90483012
_cell_angle_alpha   59.37125152
_cell_angle_beta   59.37098661
_cell_angle_gamma   87.84504938
_symmetry_Int_Tables_number   1
_chemical_formula_structural   Na2Li4Mn2C4SO16
_chemical_formula_sum   'Na4 Li8 Mn4 C8 S2 O32'
_cell_volume   661.92462884
_cell_formula_units_Z   2
loop_
 _symmetry_equiv_pos_site_id
 _symmetry_equiv_pos_as_xyz
  1  'x, y, z'
loop_
 _atom_site_type_symbol
 _atom_site_label
 _atom_site_symmetry_multiplicity
 _atom_site_fract_x
 _atom_site_fract_y
 _atom_site_fract_z
 _atom_site_occupancy
  Na  Na0  1  0.84511225  0.09511511  0.80977286  1
  Na  Na1  1  0.59510903  0.34510891  0.30977971  1
  Na  Na2  1  0.40489280  0.65489026  0.69021623  1
  Na  Na3  1  0.15488977  0.90488696  0.19022105  1
  Li  Li4  1  0.00980843  0.82294408  0.01467677  1
  Li  Li5  1  0.47550826  0.16237984  0.01468830  1
  Li  Li6  1  0.66238529  0.97551176  0.51468025  1
  Li  Li7  1  0.67706742  0.49019764  0.48531113  1
  Li  Li8  1  0.32293298  0.50980355  0.51468779  1
  Li  Li9  1  0.33761880  0.02448343  0.48532376  1
  Li  Li10  1  0.52449772  0.83761916  0.98530238  1
  Li  Li11  1  0.99019746  0.17706448  0.98531246  1
  Mn  Mn12  1  0.50000568  0.50000523  0.00000027  1
  Mn  Mn13  1  0.99999244  0.00000080  0.50000184  1
  Mn  Mn14  1  -0.00000029  0.49999977  0.50000579  1
  Mn  Mn15  1  0.99999505  0.49999854  0.00000353  1
  C  C16  1  0.78038554  0.32760164  0.94539154  1
  C  C17  1  0.77422254  0.72700907  0.94538695  1
  C  C18  1  0.82760153  0.28038765  0.44539047  1
  C  C19  1  0.77299113  0.72577245  0.55461504  1
  C  C20  1  0.22700781  0.27422749  0.44538577  1
  C  C21  1  0.17239310  0.71961458  0.55460778  1
  C  C22  1  0.22578034  0.27299550  0.05460490  1
  C  C23  1  0.21962161  0.67239433  0.05461136  1
  S  S24  1  0.37500867  0.12500712  0.74999146  1
  S  S25  1  0.62499380  0.87498939  0.25000802  1
  O  O26  1  0.89989284  0.71133009  0.95953231  1
  O  O27  1  0.90429985  0.31388301  0.81597212  1
  O  O28  1  0.77972903  0.87014837  0.81597299  1
  O  O29  1  0.83581277  0.30013302  0.56125968  1
  O  O30  1  0.89707750  0.86138946  0.43874189  1
  O  O31  1  0.64057487  0.32913372  0.95954465  1
  O  O32  1  0.82913148  0.14057402  0.45954911  1
  O  O33  1  0.78867988  0.60012070  0.54045309  1
  O  O34  1  0.81388288  0.40429710  0.31596992  1
  O  O35  1  0.62985251  0.72026351  0.68403478  1
  O  O36  1  0.43808148  0.06052034  0.87498777  1
  O  O37  1  0.81307825  0.93551364  0.12500444  1
  O  O38  1  0.80012643  0.33581139  0.06126580  1
  O  O39  1  0.36138695  0.39708023  0.93873649  1
  O  O40  1  0.43947794  0.06191704  0.62501137  1
  O  O41  1  0.43550915  0.31306672  0.62501303  1
  O  O42  1  0.56449173  0.68693071  0.37498716  1
  O  O43  1  0.56052426  0.93807970  0.37499071  1
  O  O44  1  0.63862087  0.60292286  0.06125698  1
  O  O45  1  0.19987382  0.66418388  0.93873299  1
  O  O46  1  0.18692169  0.06448369  0.87499373  1
  O  O47  1  0.56191791  0.93947798  0.12501413  1
  O  O48  1  0.37014784  0.27973248  0.31596914  1
  O  O49  1  0.18611380  0.59570551  0.68402968  1
  O  O50  1  0.21132257  0.39988041  0.45954356  1
  O  O51  1  0.17086258  0.85943090  0.54045554  1
  O  O52  1  0.35942520  0.67086449  0.04045349  1
  O  O53  1  0.10291851  0.13861160  0.56125775  1
  O  O54  1  0.16418152  0.69987251  0.43874462  1
  O  O55  1  0.22026445  0.12985535  0.18402336  1
  O  O56  1  0.09570347  0.68611251  0.18403042  1
  O  O57  1  0.10011380  0.28868130  0.04045084  1
