# generated using pymatgen
data_Ca7Cu17O24
_symmetry_space_group_name_H-M   'P 1'
_cell_length_a   9.89690094
_cell_length_b   16.43700380
_cell_length_c   3.64064821
_cell_angle_alpha   90.00000000
_cell_angle_beta   90.00000000
_cell_angle_gamma   90.00000000
_symmetry_Int_Tables_number   1
_chemical_formula_structural   Ca7Cu17O24
_chemical_formula_sum   'Ca7 Cu17 O24'
_cell_volume   592.24389785
_cell_formula_units_Z   1
loop_
 _symmetry_equiv_pos_site_id
 _symmetry_equiv_pos_as_xyz
  1  'x, y, z'
loop_
 _atom_site_type_symbol
 _atom_site_label
 _atom_site_symmetry_multiplicity
 _atom_site_fract_x
 _atom_site_fract_y
 _atom_site_fract_z
 _atom_site_occupancy
  Ca  Ca0  1  0.25000000  0.06225739  0.35096040  1
  Ca  Ca1  1  0.25000000  0.31123843  0.35903773  1
  Ca  Ca2  1  0.25000000  0.56376157  0.35903773  1
  Ca  Ca3  1  0.25000000  0.81274261  0.35096040  1
  Ca  Ca4  1  0.75000000  0.18447841  0.63244667  1
  Ca  Ca5  1  0.75000000  0.43750000  0.64581323  1
  Ca  Ca6  1  0.75000000  0.69052159  0.63244667  1
  Cu  Cu7  1  0.08231524  0.68935466  0.85766472  1
  Cu  Cu8  1  0.08241647  0.93750000  0.84243384  1
  Cu  Cu9  1  0.08487500  0.43750000  0.85707458  1
  Cu  Cu10  1  0.08231524  0.18564534  0.85766472  1
  Cu  Cu11  1  0.41768476  0.18564534  0.85766472  1
  Cu  Cu12  1  0.41512500  0.43750000  0.85707458  1
  Cu  Cu13  1  0.41768476  0.68935466  0.85766472  1
  Cu  Cu14  1  0.41758353  0.93750000  0.84243384  1
  Cu  Cu15  1  0.58978359  0.05832013  0.14570484  1
  Cu  Cu16  1  0.58580078  0.31133780  0.14659368  1
  Cu  Cu17  1  0.58580078  0.56366220  0.14659368  1
  Cu  Cu18  1  0.58978359  0.81667987  0.14570484  1
  Cu  Cu19  1  0.75000000  0.93750000  0.53866110  1
  Cu  Cu20  1  0.91021641  0.05832013  0.14570484  1
  Cu  Cu21  1  0.91419922  0.31133780  0.14659368  1
  Cu  Cu22  1  0.91419922  0.56366220  0.14659368  1
  Cu  Cu23  1  0.91021641  0.81667987  0.14570484  1
  O  O24  1  0.08094289  0.56335177  0.88834127  1
  O  O25  1  0.07872729  0.81553577  0.88622715  1
  O  O26  1  0.08094289  0.31164823  0.88834127  1
  O  O27  1  0.07872729  0.05946423  0.88622715  1
  O  O28  1  0.25000000  0.18612036  0.61137200  1
  O  O29  1  0.25000000  0.43750000  0.59991721  1
  O  O30  1  0.25000000  0.93750000  0.59448873  1
  O  O31  1  0.25000000  0.68887964  0.61137200  1
  O  O32  1  0.41905711  0.31164823  0.88834127  1
  O  O33  1  0.42127271  0.05946423  0.88622715  1
  O  O34  1  0.41905711  0.56335177  0.88834127  1
  O  O35  1  0.42127271  0.81553577  0.88622715  1
  O  O36  1  0.58696837  0.18295801  0.11403637  1
  O  O37  1  0.58216404  0.43750000  0.11607356  1
  O  O38  1  0.58696837  0.69204199  0.11403637  1
  O  O39  1  0.58507498  0.93750000  0.08591730  1
  O  O40  1  0.75000000  0.05149713  0.43607869  1
  O  O41  1  0.75000000  0.31200781  0.40666904  1
  O  O42  1  0.75000000  0.56299219  0.40666904  1
  O  O43  1  0.75000000  0.82350287  0.43607869  1
  O  O44  1  0.91303163  0.18295801  0.11403637  1
  O  O45  1  0.91783596  0.43750000  0.11607356  1
  O  O46  1  0.91303163  0.69204199  0.11403637  1
  O  O47  1  0.91492502  0.93750000  0.08591730  1
