# generated using pymatgen
data_Li2NiP2O7
_symmetry_space_group_name_H-M   'P 1'
_cell_length_a   5.57600750
_cell_length_b   7.75138510
_cell_length_c   7.90129919
_cell_angle_alpha   64.31875067
_cell_angle_beta   90.00000000
_cell_angle_gamma   68.91956937
_symmetry_Int_Tables_number   1
_chemical_formula_structural   Li2NiP2O7
_chemical_formula_sum   'Li4 Ni2 P4 O14'
_cell_volume   282.19970393
_cell_formula_units_Z   2
loop_
 _symmetry_equiv_pos_site_id
 _symmetry_equiv_pos_as_xyz
  1  'x, y, z'
loop_
 _atom_site_type_symbol
 _atom_site_label
 _atom_site_symmetry_multiplicity
 _atom_site_fract_x
 _atom_site_fract_y
 _atom_site_fract_z
 _atom_site_occupancy
  Li  Li0  1  0.06472566  0.56321622  0.80574619  1
  Li  Li1  1  0.62794188  0.43678378  0.69425381  1
  Li  Li2  1  0.37205812  0.56321622  0.30574619  1
  Li  Li3  1  0.93527434  0.43678378  0.19425381  1
  Ni  Ni4  1  0.00000000  0.00000000  0.50000000  1
  Ni  Ni5  1  0.00000000  0.00000000  0.00000000  1
  P  P6  1  0.46869443  0.77667049  0.85793406  1
  P  P7  1  0.75463507  0.77667049  0.35793406  1
  P  P8  1  0.24536493  0.22332951  0.64206594  1
  P  P9  1  0.53130557  0.22332951  0.14206594  1
  O  O10  1  0.29300892  0.76664329  0.71368740  1
  O  O11  1  0.74159790  0.61036641  0.91983021  1
  O  O12  1  0.88339426  0.78157661  0.52811007  1
  O  O13  1  0.94034679  0.76664329  0.21368740  1
  O  O14  1  0.64803570  0.61036641  0.41983021  1
  O  O15  1  0.33502913  0.78157661  0.02811007  1
  O  O16  1  0.66497087  0.21842339  0.97188993  1
  O  O17  1  0.35196430  0.38963359  0.58016979  1
  O  O18  1  0.05965321  0.23335671  0.78631260  1
  O  O19  1  0.11660574  0.21842339  0.47188993  1
  O  O20  1  0.25840210  0.38963359  0.08016979  1
  O  O21  1  0.70699108  0.23335671  0.28631260  1
  O  O22  1  0.49688025  0.00000000  0.75000000  1
  O  O23  1  0.50311975  0.00000000  0.25000000  1
