# generated using pymatgen
data_Li2V3(P2O7)2
_symmetry_space_group_name_H-M   'P 1'
_cell_length_a   5.54813821
_cell_length_b   6.97542611
_cell_length_c   7.52284100
_cell_angle_alpha   74.71211906
_cell_angle_beta   82.90765401
_cell_angle_gamma   67.69693641
_symmetry_Int_Tables_number   1
_chemical_formula_structural   Li2V3(P2O7)2
_chemical_formula_sum   'Li2 V3 P4 O14'
_cell_volume   259.73732395
_cell_formula_units_Z   1
loop_
 _symmetry_equiv_pos_site_id
 _symmetry_equiv_pos_as_xyz
  1  'x, y, z'
loop_
 _atom_site_type_symbol
 _atom_site_label
 _atom_site_symmetry_multiplicity
 _atom_site_fract_x
 _atom_site_fract_y
 _atom_site_fract_z
 _atom_site_occupancy
  Li  Li0  1  0.62380638  0.01634834  0.68905204  1
  Li  Li1  1  0.37619362  0.98365166  0.31094796  1
  V  V2  1  0.00000000  0.00000000  0.00000000  1
  V  V3  1  0.19079055  0.51588152  0.31039340  1
  V  V4  1  0.80920945  0.48411848  0.68960660  1
  P  P5  1  0.19558843  0.73996458  0.65547361  1
  P  P6  1  0.35020278  0.31648930  0.92866799  1
  P  P7  1  0.64979722  0.68351070  0.07133201  1
  P  P8  1  0.80441157  0.26003542  0.34452639  1
  O  O9  1  0.17084551  0.23954405  0.84690657  1
  O  O10  1  0.05446171  0.65454934  0.54884763  1
  O  O11  1  0.32537184  0.27874587  0.13742624  1
  O  O12  1  0.02420864  0.94155644  0.71621166  1
  O  O13  1  0.26123569  0.56933776  0.85552789  1
  O  O14  1  0.54635283  0.25545898  0.44454130  1
  O  O15  1  0.36410210  0.77199448  0.14386533  1
  O  O16  1  0.63589790  0.22800552  0.85613467  1
  O  O17  1  0.45364717  0.74454102  0.55545870  1
  O  O18  1  0.73876431  0.43066224  0.14447211  1
  O  O19  1  0.97579136  0.05844356  0.28378834  1
  O  O20  1  0.67462816  0.72125413  0.86257376  1
  O  O21  1  0.94553829  0.34545066  0.45115237  1
  O  O22  1  0.82915449  0.76045595  0.15309343  1
