# generated using pymatgen
data_LiNi2O2F
_symmetry_space_group_name_H-M   'P 1'
_cell_length_a   2.95995728
_cell_length_b   2.95995952
_cell_length_c   12.57712434
_cell_angle_alpha   90.00007011
_cell_angle_beta   89.99994504
_cell_angle_gamma   90.00000178
_symmetry_Int_Tables_number   1
_chemical_formula_structural   LiNi2O2F
_chemical_formula_sum   'Li2 Ni4 O4 F2'
_cell_volume   110.19263533
_cell_formula_units_Z   2
loop_
 _symmetry_equiv_pos_site_id
 _symmetry_equiv_pos_as_xyz
  1  'x, y, z'
loop_
 _atom_site_type_symbol
 _atom_site_label
 _atom_site_symmetry_multiplicity
 _atom_site_fract_x
 _atom_site_fract_y
 _atom_site_fract_z
 _atom_site_occupancy
  Li  Li0  1  0.99999963  0.99999941  0.66629914  1
  Li  Li1  1  0.50000003  0.49999932  0.83370125  1
  Ni  Ni2  1  0.00000224  0.00000080  0.99969696  1
  Ni  Ni3  1  0.49999948  0.50000070  0.16535392  1
  Ni  Ni4  1  0.99999876  0.00000103  0.33464838  1
  Ni  Ni5  1  0.49999952  0.49999888  0.50029867  1
  O  O6  1  0.50000167  0.50000043  0.99715961  1
  O  O7  1  0.99999938  0.00000153  0.16605679  1
  O  O8  1  0.49999946  0.50000060  0.33394457  1
  O  O9  1  0.99999981  0.99999913  0.50284010  1
  F  F10  1  0.49999969  0.49999914  0.67188511  1
  F  F11  1  0.00000033  0.99999904  0.82811552  1
