# generated using pymatgen
data_Na2Li4Co2C4SO16
_symmetry_space_group_name_H-M   'P 1'
_cell_length_a   9.82605009
_cell_length_b   9.82498749
_cell_length_c   9.60532979
_cell_angle_alpha   120.77955860
_cell_angle_beta   120.73660389
_cell_angle_gamma   90.14630632
_symmetry_Int_Tables_number   1
_chemical_formula_structural   Na2Li4Co2C4SO16
_chemical_formula_sum   'Na4 Li8 Co4 C8 S2 O32'
_cell_volume   639.48414769
_cell_formula_units_Z   2
loop_
 _symmetry_equiv_pos_site_id
 _symmetry_equiv_pos_as_xyz
  1  'x, y, z'
loop_
 _atom_site_type_symbol
 _atom_site_label
 _atom_site_symmetry_multiplicity
 _atom_site_fract_x
 _atom_site_fract_y
 _atom_site_fract_z
 _atom_site_occupancy
  Na  Na0  1  0.90294641  0.09707831  0.25007235  1
  Na  Na1  1  0.65281092  0.34746110  0.75027504  1
  Na  Na2  1  0.34719432  0.65254311  0.24972841  1
  Na  Na3  1  0.09705322  0.90291955  0.74992912  1
  Li  Li4  1  0.48748797  0.97231344  0.30557651  1
  Li  Li5  1  0.18275031  0.16719293  0.69525893  1
  Li  Li6  1  0.16689811  0.18253007  0.19484151  1
  Li  Li7  1  0.97195327  0.48704494  0.80491958  1
  Li  Li8  1  0.02804632  0.51295676  0.19508092  1
  Li  Li9  1  0.83309763  0.81747890  0.80516225  1
  Li  Li10  1  0.81725759  0.83280920  0.30475036  1
  Li  Li11  1  0.51251001  0.02769234  0.69442749  1
  Co  Co12  1  0.50000049  0.99999920  0.00000000  1
  Co  Co13  1  0.50000178  0.50000118  0.50000244  1
  Co  Co14  1  0.00000000  0.49999831  0.49999903  1
  Co  Co15  1  0.49999978  0.49999970  -0.00000027  1
  C  C16  1  0.72278328  0.28566403  0.44906670  1
  C  C17  1  0.27409820  0.33613630  0.55129907  1
  C  C18  1  0.71430127  0.27772611  0.05122184  1
  C  C19  1  0.33617636  0.27425706  0.05146640  1
  C  C20  1  0.66382599  0.72574562  0.94853755  1
  C  C21  1  0.28569889  0.72226939  0.94877602  1
  C  C22  1  0.72590262  0.66386300  0.44870144  1
  C  C23  1  0.27721528  0.71433345  0.55092830  1
  S  S24  1  0.87513563  0.12500907  0.75006504  1
  S  S25  1  0.12486184  0.87499560  0.24993763  1
  O  O26  1  0.94034092  0.06430964  0.87928589  1
  O  O27  1  0.32175692  0.12746662  0.91457887  1
  O  O28  1  0.93565773  0.05950908  0.62069150  1
  O  O29  1  0.68474750  0.06066509  0.61978945  1
  O  O30  1  0.59048170  0.28491465  0.91226017  1
  O  O31  1  0.93924511  0.31524545  0.88023588  1
  O  O32  1  0.59633263  0.14272911  0.30304597  1
  O  O33  1  0.29527070  0.33734239  0.69631210  1
  O  O34  1  0.86173873  0.30682795  0.46638716  1
  O  O35  1  0.39571873  0.34074149  0.53312167  1
  O  O36  1  0.69272640  0.13809196  0.03363383  1
  O  O37  1  0.71501267  0.40907955  0.58773241  1
  O  O38  1  0.65937062  0.60461981  0.96702360  1
  O  O39  1  0.12779733  0.32182020  0.41444136  1
  O  O40  1  0.33750899  0.29562945  0.19679177  1
  O  O41  1  0.14335487  0.59652797  0.80358903  1
  O  O42  1  0.85664699  0.40346760  0.19640937  1
  O  O43  1  0.66249578  0.70437311  0.80321577  1
  O  O44  1  0.87220359  0.67817628  0.58555661  1
  O  O45  1  0.34063135  0.39537857  0.03297891  1
  O  O46  1  0.28498798  0.59092016  0.41226392  1
  O  O47  1  0.30727370  0.86190344  0.96636188  1
  O  O48  1  0.60428507  0.65926218  0.46688398  1
  O  O49  1  0.13825885  0.69316623  0.53360724  1
  O  O50  1  0.70472832  0.66265669  0.30368723  1
  O  O51  1  0.40366293  0.85727029  0.69694948  1
  O  O52  1  0.06074908  0.68475908  0.11976430  1
  O  O53  1  0.40951989  0.71508386  0.08773931  1
  O  O54  1  0.31524984  0.93933653  0.38020801  1
  O  O55  1  0.06434468  0.94049688  0.37931702  1
  O  O56  1  0.67824412  0.87253201  0.08542747  1
  O  O57  1  0.05965380  0.93569796  0.12072021  1
