# generated using pymatgen
data_Li2Mn2OF6
_symmetry_space_group_name_H-M   'P 1'
_cell_length_a   8.37866054
_cell_length_b   6.89364986
_cell_length_c   5.30519826
_cell_angle_alpha   85.06263507
_cell_angle_beta   102.21702353
_cell_angle_gamma   110.59477650
_symmetry_Int_Tables_number   1
_chemical_formula_structural   Li2Mn2OF6
_chemical_formula_sum   'Li4 Mn4 O2 F12'
_cell_volume   280.32393142
_cell_formula_units_Z   2
loop_
 _symmetry_equiv_pos_site_id
 _symmetry_equiv_pos_as_xyz
  1  'x, y, z'
loop_
 _atom_site_type_symbol
 _atom_site_label
 _atom_site_symmetry_multiplicity
 _atom_site_fract_x
 _atom_site_fract_y
 _atom_site_fract_z
 _atom_site_occupancy
  Li  Li0  1  0.10637557  0.75858327  0.32581907  1
  Li  Li1  1  0.25896818  0.98432839  0.86653484  1
  Li  Li2  1  0.73108410  0.01104979  0.12941226  1
  Li  Li3  1  0.91456012  0.25254041  0.67878346  1
  Mn  Mn4  1  0.17814882  0.28900519  0.27388662  1
  Mn  Mn5  1  0.33704777  0.51742060  0.82475607  1
  Mn  Mn6  1  0.67186258  0.48029697  0.17862829  1
  Mn  Mn7  1  0.80383639  0.71494056  0.72025431  1
  O  O8  1  0.12602191  0.39082455  0.94242965  1
  O  O9  1  0.59200380  0.57502846  0.83918892  1
  F  F10  1  0.02789214  0.82124668  0.63039691  1
  F  F11  1  0.22530254  0.57512622  0.45109694  1
  F  F12  1  0.37710303  0.78857660  0.92891631  1
  F  F13  1  0.28018094  0.24236536  0.64910640  1
  F  F14  1  0.18720664  0.01466027  0.16966682  1
  F  F15  1  0.42042123  0.40090209  0.22434348  1
  F  F16  1  0.80849886  0.98623314  0.82199924  1
  F  F17  1  0.70176776  0.74748049  0.32815310  1
  F  F18  1  0.62301701  0.21224229  0.06755277  1
  F  F19  1  0.77379226  0.43200675  0.53438169  1
  F  F20  1  0.91116424  0.61949246  0.06697300  1
  F  F21  1  0.94374311  0.18564846  0.34771985  1
