# generated using pymatgen
data_Li10Mn2V3Cr3O16
_symmetry_space_group_name_H-M   'P 1'
_cell_length_a   6.06766219
_cell_length_b   6.04933472
_cell_length_c   9.98708309
_cell_angle_alpha   89.60429993
_cell_angle_beta   89.39960834
_cell_angle_gamma   59.41821049
_symmetry_Int_Tables_number   1
_chemical_formula_structural   Li10Mn2V3Cr3O16
_chemical_formula_sum   'Li10 Mn2 V3 Cr3 O16'
_cell_volume   315.57145524
_cell_formula_units_Z   1
loop_
 _symmetry_equiv_pos_site_id
 _symmetry_equiv_pos_as_xyz
  1  'x, y, z'
loop_
 _atom_site_type_symbol
 _atom_site_label
 _atom_site_symmetry_multiplicity
 _atom_site_fract_x
 _atom_site_fract_y
 _atom_site_fract_z
 _atom_site_occupancy
  Li  Li0  1  0.01480577  0.01184226  0.51435591  1
  Li  Li1  1  0.02259860  0.99232138  0.01455085  1
  Li  Li2  1  0.35019076  0.33056457  0.22518973  1
  Li  Li3  1  0.19627408  0.61394165  0.43640110  1
  Li  Li4  1  0.21356965  0.19875415  0.44044477  1
  Li  Li5  1  0.62171988  0.18714073  0.43683645  1
  Li  Li6  1  0.68075260  0.67223362  0.72457246  1
  Li  Li7  1  0.41817368  0.80133098  0.94307832  1
  Li  Li8  1  0.81711293  0.38549889  0.93720413  1
  Li  Li9  1  0.81250757  0.81189906  0.93624721  1
  Mn  Mn10  1  0.34414749  0.33235721  0.97603902  1
  Mn  Mn11  1  0.67746979  0.66373164  0.47430913  1
  V  V12  1  0.17981498  0.67012189  0.71375930  1
  V  V13  1  0.67423321  0.17458430  0.71235186  1
  V  V14  1  0.84720239  0.82737622  0.21319414  1
  Cr  Cr15  1  0.17930666  0.17295189  0.71458795  1
  Cr  Cr16  1  0.35117613  0.82716117  0.21467819  1
  Cr  Cr17  1  0.84835522  0.32975616  0.21350859  1
  O  O18  1  0.17609916  0.15177245  0.09911261  1
  O  O19  1  0.02322875  0.50088914  0.82827650  1
  O  O20  1  0.17631769  0.67686811  0.10226663  1
  O  O21  1  0.34762091  0.32955027  0.59574954  1
  O  O22  1  0.50285982  0.01422397  0.82960045  1
  O  O23  1  0.70236021  0.15144211  0.09902509  1
  O  O24  1  0.50302483  0.49940819  0.82877191  1
  O  O25  1  0.32967155  0.84636108  0.60110188  1
  O  O26  1  0.52064865  0.50123960  0.32983557  1
  O  O27  1  0.51974347  0.98405055  0.32705269  1
  O  O28  1  0.67904757  0.65768564  0.09712801  1
  O  O29  1  0.85753151  0.32779896  0.60052789  1
  O  O30  1  0.00092066  0.50160655  0.32681337  1
  O  O31  1  0.85890315  0.84765894  0.59607390  1
  O  O32  1  0.01794374  0.99872503  0.32728761  1
  O  O33  1  0.00514493  0.01454464  0.82749527  1
