# generated using pymatgen
data_Yb4Al2O9
_symmetry_space_group_name_H-M   'P 1'
_cell_length_a   7.51177533
_cell_length_b   10.64487885
_cell_length_c   11.09958056
_cell_angle_alpha   90.00000000
_cell_angle_beta   107.00063263
_cell_angle_gamma   90.00000000
_symmetry_Int_Tables_number   1
_chemical_formula_structural   Yb4Al2O9
_chemical_formula_sum   'Yb16 Al8 O36'
_cell_volume   848.75965988
_cell_formula_units_Z   4
loop_
 _symmetry_equiv_pos_site_id
 _symmetry_equiv_pos_as_xyz
  1  'x, y, z'
loop_
 _atom_site_type_symbol
 _atom_site_label
 _atom_site_symmetry_multiplicity
 _atom_site_fract_x
 _atom_site_fract_y
 _atom_site_fract_z
 _atom_site_occupancy
  Yb  Yb0  1  0.52520101  0.40793773  0.30191505  1
  Yb  Yb1  1  0.47479899  0.59206227  0.69808495  1
  Yb  Yb2  1  0.47479899  0.90793773  0.19808495  1
  Yb  Yb3  1  0.52520101  0.09206227  0.80191505  1
  Yb  Yb4  1  0.01292743  0.39607493  0.26775168  1
  Yb  Yb5  1  0.98707257  0.60392507  0.73224832  1
  Yb  Yb6  1  0.98707257  0.89607493  0.23224832  1
  Yb  Yb7  1  0.01292743  0.10392507  0.76775168  1
  Yb  Yb8  1  0.19396282  0.63411848  0.07308975  1
  Yb  Yb9  1  0.80603718  0.36588152  0.92691025  1
  Yb  Yb10  1  0.80603718  0.13411848  0.42691025  1
  Yb  Yb11  1  0.19396282  0.86588152  0.57308975  1
  Yb  Yb12  1  0.33013109  0.13744065  0.41100266  1
  Yb  Yb13  1  0.66986891  0.86255935  0.58899734  1
  Yb  Yb14  1  0.66986891  0.63744065  0.08899734  1
  Yb  Yb15  1  0.33013109  0.36255935  0.91100266  1
  Al  Al16  1  0.14814920  0.17852833  0.10710463  1
  Al  Al17  1  0.85185080  0.82147167  0.89289537  1
  Al  Al18  1  0.85185080  0.67852833  0.39289537  1
  Al  Al19  1  0.14814920  0.32147167  0.60710463  1
  Al  Al20  1  0.71990916  0.18294051  0.12942220  1
  Al  Al21  1  0.28009084  0.81705949  0.87057780  1
  Al  Al22  1  0.28009084  0.68294051  0.37057780  1
  Al  Al23  1  0.71990916  0.31705949  0.62942220  1
  O  O24  1  0.56737355  0.28081584  0.48101360  1
  O  O25  1  0.43262645  0.71918416  0.51898640  1
  O  O26  1  0.43262645  0.78081584  0.01898640  1
  O  O27  1  0.56737355  0.21918416  0.98101360  1
  O  O28  1  0.14718829  0.29468896  0.45179240  1
  O  O29  1  0.85281171  0.70531104  0.54820760  1
  O  O30  1  0.85281171  0.79468896  0.04820760  1
  O  O31  1  0.14718829  0.20531104  0.95179240  1
  O  O32  1  0.21171663  0.03545342  0.18840695  1
  O  O33  1  0.78828337  0.96454658  0.81159305  1
  O  O34  1  0.78828337  0.53545342  0.31159305  1
  O  O35  1  0.21171663  0.46454658  0.68840695  1
  O  O36  1  0.43463308  0.49290658  0.08787106  1
  O  O37  1  0.56536692  0.50709342  0.91212894  1
  O  O38  1  0.56536692  0.99290658  0.41212894  1
  O  O39  1  0.43463308  0.00709342  0.58787106  1
  O  O40  1  0.29541541  0.26513255  0.23052180  1
  O  O41  1  0.70458459  0.73486745  0.76947820  1
  O  O42  1  0.70458459  0.76513255  0.26947820  1
  O  O43  1  0.29541541  0.23486745  0.73052180  1
  O  O44  1  0.73594984  0.27357203  0.26525484  1
  O  O45  1  0.26405016  0.72642797  0.73474516  1
  O  O46  1  0.26405016  0.77357203  0.23474516  1
  O  O47  1  0.73594984  0.22642797  0.76525484  1
  O  O48  1  0.07049787  0.73988602  0.39617613  1
  O  O49  1  0.92950213  0.26011398  0.60382387  1
  O  O50  1  0.92950213  0.23988602  0.10382387  1
  O  O51  1  0.07049787  0.76011398  0.89617613  1
  O  O52  1  0.27044437  0.52882237  0.31249702  1
  O  O53  1  0.72955563  0.47117763  0.68750298  1
  O  O54  1  0.72955563  0.02882237  0.18750298  1
  O  O55  1  0.27044437  0.97117763  0.81249702  1
  O  O56  1  0.06338969  0.01902550  0.41987826  1
  O  O57  1  0.93661031  0.98097450  0.58012174  1
  O  O58  1  0.93661031  0.51902550  0.08012174  1
  O  O59  1  0.06338969  0.48097450  0.91987826  1
