# generated using pymatgen
data_Na11Mn13O32
_symmetry_space_group_name_H-M   'P 1'
_cell_length_a   6.20198351
_cell_length_b   6.20587134
_cell_length_c   20.51688642
_cell_angle_alpha   95.77372043
_cell_angle_beta   92.29442926
_cell_angle_gamma   122.27205213
_symmetry_Int_Tables_number   1
_chemical_formula_structural   Na11Mn13O32
_chemical_formula_sum   'Na11 Mn13 O32'
_cell_volume   660.15726889
_cell_formula_units_Z   1
loop_
 _symmetry_equiv_pos_site_id
 _symmetry_equiv_pos_as_xyz
  1  'x, y, z'
loop_
 _atom_site_type_symbol
 _atom_site_label
 _atom_site_symmetry_multiplicity
 _atom_site_fract_x
 _atom_site_fract_y
 _atom_site_fract_z
 _atom_site_occupancy
  Na  Na0  1  0.34308751  0.68654620  0.03125580  1
  Na  Na1  1  0.00868086  0.99155559  0.99945094  1
  Na  Na2  1  0.44331927  0.87586846  0.32098995  1
  Na  Na3  1  0.67913947  0.38474215  0.06353256  1
  Na  Na4  1  0.76325276  0.49183402  0.25410528  1
  Na  Na5  1  0.18541056  0.37387367  0.55790246  1
  Na  Na6  1  0.71749588  0.93966299  0.65751596  1
  Na  Na7  1  0.96932830  0.43217790  0.40523310  1
  Na  Na8  1  0.24466467  0.49846036  0.74204214  1
  Na  Na9  1  0.50497303  0.00012741  0.50483742  1
  Na  Na10  1  0.92530876  0.88495835  0.80838820  1
  Mn  Mn11  1  0.22504242  0.93993043  0.16384453  1
  Mn  Mn12  1  0.22479205  0.44556822  0.16415121  1
  Mn  Mn13  1  0.71939490  0.94004596  0.16408648  1
  Mn  Mn14  1  0.10742839  0.17830907  0.28576912  1
  Mn  Mn15  1  0.21425320  0.93909044  0.65474593  1
  Mn  Mn16  1  0.97246565  0.93342029  0.40785731  1
  Mn  Mn17  1  0.47342842  0.43468710  0.40802360  1
  Mn  Mn18  1  0.84446384  0.68662276  0.53121001  1
  Mn  Mn19  1  0.46397298  0.93194199  0.89890359  1
  Mn  Mn20  1  0.71642038  0.44045779  0.65479519  1
  Mn  Mn21  1  0.58137069  0.19718359  0.77690530  1
  Mn  Mn22  1  0.46333328  0.43711164  0.89901323  1
  Mn  Mn23  1  0.96927338  0.43742265  0.89879832  1
  O  O24  1  0.06871210  0.59304121  0.11847470  1
  O  O25  1  0.51889427  0.59918946  0.11729114  1
  O  O26  1  0.40969833  0.80519840  0.21269593  1
  O  O27  1  0.03410052  0.08085608  0.11402961  1
  O  O28  1  0.09988215  0.81345142  0.47103021  1
  O  O29  1  0.93880498  0.85968980  0.21758153  1
  O  O30  1  0.35840619  0.27926766  0.21748682  1
  O  O31  1  0.28850658  0.49187940  0.34021848  1
  O  O32  1  0.52559005  0.05010328  0.11820815  1
  O  O33  1  0.01214125  0.58946597  0.59983808  1
  O  O34  1  0.17367509  0.27724989  0.45286649  1
  O  O35  1  0.26988216  0.08531589  0.35338100  1
  O  O36  1  0.76478557  0.59375562  0.36035471  1
  O  O37  1  0.94387699  0.27728603  0.22079260  1
  O  O38  1  0.67778485  0.78467122  0.46323418  1
  O  O39  1  0.39834321  0.88258606  0.72281010  1
  O  O40  1  0.65670296  0.37077232  0.47142454  1
  O  O41  1  0.03155411  0.00213265  0.59093913  1
  O  O42  1  0.58943339  0.56015226  0.59125765  1
  O  O43  1  0.84685084  0.04850547  0.33987953  1
  O  O44  1  0.92299949  0.78011467  0.70242643  1
  O  O45  1  0.42052080  0.29141504  0.70930800  1
  O  O46  1  0.51378146  0.09615192  0.60989914  1
  O  O47  1  0.27936734  0.57311979  0.85034481  1
  O  O48  1  0.16943126  0.77823656  0.94579564  1
  O  O49  1  0.84118541  0.32386214  0.72237081  1
  O  O50  1  0.16335099  0.32714107  0.94476882  1
  O  O51  1  0.61888197  0.78227975  0.94481710  1
  O  O52  1  0.75067170  0.51707264  0.84525864  1
  O  O53  1  0.33046450  0.09693743  0.84511802  1
  O  O54  1  0.74507631  0.09917488  0.84221935  1
  O  O55  1  0.65381254  0.29508601  0.94873006  1
