# generated using pymatgen
data_Bi12O16F5
_symmetry_space_group_name_H-M   'P 1'
_cell_length_a   10.44098998
_cell_length_b   13.84794619
_cell_length_c   3.80799291
_cell_angle_alpha   97.91665631
_cell_angle_beta   90.02020958
_cell_angle_gamma   79.15569672
_symmetry_Int_Tables_number   1
_chemical_formula_structural   Bi12O16F5
_chemical_formula_sum   'Bi12 O16 F5'
_cell_volume   535.41262809
_cell_formula_units_Z   1
loop_
 _symmetry_equiv_pos_site_id
 _symmetry_equiv_pos_as_xyz
  1  'x, y, z'
loop_
 _atom_site_type_symbol
 _atom_site_label
 _atom_site_symmetry_multiplicity
 _atom_site_fract_x
 _atom_site_fract_y
 _atom_site_fract_z
 _atom_site_occupancy
  Bi  Bi0  1  0.06300699  0.63344570  0.31634969  1
  Bi  Bi1  1  0.07206540  0.12711449  0.05738963  1
  Bi  Bi2  1  0.23226852  0.88922913  0.43743539  1
  Bi  Bi3  1  0.24659492  0.36593057  0.17545350  1
  Bi  Bi4  1  0.39117269  0.13719126  0.55372227  1
  Bi  Bi5  1  0.43703052  0.61305027  0.27259223  1
  Bi  Bi6  1  0.56251739  0.38529094  0.66129352  1
  Bi  Bi7  1  0.60482800  0.86267086  0.42403925  1
  Bi  Bi8  1  0.75243582  0.63418075  0.80750035  1
  Bi  Bi9  1  0.76608446  0.11117905  0.54260212  1
  Bi  Bi10  1  0.92567521  0.87316390  0.93767692  1
  Bi  Bi11  1  0.93524383  0.36776132  0.67992641  1
  O  O12  1  0.03778224  0.30897353  0.15391382  1
  O  O13  1  0.06733101  0.80609329  0.39817006  1
  O  O14  1  0.12366062  0.94312622  0.97435696  1
  O  O15  1  0.11827341  0.42829850  0.70973288  1
  O  O16  1  0.21552177  0.06691564  0.52445833  1
  O  O17  1  0.28823324  0.19580033  0.08573383  1
  O  O18  1  0.37943053  0.30734947  0.64472858  1
  O  O19  1  0.44633460  0.44556014  0.21641118  1
  O  O20  1  0.55183042  0.55294472  0.76923370  1
  O  O21  1  0.61911448  0.69210882  0.33767461  1
  O  O22  1  0.70911034  0.80462589  0.89487203  1
  O  O23  1  0.78060040  0.93376167  0.45854493  1
  O  O24  1  0.88059016  0.57313150  0.28181581  1
  O  O25  1  0.87453751  0.05712471  0.02916182  1
  O  O26  1  0.92936440  0.19520719  0.59232758  1
  O  O27  1  0.96062866  0.69210110  0.84781833  1
  F  F28  1  0.26609054  0.59542123  0.83182766  1
  F  F29  1  0.36692840  0.78070303  0.93217351  1
  F  F30  1  0.49658536  0.00042339  0.99407398  1
  F  F31  1  0.63338200  0.21969792  0.15255534  1
  F  F32  1  0.72934017  0.40655351  0.23539777  1
