# generated using pymatgen
data_VP2H8(NO4)2
_symmetry_space_group_name_H-M   'P 1'
_cell_length_a   8.42552421
_cell_length_b   8.42597435
_cell_length_c   5.81121841
_cell_angle_alpha   90.01159444
_cell_angle_beta   90.01124006
_cell_angle_gamma   90.00003541
_symmetry_Int_Tables_number   1
_chemical_formula_structural   VP2H8(NO4)2
_chemical_formula_sum   'V2 P4 H16 N4 O16'
_cell_volume   412.55727012
_cell_formula_units_Z   2
loop_
 _symmetry_equiv_pos_site_id
 _symmetry_equiv_pos_as_xyz
  1  'x, y, z'
loop_
 _atom_site_type_symbol
 _atom_site_label
 _atom_site_symmetry_multiplicity
 _atom_site_fract_x
 _atom_site_fract_y
 _atom_site_fract_z
 _atom_site_occupancy
  V  V0  1  0.00002200  0.00002189  0.09692637  1
  V  V1  1  0.50002549  0.50002176  0.09680549  1
  P  P2  1  0.12824165  0.37181609  0.11197444  1
  P  P3  1  0.37183031  0.87176647  0.11196551  1
  P  P4  1  0.62818743  0.12825122  0.11196414  1
  P  P5  1  0.87184583  0.62826455  0.11196605  1
  H  H6  1  0.09839076  0.59779639  0.69433012  1
  H  H7  1  0.10839816  0.74914459  0.50914928  1
  H  H8  1  0.23783239  0.73687946  0.73077219  1
  H  H9  1  0.24925651  0.60807249  0.50835674  1
  H  H10  1  0.25081191  0.10840886  0.50913299  1
  H  H11  1  0.26314596  0.23780866  0.73075355  1
  H  H12  1  0.39192218  0.24923236  0.50837658  1
  H  H13  1  0.40221517  0.09836141  0.69436050  1
  H  H14  1  0.59837531  0.90223207  0.69436257  1
  H  H15  1  0.60839882  0.75086478  0.50912546  1
  H  H16  1  0.73783543  0.76317638  0.73075227  1
  H  H17  1  0.74928395  0.89191427  0.50838419  1
  H  H18  1  0.75072039  0.39191326  0.50835914  1
  H  H19  1  0.76221416  0.26317255  0.73073299  1
  H  H20  1  0.89158333  0.25083813  0.50915205  1
  H  H21  1  0.90164819  0.40224784  0.69439075  1
  N  N22  1  0.17401587  0.67354159  0.61051279  1
  N  N23  1  0.32646529  0.17398580  0.61050865  1
  N  N24  1  0.67400601  0.82648950  0.61051162  1
  N  N25  1  0.82601798  0.32649816  0.61050535  1
  O  O26  1  0.00000765  0.00003424  0.37909483  1
  O  O27  1  0.00003213  0.50002698  0.00434543  1
  O  O28  1  0.07595794  0.21515520  0.99637806  1
  O  O29  1  0.12703593  0.37324804  0.36894676  1
  O  O30  1  0.21515415  0.92402529  0.99641871  1
  O  O31  1  0.28485861  0.42396874  0.99614856  1
  O  O32  1  0.37329423  0.87300495  0.36896187  1
  O  O33  1  0.42398848  0.71514389  0.99611089  1
  O  O34  1  0.50003629  0.50000995  0.37898450  1
  O  O35  1  0.50000345  0.99999978  0.00434108  1
  O  O36  1  0.57601260  0.28485382  0.99610478  1
  O  O37  1  0.62678688  0.12708606  0.36893634  1
  O  O38  1  0.71517575  0.57596192  0.99639703  1
  O  O39  1  0.78484447  0.07597261  0.99641729  1
  O  O40  1  0.87327686  0.62706391  0.36895187  1
  O  O41  1  0.92398512  0.78486806  0.99613023  1
