# generated using pymatgen
data_LiVP2O7
_symmetry_space_group_name_H-M   'P 1'
_cell_length_a   5.32314596
_cell_length_b   5.32314596
_cell_length_c   9.05160162
_cell_angle_alpha   82.39669204
_cell_angle_beta   97.60330796
_cell_angle_gamma   75.59665838
_symmetry_Int_Tables_number   1
_chemical_formula_structural   LiVP2O7
_chemical_formula_sum   'Li2 V2 P4 O14'
_cell_volume   242.56522388
_cell_formula_units_Z   2
loop_
 _symmetry_equiv_pos_site_id
 _symmetry_equiv_pos_as_xyz
  1  'x, y, z'
loop_
 _atom_site_type_symbol
 _atom_site_label
 _atom_site_symmetry_multiplicity
 _atom_site_fract_x
 _atom_site_fract_y
 _atom_site_fract_z
 _atom_site_occupancy
  Li  Li0  1  0.70276617  0.68727579  0.49737077  1
  Li  Li1  1  0.31272421  0.29723383  0.99737077  1
  V  V2  1  0.67968540  0.67955754  0.00251111  1
  V  V3  1  0.32044246  0.32031460  0.50251111  1
  P  P4  1  0.21882151  0.78475022  0.70325465  1
  P  P5  1  0.21524978  0.78117849  0.20325465  1
  P  P6  1  0.77130207  0.21319953  0.79797556  1
  P  P7  1  0.78680047  0.22869793  0.29797556  1
  O  O8  1  0.35477127  0.95247154  0.60715312  1
  O  O9  1  0.10192722  0.60413406  0.61161743  1
  O  O10  1  0.38821513  0.63112781  0.85404966  1
  O  O11  1  0.04752846  0.64522873  0.10715312  1
  O  O12  1  0.39586594  0.89807278  0.11161743  1
  O  O13  1  0.36887219  0.61178487  0.35404966  1
  O  O14  1  0.98353443  0.97946628  0.75321137  1
  O  O15  1  0.02053372  0.01646557  0.25321137  1
  O  O16  1  0.62462370  0.37376116  0.64336955  1
  O  O17  1  0.61159875  0.06491486  0.88750468  1
  O  O18  1  0.90958896  0.37617780  0.89198210  1
  O  O19  1  0.62623884  0.37537630  0.14336955  1
  O  O20  1  0.93508514  0.38840125  0.38750468  1
  O  O21  1  0.62382220  0.09041104  0.39198210  1
