# generated using pymatgen
data_Li3V3P8O29
_symmetry_space_group_name_H-M   'P 1'
_cell_length_a   9.76945011
_cell_length_b   9.77173283
_cell_length_c   14.06708723
_cell_angle_alpha   90.20020310
_cell_angle_beta   90.01148082
_cell_angle_gamma   59.80611151
_symmetry_Int_Tables_number   1
_chemical_formula_structural   Li3V3P8O29
_chemical_formula_sum   'Li6 V6 P16 O58'
_cell_volume   1160.70361744
_cell_formula_units_Z   2
loop_
 _symmetry_equiv_pos_site_id
 _symmetry_equiv_pos_as_xyz
  1  'x, y, z'
loop_
 _atom_site_type_symbol
 _atom_site_label
 _atom_site_symmetry_multiplicity
 _atom_site_fract_x
 _atom_site_fract_y
 _atom_site_fract_z
 _atom_site_occupancy
  Li  Li0  1  0.76734330  0.90584401  0.55081308  1
  Li  Li1  1  0.77435418  0.32227341  0.06344061  1
  Li  Li2  1  0.32743461  0.76743934  0.55216622  1
  Li  Li3  1  0.68859798  0.08517440  0.94524744  1
  Li  Li4  1  0.22086868  0.69308906  0.94880417  1
  Li  Li5  1  0.98378068  0.03970606  0.48649850  1
  V  V6  1  0.56418384  0.43101482  0.25773725  1
  V  V7  1  0.43590537  0.56274530  0.74806048  1
  V  V8  1  0.56194807  0.99688523  0.75092168  1
  V  V9  1  0.43036082  0.00191990  0.24703320  1
  V  V10  1  0.00032787  0.56510430  0.24984686  1
  V  V11  1  0.99941006  0.43425867  0.74832140  1
  P  P12  1  0.91528716  0.76982171  0.84361643  1
  P  P13  1  0.77319474  0.91214451  0.33997262  1
  P  P14  1  0.91812167  0.30807876  0.34360288  1
  P  P15  1  0.66711241  0.66273116  0.13026799  1
  P  P16  1  0.66675460  0.66625981  0.62981900  1
  P  P17  1  0.77212917  0.31636518  0.84083901  1
  P  P18  1  0.69181640  0.21973412  0.65700105  1
  P  P19  1  0.31122956  0.91453692  0.84602034  1
  P  P20  1  0.68351135  0.08869347  0.15828573  1
  P  P21  1  0.31212004  0.77799730  0.34065691  1
  P  P22  1  0.22962249  0.68079313  0.16011184  1
  P  P23  1  0.33038182  0.33201828  0.37097516  1
  P  P24  1  0.33291564  0.33418355  0.86911822  1
  P  P25  1  0.08267832  0.69046502  0.65684695  1
  P  P26  1  0.22363616  0.08417992  0.65971041  1
  P  P27  1  0.08518613  0.22781179  0.15733783  1
  O  O28  1  0.99420503  0.78429455  0.57280058  1
  O  O29  1  0.91407698  0.74045182  0.33200897  1
  O  O30  1  0.75795421  0.00793648  0.06721629  1
  O  O31  1  0.74382580  0.91557759  0.83986050  1
  O  O32  1  0.90728591  0.61718605  0.82256450  1
  O  O33  1  0.81683193  0.65706687  0.17792317  1
  O  O34  1  0.91943814  0.46416534  0.33178112  1
  O  O35  1  0.99474948  0.23593978  0.07096009  1
  O  O36  1  0.91440608  0.34239212  0.83353328  1
  O  O37  1  0.67181726  0.81492777  0.67326518  1
  O  O38  1  0.61631343  0.91312419  0.32630604  1
  O  O39  1  0.81211000  0.51845003  0.67489093  1
  O  O40  1  0.67082690  0.66299209  0.02445450  1
  O  O41  1  0.66271472  0.67571982  0.52466723  1
  O  O42  1  0.66412999  0.51453536  0.17024373  1
  O  O43  1  0.47443111  0.90530636  0.82167658  1
  O  O44  1  0.52298719  0.81581905  0.17540868  1
  O  O45  1  0.74249838  0.34623307  0.33197786  1
  O  O46  1  0.79093930  0.20090546  0.75405868  1
  O  O47  1  0.78284500  0.21082505  0.57166764  1
  O  O48  1  0.75407332  0.24863777  0.93160484  1
  O  O49  1  0.61823768  0.47837074  0.81949523  1
  O  O50  1  0.51132153  0.67296163  0.66992443  1
  O  O51  1  0.66013598  0.25845051  0.16284882  1
  O  O52  1  0.47183063  0.61937429  0.32815677  1
  O  O53  1  0.34353340  0.91710823  0.33217599  1
  O  O54  1  0.79320119  0.00157597  0.24923121  1
  O  O55  1  0.78307758  0.98834576  0.43033984  1
  O  O56  1  0.22274724  0.99493054  0.57453788  1
  O  O57  1  0.65649012  0.08112555  0.66376863  1
  O  O58  1  0.53219818  0.38026054  0.67356966  1
  O  O59  1  0.33945241  0.74225904  0.83636766  1
  O  O60  1  0.48274026  0.33188015  0.32727493  1
  O  O61  1  0.38297877  0.52216929  0.18147662  1
  O  O62  1  0.23914517  0.75299106  0.06984150  1
  O  O63  1  0.22980209  0.78439323  0.43151430  1
  O  O64  1  0.20549748  0.79482738  0.24998160  1
  O  O65  1  0.25633386  0.65902340  0.66038141  1
  O  O66  1  0.48523773  0.18311469  0.82746642  1
  O  O67  1  0.52332916  0.09664150  0.17678565  1
  O  O68  1  0.33472052  0.48386490  0.82410099  1
  O  O69  1  0.33719367  0.34044626  0.97404585  1
  O  O70  1  0.33729911  0.33130491  0.47643374  1
  O  O71  1  0.18564933  0.47980874  0.32600908  1
  O  O72  1  0.38221756  0.08586175  0.67503241  1
  O  O73  1  0.33388593  0.18409531  0.32480073  1
  O  O74  1  0.08658765  0.65425288  0.16752236  1
  O  O75  1  0.00080121  0.79297240  0.75154699  1
  O  O76  1  0.00489023  0.76108190  0.92984742  1
  O  O77  1  0.08546769  0.53110498  0.67159050  1
  O  O78  1  0.18603808  0.33745391  0.82243626  1
  O  O79  1  0.09212191  0.38104531  0.17575125  1
  O  O80  1  0.25736843  0.08564469  0.16311810  1
  O  O81  1  0.23990846  0.99785195  0.93508525  1
  O  O82  1  0.20434780  0.00121383  0.75343964  1
  O  O83  1  0.08649329  0.25747998  0.66574055  1
  O  O84  1  0.99147457  0.21323787  0.43009081  1
  O  O85  1  0.00267981  0.20305717  0.25022388  1
