# generated using pymatgen
data_BaCa2I6
_symmetry_space_group_name_H-M   'P 1'
_cell_length_a   8.65773467
_cell_length_b   7.76948166
_cell_length_c   23.97326312
_cell_angle_alpha   90.00000000
_cell_angle_beta   86.68960523
_cell_angle_gamma   90.00000000
_symmetry_Int_Tables_number   1
_chemical_formula_structural   BaCa2I6
_chemical_formula_sum   'Ba4 Ca8 I24'
_cell_volume   1609.89733639
_cell_formula_units_Z   4
loop_
 _symmetry_equiv_pos_site_id
 _symmetry_equiv_pos_as_xyz
  1  'x, y, z'
loop_
 _atom_site_type_symbol
 _atom_site_label
 _atom_site_symmetry_multiplicity
 _atom_site_fract_x
 _atom_site_fract_y
 _atom_site_fract_z
 _atom_site_occupancy
  Ba  Ba0  1  0.14520907  0.03126218  0.59632446  1
  Ba  Ba1  1  0.14520907  0.46873782  0.09632446  1
  Ba  Ba2  1  0.85479093  0.53126218  0.90367554  1
  Ba  Ba3  1  0.85479093  0.96873782  0.40367554  1
  Ca  Ca4  1  0.25338000  0.48776285  0.75256759  1
  Ca  Ca5  1  0.37530924  0.96833538  0.91145485  1
  Ca  Ca6  1  0.25338000  0.01223715  0.25256759  1
  Ca  Ca7  1  0.37530924  0.53166462  0.41145485  1
  Ca  Ca8  1  0.62469076  0.46833538  0.58854515  1
  Ca  Ca9  1  0.74662000  0.98776285  0.74743241  1
  Ca  Ca10  1  0.62469076  0.03166462  0.08854515  1
  Ca  Ca11  1  0.74662000  0.51223715  0.24743241  1
  I  I12  1  0.03658054  0.79083514  0.79952933  1
  I  I13  1  0.17683022  0.27543137  0.85902519  1
  I  I14  1  0.13401575  0.73598052  0.97664182  1
  I  I15  1  0.03658054  0.70916486  0.29952933  1
  I  I16  1  0.17683022  0.22456863  0.35902519  1
  I  I17  1  0.13401575  0.76401948  0.47664182  1
  I  I18  1  0.38463618  0.28371447  0.51470091  1
  I  I19  1  0.34367393  0.68179439  0.64396549  1
  I  I20  1  0.47603815  0.20768530  0.68796319  1
  I  I21  1  0.52396185  0.70768530  0.81203681  1
  I  I22  1  0.38463618  0.21628553  0.01470091  1
  I  I23  1  0.65632607  0.18179439  0.85603451  1
  I  I24  1  0.34367393  0.81820561  0.14396549  1
  I  I25  1  0.61536382  0.78371347  0.98529909  1
  I  I26  1  0.47603815  0.29231470  0.18796319  1
  I  I27  1  0.52396185  0.79231470  0.31203681  1
  I  I28  1  0.65632607  0.31820561  0.35603451  1
  I  I29  1  0.61536382  0.71628653  0.48529909  1
  I  I30  1  0.86598425  0.23598052  0.52335818  1
  I  I31  1  0.82316978  0.77543137  0.64097481  1
  I  I32  1  0.96341946  0.29083514  0.70047067  1
  I  I33  1  0.86598425  0.26401948  0.02335818  1
  I  I34  1  0.82316978  0.72456863  0.14097481  1
  I  I35  1  0.96341946  0.20916486  0.20047067  1
