# generated using pymatgen
data_Li11Ti4Mn12O32
_symmetry_space_group_name_H-M   'P 1'
_cell_length_a   8.39371562
_cell_length_b   8.37397729
_cell_length_c   8.74587238
_cell_angle_alpha   89.96316749
_cell_angle_beta   89.95408023
_cell_angle_gamma   90.53357337
_symmetry_Int_Tables_number   1
_chemical_formula_structural   Li11Ti4Mn12O32
_chemical_formula_sum   'Li11 Ti4 Mn12 O32'
_cell_volume   614.70975057
_cell_formula_units_Z   1
loop_
 _symmetry_equiv_pos_site_id
 _symmetry_equiv_pos_as_xyz
  1  'x, y, z'
loop_
 _atom_site_type_symbol
 _atom_site_label
 _atom_site_symmetry_multiplicity
 _atom_site_fract_x
 _atom_site_fract_y
 _atom_site_fract_z
 _atom_site_occupancy
  Li  Li0  1  0.99992463  0.99698459  0.99953658  1
  Li  Li1  1  0.87320281  0.37679600  0.37420764  1
  Li  Li2  1  0.87800821  0.62703717  0.62550624  1
  Li  Li3  1  0.62366123  0.37298556  0.12470145  1
  Li  Li4  1  0.62390422  0.62535934  0.87514273  1
  Li  Li5  1  0.62718041  0.12711385  0.37652240  1
  Li  Li6  1  0.62850305  0.88166221  0.62625464  1
  Li  Li7  1  0.36684860  0.62143923  0.12370869  1
  Li  Li8  1  0.37313960  0.87722316  0.37534016  1
  Li  Li9  1  0.25359720  0.24929249  0.75088771  1
  Li  Li10  1  0.12254855  0.62319898  0.37304635  1
  Ti  Ti11  1  0.87816873  0.37185627  0.87447947  1
  Ti  Ti12  1  0.61719036  0.87354226  0.12367091  1
  Ti  Ti13  1  0.37569230  0.63126991  0.62650011  1
  Ti  Ti14  1  0.11919038  0.13094883  0.37421630  1
  Mn  Mn15  1  0.87815483  0.62909459  0.11973478  1
  Mn  Mn16  1  0.87613100  0.87343968  0.37080221  1
  Mn  Mn17  1  0.87615232  0.12431593  0.62634760  1
  Mn  Mn18  1  0.62752770  0.62210381  0.37475033  1
  Mn  Mn19  1  0.62157563  0.37226589  0.62987440  1
  Mn  Mn20  1  0.62579287  0.12639008  0.87988784  1
  Mn  Mn21  1  0.37664411  0.37359472  0.37951736  1
  Mn  Mn22  1  0.37103242  0.12484170  0.12792653  1
  Mn  Mn23  1  0.36948174  0.88088485  0.87457781  1
  Mn  Mn24  1  0.12508050  0.37403024  0.12393581  1
  Mn  Mn25  1  0.12409676  0.62452703  0.87103672  1
  Mn  Mn26  1  0.12649484  0.87917543  0.62191016  1
  O  O27  1  0.87332007  0.39634664  0.10518927  1
  O  O28  1  0.89403812  0.60819419  0.86653492  1
  O  O29  1  0.86838594  0.87704568  0.58806189  1
  O  O30  1  0.88990670  0.12072500  0.38405832  1
  O  O31  1  0.86658379  0.86172177  0.14661569  1
  O  O32  1  0.85915277  0.63062430  0.37576521  1
  O  O33  1  0.85440231  0.37826072  0.64561336  1
  O  O34  1  0.86270926  0.13792436  0.86398186  1
  O  O35  1  0.64060670  0.64108226  0.11198318  1
  O  O36  1  0.63331028  0.85913363  0.35831147  1
  O  O37  1  0.64868493  0.13611498  0.62088005  1
  O  O38  1  0.64295470  0.35727519  0.88441528  1
  O  O39  1  0.60849760  0.60918255  0.63831731  1
  O  O40  1  0.62445423  0.39148320  0.37386925  1
  O  O41  1  0.60218849  0.10855946  0.13493352  1
  O  O42  1  0.60733428  0.88991998  0.89094065  1
  O  O43  1  0.39045306  0.61448903  0.39174177  1
  O  O44  1  0.38897986  0.38284057  0.60462212  1
  O  O45  1  0.38628980  0.11140507  0.89745252  1
  O  O46  1  0.39763118  0.86172027  0.13314796  1
  O  O47  1  0.35906948  0.13274945  0.36077887  1
  O  O48  1  0.37117326  0.38164132  0.16105498  1
  O  O49  1  0.35974704  0.64249052  0.85918003  1
  O  O50  1  0.38852347  0.85166683  0.61650511  1
  O  O51  1  0.12238318  0.35939020  0.36210274  1
  O  O52  1  0.13907194  0.13959509  0.14062680  1
  O  O53  1  0.13902746  0.86470928  0.85170355  1
  O  O54  1  0.14165479  0.64686690  0.61541896  1
  O  O55  1  0.11274107  0.38674259  0.88893946  1
  O  O56  1  0.11434178  0.60223022  0.12906709  1
  O  O57  1  0.11914486  0.89008948  0.39032545  1
  O  O58  1  0.10934862  0.11154248  0.60900442  1
