# generated using pymatgen
data_LiFe5O5F
_symmetry_space_group_name_H-M   'P 1'
_cell_length_a   3.55832257
_cell_length_b   3.58851493
_cell_length_c   13.45052754
_cell_angle_alpha   90.00000187
_cell_angle_beta   89.95055229
_cell_angle_gamma   120.28108181
_symmetry_Int_Tables_number   1
_chemical_formula_structural   LiFe5O5F
_chemical_formula_sum   'Li1 Fe5 O5 F1'
_cell_volume   148.31761838
_cell_formula_units_Z   1
loop_
 _symmetry_equiv_pos_site_id
 _symmetry_equiv_pos_as_xyz
  1  'x, y, z'
loop_
 _atom_site_type_symbol
 _atom_site_label
 _atom_site_symmetry_multiplicity
 _atom_site_fract_x
 _atom_site_fract_y
 _atom_site_fract_z
 _atom_site_occupancy
  Li  Li0  1  0.33292834  0.66651417  0.98069508  1
  Fe  Fe1  1  0.31774216  0.65892108  0.31170218  1
  Fe  Fe2  1  0.31788545  0.65899323  0.64886337  1
  Fe  Fe3  1  0.65672727  0.32841363  0.48025809  1
  Fe  Fe4  1  0.65377507  0.32693754  0.14701836  1
  Fe  Fe5  1  0.65677906  0.32843953  0.81359475  1
  O  O6  1  0.35412267  0.67711134  0.47997974  1
  O  O7  1  0.35292548  0.67651224  0.81846063  1
  O  O8  1  0.35194967  0.67602533  0.14193190  1
  O  O9  1  0.66773499  0.33391800  0.31265591  1
  O  O10  1  0.66745437  0.33377718  0.64757500  1
  F  F11  1  0.66997546  0.33503773  0.98029700  1
