# generated using pymatgen
data_Li4Fe3Cu3(WO8)2
_symmetry_space_group_name_H-M   'P 1'
_cell_length_a   6.01118043
_cell_length_b   5.91648205
_cell_length_c   9.90764227
_cell_angle_alpha   90.03462769
_cell_angle_beta   86.89609352
_cell_angle_gamma   119.51865543
_symmetry_Int_Tables_number   1
_chemical_formula_structural   Li4Fe3Cu3(WO8)2
_chemical_formula_sum   'Li4 Fe3 Cu3 W2 O16'
_cell_volume   306.03927743
_cell_formula_units_Z   1
loop_
 _symmetry_equiv_pos_site_id
 _symmetry_equiv_pos_as_xyz
  1  'x, y, z'
loop_
 _atom_site_type_symbol
 _atom_site_label
 _atom_site_symmetry_multiplicity
 _atom_site_fract_x
 _atom_site_fract_y
 _atom_site_fract_z
 _atom_site_occupancy
  Li  Li0  1  0.32718359  0.66355376  0.91241932  1
  Li  Li1  1  0.00131030  0.00058708  0.98512077  1
  Li  Li2  1  0.00463433  0.00240997  0.48174710  1
  Li  Li3  1  0.68942730  0.34474437  0.41193186  1
  Fe  Fe4  1  0.66177435  0.83083011  0.21591737  1
  Fe  Fe5  1  0.82366081  0.65780822  0.71561928  1
  Fe  Fe6  1  0.82380074  0.16606565  0.71555684  1
  Cu  Cu7  1  0.17166169  0.83114289  0.21176488  1
  Cu  Cu8  1  0.17167866  0.34043573  0.21178702  1
  Cu  Cu9  1  0.33620643  0.16810462  0.70792611  1
  W  W10  1  0.35494195  0.67758535  0.48788361  1
  W  W11  1  0.65407335  0.32662704  0.98541814  1
  O  O12  1  0.15676930  0.81639095  0.58107208  1
  O  O13  1  0.06551700  0.53297138  0.34613224  1
  O  O14  1  0.33370741  0.66677122  0.11910537  1
  O  O15  1  0.00545559  0.00272448  0.29306329  1
  O  O16  1  0.00262168  0.00141956  0.79658718  1
  O  O17  1  0.15611887  0.34084152  0.58078294  1
  O  O18  1  0.51929999  0.97766781  0.36310110  1
  O  O19  1  0.51921808  0.54171044  0.36314885  1
  O  O20  1  0.32004627  0.15992702  0.08798767  1
  O  O21  1  0.64952829  0.82485339  0.60244794  1
  O  O22  1  0.51997416  0.48520518  0.85439411  1
  O  O23  1  0.52073952  0.03433600  0.85471440  1
  O  O24  1  0.66682565  0.33341726  0.61381213  1
  O  O25  1  0.79352000  0.64249401  0.08186458  1
  O  O26  1  0.95654960  0.47840050  0.84444516  1
  O  O27  1  0.79375510  0.15127248  0.08208966  1
