# generated using pymatgen
data_Li6VFeP2(CO7)2
_symmetry_space_group_name_H-M   'P 1'
_cell_length_a   8.50216038
_cell_length_b   5.02235816
_cell_length_c   6.55296936
_cell_angle_alpha   90.00000000
_cell_angle_beta   90.00000000
_cell_angle_gamma   84.62312617
_symmetry_Int_Tables_number   1
_chemical_formula_structural   Li6VFeP2(CO7)2
_chemical_formula_sum   'Li6 V1 Fe1 P2 C2 O14'
_cell_volume   278.58641922
_cell_formula_units_Z   1
loop_
 _symmetry_equiv_pos_site_id
 _symmetry_equiv_pos_as_xyz
  1  'x, y, z'
loop_
 _atom_site_type_symbol
 _atom_site_label
 _atom_site_symmetry_multiplicity
 _atom_site_fract_x
 _atom_site_fract_y
 _atom_site_fract_z
 _atom_site_occupancy
  Li  Li0  1  0.09759259  0.76490211  0.25000000  1
  Li  Li1  1  0.27824266  0.24928857  0.02807806  1
  Li  Li2  1  0.27824266  0.24928857  0.47192194  1
  Li  Li3  1  0.72262898  0.74970471  0.51975188  1
  Li  Li4  1  0.72262898  0.74970471  0.98024812  1
  Li  Li5  1  0.90477410  0.23361931  0.75000000  1
  V  V6  1  0.32872857  0.79251448  0.75000000  1
  Fe  Fe7  1  0.66697069  0.21178224  0.25000000  1
  P  P8  1  0.41125956  0.72094855  0.25000000  1
  P  P9  1  0.58805019  0.27972140  0.75000000  1
  C  C10  1  0.03539992  0.69728942  0.75000000  1
  C  C11  1  0.96532288  0.30113615  0.25000000  1
  O  O12  1  0.07361317  0.94224763  0.75000000  1
  O  O13  1  0.11108469  0.36009051  0.25000000  1
  O  O14  1  0.15004924  0.50529471  0.75000000  1
  O  O15  1  0.30766215  0.82768246  0.06679248  1
  O  O16  1  0.30766215  0.82768246  0.43320752  1
  O  O17  1  0.42282270  0.17583478  0.75000000  1
  O  O18  1  0.42992672  0.40780175  0.25000000  1
  O  O19  1  0.56790426  0.59140993  0.75000000  1
  O  O20  1  0.57750935  0.82085309  0.25000000  1
  O  O21  1  0.69076183  0.17531593  0.93597112  1
  O  O22  1  0.69076183  0.17531593  0.56402888  1
  O  O23  1  0.85052464  0.49260438  0.25000000  1
  O  O24  1  0.88978766  0.64224217  0.75000000  1
  O  O25  1  0.93008882  0.05572307  0.25000000  1
