# generated using pymatgen
data_MnCoO4
_symmetry_space_group_name_H-M   'P 1'
_cell_length_a   5.73445818
_cell_length_b   5.73445806
_cell_length_c   5.73445818
_cell_angle_alpha   89.42852346
_cell_angle_beta   118.42910883
_cell_angle_gamma   59.07237001
_symmetry_Int_Tables_number   1
_chemical_formula_structural   MnCoO4
_chemical_formula_sum   'Mn2 Co2 O8'
_cell_volume   133.90287746
_cell_formula_units_Z   2
loop_
 _symmetry_equiv_pos_site_id
 _symmetry_equiv_pos_as_xyz
  1  'x, y, z'
loop_
 _atom_site_type_symbol
 _atom_site_label
 _atom_site_symmetry_multiplicity
 _atom_site_fract_x
 _atom_site_fract_y
 _atom_site_fract_z
 _atom_site_occupancy
  Mn  Mn0  1  0.50000000  0.50000000  0.00000000  1
  Mn  Mn1  1  0.00000000  0.50000000  0.50000000  1
  Co  Co2  1  0.50000000  0.00000000  0.00000000  1
  Co  Co3  1  0.00000000  0.50000000  0.00000000  1
  O  O4  1  0.53482252  0.73922583  0.79559669  1
  O  O5  1  0.96517748  0.73922583  0.22595066  1
  O  O6  1  0.97424340  0.29194324  0.23381236  1
  O  O7  1  0.52575660  0.74043104  0.23381236  1
  O  O8  1  0.47424340  0.25956896  0.76618764  1
  O  O9  1  0.02575660  0.70805676  0.76618764  1
  O  O10  1  0.03482252  0.26077417  0.77404934  1
  O  O11  1  0.46517748  0.26077417  0.20440331  1
