# generated using pymatgen
data_TbWO5
_symmetry_space_group_name_H-M   'P 1'
_cell_length_a   5.29865362
_cell_length_b   6.62339769
_cell_length_c   12.89399975
_cell_angle_alpha   90.00000000
_cell_angle_beta   90.00000000
_cell_angle_gamma   108.71015313
_symmetry_Int_Tables_number   1
_chemical_formula_structural   TbWO5
_chemical_formula_sum   'Tb4 W4 O20'
_cell_volume   428.60216901
_cell_formula_units_Z   4
loop_
 _symmetry_equiv_pos_site_id
 _symmetry_equiv_pos_as_xyz
  1  'x, y, z'
loop_
 _atom_site_type_symbol
 _atom_site_label
 _atom_site_symmetry_multiplicity
 _atom_site_fract_x
 _atom_site_fract_y
 _atom_site_fract_z
 _atom_site_occupancy
  Tb  Tb0  1  0.14527704  0.78333204  0.44366374  1
  Tb  Tb1  1  0.85472296  0.21666796  0.55633626  1
  Tb  Tb2  1  0.35472296  0.71666796  0.94366374  1
  Tb  Tb3  1  0.64527704  0.28333204  0.05633626  1
  W  W4  1  0.96062389  0.84440499  0.13904647  1
  W  W5  1  0.03937611  0.15559501  0.86095353  1
  W  W6  1  0.53937611  0.65559501  0.63904647  1
  W  W7  1  0.46062389  0.34440499  0.36095353  1
  O  O8  1  0.04170692  0.56804170  0.08904611  1
  O  O9  1  0.95829308  0.43195830  0.91095389  1
  O  O10  1  0.45829308  0.93195830  0.58904611  1
  O  O11  1  0.54170692  0.06804170  0.41095389  1
  O  O12  1  0.84994712  0.84249322  0.57036860  1
  O  O13  1  0.15005288  0.15750678  0.42963140  1
  O  O14  1  0.65005288  0.65750678  0.07036860  1
  O  O15  1  0.34994712  0.34249322  0.92963140  1
  O  O16  1  0.27944829  0.96981192  0.06801991  1
  O  O17  1  0.72055171  0.03018808  0.93198009  1
  O  O18  1  0.22055171  0.53018808  0.56801991  1
  O  O19  1  0.77944829  0.46981192  0.43198009  1
  O  O20  1  0.00199893  0.79460608  0.27417765  1
  O  O21  1  0.99800107  0.20539392  0.72582235  1
  O  O22  1  0.49800107  0.70539392  0.77417765  1
  O  O23  1  0.50199893  0.29460608  0.22582235  1
  O  O24  1  0.15381942  0.92571897  0.85704314  1
  O  O25  1  0.84618058  0.07428103  0.14295686  1
  O  O26  1  0.34618058  0.57428103  0.35704314  1
  O  O27  1  0.65381942  0.42571897  0.64295686  1
