# generated using pymatgen
data_Li4V3P8O29
_symmetry_space_group_name_H-M   'P 1'
_cell_length_a   9.78676257
_cell_length_b   9.78359371
_cell_length_c   13.93052498
_cell_angle_alpha   90.08945178
_cell_angle_beta   90.17071895
_cell_angle_gamma   59.94006594
_symmetry_Int_Tables_number   1
_chemical_formula_structural   Li4V3P8O29
_chemical_formula_sum   'Li8 V6 P16 O58'
_cell_volume   1154.43914626
_cell_formula_units_Z   2
loop_
 _symmetry_equiv_pos_site_id
 _symmetry_equiv_pos_as_xyz
  1  'x, y, z'
loop_
 _atom_site_type_symbol
 _atom_site_label
 _atom_site_symmetry_multiplicity
 _atom_site_fract_x
 _atom_site_fract_y
 _atom_site_fract_z
 _atom_site_occupancy
  Li  Li0  1  0.91049415  0.31887396  0.55937459  1
  Li  Li1  1  0.77015373  0.32291235  0.06064476  1
  Li  Li2  1  0.32287036  0.90259865  0.05905412  1
  Li  Li3  1  0.67762060  0.22652467  0.44080156  1
  Li  Li4  1  0.32242130  0.77278638  0.55844233  1
  Li  Li5  1  0.68063409  0.08835619  0.93983868  1
  Li  Li6  1  0.09068468  0.68109200  0.44073954  1
  Li  Li7  1  0.09553452  0.22855869  0.93947176  1
  V  V8  1  0.56606984  0.43285230  0.24847911  1
  V  V9  1  0.42688570  0.56817738  0.75494703  1
  V  V10  1  0.57150010  0.99404566  0.74435249  1
  V  V11  1  0.43211896  0.00451991  0.25682906  1
  V  V12  1  0.99517462  0.57091797  0.24432788  1
  V  V13  1  0.00025916  0.43649082  0.75166123  1
  P  P14  1  0.91628294  0.77138251  0.84405804  1
  P  P15  1  0.77233898  0.91455706  0.34137451  1
  P  P16  1  0.91240680  0.31874762  0.34350794  1
  P  P17  1  0.66279614  0.66845257  0.12690949  1
  P  P18  1  0.66365670  0.66303202  0.62683086  1
  P  P19  1  0.76981013  0.31834802  0.84217281  1
  P  P20  1  0.68031645  0.23204771  0.65888379  1
  P  P21  1  0.31866065  0.91403970  0.84183415  1
  P  P22  1  0.68184359  0.08568901  0.15504910  1
  P  P23  1  0.31939735  0.76805248  0.34203007  1
  P  P24  1  0.22956525  0.68445626  0.15736916  1
  P  P25  1  0.33171799  0.33748620  0.37327413  1
  P  P26  1  0.33765465  0.32758328  0.87307062  1
  P  P27  1  0.08623349  0.68259686  0.65666445  1
  P  P28  1  0.22877287  0.08636521  0.65707311  1
  P  P29  1  0.08819975  0.22867344  0.15943889  1
  O  O30  1  0.01097685  0.75660901  0.56447176  1
  O  O31  1  0.91703030  0.74441871  0.33961645  1
  O  O32  1  0.75104050  0.00537595  0.06346764  1
  O  O33  1  0.74342217  0.91751861  0.83597022  1
  O  O34  1  0.90484586  0.61890434  0.82365289  1
  O  O35  1  0.81411517  0.66824148  0.17348816  1
  O  O36  1  0.90559698  0.47756343  0.32053469  1
  O  O37  1  0.00004359  0.24171229  0.06825069  1
  O  O38  1  0.91754333  0.33582030  0.84215058  1
  O  O39  1  0.66474621  0.81362482  0.67366061  1
  O  O40  1  0.61872987  0.90448287  0.32438210  1
  O  O41  1  0.81201765  0.51372508  0.66690272  1
  O  O42  1  0.66778060  0.66758184  0.02037804  1
  O  O43  1  0.65768142  0.67139867  0.52045842  1
  O  O44  1  0.67372676  0.51265654  0.16649663  1
  O  O45  1  0.47803565  0.90659131  0.82351320  1
  O  O46  1  0.51389948  0.81727794  0.16904367  1
  O  O47  1  0.74451643  0.33908075  0.33853746  1
  O  O48  1  0.79310198  0.20793199  0.75005582  1
  O  O49  1  0.75698393  0.24226192  0.56843579  1
  O  O50  1  0.75569115  0.24275827  0.93225461  1
  O  O51  1  0.61839192  0.47890181  0.82296607  1
  O  O52  1  0.51073353  0.67040508  0.66992531  1
  O  O53  1  0.66286402  0.25296601  0.16014717  1
  O  O54  1  0.47920254  0.61975832  0.32460236  1
  O  O55  1  0.34036592  0.91548493  0.33400234  1
  O  O56  1  0.79468907  0.99405508  0.24558961  1
  O  O57  1  0.76179710  0.00658131  0.42800876  1
  O  O58  1  0.24138905  0.99152784  0.57181385  1
  O  O59  1  0.65728046  0.08706614  0.66336828  1
  O  O60  1  0.52179410  0.38442969  0.67725994  1
  O  O61  1  0.34251270  0.74550953  0.83648345  1
  O  O62  1  0.48552886  0.32747392  0.33278882  1
  O  O63  1  0.38148463  0.52282586  0.17479905  1
  O  O64  1  0.23537063  0.76986621  0.07193274  1
  O  O65  1  0.24165171  0.76155455  0.43263274  1
  O  O66  1  0.20519664  0.78952703  0.25319444  1
  O  O67  1  0.25680416  0.66228945  0.66429104  1
  O  O68  1  0.49004877  0.18149746  0.83031347  1
  O  O69  1  0.52197187  0.09452098  0.17944357  1
  O  O70  1  0.33545194  0.47928611  0.82645192  1
  O  O71  1  0.34202579  0.32970888  0.97950613  1
  O  O72  1  0.33106719  0.33354900  0.47971558  1
  O  O73  1  0.18210833  0.48690663  0.33076981  1
  O  O74  1  0.38184911  0.09493859  0.67722537  1
  O  O75  1  0.33144627  0.18626588  0.32687206  1
  O  O76  1  0.08545860  0.65786418  0.16506597  1
  O  O77  1  0.99563062  0.79365494  0.74684909  1
  O  O78  1  -0.00015485  0.76857226  0.93180161  1
  O  O79  1  0.10024756  0.52162004  0.67627540  1
  O  O80  1  0.18789679  0.32616389  0.83373684  1
  O  O81  1  0.09680097  0.38157582  0.17631352  1
  O  O82  1  0.25568376  0.08263977  0.15993958  1
  O  O83  1  0.24369437  0.99915207  0.93334308  1
  O  O84  1  0.20441658  0.00618665  0.75351190  1
  O  O85  1  0.08312487  0.25482063  0.65949779  1
  O  O86  1  0.99406300  0.24621371  0.43463781  1
  O  O87  1  0.00075801  0.20737082  0.25069513  1
