# generated using pymatgen
data_Li5VF8
_symmetry_space_group_name_H-M   'P 1'
_cell_length_a   5.98928842
_cell_length_b   5.98928852
_cell_length_c   5.98928867
_cell_angle_alpha   87.48244225
_cell_angle_beta   59.29765849
_cell_angle_gamma   57.76808499
_symmetry_Int_Tables_number   1
_chemical_formula_structural   Li5VF8
_chemical_formula_sum   'Li5 V1 F8'
_cell_volume   148.35902237
_cell_formula_units_Z   1
loop_
 _symmetry_equiv_pos_site_id
 _symmetry_equiv_pos_as_xyz
  1  'x, y, z'
loop_
 _atom_site_type_symbol
 _atom_site_label
 _atom_site_symmetry_multiplicity
 _atom_site_fract_x
 _atom_site_fract_y
 _atom_site_fract_z
 _atom_site_occupancy
  Li  Li0  1  0.00000000  0.00000000  0.50000000  1
  Li  Li1  1  0.00000000  0.50000000  0.00000000  1
  Li  Li2  1  0.50000000  0.00000000  0.00000000  1
  Li  Li3  1  0.50000000  0.00000000  0.50000000  1
  Li  Li4  1  0.50000000  0.50000000  0.50000000  1
  V  V5  1  0.00000000  0.00000000  0.00000000  1
  F  F6  1  0.00000000  0.23387740  0.23387740  1
  F  F7  1  0.00916182  0.22923310  0.76160607  1
  F  F8  1  0.99083818  0.77076690  0.23839393  1
  F  F9  1  1.00000000  0.76612260  0.76612260  1
  F  F10  1  0.53237297  0.22923310  0.23839393  1
  F  F11  1  0.50000000  0.22905420  0.72905420  1
  F  F12  1  0.50000000  0.77094580  0.27094580  1
  F  F13  1  0.46762703  0.77076690  0.76160607  1
