# generated using pymatgen
data_LiMn3F10
_symmetry_space_group_name_H-M   'P 1'
_cell_length_a   6.16727108
_cell_length_b   9.63057824
_cell_length_c   8.07584330
_cell_angle_alpha   111.28717886
_cell_angle_beta   91.60914414
_cell_angle_gamma   71.25968346
_symmetry_Int_Tables_number   1
_chemical_formula_structural   LiMn3F10
_chemical_formula_sum   'Li2 Mn6 F20'
_cell_volume   421.10237712
_cell_formula_units_Z   2
loop_
 _symmetry_equiv_pos_site_id
 _symmetry_equiv_pos_as_xyz
  1  'x, y, z'
loop_
 _atom_site_type_symbol
 _atom_site_label
 _atom_site_symmetry_multiplicity
 _atom_site_fract_x
 _atom_site_fract_y
 _atom_site_fract_z
 _atom_site_occupancy
  Li  Li0  1  0.69055860  0.61842536  0.47903447  1
  Li  Li1  1  0.30944140  0.38157464  0.52096553  1
  Mn  Mn2  1  0.91671631  0.16409443  0.48939478  1
  Mn  Mn3  1  0.81544605  0.37014420  0.01329181  1
  Mn  Mn4  1  0.74640525  0.00065507  0.00241647  1
  Mn  Mn5  1  0.18455395  0.62985580  0.98670819  1
  Mn  Mn6  1  0.08328369  0.83590557  0.51060522  1
  Mn  Mn7  1  0.25359475  0.99934493  0.99758353  1
  F  F8  1  0.86836364  0.78745759  0.97458334  1
  F  F9  1  0.92902815  0.70539084  0.52726905  1
  F  F10  1  0.95624263  0.04657170  0.18315972  1
  F  F11  1  0.86332299  0.26974099  0.76525321  1
  F  F12  1  0.54322395  0.95486298  0.82635125  1
  F  F13  1  0.77383462  0.45908706  0.25750145  1
  F  F14  1  0.36889302  0.70413463  0.52827547  1
  F  F15  1  0.65710074  0.21141083  0.02098686  1
  F  F16  1  0.80203594  0.99903769  0.49917545  1
  F  F17  1  0.50000000  0.50000000  0.00000000  1
  F  F18  1  0.34289926  0.78858917  0.97901314  1
  F  F19  1  0.63110698  0.29586537  0.47172453  1
  F  F20  1  0.22616538  0.54091294  0.74249855  1
  F  F21  1  0.45677605  0.04513702  0.17364875  1
  F  F22  1  0.13667801  0.73025901  0.23474679  1
  F  F23  1  0.04375737  0.95342830  0.81684028  1
  F  F24  1  0.07097185  0.29460916  0.47273095  1
  F  F25  1  0.00000000  0.50000000  0.00000000  1
  F  F26  1  0.19796406  0.00096231  0.50082455  1
  F  F27  1  0.13163636  0.21254241  0.02541666  1
