# generated using pymatgen
data_Li2CrCo3O8
_symmetry_space_group_name_H-M   'P 1'
_cell_length_a   5.69933002
_cell_length_b   5.68304589
_cell_length_c   9.31741105
_cell_angle_alpha   90.37386855
_cell_angle_beta   89.81359625
_cell_angle_gamma   119.90551813
_symmetry_Int_Tables_number   1
_chemical_formula_structural   Li2CrCo3O8
_chemical_formula_sum   'Li4 Cr2 Co6 O16'
_cell_volume   261.59792738
_cell_formula_units_Z   2
loop_
 _symmetry_equiv_pos_site_id
 _symmetry_equiv_pos_as_xyz
  1  'x, y, z'
loop_
 _atom_site_type_symbol
 _atom_site_label
 _atom_site_symmetry_multiplicity
 _atom_site_fract_x
 _atom_site_fract_y
 _atom_site_fract_z
 _atom_site_occupancy
  Li  Li0  1  0.33153611  0.66398437  0.89185774  1
  Li  Li1  1  0.00053650  0.99987050  0.99842092  1
  Li  Li2  1  0.99946350  0.99933300  0.49842092  1
  Li  Li3  1  0.66846389  0.33244826  0.39185774  1
  Cr  Cr4  1  0.33545854  0.67209473  0.48543734  1
  Cr  Cr5  1  0.66454146  0.33663619  0.98543634  1
  Co  Co6  1  0.17019471  0.83009440  0.21485193  1
  Co  Co7  1  0.16949608  0.33609915  0.21219810  1
  Co  Co8  1  0.66411046  0.83067420  0.21211530  1
  Co  Co9  1  0.33588954  0.16656374  0.71211530  1
  Co  Co10  1  0.82980529  0.65989968  0.71485193  1
  Co  Co11  1  0.83050392  0.16660307  0.71219810  1
  O  O12  1  0.16771255  0.84428942  0.60637882  1
  O  O13  1  0.03897789  0.51524200  0.33395154  1
  O  O14  1  0.33432695  0.66573765  0.10800898  1
  O  O15  1  0.00011545  0.00040692  0.31044165  1
  O  O16  1  0.99988455  0.00029048  0.81044165  1
  O  O17  1  0.16242297  0.32450448  0.60817656  1
  O  O18  1  0.48536055  0.96208788  0.33316863  1
  O  O19  1  0.48082567  0.51972269  0.33237560  1
  O  O20  1  0.32372087  0.16774227  0.10653689  1
  O  O21  1  0.67627913  0.84402039  0.60653689  1
  O  O22  1  0.51463945  0.47672733  0.83316863  1
  O  O23  1  0.51917433  0.03889702  0.83237560  1
  O  O24  1  0.66567305  0.33141070  0.60800898  1
  O  O25  1  0.83228745  0.67657687  0.10637882  1
  O  O26  1  0.96102211  0.47626411  0.83395154  1
  O  O27  1  0.83757703  0.16208051  0.10817656  1
