# generated using pymatgen
data_Li2Mn3F8
_symmetry_space_group_name_H-M   'P 1'
_cell_length_a   5.44954465
_cell_length_b   9.50924874
_cell_length_c   6.55077888
_cell_angle_alpha   89.99990421
_cell_angle_beta   90.00009025
_cell_angle_gamma   90.00010716
_symmetry_Int_Tables_number   1
_chemical_formula_structural   Li2Mn3F8
_chemical_formula_sum   'Li4 Mn6 F16'
_cell_volume   339.46840756
_cell_formula_units_Z   2
loop_
 _symmetry_equiv_pos_site_id
 _symmetry_equiv_pos_as_xyz
  1  'x, y, z'
loop_
 _atom_site_type_symbol
 _atom_site_label
 _atom_site_symmetry_multiplicity
 _atom_site_fract_x
 _atom_site_fract_y
 _atom_site_fract_z
 _atom_site_occupancy
  Li  Li0  1  0.98447971  0.68160128  0.99999939  1
  Li  Li1  1  0.51551690  0.18160290  0.50000006  1
  Li  Li2  1  0.48447958  0.81839850  0.50000049  1
  Li  Li3  1  0.01551705  0.31839892  -0.00000040  1
  Mn  Mn4  1  0.00000950  0.00000411  0.26466745  1
  Mn  Mn5  1  0.00000915  0.99998973  0.73533447  1
  Mn  Mn6  1  0.00001715  0.50002011  0.49998166  1
  Mn  Mn7  1  0.50000457  0.99999362  0.99999610  1
  Mn  Mn8  1  0.49999344  0.49999364  0.23531860  1
  Mn  Mn9  1  0.49999315  0.49999792  0.76469631  1
  F  F10  1  0.14779447  0.11864687  0.00000202  1
  F  F11  1  0.16804804  0.38608883  0.25551568  1
  F  F12  1  0.16804834  0.38609016  0.74448815  1
  F  F13  1  0.17571063  0.11545498  0.49999862  1
  F  F14  1  0.32428795  0.61545529  -0.00000060  1
  F  F15  1  0.33194565  0.88609157  0.24448489  1
  F  F16  1  0.33194741  0.88608994  0.75551532  1
  F  F17  1  0.35220193  0.61864753  0.50000316  1
  F  F18  1  0.64779493  0.38135479  0.50000165  1
  F  F19  1  0.66805399  0.11390977  0.24448401  1
  F  F20  1  0.66805085  0.11391050  0.75551501  1
  F  F21  1  0.67571460  0.38454421  0.00000237  1
  F  F22  1  0.82428866  0.88454473  0.49999963  1
  F  F23  1  0.83194144  0.61390892  0.25551086  1
  F  F24  1  0.83194637  0.61390813  0.74448559  1
  F  F25  1  0.85220454  0.88135304  -0.00000047  1
