# generated using pymatgen
data_LiFe2(PO4)2
_symmetry_space_group_name_H-M   'P 1'
_cell_length_a   10.40377449
_cell_length_b   6.88829825
_cell_length_c   5.19353645
_cell_angle_alpha   90.00000000
_cell_angle_beta   89.05783142
_cell_angle_gamma   90.00000000
_symmetry_Int_Tables_number   1
_chemical_formula_structural   LiFe2(PO4)2
_chemical_formula_sum   'Li2 Fe4 P4 O16'
_cell_volume   372.14084324
_cell_formula_units_Z   2
loop_
 _symmetry_equiv_pos_site_id
 _symmetry_equiv_pos_as_xyz
  1  'x, y, z'
loop_
 _atom_site_type_symbol
 _atom_site_label
 _atom_site_symmetry_multiplicity
 _atom_site_fract_x
 _atom_site_fract_y
 _atom_site_fract_z
 _atom_site_occupancy
  Li  Li0  1  0.35982611  0.49899677  0.73804061  1
  Li  Li1  1  0.85982611  0.00100323  0.73804061  1
  Fe  Fe2  1  0.16420620  0.47724359  0.24188725  1
  Fe  Fe3  1  0.32614017  0.00327736  0.75364128  1
  Fe  Fe4  1  0.66420620  0.02275641  0.24188725  1
  Fe  Fe5  1  0.82614017  0.49672264  0.75364128  1
  P  P6  1  0.09048695  0.73650164  0.74775974  1
  P  P7  1  0.40372350  0.23036156  0.25434271  1
  P  P8  1  0.59048695  0.76349836  0.74775974  1
  P  P9  1  0.90372350  0.26963844  0.25434271  1
  O  O10  1  0.05206347  0.26058837  0.20317225  1
  O  O11  1  0.12063893  0.68775079  0.03470561  1
  O  O12  1  0.16316724  0.56852750  0.59196382  1
  O  O13  1  0.14739281  0.93309925  0.67705773  1
  O  O14  1  0.33908878  0.41378914  0.12146924  1
  O  O15  1  0.35035133  0.04495610  0.13739204  1
  O  O16  1  0.37346461  0.24655321  0.54837640  1
  O  O17  1  0.44479088  0.76375304  0.69572432  1
  O  O18  1  0.55206347  0.23941163  0.20317225  1
  O  O19  1  0.62063893  0.81224921  0.03470561  1
  O  O20  1  0.66316724  0.93147250  0.59196382  1
  O  O21  1  0.64739281  0.56690075  0.67705773  1
  O  O22  1  0.83908878  0.08621086  0.12146924  1
  O  O23  1  0.85035133  0.45504390  0.13739204  1
  O  O24  1  0.87346461  0.25344679  0.54837640  1
  O  O25  1  0.94479088  0.73624696  0.69572432  1
