# generated using pymatgen
data_Li12VNi3P4(CO7)4
_symmetry_space_group_name_H-M   'P 1'
_cell_length_a   8.36412884
_cell_length_b   10.01529943
_cell_length_c   6.48830260
_cell_angle_alpha   90.00000000
_cell_angle_beta   90.00000000
_cell_angle_gamma   84.83115048
_symmetry_Int_Tables_number   1
_chemical_formula_structural   Li12VNi3P4(CO7)4
_chemical_formula_sum   'Li12 V1 Ni3 P4 C4 O28'
_cell_volume   541.31006276
_cell_formula_units_Z   1
loop_
 _symmetry_equiv_pos_site_id
 _symmetry_equiv_pos_as_xyz
  1  'x, y, z'
loop_
 _atom_site_type_symbol
 _atom_site_label
 _atom_site_symmetry_multiplicity
 _atom_site_fract_x
 _atom_site_fract_y
 _atom_site_fract_z
 _atom_site_occupancy
  Li  Li0  1  0.09895007  0.38470791  0.25000000  1
  Li  Li1  1  0.09851522  0.88398744  0.25000000  1
  Li  Li2  1  0.27848387  0.12410921  0.02223939  1
  Li  Li3  1  0.27848387  0.12410921  0.47776061  1
  Li  Li4  1  0.27913558  0.62353562  0.02066227  1
  Li  Li5  1  0.27913558  0.62353562  0.47933773  1
  Li  Li6  1  0.72027851  0.37078217  0.52444793  1
  Li  Li7  1  0.72027851  0.37078217  0.97555207  1
  Li  Li8  1  0.72140481  0.87918272  0.52201810  1
  Li  Li9  1  0.72140481  0.87918272  0.97798190  1
  Li  Li10  1  0.90059493  0.11567359  0.75000000  1
  Li  Li11  1  0.89976503  0.61619230  0.75000000  1
  V  V12  1  0.67138054  0.60395045  0.25000000  1
  Ni  Ni13  1  0.33247282  0.39607758  0.75000000  1
  Ni  Ni14  1  0.33214798  0.89624622  0.75000000  1
  Ni  Ni15  1  0.66604348  0.10374638  0.25000000  1
  P  P16  1  0.41281413  0.36016826  0.25000000  1
  P  P17  1  0.41346463  0.86318307  0.25000000  1
  P  P18  1  0.58464940  0.13739541  0.75000000  1
  P  P19  1  0.58482940  0.63799173  0.75000000  1
  C  C20  1  0.03951247  0.35053302  0.75000000  1
  C  C21  1  0.03955630  0.85065837  0.75000000  1
  C  C22  1  0.95892898  0.14991781  0.25000000  1
  C  C23  1  0.96582781  0.65137249  0.25000000  1
  O  O24  1  0.07428062  0.47435617  0.75000000  1
  O  O25  1  0.10601309  0.18227463  0.25000000  1
  O  O26  1  0.07474303  0.97417377  0.75000000  1
  O  O27  1  0.15910626  0.25735856  0.75000000  1
  O  O28  1  0.11407965  0.67976147  0.25000000  1
  O  O29  1  0.15910391  0.75716779  0.75000000  1
  O  O30  1  0.30829841  0.41168541  0.06303257  1
  O  O31  1  0.30829841  0.41168541  0.43696743  1
  O  O32  1  0.30920244  0.91477519  0.06275469  1
  O  O33  1  0.30920244  0.91477519  0.43724531  1
  O  O34  1  0.41763609  0.08302082  0.75000000  1
  O  O35  1  0.43711408  0.20353864  0.25000000  1
  O  O36  1  0.41835259  0.58239806  0.75000000  1
  O  O37  1  0.43392974  0.70691683  0.25000000  1
  O  O38  1  0.56081039  0.29440710  0.75000000  1
  O  O39  1  0.58010593  0.41318738  0.25000000  1
  O  O40  1  0.55943531  0.79457007  0.75000000  1
  O  O41  1  0.58142188  0.91641081  0.25000000  1
  O  O42  1  0.68995110  0.08735660  0.93678251  1
  O  O43  1  0.68995110  0.08735660  0.56321749  1
  O  O44  1  0.69187256  0.58650780  0.56680808  1
  O  O45  1  0.69187256  0.58650780  0.93319192  1
  O  O46  1  0.83925020  0.24317683  0.25000000  1
  O  O47  1  0.89285488  0.31842725  0.75000000  1
  O  O48  1  0.84991791  0.74722030  0.25000000  1
  O  O49  1  0.92459549  0.02649203  0.25000000  1
  O  O50  1  0.89268219  0.81917729  0.75000000  1
  O  O51  1  0.92785897  0.52828972  0.25000000  1
