# generated using pymatgen
data_Tb2RuO5
_symmetry_space_group_name_H-M   'P 1'
_cell_length_a   3.88927543
_cell_length_b   10.30377582
_cell_length_c   11.34050349
_cell_angle_alpha   90.00000000
_cell_angle_beta   90.00000000
_cell_angle_gamma   90.00000000
_symmetry_Int_Tables_number   1
_chemical_formula_structural   Tb2RuO5
_chemical_formula_sum   'Tb8 Ru4 O20'
_cell_volume   454.46185596
_cell_formula_units_Z   4
loop_
 _symmetry_equiv_pos_site_id
 _symmetry_equiv_pos_as_xyz
  1  'x, y, z'
loop_
 _atom_site_type_symbol
 _atom_site_label
 _atom_site_symmetry_multiplicity
 _atom_site_fract_x
 _atom_site_fract_y
 _atom_site_fract_z
 _atom_site_occupancy
  Tb  Tb0  1  0.75000000  0.88911343  0.26236446  1
  Tb  Tb1  1  0.25000000  0.11088657  0.73763554  1
  Tb  Tb2  1  0.25000000  0.61088657  0.76236446  1
  Tb  Tb3  1  0.75000000  0.38911343  0.23763554  1
  Tb  Tb4  1  0.75000000  0.86799109  0.93279820  1
  Tb  Tb5  1  0.25000000  0.13200891  0.06720180  1
  Tb  Tb6  1  0.25000000  0.63200891  0.43279820  1
  Tb  Tb7  1  0.75000000  0.36799109  0.56720180  1
  Ru  Ru8  1  0.75000000  0.82343372  0.61166790  1
  Ru  Ru9  1  0.25000000  0.17656628  0.38833210  1
  Ru  Ru10  1  0.25000000  0.67656628  0.11166790  1
  Ru  Ru11  1  0.75000000  0.32343372  0.88833210  1
  O  O12  1  0.75000000  0.50888397  0.40539076  1
  O  O13  1  0.25000000  0.49111603  0.59460924  1
  O  O14  1  0.25000000  0.99111603  0.90539076  1
  O  O15  1  0.75000000  0.00888397  0.09460924  1
  O  O16  1  0.75000000  0.78024291  0.44690260  1
  O  O17  1  0.25000000  0.21975709  0.55309740  1
  O  O18  1  0.25000000  0.71975709  0.94690260  1
  O  O19  1  0.75000000  0.28024291  0.05309740  1
  O  O20  1  0.75000000  0.73368786  0.76600381  1
  O  O21  1  0.25000000  0.26631214  0.23399619  1
  O  O22  1  0.25000000  0.76631214  0.26600381  1
  O  O23  1  0.75000000  0.23368786  0.73399619  1
  O  O24  1  0.75000000  0.97976750  0.70123782  1
  O  O25  1  0.25000000  0.02023250  0.29876218  1
  O  O26  1  0.25000000  0.52023250  0.20123782  1
  O  O27  1  0.75000000  0.47976750  0.79876218  1
  O  O28  1  0.75000000  0.73070669  0.10848795  1
  O  O29  1  0.25000000  0.26929331  0.89151205  1
  O  O30  1  0.25000000  0.76929331  0.60848795  1
  O  O31  1  0.75000000  0.23070669  0.39151205  1
