# generated using pymatgen
data_Li9Ti7Nb5O30
_symmetry_space_group_name_H-M   'P 1'
_cell_length_a   5.17228735
_cell_length_b   5.17229184
_cell_length_c   24.16786750
_cell_angle_alpha   89.99934370
_cell_angle_beta   90.00237275
_cell_angle_gamma   119.99984313
_symmetry_Int_Tables_number   1
_chemical_formula_structural   Li9Ti7Nb5O30
_chemical_formula_sum   'Li9 Ti7 Nb5 O30'
_cell_volume   559.93203464
_cell_formula_units_Z   1
loop_
 _symmetry_equiv_pos_site_id
 _symmetry_equiv_pos_as_xyz
  1  'x, y, z'
loop_
 _atom_site_type_symbol
 _atom_site_label
 _atom_site_symmetry_multiplicity
 _atom_site_fract_x
 _atom_site_fract_y
 _atom_site_fract_z
 _atom_site_occupancy
  Li  Li0  1  0.33333525  0.66667006  0.27507033  1
  Li  Li1  1  0.99998459  0.00000490  0.08206332  1
  Li  Li2  1  0.00000399  0.00000823  0.37315246  1
  Li  Li3  1  0.00000139  0.99998946  0.62742004  1
  Li  Li4  1  0.99998730  0.00002228  0.92357825  1
  Li  Li5  1  0.33337104  0.66667903  0.79327515  1
  Li  Li6  1  0.33334842  0.66667008  0.52702376  1
  Li  Li7  1  0.66666697  0.33331223  0.20386760  1
  Li  Li8  1  0.66668302  0.33333574  0.47489306  1
  Ti  Ti9  1  0.33333479  0.66669616  0.89562817  1
  Ti  Ti10  1  0.33329368  0.66665646  0.01547260  1
  Ti  Ti11  1  0.33334570  0.66666835  0.68566828  1
  Ti  Ti12  1  0.66665935  0.33333580  0.71415482  1
  Ti  Ti13  1  0.66663757  0.33333464  0.98475990  1
  Ti  Ti14  1  0.66664354  0.33332045  0.10749424  1
  Ti  Ti15  1  0.66668175  0.33333242  0.59207321  1
  Nb  Nb16  1  0.33333412  0.66665395  0.40310276  1
  Nb  Nb17  1  0.99998110  0.99997419  0.20415177  1
  Nb  Nb18  1  0.00001529  0.99999752  0.50154502  1
  Nb  Nb19  1  0.99999325  0.00000243  0.80276017  1
  Nb  Nb20  1  0.66668137  0.33332486  0.30828809  1
  O  O21  1  0.91874243  0.66760195  0.14917930  1
  O  O22  1  0.00597834  0.63157099  0.35220709  1
  O  O23  1  0.00916676  0.66312797  0.74563043  1
  O  O24  1  0.29160848  0.95661216  0.45292881  1
  O  O25  1  0.97776974  0.36624517  0.04565069  1
  O  O26  1  0.38842501  0.02218507  0.04565128  1
  O  O27  1  0.04338932  0.33497503  0.45292586  1
  O  O28  1  0.33687784  0.34605767  0.74562641  1
  O  O29  1  0.62558097  0.99403905  0.35220830  1
  O  O30  1  0.33237650  0.25111287  0.14917666  1
  O  O31  1  0.65395479  0.99082664  0.74562541  1
  O  O32  1  0.36844867  0.37442870  0.35220554  1
  O  O33  1  0.33852337  0.29260316  0.55083147  1
  O  O34  1  0.74886957  0.08125278  0.14917888  1
  O  O35  1  0.36604657  0.38629071  0.95145609  1
  O  O36  1  0.63369516  0.61149926  0.04564859  1
  O  O37  1  0.25824991  0.92404750  0.84801904  1
  O  O38  1  0.66503467  0.70840630  0.45292502  1
  O  O39  1  0.62673329  0.60830063  0.65282828  1
  O  O40  1  0.33778327  0.04636847  0.25279141  1
  O  O41  1  0.66579304  0.74180838  0.84801694  1
  O  O42  1  0.39168507  0.01842013  0.65282627  1
  O  O43  1  0.70856724  0.66220770  0.25279022  1
  O  O44  1  0.95409667  0.66149540  0.55083204  1
  O  O45  1  0.61366658  0.97974786  0.95146179  1
  O  O46  1  0.02021893  0.63392838  0.95146058  1
  O  O47  1  0.70742052  0.04592010  0.55082971  1
  O  O48  1  0.95362299  0.29142015  0.25279764  1
  O  O49  1  0.98156794  0.37325904  0.65282737  1
  O  O50  1  0.07602288  0.33425159  0.84801786  1
