# generated using pymatgen
data_Li4Mn3(BO3)4
_symmetry_space_group_name_H-M   'P 1'
_cell_length_a   5.33982660
_cell_length_b   9.14706346
_cell_length_c   9.69106437
_cell_angle_alpha   90.00000000
_cell_angle_beta   92.00573885
_cell_angle_gamma   90.00000000
_symmetry_Int_Tables_number   1
_chemical_formula_structural   Li4Mn3(BO3)4
_chemical_formula_sum   'Li8 Mn6 B8 O24'
_cell_volume   473.05775031
_cell_formula_units_Z   2
loop_
 _symmetry_equiv_pos_site_id
 _symmetry_equiv_pos_as_xyz
  1  'x, y, z'
loop_
 _atom_site_type_symbol
 _atom_site_label
 _atom_site_symmetry_multiplicity
 _atom_site_fract_x
 _atom_site_fract_y
 _atom_site_fract_z
 _atom_site_occupancy
  Li  Li0  1  0.15359413  0.98563913  0.65752789  1
  Li  Li1  1  0.17985041  0.65845153  0.63311437  1
  Li  Li2  1  0.33068348  0.17932183  0.87314204  1
  Li  Li3  1  0.31385171  0.49035286  0.38085994  1
  Li  Li4  1  0.65359413  0.51436087  0.15752789  1
  Li  Li5  1  0.67985041  0.84154847  0.13311437  1
  Li  Li6  1  0.81385171  0.00964714  0.88085994  1
  Li  Li7  1  0.83068348  0.32067817  0.37314204  1
  Mn  Mn8  1  0.13910482  0.32310475  0.12488082  1
  Mn  Mn9  1  0.16908291  0.99578691  0.11804198  1
  Mn  Mn10  1  0.36257971  0.81420122  0.37800706  1
  Mn  Mn11  1  0.63910482  0.17689525  0.62488082  1
  Mn  Mn12  1  0.66908291  0.50421309  0.61804198  1
  Mn  Mn13  1  0.86257971  0.68579878  0.87800706  1
  B  B14  1  0.16765539  0.32099576  0.61634484  1
  B  B15  1  0.16846802  0.65711492  0.13273133  1
  B  B16  1  0.33293724  0.82504214  0.88264474  1
  B  B17  1  0.33682928  0.16397210  0.36462579  1
  B  B18  1  0.66846802  0.84288508  0.63273133  1
  B  B19  1  0.66765539  0.17900424  0.11634484  1
  B  B20  1  0.83682928  0.33602790  0.86462579  1
  B  B21  1  0.83293724  0.67495786  0.38264474  1
  O  O22  1  0.06742510  0.31384517  0.93106710  1
  O  O23  1  0.09012839  0.67133753  0.41054946  1
  O  O24  1  0.19270263  0.95296337  0.89283689  1
  O  O25  1  0.20374574  0.29095837  0.32188121  1
  O  O26  1  0.24318385  0.02800656  0.33591637  1
  O  O27  1  0.22056682  0.69363873  0.84544322  1
  O  O28  1  0.27418785  0.18815689  0.65828404  1
  O  O29  1  0.29810712  0.44787455  0.59813383  1
  O  O30  1  0.28940428  0.52831339  0.15234884  1
  O  O31  1  0.29676898  0.78665861  0.17410308  1
  O  O32  1  0.41979037  0.83052585  0.58043515  1
  O  O33  1  0.41020278  0.17783844  0.08686399  1
  O  O34  1  0.59012839  0.82866247  0.91054946  1
  O  O35  1  0.56742510  0.18615483  0.43106710  1
  O  O36  1  0.69270263  0.54703663  0.39283689  1
  O  O37  1  0.70374574  0.20904163  0.82188121  1
  O  O38  1  0.74318385  0.47199344  0.83591637  1
  O  O39  1  0.72056682  0.80636127  0.34544322  1
  O  O40  1  0.77418785  0.31184311  0.15828404  1
  O  O41  1  0.78940428  0.97168661  0.65234884  1
  O  O42  1  0.79676898  0.71334139  0.67410308  1
  O  O43  1  0.79810712  0.05212545  0.09813383  1
  O  O44  1  0.91020278  0.32216156  0.58686399  1
  O  O45  1  0.91979037  0.66947415  0.08043515  1
