# generated using pymatgen
data_Bi2(SO4)3
_symmetry_space_group_name_H-M   'P 1'
_cell_length_a   8.53553842
_cell_length_b   8.53553842
_cell_length_c   9.33648913
_cell_angle_alpha   68.34073456
_cell_angle_beta   111.65926544
_cell_angle_gamma   114.17388628
_symmetry_Int_Tables_number   1
_chemical_formula_structural   Bi2(SO4)3
_chemical_formula_sum   'Bi4 S6 O24'
_cell_volume   557.37060253
_cell_formula_units_Z   2
loop_
 _symmetry_equiv_pos_site_id
 _symmetry_equiv_pos_as_xyz
  1  'x, y, z'
loop_
 _atom_site_type_symbol
 _atom_site_label
 _atom_site_symmetry_multiplicity
 _atom_site_fract_x
 _atom_site_fract_y
 _atom_site_fract_z
 _atom_site_occupancy
  Bi  Bi0  1  0.62930406  0.86279209  0.97925478  1
  Bi  Bi1  1  0.13720791  0.37069594  0.47925478  1
  Bi  Bi2  1  0.86279209  0.62930406  0.52074522  1
  Bi  Bi3  1  0.37069594  0.13720791  0.02074522  1
  S  S4  1  0.24527024  0.54550397  0.82425699  1
  S  S5  1  0.45449603  0.75472976  0.32425699  1
  S  S6  1  0.94082935  0.94082935  0.75000000  1
  S  S7  1  0.05917065  0.05917065  0.25000000  1
  S  S8  1  0.54550397  0.24527024  0.67574301  1
  S  S9  1  0.75472976  0.45449603  0.17574301  1
  O  O10  1  0.11079450  0.95179598  0.87478891  1
  O  O11  1  0.04820402  0.88920550  0.37478891  1
  O  O12  1  0.13692199  0.51074544  0.92560612  1
  O  O13  1  0.37977136  0.72792723  0.80526095  1
  O  O14  1  0.13016639  0.53746890  0.65167591  1
  O  O15  1  0.48925456  0.86307801  0.42560612  1
  O  O16  1  0.79253583  0.89834660  0.81975309  1
  O  O17  1  0.34200685  0.41379708  0.87236501  1
  O  O18  1  0.27207277  0.62022864  0.30526095  1
  O  O19  1  0.46253110  0.86983361  0.15167591  1
  O  O20  1  0.10165340  0.20746417  0.31975309  1
  O  O21  1  0.41379708  0.34200685  0.62763499  1
  O  O22  1  0.58620292  0.65799315  0.37236501  1
  O  O23  1  0.89834660  0.79253583  0.68024691  1
  O  O24  1  0.53746890  0.13016639  0.84832409  1
  O  O25  1  0.72792723  0.37977136  0.69473905  1
  O  O26  1  0.65799315  0.58620292  0.12763499  1
  O  O27  1  0.20746417  0.10165340  0.18024691  1
  O  O28  1  0.51074544  0.13692199  0.57439388  1
  O  O29  1  0.86983361  0.46253110  0.34832409  1
  O  O30  1  0.62022864  0.27207277  0.19473905  1
  O  O31  1  0.86307801  0.48925456  0.07439388  1
  O  O32  1  0.95179598  0.11079450  0.62521109  1
  O  O33  1  0.88920550  0.04820402  0.12521109  1
