# generated using pymatgen
data_Mn21O40
_symmetry_space_group_name_H-M   'P 1'
_cell_length_a   10.16631120
_cell_length_b   8.35299682
_cell_length_c   10.16480530
_cell_angle_alpha   65.74237516
_cell_angle_beta   80.29503450
_cell_angle_gamma   65.74114886
_symmetry_Int_Tables_number   1
_chemical_formula_structural   Mn21O40
_chemical_formula_sum   'Mn21 O40'
_cell_volume   717.48283350
_cell_formula_units_Z   1
loop_
 _symmetry_equiv_pos_site_id
 _symmetry_equiv_pos_as_xyz
  1  'x, y, z'
loop_
 _atom_site_type_symbol
 _atom_site_label
 _atom_site_symmetry_multiplicity
 _atom_site_fract_x
 _atom_site_fract_y
 _atom_site_fract_z
 _atom_site_occupancy
  Mn  Mn0  1  0.90130125  0.89734191  0.80509084  1
  Mn  Mn1  1  0.69965437  0.20017087  0.89872089  1
  Mn  Mn2  1  0.79957289  0.30338004  0.60139987  1
  Mn  Mn3  1  0.90039437  0.40442731  0.29865618  1
  Mn  Mn4  1  0.85000075  0.97500505  0.45000359  1
  Mn  Mn5  1  0.69865212  0.69693924  0.39961616  1
  Mn  Mn6  1  0.79868067  0.30369266  0.09491028  1
  Mn  Mn7  1  0.59588094  0.10091576  0.70305812  1
  Mn  Mn8  1  0.59691112  0.10325341  0.19587007  1
  Mn  Mn9  1  0.49493721  0.00136544  0.50132391  1
  Mn  Mn10  1  0.39874092  0.90000557  0.80054787  1
  Mn  Mn11  1  0.20057755  0.69946475  0.90124281  1
  Mn  Mn12  1  0.49944742  0.50126044  0.99874814  1
  Mn  Mn13  1  0.40124600  0.90017798  0.29963486  1
  Mn  Mn14  1  0.29876623  0.30105476  0.60036363  1
  Mn  Mn15  1  0.20508508  0.69758979  0.39866947  1
  Mn  Mn16  1  0.10307469  0.59605039  0.70413898  1
  Mn  Mn17  1  0.30125815  0.79929677  0.09945943  1
  Mn  Mn18  1  0.10413234  0.09980579  0.19694906  1
  Mn  Mn19  1  0.00135443  0.49519241  0.50038107  1
  Mn  Mn20  1  0.00035256  0.49855278  0.00126927  1
  O  O21  1  0.91906356  0.65386040  0.80640833  1
  O  O22  1  0.88186461  0.14544648  0.79518997  1
  O  O23  1  0.98181716  0.27562589  0.49395083  1
  O  O24  1  0.80600105  0.54268614  0.58175951  1
  O  O25  1  0.89397681  0.63045759  0.31819554  1
  O  O26  1  0.70556888  0.97211485  0.88317882  1
  O  O27  1  0.99446256  0.26085565  0.01683111  1
  O  O28  1  0.90635306  0.17164830  0.28050930  1
  O  O29  1  0.79368108  0.05842785  0.61952115  1
  O  O30  1  0.69326334  0.42963772  0.91545880  1
  O  O31  1  0.61730859  0.32208847  0.70659795  1
  O  O32  1  0.81815140  0.52248222  0.10484900  1
  O  O33  1  0.71816829  0.45145742  0.40601409  1
  O  O34  1  0.78090658  0.07935853  0.09359348  1
  O  O35  1  0.48219426  0.74585838  0.99350143  1
  O  O36  1  0.68052759  0.94777964  0.39363749  1
  O  O37  1  0.58059150  0.87909578  0.69371902  1
  O  O38  1  0.39350637  0.66062724  0.81781730  1
  O  O39  1  0.60622257  0.34035661  0.18058724  1
  O  O40  1  0.49359423  0.22708129  0.51909795  1
  O  O41  1  0.40392425  0.14014950  0.78362251  1
  O  O42  1  0.50484585  0.77264348  0.48183904  1
  O  O43  1  0.59343939  0.86056075  0.21733170  1
  O  O44  1  0.21779074  0.92153123  0.90655137  1
  O  O45  1  0.51637359  0.25588633  0.00398668  1
  O  O46  1  0.41682498  0.12230648  0.30554669  1
  O  O47  1  0.31544712  0.05493104  0.60673850  1
  O  O48  1  0.28319770  0.54467124  0.59443315  1
  O  O49  1  0.18361882  0.47623865  0.89598131  1
  O  O50  1  0.38455272  0.67712958  0.29322371  1
  O  O51  1  0.30648611  0.57197933  0.08220471  1
  O  O52  1  0.10655537  0.37138018  0.68268409  1
  O  O53  1  0.29606435  0.02769821  0.11633973  1
  O  O54  1  0.20638746  0.93979225  0.38089238  1
  O  O55  1  0.19521729  0.45931479  0.41816455  1
  O  O56  1  0.09375392  0.82712903  0.71939724  1
  O  O57  1  0.00669099  0.73840364  0.98449441  1
  O  O58  1  0.01950493  0.72195536  0.50642478  1
  O  O59  1  0.11938930  0.85344026  0.20623939  1
  O  O60  1  0.08269057  0.34596710  0.19343126  1
