# generated using pymatgen
data_Gd3AsO7
_symmetry_space_group_name_H-M   'P 1'
_cell_length_a   6.36154107
_cell_length_b   6.45268408
_cell_length_c   7.50177403
_cell_angle_alpha   73.36242971
_cell_angle_beta   89.93694969
_cell_angle_gamma   81.83373217
_symmetry_Int_Tables_number   1
_chemical_formula_structural   Gd3AsO7
_chemical_formula_sum   'Gd6 As2 O14'
_cell_volume   291.80243117
_cell_formula_units_Z   2
loop_
 _symmetry_equiv_pos_site_id
 _symmetry_equiv_pos_as_xyz
  1  'x, y, z'
loop_
 _atom_site_type_symbol
 _atom_site_label
 _atom_site_symmetry_multiplicity
 _atom_site_fract_x
 _atom_site_fract_y
 _atom_site_fract_z
 _atom_site_occupancy
  Gd  Gd0  1  0.25875435  0.47017541  0.87935805  1
  Gd  Gd1  1  0.24894238  0.50382340  0.37662055  1
  Gd  Gd2  1  0.45765619  0.00150695  0.25287985  1
  Gd  Gd3  1  0.54234381  0.99849305  0.74712015  1
  Gd  Gd4  1  0.75105762  0.49617660  0.62337945  1
  Gd  Gd5  1  0.74124565  0.52982459  0.12064195  1
  As  As6  1  0.00000000  0.00000000  0.00000000  1
  As  As7  1  0.00000000  0.00000000  0.50000000  1
  O  O8  1  0.27590275  0.03401354  0.52317870  1
  O  O9  1  0.07275666  0.69831898  0.04239655  1
  O  O10  1  0.27716235  0.05384187  0.95859791  1
  O  O11  1  0.05963954  0.68598594  0.60657087  1
  O  O12  1  0.08598262  0.93526354  0.26682498  1
  O  O13  1  0.43281642  0.36288334  0.16550052  1
  O  O14  1  0.44068321  0.35941010  0.65257180  1
  O  O15  1  0.55931679  0.64058990  0.34742820  1
  O  O16  1  0.56718358  0.63711666  0.83449948  1
  O  O17  1  0.91401738  0.06473646  0.73317502  1
  O  O18  1  0.94036046  0.31401406  0.39342913  1
  O  O19  1  0.72283765  0.94615813  0.04140209  1
  O  O20  1  0.92724334  0.30168102  0.95760345  1
  O  O21  1  0.72409725  0.96598646  0.47682130  1
