# generated using pymatgen
data_Li3ZnPCO7
_symmetry_space_group_name_H-M   'P 1'
_cell_length_a   8.47407743
_cell_length_b   6.45146261
_cell_length_c   4.93091814
_cell_angle_alpha   90.00000000
_cell_angle_beta   87.64658963
_cell_angle_gamma   90.00000000
_symmetry_Int_Tables_number   1
_chemical_formula_structural   Li3ZnPCO7
_chemical_formula_sum   'Li6 Zn2 P2 C2 O14'
_cell_volume   269.34687762
_cell_formula_units_Z   2
loop_
 _symmetry_equiv_pos_site_id
 _symmetry_equiv_pos_as_xyz
  1  'x, y, z'
loop_
 _atom_site_type_symbol
 _atom_site_label
 _atom_site_symmetry_multiplicity
 _atom_site_fract_x
 _atom_site_fract_y
 _atom_site_fract_z
 _atom_site_occupancy
  Li  Li0  1  0.08662395  0.25000000  0.74424746  1
  Li  Li1  1  0.26363309  0.01731851  0.23126844  1
  Li  Li2  1  0.26363309  0.48268149  0.23126844  1
  Li  Li3  1  0.73636691  0.51731851  0.76873156  1
  Li  Li4  1  0.73636691  0.98268149  0.76873156  1
  Li  Li5  1  0.91337605  0.75000000  0.25575254  1
  Zn  Zn6  1  0.35350366  0.75000000  0.77480600  1
  Zn  Zn7  1  0.64649634  0.25000000  0.22519400  1
  P  P8  1  0.41029396  0.25000000  0.71263699  1
  P  P9  1  0.58970604  0.75000000  0.28736301  1
  C  C10  1  0.04233114  0.75000000  0.72909216  1
  C  C11  1  0.95766886  0.25000000  0.27090784  1
  O  O12  1  0.08233923  0.75000000  0.97902016  1
  O  O13  1  0.10570435  0.25000000  0.33373468  1
  O  O14  1  0.15044179  0.75000000  0.53359420  1
  O  O15  1  0.31054133  0.06223569  0.81632832  1
  O  O16  1  0.31054133  0.43776431  0.81632832  1
  O  O17  1  0.42272314  0.25000000  0.39455075  1
  O  O18  1  0.41842205  0.75000000  0.18637636  1
  O  O19  1  0.58157795  0.25000000  0.81362364  1
  O  O20  1  0.57727686  0.75000000  0.60544925  1
  O  O21  1  0.68945867  0.56223569  0.18367168  1
  O  O22  1  0.68945867  0.93776431  0.18367168  1
  O  O23  1  0.84955821  0.25000000  0.46640580  1
  O  O24  1  0.89429565  0.75000000  0.66626532  1
  O  O25  1  0.91766077  0.25000000  0.02097984  1
