# generated using pymatgen
data_Li3NiPCO7
_symmetry_space_group_name_H-M   'P 1'
_cell_length_a   8.35604307
_cell_length_b   9.89314155
_cell_length_c   6.39644262
_cell_angle_alpha   89.73212898
_cell_angle_beta   90.25857504
_cell_angle_gamma   85.00294036
_symmetry_Int_Tables_number   1
_chemical_formula_structural   Li3NiPCO7
_chemical_formula_sum   'Li12 Ni4 P4 C4 O28'
_cell_volume   526.75605068
_cell_formula_units_Z   4
loop_
 _symmetry_equiv_pos_site_id
 _symmetry_equiv_pos_as_xyz
  1  'x, y, z'
loop_
 _atom_site_type_symbol
 _atom_site_label
 _atom_site_symmetry_multiplicity
 _atom_site_fract_x
 _atom_site_fract_y
 _atom_site_fract_z
 _atom_site_occupancy
  Li  Li0  1  0.10258101  0.38901169  0.25298620  1
  Li  Li1  1  0.09625230  0.87890903  0.25398444  1
  Li  Li2  1  0.27539836  0.13185200  0.49021354  1
  Li  Li3  1  0.27557733  0.61172738  0.00620397  1
  Li  Li4  1  0.27603939  0.61126039  0.49142947  1
  Li  Li5  1  0.34442686  0.39920581  0.74796591  1
  Li  Li6  1  0.71861333  0.37947804  0.52778640  1
  Li  Li7  1  0.71812508  0.37904760  0.97267355  1
  Li  Li8  1  0.72241850  0.87382173  0.52223118  1
  Li  Li9  1  0.72349425  0.87374363  0.97881320  1
  Li  Li10  1  0.90547053  0.11856399  0.75057731  1
  Li  Li11  1  0.89879301  0.61393650  0.74919209  1
  Ni  Ni12  1  0.27273905  0.13768875  0.00508678  1
  Ni  Ni13  1  0.33419005  0.89388349  0.74903515  1
  Ni  Ni14  1  0.66680909  0.10348751  0.24955260  1
  Ni  Ni15  1  0.66736812  0.60305997  0.24901441  1
  P  P16  1  0.41089261  0.36166536  0.24701396  1
  P  P17  1  0.41529081  0.86350202  0.25086632  1
  P  P18  1  0.59005866  0.14139810  0.75239742  1
  P  P19  1  0.58327246  0.64146784  0.74950985  1
  C  C20  1  0.03757417  0.34971580  0.75795160  1
  C  C21  1  0.04066008  0.85126713  0.75166913  1
  C  C22  1  0.96093469  0.14780528  0.24606407  1
  C  C23  1  0.96025016  0.64877948  0.24982732  1
  O  O24  1  0.07242669  0.47228105  0.75023249  1
  O  O25  1  0.11003100  0.18070002  0.24020226  1
  O  O26  1  0.07749330  0.97613661  0.75152662  1
  O  O27  1  0.15140322  0.24917551  0.76872500  1
  O  O28  1  0.10836839  0.67772851  0.24999392  1
  O  O29  1  0.15834869  0.75654819  0.75264962  1
  O  O30  1  0.30744158  0.41083395  0.05774884  1
  O  O31  1  0.30959297  0.40367489  0.43995795  1
  O  O32  1  0.30955092  0.92321899  0.06244698  1
  O  O33  1  0.30905510  0.91460585  0.43746627  1
  O  O34  1  0.41910237  0.08705206  0.75681536  1
  O  O35  1  0.43408332  0.19967382  0.23552089  1
  O  O36  1  0.41812780  0.58784256  0.74836544  1
  O  O37  1  0.43640802  0.70653807  0.24242107  1
  O  O38  1  0.56857269  0.29663292  0.75162571  1
  O  O39  1  0.58054156  0.41207835  0.25004845  1
  O  O40  1  0.56382159  0.80056013  0.75016081  1
  O  O41  1  0.58277753  0.91640061  0.25099096  1
  O  O42  1  0.69543761  0.08475088  0.93861172  1
  O  O43  1  0.68656021  0.08363021  0.56199025  1
  O  O44  1  0.69024030  0.59085436  0.56204258  1
  O  O45  1  0.69138535  0.58946495  0.93700990  1
  O  O46  1  0.84549617  0.24271020  0.25246946  1
  O  O47  1  0.88939798  0.31834065  0.75028482  1
  O  O48  1  0.84371951  0.74516212  0.24927716  1
  O  O49  1  0.92764582  0.02342507  0.24896764  1
  O  O50  1  0.89360091  0.82086477  0.74993390  1
  O  O51  1  0.92213852  0.52483618  0.25046904  1
