# generated using pymatgen
data_Ta2Zn4O9
_symmetry_space_group_name_H-M   'P 1'
_cell_length_a   5.24378989
_cell_length_b   5.24375807
_cell_length_c   14.34691950
_cell_angle_alpha   90.00060869
_cell_angle_beta   89.99970131
_cell_angle_gamma   120.00223246
_symmetry_Int_Tables_number   1
_chemical_formula_structural   Ta2Zn4O9
_chemical_formula_sum   'Ta4 Zn8 O18'
_cell_volume   341.63900745
_cell_formula_units_Z   2
loop_
 _symmetry_equiv_pos_site_id
 _symmetry_equiv_pos_as_xyz
  1  'x, y, z'
loop_
 _atom_site_type_symbol
 _atom_site_label
 _atom_site_symmetry_multiplicity
 _atom_site_fract_x
 _atom_site_fract_y
 _atom_site_fract_z
 _atom_site_occupancy
  Ta  Ta0  1  0.99997366  -0.00000424  0.14150071  1
  Ta  Ta1  1  0.99997994  0.99997799  0.35850304  1
  Ta  Ta2  1  0.00001434  0.00002232  0.64149764  1
  Ta  Ta3  1  0.00000049  0.00001582  0.85850166  1
  Zn  Zn4  1  0.33332905  0.66667318  0.01839909  1
  Zn  Zn5  1  0.33334615  0.66667660  0.30320581  1
  Zn  Zn6  1  0.33336367  0.66667916  0.51839868  1
  Zn  Zn7  1  0.33334286  0.66667064  0.80320594  1
  Zn  Zn8  1  0.66664706  0.33332839  0.19679385  1
  Zn  Zn9  1  0.66663198  0.33332242  0.48160036  1
  Zn  Zn10  1  0.66665325  0.33332449  0.69679467  1
  Zn  Zn11  1  0.66662330  0.33332475  0.98159999  1
  O  O12  1  0.99999262  0.71481637  0.74999978  1
  O  O13  1  0.02363383  0.68332550  0.41573955  1
  O  O14  1  0.31663649  0.97635373  0.91573153  1
  O  O15  1  0.02361683  0.34030295  0.91574083  1
  O  O16  1  0.00000162  0.28518969  0.24999888  1
  O  O17  1  0.28520615  0.28519868  0.75000054  1
  O  O18  1  0.31665025  0.34029185  0.41573342  1
  O  O19  1  0.65970510  0.97636575  0.41573084  1
  O  O20  1  0.34028481  0.31665424  0.08426343  1
  O  O21  1  0.28518851  -0.00000047  0.25000026  1
  O  O22  1  0.65969753  0.68334611  0.91573470  1
  O  O23  1  0.34028994  0.02363239  0.58426969  1
  O  O24  1  0.68334251  0.65970793  0.58426650  1
  O  O25  1  0.71478899  0.71480252  0.24999969  1
  O  O26  1  0.97635631  0.65969466  0.08426231  1
  O  O27  1  0.68334451  0.02364027  0.08426779  1
  O  O28  1  0.71480177  -0.00000383  0.74999962  1
  O  O29  1  0.97635746  0.31667013  0.58426019  1
