# generated using pymatgen
data_Li3NiPCO7
_symmetry_space_group_name_H-M   'P 1'
_cell_length_a   8.37128344
_cell_length_b   9.91434278
_cell_length_c   6.39534561
_cell_angle_alpha   89.92673371
_cell_angle_beta   90.11139775
_cell_angle_gamma   85.20229269
_symmetry_Int_Tables_number   1
_chemical_formula_structural   Li3NiPCO7
_chemical_formula_sum   'Li12 Ni4 P4 C4 O28'
_cell_volume   528.92533622
_cell_formula_units_Z   4
loop_
 _symmetry_equiv_pos_site_id
 _symmetry_equiv_pos_as_xyz
  1  'x, y, z'
loop_
 _atom_site_type_symbol
 _atom_site_label
 _atom_site_symmetry_multiplicity
 _atom_site_fract_x
 _atom_site_fract_y
 _atom_site_fract_z
 _atom_site_occupancy
  Li  Li0  1  0.08925191  0.38060985  0.25228182  1
  Li  Li1  1  0.09716234  0.88048230  0.25418520  1
  Li  Li2  1  0.27816282  0.12300327  0.47975820  1
  Li  Li3  1  0.27568437  0.62290121  0.02022193  1
  Li  Li4  1  0.27605677  0.62327582  0.47793454  1
  Li  Li5  1  0.66096738  0.10512941  0.25083830  1
  Li  Li6  1  0.72315739  0.37005698  0.51403632  1
  Li  Li7  1  0.72239486  0.37021003  0.98553594  1
  Li  Li8  1  0.72280736  0.88659824  0.50979926  1
  Li  Li9  1  0.72363666  0.88670678  0.99093741  1
  Li  Li10  1  0.89463471  0.11302657  0.74959478  1
  Li  Li11  1  0.90064528  0.61713248  0.74927285  1
  Ni  Ni12  1  0.27650592  0.12511400  0.01576009  1
  Ni  Ni13  1  0.33504702  0.39783000  0.74916896  1
  Ni  Ni14  1  0.33434890  0.89257308  0.74818310  1
  Ni  Ni15  1  0.66694754  0.60330743  0.24903243  1
  P  P16  1  0.41100307  0.36047158  0.24679907  1
  P  P17  1  0.41820630  0.85995801  0.25187773  1
  P  P18  1  0.58933440  0.13989604  0.75372086  1
  P  P19  1  0.58558069  0.63938019  0.74935478  1
  C  C20  1  0.04014783  0.35029010  0.75468732  1
  C  C21  1  0.04016843  0.85214937  0.75207641  1
  C  C22  1  0.96381496  0.14699474  0.24658468  1
  C  C23  1  0.95975435  0.64901725  0.24965631  1
  O  O24  1  0.07702537  0.47384657  0.74853002  1
  O  O25  1  0.11717983  0.17801042  0.23877910  1
  O  O26  1  0.07820980  0.97685194  0.75342269  1
  O  O27  1  0.16021483  0.25486502  0.76107231  1
  O  O28  1  0.10768458  0.67886350  0.24996333  1
  O  O29  1  0.15714381  0.75662207  0.75199421  1
  O  O30  1  0.30642311  0.41674445  0.06053140  1
  O  O31  1  0.30757712  0.41092175  0.43698733  1
  O  O32  1  0.31075663  0.91671700  0.06286528  1
  O  O33  1  0.30952088  0.91131107  0.43739389  1
  O  O34  1  0.41748763  0.08525935  0.76030318  1
  O  O35  1  0.42760935  0.20243726  0.23709839  1
  O  O36  1  0.41781889  0.58550408  0.74828651  1
  O  O37  1  0.43346752  0.70213347  0.24446973  1
  O  O38  1  0.56090528  0.29797317  0.75216996  1
  O  O39  1  0.58000078  0.41116379  0.24975459  1
  O  O40  1  0.56123769  0.79699011  0.74988431  1
  O  O41  1  0.58293874  0.91302828  0.25068410  1
  O  O42  1  0.69294089  0.09158868  0.94206486  1
  O  O43  1  0.68275341  0.08918033  0.55939190  1
  O  O44  1  0.69070291  0.58749086  0.56148717  1
  O  O45  1  0.69113792  0.58686709  0.93712990  1
  O  O46  1  0.85701373  0.24674369  0.25600079  1
  O  O47  1  0.89480333  0.31764584  0.75152756  1
  O  O48  1  0.84357070  0.74431395  0.24952423  1
  O  O49  1  0.93306851  0.02336037  0.24809524  1
  O  O50  1  0.89312363  0.82245197  0.74964963  1
  O  O51  1  0.92226087  0.52500120  0.24963707  1
