# generated using pymatgen
data_Li10Si2NiO10
_symmetry_space_group_name_H-M   'P 1'
_cell_length_a   6.10348968
_cell_length_b   15.35239180
_cell_length_c   5.18954894
_cell_angle_alpha   79.81268821
_cell_angle_beta   89.95829607
_cell_angle_gamma   78.47971544
_symmetry_Int_Tables_number   1
_chemical_formula_structural   Li10Si2NiO10
_chemical_formula_sum   'Li20 Si4 Ni2 O20'
_cell_volume   468.66700728
_cell_formula_units_Z   2
loop_
 _symmetry_equiv_pos_site_id
 _symmetry_equiv_pos_as_xyz
  1  'x, y, z'
loop_
 _atom_site_type_symbol
 _atom_site_label
 _atom_site_symmetry_multiplicity
 _atom_site_fract_x
 _atom_site_fract_y
 _atom_site_fract_z
 _atom_site_occupancy
  Li  Li0  1  0.50670069  0.98140069  0.75709596  1
  Li  Li1  1  0.35971261  0.86640178  0.23591067  1
  Li  Li2  1  0.77297660  0.86594809  0.23643263  1
  Li  Li3  1  0.13292281  0.73591614  0.48471033  1
  Li  Li4  1  0.34761068  0.73769313  0.02106373  1
  Li  Li5  1  0.91493836  0.73733882  0.02251479  1
  Li  Li6  1  0.67353880  0.64906623  0.42011074  1
  Li  Li7  1  0.43726707  0.61026546  0.78817520  1
  Li  Li8  1  0.95139243  0.61031665  0.78776389  1
  Li  Li9  1  0.72915964  0.53932511  0.13606576  1
  Li  Li10  1  0.27171594  0.46035758  0.86455555  1
  Li  Li11  1  0.56260476  0.38898328  0.21550601  1
  Li  Li12  1  0.04829052  0.39014379  0.21245833  1
  Li  Li13  1  0.32067587  0.34954477  0.58186067  1
  Li  Li14  1  0.08419198  0.26252550  0.98014538  1
  Li  Li15  1  0.65222498  0.26201089  0.97906217  1
  Li  Li16  1  0.86887427  0.26323830  0.51665395  1
  Li  Li17  1  0.63955487  0.13371942  0.76134656  1
  Li  Li18  1  0.22673108  0.13331493  0.76679312  1
  Li  Li19  1  0.48989823  0.01804775  0.24249855  1
  Si  Si20  1  0.60051543  0.79997778  0.68999677  1
  Si  Si21  1  0.21815015  0.56253793  0.30820247  1
  Si  Si22  1  0.78173146  0.43720920  0.69360432  1
  Si  Si23  1  0.39969842  0.19968351  0.31044477  1
  Ni  Ni24  1  0.03637799  0.92432916  0.91927300  1
  Ni  Ni25  1  0.96042281  0.07526973  0.08073286  1
  O  O26  1  0.54992796  0.89935209  0.49571316  1
  O  O27  1  0.09327387  0.81316679  0.13892303  1
  O  O28  1  0.59441520  0.81059847  0.00280356  1
  O  O29  1  0.41358513  0.74147140  0.63417792  1
  O  O30  1  0.84740275  0.74215561  0.63523942  1
  O  O31  1  0.41781799  0.61339533  0.16909908  1
  O  O32  1  0.96699748  0.61291276  0.16982497  1
  O  O33  1  0.21321548  0.57319352  0.61734563  1
  O  O34  1  0.72780741  0.54332935  0.73775939  1
  O  O35  1  0.27230979  0.45640904  0.26455829  1
  O  O36  1  0.78669973  0.42682200  0.38435819  1
  O  O37  1  0.58249010  0.38638861  0.83353441  1
  O  O38  1  0.03316907  0.38685088  0.83147601  1
  O  O39  1  0.15447294  0.25871168  0.36627350  1
  O  O40  1  0.58931512  0.25684360  0.36731529  1
  O  O41  1  0.40484473  0.18954832  0.99725516  1
  O  O42  1  0.90696940  0.18660580  0.86240772  1
  O  O43  1  0.44738945  0.10018947  0.50401046  1
  O  O44  1  0.23851546  0.99968269  0.00096073  1
  O  O45  1  0.75849847  0.00007300  0.99882486  1
