# generated using pymatgen
data_Li2B5SbO10
_symmetry_space_group_name_H-M   'P 1'
_cell_length_a   7.10775229
_cell_length_b   16.31032037
_cell_length_c   6.95551216
_cell_angle_alpha   90.00000000
_cell_angle_beta   95.58694947
_cell_angle_gamma   90.00000000
_symmetry_Int_Tables_number   1
_chemical_formula_structural   Li2B5SbO10
_chemical_formula_sum   'Li8 B20 Sb4 O40'
_cell_volume   802.52006941
_cell_formula_units_Z   4
loop_
 _symmetry_equiv_pos_site_id
 _symmetry_equiv_pos_as_xyz
  1  'x, y, z'
loop_
 _atom_site_type_symbol
 _atom_site_label
 _atom_site_symmetry_multiplicity
 _atom_site_fract_x
 _atom_site_fract_y
 _atom_site_fract_z
 _atom_site_occupancy
  Li  Li0  1  0.10594205  0.15694330  0.03195146  1
  Li  Li1  1  0.10594205  0.34305670  0.53195146  1
  Li  Li2  1  0.32365213  0.90876007  0.58434239  1
  Li  Li3  1  0.32365213  0.59123993  0.08434239  1
  Li  Li4  1  0.67634787  0.40876007  0.91565761  1
  Li  Li5  1  0.67634787  0.09123993  0.41565761  1
  Li  Li6  1  0.89405795  0.65694330  0.46804854  1
  Li  Li7  1  0.89405795  0.84305670  0.96804854  1
  B  B8  1  0.19770306  0.02507974  0.89637577  1
  B  B9  1  0.19770306  0.47492026  0.39637577  1
  B  B10  1  0.22510057  0.76396323  0.47676535  1
  B  B11  1  0.22510057  0.73603677  0.97676535  1
  B  B12  1  0.25992607  0.51671886  0.73618560  1
  B  B13  1  0.25992607  0.98328114  0.23618560  1
  B  B14  1  0.31721092  0.61553333  0.47501222  1
  B  B15  1  0.31721092  0.88446667  0.97501222  1
  B  B16  1  0.45287003  0.27298164  0.57520599  1
  B  B17  1  0.45287003  0.22701836  0.07520599  1
  B  B18  1  0.54712997  0.77298164  0.92479401  1
  B  B19  1  0.54712997  0.72701836  0.42479401  1
  B  B20  1  0.68278908  0.11553433  0.02498778  1
  B  B21  1  0.68278908  0.38446567  0.52498778  1
  B  B22  1  0.74007393  0.01671886  0.76381440  1
  B  B23  1  0.74007393  0.48328114  0.26381440  1
  B  B24  1  0.77489943  0.26396323  0.02323465  1
  B  B25  1  0.77489943  0.23603677  0.52323465  1
  B  B26  1  0.80229694  0.52507974  0.60362423  1
  B  B27  1  0.80229694  0.97492026  0.10362423  1
  Sb  Sb28  1  0.16835215  0.13301416  0.50933203  1
  Sb  Sb29  1  0.16835215  0.36698584  0.00933203  1
  Sb  Sb30  1  0.83164785  0.63301416  0.99066797  1
  Sb  Sb31  1  0.83164785  0.86698584  0.49066797  1
  O  O32  1  0.10808974  0.82967270  0.48807722  1
  O  O33  1  0.10808974  0.67032730  0.98807722  1
  O  O34  1  0.15613769  0.09403959  0.78381333  1
  O  O35  1  0.15613769  0.40596041  0.28381333  1
  O  O36  1  0.16838896  0.81631033  0.96150742  1
  O  O37  1  0.17568976  0.46136816  0.59270507  1
  O  O38  1  0.16838896  0.68368967  0.46150742  1
  O  O39  1  0.17568976  0.03863184  0.09270507  1
  O  O40  1  0.25499568  0.49970307  0.92581521  1
  O  O41  1  0.25499568  0.00029693  0.42581521  1
  O  O42  1  0.27539642  0.24967762  0.61792880  1
  O  O43  1  0.25146542  0.95042280  0.83442631  1
  O  O44  1  0.27539642  0.25032238  0.11792880  1
  O  O45  1  0.25146542  0.54957720  0.33442631  1
  O  O46  1  0.34513694  0.58545366  0.67146773  1
  O  O47  1  0.34513694  0.91454634  0.17146773  1
  O  O48  1  0.41871082  0.78520866  0.48537290  1
  O  O49  1  0.41871082  0.71479134  0.98537290  1
  O  O50  1  0.50764035  0.35277008  0.59289118  1
  O  O51  1  0.49235965  0.85277008  0.90710882  1
  O  O52  1  0.50764035  0.14722992  0.09289118  1
  O  O53  1  0.49235965  0.64722992  0.40710882  1
  O  O54  1  0.58128918  0.28520866  0.01462710  1
  O  O55  1  0.58128918  0.21479134  0.51462710  1
  O  O56  1  0.65486306  0.08545366  0.82853227  1
  O  O57  1  0.65486306  0.41454634  0.32853227  1
  O  O58  1  0.74853458  0.45042280  0.66557369  1
  O  O59  1  0.72460358  0.74967762  0.88207120  1
  O  O60  1  0.74853458  0.04957720  0.16557369  1
  O  O61  1  0.72460358  0.75032238  0.38207120  1
  O  O62  1  0.74500432  0.99970307  0.57418479  1
  O  O63  1  0.74500432  0.50029693  0.07418479  1
  O  O64  1  0.82431024  0.96136816  0.90729493  1
  O  O65  1  0.83161104  0.31631033  0.53849258  1
  O  O66  1  0.82431024  0.53863184  0.40729493  1
  O  O67  1  0.83161104  0.18368967  0.03849258  1
  O  O68  1  0.84386231  0.59403959  0.71618667  1
  O  O69  1  0.84386231  0.90596041  0.21618667  1
  O  O70  1  0.89191026  0.32967270  0.01192278  1
  O  O71  1  0.89191026  0.17032730  0.51192278  1
