# generated using pymatgen
data_Li2Bi2B2O7
_symmetry_space_group_name_H-M   'P 1'
_cell_length_a   8.81425924
_cell_length_b   8.60232390
_cell_length_c   7.77646278
_cell_angle_alpha   89.48537941
_cell_angle_beta   90.00000000
_cell_angle_gamma   120.81838720
_symmetry_Int_Tables_number   1
_chemical_formula_structural   Li2Bi2B2O7
_chemical_formula_sum   'Li6 Bi6 B6 O21'
_cell_volume   506.34873588
_cell_formula_units_Z   3
loop_
 _symmetry_equiv_pos_site_id
 _symmetry_equiv_pos_as_xyz
  1  'x, y, z'
loop_
 _atom_site_type_symbol
 _atom_site_label
 _atom_site_symmetry_multiplicity
 _atom_site_fract_x
 _atom_site_fract_y
 _atom_site_fract_z
 _atom_site_occupancy
  Li  Li0  1  0.32896805  0.66344100  0.27411968  1
  Li  Li1  1  0.98942448  0.00545166  0.25429680  1
  Li  Li2  1  0.98397283  0.99454834  0.74570320  1
  Li  Li3  1  0.34459949  0.65945816  0.80827927  1
  Li  Li4  1  0.66552705  0.33655900  0.72588032  1
  Li  Li5  1  0.68514034  0.34054184  0.19172073  1
  Bi  Bi6  1  0.06225589  0.68320205  0.99440040  1
  Bi  Bi7  1  0.98961078  0.72966798  0.49664619  1
  Bi  Bi8  1  0.37905385  0.31679795  0.00559960  1
  Bi  Bi9  1  0.25994280  0.27033202  0.50335381  1
  Bi  Bi10  1  0.69138717  0.00000000  0.50000000  1
  Bi  Bi11  1  0.59500903  0.00000000  0.00000000  1
  B  B12  1  0.00199614  0.34011907  0.74117645  1
  B  B13  1  0.34807623  0.99420068  0.69893726  1
  B  B14  1  0.66248200  0.66926329  0.76140240  1
  B  B15  1  0.66187707  0.65988093  0.25882355  1
  B  B16  1  0.35387554  0.00579932  0.30106274  1
  B  B17  1  0.99321871  0.33073671  0.23859760  1
  O  O18  1  0.17219955  0.90347646  0.75893692  1
  O  O19  1  0.08723865  0.51883350  0.80001292  1
  O  O20  1  0.25806373  0.83593772  0.37364416  1
  O  O21  1  0.10093164  0.25521848  0.74535355  1
  O  O22  1  0.16541086  0.40186885  0.29293009  1
  O  O23  1  0.45361378  0.91705599  0.71769342  1
  O  O24  1  0.33239730  0.75795969  0.04149916  1
  O  O25  1  0.01558456  0.00000000  0.50000000  1
  O  O26  1  0.48778067  0.55200572  0.81368302  1
  O  O27  1  0.57434200  0.74096600  0.32263947  1
  O  O28  1  0.26872209  0.09652354  0.24106308  1
  O  O29  1  0.56840514  0.48116650  0.19998708  1
  O  O30  1  0.42212601  0.16406228  0.62635584  1
  O  O31  1  0.73146505  0.85566607  0.76310624  1
  O  O32  1  0.84571416  0.74478152  0.25464645  1
  O  O33  1  0.76354201  0.59813115  0.70706991  1
  O  O34  1  0.53655778  0.08294401  0.28230658  1
  O  O35  1  0.57443761  0.24204031  0.95850084  1
  O  O36  1  0.93577495  0.44799428  0.18631698  1
  O  O37  1  0.83337700  0.25903400  0.67736053  1
  O  O38  1  0.87579798  0.14433393  0.23689376  1
