# generated using pymatgen
data_Li6B3SbO9
_symmetry_space_group_name_H-M   'P 1'
_cell_length_a   7.29231927
_cell_length_b   16.71376260
_cell_length_c   6.77750714
_cell_angle_alpha   90.00000000
_cell_angle_beta   105.02923469
_cell_angle_gamma   90.00000000
_symmetry_Int_Tables_number   1
_chemical_formula_structural   Li6B3SbO9
_chemical_formula_sum   'Li24 B12 Sb4 O36'
_cell_volume   797.80036152
_cell_formula_units_Z   4
loop_
 _symmetry_equiv_pos_site_id
 _symmetry_equiv_pos_as_xyz
  1  'x, y, z'
loop_
 _atom_site_type_symbol
 _atom_site_label
 _atom_site_symmetry_multiplicity
 _atom_site_fract_x
 _atom_site_fract_y
 _atom_site_fract_z
 _atom_site_occupancy
  Li  Li0  1  0.07103224  0.99694902  0.67716871  1
  Li  Li1  1  0.14462170  0.54937931  0.58497335  1
  Li  Li2  1  0.07103224  0.50305098  0.17716871  1
  Li  Li3  1  0.30236211  0.46275539  0.94426630  1
  Li  Li4  1  0.14462170  0.95062069  0.08497335  1
  Li  Li5  1  0.28828838  0.70744920  0.63329996  1
  Li  Li6  1  0.30236211  0.03724461  0.44426630  1
  Li  Li7  1  0.42760931  0.29586278  0.95028706  1
  Li  Li8  1  0.45569873  0.96889986  0.83075497  1
  Li  Li9  1  0.28828838  0.79255080  0.13329996  1
  Li  Li10  1  0.42760931  0.20413722  0.45028706  1
  Li  Li11  1  0.45569873  0.53110014  0.33075497  1
  Li  Li12  1  0.54430127  0.46889986  0.66924503  1
  Li  Li13  1  0.57239069  0.79586278  0.54971294  1
  Li  Li14  1  0.71171162  0.20744920  0.86670004  1
  Li  Li15  1  0.54430127  0.03110014  0.16924503  1
  Li  Li16  1  0.57239069  0.70413722  0.04971294  1
  Li  Li17  1  0.69763789  0.96275539  0.55573370  1
  Li  Li18  1  0.71171162  0.29255080  0.36670004  1
  Li  Li19  1  0.85537830  0.04937931  0.91502665  1
  Li  Li20  1  0.69763789  0.53724461  0.05573370  1
  Li  Li21  1  0.92896776  0.49694902  0.82283129  1
  Li  Li22  1  0.85537830  0.45062069  0.41502665  1
  Li  Li23  1  0.92896776  0.00305098  0.32283129  1
  B  B24  1  0.08220278  0.36589083  0.64840923  1
  B  B25  1  0.08220278  0.13410917  0.14840923  1
  B  B26  1  0.29203386  0.88064083  0.50075323  1
  B  B27  1  0.44152742  0.11331135  0.81606102  1
  B  B28  1  0.29203386  0.61935917  0.00075323  1
  B  B29  1  0.44152742  0.38668865  0.31606102  1
  B  B30  1  0.55847258  0.61331135  0.68393898  1
  B  B31  1  0.70796614  0.38064083  0.99924677  1
  B  B32  1  0.55847258  0.88668865  0.18393898  1
  B  B33  1  0.70796614  0.11935917  0.49924677  1
  B  B34  1  0.91779722  0.86589083  0.85159077  1
  B  B35  1  0.91779722  0.63410917  0.35159077  1
  Sb  Sb36  1  0.07350047  0.18529852  0.67283372  1
  Sb  Sb37  1  0.07350047  0.31470148  0.17283372  1
  Sb  Sb38  1  0.92649953  0.68529852  0.82716628  1
  Sb  Sb39  1  0.92649953  0.81470148  0.32716628  1
  O  O40  1  0.00660686  0.66435852  0.55003688  1
  O  O41  1  0.13023931  0.57053996  0.95982304  1
  O  O42  1  0.08567745  0.44714915  0.67512769  1
  O  O43  1  0.14662918  0.31289469  0.80617954  1
  O  O44  1  0.00660686  0.83564148  0.05003688  1
  O  O45  1  0.13023931  0.92946004  0.45982304  1
  O  O46  1  0.26395813  0.70003676  0.94108222  1
  O  O47  1  0.08567745  0.05285085  0.17512769  1
  O  O48  1  0.14662918  0.18710531  0.30617954  1
  O  O49  1  0.27853770  0.06669290  0.73622088  1
  O  O50  1  0.26395813  0.79996324  0.44108222  1
  O  O51  1  0.27853770  0.43330710  0.23622088  1
  O  O52  1  0.42594872  0.19526358  0.78172709  1
  O  O53  1  0.39517619  0.57574734  0.57617050  1
  O  O54  1  0.53114813  0.41050195  0.90969815  1
  O  O55  1  0.46885187  0.91050195  0.59030185  1
  O  O56  1  0.42594872  0.30473642  0.28172709  1
  O  O57  1  0.60482381  0.07574734  0.92382950  1
  O  O58  1  0.39517619  0.92425266  0.07617050  1
  O  O59  1  0.57405128  0.69526358  0.71827291  1
  O  O60  1  0.53114813  0.08949805  0.40969815  1
  O  O61  1  0.46885187  0.58949805  0.09030185  1
  O  O62  1  0.60482381  0.42425266  0.42382950  1
  O  O63  1  0.57405128  0.80473642  0.21827291  1
  O  O64  1  0.72146230  0.56669290  0.76377912  1
  O  O65  1  0.73604187  0.20003676  0.55891778  1
  O  O66  1  0.72146230  0.93330710  0.26377912  1
  O  O67  1  0.85337082  0.81289469  0.69382046  1
  O  O68  1  0.91432255  0.94714915  0.82487231  1
  O  O69  1  0.73604187  0.29996324  0.05891778  1
  O  O70  1  0.86976069  0.07053996  0.54017696  1
  O  O71  1  0.99339314  0.16435852  0.94996312  1
  O  O72  1  0.85337082  0.68710531  0.19382046  1
  O  O73  1  0.91432255  0.55285085  0.32487231  1
  O  O74  1  0.86976069  0.42946004  0.04017696  1
  O  O75  1  0.99339314  0.33564148  0.44996312  1
