# generated using pymatgen
data_Mn7CrO16
_symmetry_space_group_name_H-M   'P 1'
_cell_length_a   5.82548266
_cell_length_b   5.82323338
_cell_length_c   8.23928876
_cell_angle_alpha   90.00000000
_cell_angle_beta   90.11428925
_cell_angle_gamma   90.00000000
_symmetry_Int_Tables_number   1
_chemical_formula_structural   Mn7CrO16
_chemical_formula_sum   'Mn7 Cr1 O16'
_cell_volume   279.50203182
_cell_formula_units_Z   1
loop_
 _symmetry_equiv_pos_site_id
 _symmetry_equiv_pos_as_xyz
  1  'x, y, z'
loop_
 _atom_site_type_symbol
 _atom_site_label
 _atom_site_symmetry_multiplicity
 _atom_site_fract_x
 _atom_site_fract_y
 _atom_site_fract_z
 _atom_site_occupancy
  Mn  Mn0  1  0.00000000  0.50000000  0.00000000  1
  Mn  Mn1  1  0.25000112  0.75039605  0.25040256  1
  Mn  Mn2  1  0.25000112  0.24960395  0.25040256  1
  Mn  Mn3  1  0.00000000  0.00000000  0.50000000  1
  Mn  Mn4  1  0.50000000  0.00000000  0.50000000  1
  Mn  Mn5  1  0.74999888  0.75039605  0.74959744  1
  Mn  Mn6  1  0.74999888  0.24960395  0.74959744  1
  Cr  Cr7  1  0.50000000  0.50000000  0.00000000  1
  O  O8  1  0.24923846  0.27977726  0.01573013  1
  O  O9  1  0.24923846  0.72022274  0.01573013  1
  O  O10  1  0.46859935  0.50000000  0.23635303  1
  O  O11  1  0.02958638  0.50000000  0.23507072  1
  O  O12  1  0.47027243  0.00000000  0.26504946  1
  O  O13  1  0.02897625  0.00000000  0.26497770  1
  O  O14  1  0.25001434  0.77954383  0.48560255  1
  O  O15  1  0.25001434  0.22045617  0.48560255  1
  O  O16  1  0.74998566  0.77954383  0.51439745  1
  O  O17  1  0.74998566  0.22045617  0.51439745  1
  O  O18  1  0.52972757  0.00000000  0.73495054  1
  O  O19  1  0.97102375  0.00000000  0.73502230  1
  O  O20  1  0.53140065  0.50000000  0.76364697  1
  O  O21  1  0.97041362  0.50000000  0.76492928  1
  O  O22  1  0.75076154  0.72022274  0.98426987  1
  O  O23  1  0.75076154  0.27977726  0.98426987  1
