# generated using pymatgen
data_Zr2Bi2O7
_symmetry_space_group_name_H-M   'P 1'
_cell_length_a   8.09740237
_cell_length_b   13.97767807
_cell_length_c   5.71712051
_cell_angle_alpha   90.00000000
_cell_angle_beta   90.00000000
_cell_angle_gamma   98.40161083
_symmetry_Int_Tables_number   1
_chemical_formula_structural   Zr2Bi2O7
_chemical_formula_sum   'Zr8 Bi8 O28'
_cell_volume   640.13586595
_cell_formula_units_Z   4
loop_
 _symmetry_equiv_pos_site_id
 _symmetry_equiv_pos_as_xyz
  1  'x, y, z'
loop_
 _atom_site_type_symbol
 _atom_site_label
 _atom_site_symmetry_multiplicity
 _atom_site_fract_x
 _atom_site_fract_y
 _atom_site_fract_z
 _atom_site_occupancy
  Zr  Zr0  1  0.07375178  0.31691690  0.26180182  1
  Zr  Zr1  1  0.02809376  0.11426990  0.76441668  1
  Zr  Zr2  1  0.41142214  0.67684084  0.76565892  1
  Zr  Zr3  1  0.47087224  0.88240307  0.26311747  1
  Zr  Zr4  1  0.52912776  0.11759693  0.76311747  1
  Zr  Zr5  1  0.58857786  0.32315916  0.26565892  1
  Zr  Zr6  1  0.97190624  0.88573010  0.26441668  1
  Zr  Zr7  1  0.92624822  0.68308310  0.76180182  1
  Bi  Bi8  1  0.13631577  0.55947849  0.29692573  1
  Bi  Bi9  1  0.23084217  0.91391032  0.76869175  1
  Bi  Bi10  1  0.28664492  0.13024104  0.23815569  1
  Bi  Bi11  1  0.36739549  0.40171949  0.73165515  1
  Bi  Bi12  1  0.63260451  0.59828051  0.23165515  1
  Bi  Bi13  1  0.71335508  0.86975896  0.73815569  1
  Bi  Bi14  1  0.76915783  0.08608968  0.26869175  1
  Bi  Bi15  1  0.86368423  0.44052151  0.79692573  1
  O  O16  1  0.07728276  0.41369650  0.54552345  1
  O  O17  1  0.00608643  0.17867617  0.44173669  1
  O  O18  1  0.17393196  0.69172773  0.68104699  1
  O  O19  1  0.22258980  0.88556704  0.36471907  1
  O  O20  1  0.14052804  0.43707426  0.05599471  1
  O  O21  1  0.06243893  0.01959115  0.05580277  1
  O  O22  1  0.12716913  0.22434397  0.97906704  1
  O  O23  1  0.37437816  0.61622205  0.08984984  1
  O  O24  1  0.42259236  0.82332838  0.93301550  1
  O  O25  1  0.27153918  0.08407602  0.65931260  1
  O  O26  1  0.32662894  0.30565592  0.38583727  1
  O  O27  1  0.41395044  0.54860430  0.57593170  1
  O  O28  1  0.55148449  0.97980632  0.55353194  1
  O  O29  1  0.51553551  0.77307927  0.48069620  1
  O  O30  1  0.48446449  0.22692073  0.98069620  1
  O  O31  1  0.44851551  0.02019368  0.05353194  1
  O  O32  1  0.58604956  0.45139570  0.07593170  1
  O  O33  1  0.67337106  0.69434408  0.88583727  1
  O  O34  1  0.72846082  0.91592398  0.15931260  1
  O  O35  1  0.57740764  0.17667162  0.43301550  1
  O  O36  1  0.62562184  0.38377795  0.58984984  1
  O  O37  1  0.87283087  0.77565603  0.47906704  1
  O  O38  1  0.93756107  0.98040885  0.55580277  1
  O  O39  1  0.85947196  0.56292574  0.55599471  1
  O  O40  1  0.77741020  0.11443296  0.86471907  1
  O  O41  1  0.82606804  0.30827227  0.18104699  1
  O  O42  1  0.99391357  0.82132383  0.94173669  1
  O  O43  1  0.92271724  0.58630350  0.04552345  1
