# generated using pymatgen
data_V2CrFe3(PO4)6
_symmetry_space_group_name_H-M   'P 1'
_cell_length_a   8.43583712
_cell_length_b   8.64743181
_cell_length_c   8.64743191
_cell_angle_alpha   59.99999970
_cell_angle_beta   59.16673595
_cell_angle_gamma   59.16673563
_symmetry_Int_Tables_number   1
_chemical_formula_structural   V2CrFe3(PO4)6
_chemical_formula_sum   'V2 Cr1 Fe3 P6 O24'
_cell_volume   440.35328758
_cell_formula_units_Z   1
loop_
 _symmetry_equiv_pos_site_id
 _symmetry_equiv_pos_as_xyz
  1  'x, y, z'
loop_
 _atom_site_type_symbol
 _atom_site_label
 _atom_site_symmetry_multiplicity
 _atom_site_fract_x
 _atom_site_fract_y
 _atom_site_fract_z
 _atom_site_occupancy
  V  V0  1  0.00396141  0.99867986  0.99867986  1
  V  V1  1  0.49877687  0.50040738  0.50040738  1
  Cr  Cr2  1  0.57327240  0.14224287  0.14224287  1
  Fe  Fe3  1  0.05917130  0.64694257  0.64694257  1
  Fe  Fe4  1  0.43782251  0.85405950  0.85405950  1
  Fe  Fe5  1  0.94067260  0.35310880  0.35310880  1
  P  P6  1  0.25222117  0.25046167  0.54412650  1
  P  P7  1  0.25222117  0.95318967  0.25046167  1
  P  P8  1  0.25222117  0.54412650  0.95318967  1
  P  P9  1  0.74752865  0.45317466  0.04908661  1
  P  P10  1  0.74752865  0.04908661  0.75021008  1
  P  P11  1  0.74752865  0.75021008  0.45317466  1
  O  O12  1  0.06442933  0.10654426  0.32379662  1
  O  O13  1  0.06442933  0.50523079  0.10654426  1
  O  O14  1  0.06442933  0.32379662  0.50523079  1
  O  O15  1  0.21821654  0.09571571  0.74784184  1
  O  O16  1  0.43635508  0.17979972  0.39020227  1
  O  O17  1  0.28341270  0.40559199  0.56044198  1
  O  O18  1  0.21821654  0.93822590  0.09571571  1
  O  O19  1  0.28341270  0.75055433  0.40559199  1
  O  O20  1  0.56301121  0.60793054  0.00666884  1
  O  O21  1  0.28341270  0.56044198  0.75055433  1
  O  O22  1  0.78044371  0.25027647  0.06324459  1
  O  O23  1  0.56301121  0.00666884  0.82239040  1
  O  O24  1  0.43635508  0.99364292  0.17979972  1
  O  O25  1  0.21821654  0.74784184  0.93822590  1
  O  O26  1  0.71560229  0.43830172  0.25055097  1
  O  O27  1  0.43635508  0.39020227  0.99364292  1
  O  O28  1  0.71560229  0.25055097  0.59554502  1
  O  O29  1  0.78044371  0.06324459  0.90603523  1
  O  O30  1  0.71560229  0.59554502  0.43830172  1
  O  O31  1  0.56301121  0.82239040  0.60793054  1
  O  O32  1  0.78044371  0.90603523  0.25027647  1
  O  O33  1  0.93422030  0.67963979  0.49259570  1
  O  O34  1  0.93422030  0.49259570  0.89354421  1
  O  O35  1  0.93422030  0.89354421  0.67963979  1
