# generated using pymatgen
data_MnP4
_symmetry_space_group_name_H-M   'P 1'
_cell_length_a   4.76239159
_cell_length_b   13.68343097
_cell_length_c   7.03173121
_cell_angle_alpha   90.00000000
_cell_angle_beta   102.05918433
_cell_angle_gamma   90.00000000
_symmetry_Int_Tables_number   1
_chemical_formula_structural   MnP4
_chemical_formula_sum   'Mn6 P24'
_cell_volume   448.11673869
_cell_formula_units_Z   6
loop_
 _symmetry_equiv_pos_site_id
 _symmetry_equiv_pos_as_xyz
  1  'x, y, z'
loop_
 _atom_site_type_symbol
 _atom_site_label
 _atom_site_symmetry_multiplicity
 _atom_site_fract_x
 _atom_site_fract_y
 _atom_site_fract_z
 _atom_site_occupancy
  Mn  Mn0  1  0.00000000  0.50000000  0.50000000  1
  Mn  Mn1  1  0.13162799  0.33424684  0.86932028  1
  Mn  Mn2  1  0.00000000  0.00000000  0.00000000  1
  Mn  Mn3  1  0.13162799  0.16575316  0.36932028  1
  Mn  Mn4  1  0.86837201  0.83424684  0.63067972  1
  Mn  Mn5  1  0.86837201  0.66575316  0.13067972  1
  P  P6  1  0.07796758  0.72540469  0.87339140  1
  P  P7  1  0.07796758  0.77459531  0.37339140  1
  P  P8  1  0.20995655  0.94774711  0.75004090  1
  P  P9  1  0.26453095  0.61390659  0.70128640  1
  P  P10  1  0.20995655  0.55225289  0.25004090  1
  P  P11  1  0.35690283  0.39117118  0.64026921  1
  P  P12  1  0.37198691  0.05642297  0.56668769  1
  P  P13  1  0.49147166  0.22081113  0.95809149  1
  P  P14  1  0.26453095  0.88609341  0.20128640  1
  P  P15  1  0.35690283  0.10882882  0.14026921  1
  P  P16  1  0.50852834  0.72081113  0.54190851  1
  P  P17  1  0.37198691  0.44357703  0.06668769  1
  P  P18  1  0.62801309  0.55642297  0.93331231  1
  P  P19  1  0.49147166  0.27918887  0.45809149  1
  P  P20  1  0.64309717  0.89117118  0.85973079  1
  P  P21  1  0.73546905  0.11390659  0.79871360  1
  P  P22  1  0.50852834  0.77918887  0.04190851  1
  P  P23  1  0.62801309  0.94357703  0.43331231  1
  P  P24  1  0.64309717  0.60882882  0.35973079  1
  P  P25  1  0.79004345  0.44774711  0.74995910  1
  P  P26  1  0.73546905  0.38609341  0.29871360  1
  P  P27  1  0.79004345  0.05225289  0.24995910  1
  P  P28  1  0.92203242  0.22540469  0.62660860  1
  P  P29  1  0.92203242  0.27459531  0.12660860  1
