# generated using pymatgen
data_RbLi2Co2(BO3)3
_symmetry_space_group_name_H-M   'P 1'
_cell_length_a   6.39371685
_cell_length_b   5.04354002
_cell_length_c   12.93604934
_cell_angle_alpha   90.00000000
_cell_angle_beta   91.33172803
_cell_angle_gamma   90.00000000
_symmetry_Int_Tables_number   1
_chemical_formula_structural   RbLi2Co2(BO3)3
_chemical_formula_sum   'Rb2 Li4 Co4 B6 O18'
_cell_volume   417.03567877
_cell_formula_units_Z   2
loop_
 _symmetry_equiv_pos_site_id
 _symmetry_equiv_pos_as_xyz
  1  'x, y, z'
loop_
 _atom_site_type_symbol
 _atom_site_label
 _atom_site_symmetry_multiplicity
 _atom_site_fract_x
 _atom_site_fract_y
 _atom_site_fract_z
 _atom_site_occupancy
  Rb  Rb0  1  0.00000000  0.20920671  0.75000000  1
  Rb  Rb1  1  0.00000000  0.79079329  0.25000000  1
  Li  Li2  1  0.49683363  0.17391958  0.86655741  1
  Li  Li3  1  0.50316637  0.17391958  0.63344259  1
  Li  Li4  1  0.49683363  0.82608042  0.36655741  1
  Li  Li5  1  0.50316637  0.82608042  0.13344259  1
  Co  Co6  1  0.23513179  0.68405680  0.56550778  1
  Co  Co7  1  0.23513179  0.31594320  0.06550778  1
  Co  Co8  1  0.76486821  0.68405680  0.93449222  1
  Co  Co9  1  0.76486821  0.31594320  0.43449222  1
  B  B10  1  0.19344319  0.81743695  0.95836529  1
  B  B11  1  0.19344319  0.18256305  0.45836529  1
  B  B12  1  0.50000000  0.66700692  0.75000000  1
  B  B13  1  0.50000000  0.33299308  0.25000000  1
  B  B14  1  0.80655681  0.81743695  0.54163471  1
  B  B15  1  0.80655681  0.18256305  0.04163471  1
  O  O16  1  0.04344132  0.70279333  0.89391153  1
  O  O17  1  0.04344132  0.29720667  0.39391153  1
  O  O18  1  0.24422621  0.08432070  0.94903679  1
  O  O19  1  0.24422621  0.91567930  0.44903679  1
  O  O20  1  0.29560501  0.33046638  0.53407360  1
  O  O21  1  0.29560501  0.66953362  0.03407360  1
  O  O22  1  0.40212852  0.82111727  0.67160676  1
  O  O23  1  0.40212852  0.17888273  0.17160676  1
  O  O24  1  0.50000000  0.40113975  0.75000000  1
  O  O25  1  0.50000000  0.59886025  0.25000000  1
  O  O26  1  0.59787148  0.82111727  0.82839324  1
  O  O27  1  0.59787148  0.17888273  0.32839324  1
  O  O28  1  0.70439499  0.33046638  0.96592640  1
  O  O29  1  0.70439499  0.66953362  0.46592640  1
  O  O30  1  0.75577379  0.08432070  0.55096321  1
  O  O31  1  0.75577379  0.91567930  0.05096321  1
  O  O32  1  0.95655868  0.70279333  0.60608847  1
  O  O33  1  0.95655868  0.29720667  0.10608847  1
