# generated using pymatgen
data_Li4Co13O28
_symmetry_space_group_name_H-M   'P 1'
_cell_length_a   8.12001926
_cell_length_b   8.60839610
_cell_length_c   7.47781264
_cell_angle_alpha   104.30127178
_cell_angle_beta   104.94881352
_cell_angle_gamma   100.21513250
_symmetry_Int_Tables_number   1
_chemical_formula_structural   Li4Co13O28
_chemical_formula_sum   'Li4 Co13 O28'
_cell_volume   472.86085775
_cell_formula_units_Z   1
loop_
 _symmetry_equiv_pos_site_id
 _symmetry_equiv_pos_as_xyz
  1  'x, y, z'
loop_
 _atom_site_type_symbol
 _atom_site_label
 _atom_site_symmetry_multiplicity
 _atom_site_fract_x
 _atom_site_fract_y
 _atom_site_fract_z
 _atom_site_occupancy
  Li  Li0  1  0.26914877  0.20877525  0.91700585  1
  Li  Li1  1  0.86522694  0.64982833  0.77903634  1
  Li  Li2  1  0.34318014  0.13990296  0.28847690  1
  Li  Li3  1  0.71595182  0.80356461  0.07752319  1
  Co  Co4  1  0.79079413  0.20829787  0.93200373  1
  Co  Co5  1  0.57053207  0.42454006  0.85526296  1
  Co  Co6  1  0.91752857  0.05707982  0.64197495  1
  Co  Co7  1  0.34856739  0.63530736  0.78056036  1
  Co  Co8  1  0.71353860  0.28192465  0.57037314  1
  Co  Co9  1  0.14520028  0.86046109  0.72045280  1
  Co  Co10  1  0.49960586  0.49948710  0.49965604  1
  Co  Co11  1  0.86648656  0.14485336  0.28591102  1
  Co  Co12  1  0.28955428  0.71914971  0.43064856  1
  Co  Co13  1  0.65676585  0.36662411  0.21999886  1
  Co  Co14  1  0.07078501  0.93055965  0.35317047  1
  Co  Co15  1  0.42819633  0.57105845  0.14317436  1
  Co  Co16  1  0.21200187  0.79093426  0.07171150  1
  O  O17  1  -0.00178154  0.19470916  0.89270215  1
  O  O18  1  0.56343694  0.24550485  0.95147738  1
  O  O19  1  0.34851012  0.44641672  0.87400737  1
  O  O20  1  0.14582172  0.04980327  0.63171767  1
  O  O21  1  0.78820948  0.40247704  0.83641111  1
  O  O22  1  0.70426078  0.09087398  0.65982726  1
  O  O23  1  0.23987997  0.97230625  0.98051517  1
  O  O24  1  0.12873453  0.66739800  0.80092576  1
  O  O25  1  0.58241805  0.61601250  0.77653575  1
  O  O26  1  0.49246159  0.30574790  0.58383647  1
  O  O27  1  0.93188010  0.25001742  0.55613595  1
  O  O28  1  0.36538845  0.82687135  0.70285569  1
  O  O29  1  0.27696094  0.52968121  0.51570059  1
  O  O30  1  0.08583469  0.12425408  0.29663806  1
  O  O31  1  0.91615770  0.86880675  0.70130431  1
  O  O32  1  0.72817459  0.47512750  0.49252414  1
  O  O33  1  0.63648315  0.17544469  0.30017898  1
  O  O34  1  0.07207195  0.74751796  0.45059322  1
  O  O35  1  0.50757429  0.68811069  0.40924926  1
  O  O36  1  0.42374833  0.37740974  0.22710327  1
  O  O37  1  0.87129308  0.33505695  0.19947600  1
  O  O38  1  0.76671094  0.03557926  0.02558064  1
  O  O39  1  0.29772589  0.91064026  0.34094654  1
  O  O40  1  0.21082799  0.60286779  0.16260123  1
  O  O41  1  0.84421190  0.94999535  0.36304516  1
  O  O42  1  0.65137096  0.55073956  0.12349682  1
  O  O43  1  0.43529937  0.75574310  0.05011534  1
  O  O44  1  0.99755460  0.79825305  0.09898367  1
