# generated using pymatgen
data_Li6Fe3Ni(PO4)6
_symmetry_space_group_name_H-M   'P 1'
_cell_length_a   8.56982579
_cell_length_b   8.62246297
_cell_length_c   8.61649821
_cell_angle_alpha   61.70081516
_cell_angle_beta   61.84760009
_cell_angle_gamma   61.67502348
_symmetry_Int_Tables_number   1
_chemical_formula_structural   Li6Fe3Ni(PO4)6
_chemical_formula_sum   'Li6 Fe3 Ni1 P6 O24'
_cell_volume   467.77813012
_cell_formula_units_Z   1
loop_
 _symmetry_equiv_pos_site_id
 _symmetry_equiv_pos_as_xyz
  1  'x, y, z'
loop_
 _atom_site_type_symbol
 _atom_site_label
 _atom_site_symmetry_multiplicity
 _atom_site_fract_x
 _atom_site_fract_y
 _atom_site_fract_z
 _atom_site_occupancy
  Li  Li0  1  0.01986703  0.00110202  0.98879160  1
  Li  Li1  1  0.75415184  0.14776528  0.34921924  1
  Li  Li2  1  0.48050803  0.51051656  0.49507338  1
  Li  Li3  1  0.21976302  0.84691489  0.65831906  1
  Li  Li4  1  0.66213174  0.22104340  0.84488224  1
  Li  Li5  1  0.84278590  0.65972007  0.21792881  1
  Fe  Fe6  1  0.14501955  0.14684612  0.13925798  1
  Fe  Fe7  1  0.35461439  0.36014803  0.35294013  1
  Fe  Fe8  1  0.64591372  0.64544947  0.64781873  1
  Ni  Ni9  1  0.85509824  0.85302869  0.85361526  1
  P  P10  1  0.05085853  0.75030580  0.45308553  1
  P  P11  1  0.45233277  0.05059379  0.74959340  1
  P  P12  1  0.74949183  0.45640603  0.04926545  1
  P  P13  1  0.25051143  0.54380268  0.95728782  1
  P  P14  1  0.54575504  0.96238436  0.25117093  1
  P  P15  1  0.95481252  0.24902894  0.53871728  1
  O  O16  1  0.12373219  0.30340860  0.48476136  1
  O  O17  1  0.31588378  0.50456756  0.11356231  1
  O  O18  1  0.04875827  0.91859836  0.26916201  1
  O  O19  1  0.52909121  0.11602402  0.30786806  1
  O  O20  1  0.24261106  0.59427231  0.42467350  1
  O  O21  1  0.03082490  0.80343777  0.61011307  1
  O  O22  1  0.26158322  0.06801004  0.90739269  1
  O  O23  1  0.44160380  0.23650173  0.58272928  1
  O  O24  1  0.59547553  0.42566491  0.24465452  1
  O  O25  1  0.19598526  0.38203998  0.99329051  1
  O  O26  1  0.08695607  0.73243918  0.94682827  1
  O  O27  1  0.37107515  0.00733227  0.21027476  1
  O  O28  1  0.61194731  0.02760314  0.80263618  1
  O  O29  1  0.90480829  0.26082121  0.06854968  1
  O  O30  1  0.80547436  0.61100385  0.02724071  1
  O  O31  1  0.40415573  0.57266920  0.76116157  1
  O  O32  1  0.57267896  0.76628708  0.40503170  1
  O  O33  1  0.72938324  0.94666716  0.08323713  1
  O  O34  1  0.96591769  0.20114022  0.38152299  1
  O  O35  1  0.76233553  0.40657576  0.57499941  1
  O  O36  1  0.49053525  0.88784031  0.69236672  1
  O  O37  1  0.94916881  0.08590432  0.72641464  1
  O  O38  1  0.68868388  0.49544133  0.88900012  1
  O  O39  1  0.88771590  0.68969259  0.49656196  1
