# generated using pymatgen
data_Li4CrCu3O8
_symmetry_space_group_name_H-M   'P 1'
_cell_length_a   10.14217953
_cell_length_b   10.14144108
_cell_length_c   14.33816382
_cell_angle_alpha   19.50460400
_cell_angle_beta   19.50353209
_cell_angle_gamma   33.61800115
_symmetry_Int_Tables_number   1
_chemical_formula_structural   Li4CrCu3O8
_chemical_formula_sum   'Li4 Cr1 Cu3 O8'
_cell_volume   142.33199776
_cell_formula_units_Z   1
loop_
 _symmetry_equiv_pos_site_id
 _symmetry_equiv_pos_as_xyz
  1  'x, y, z'
loop_
 _atom_site_type_symbol
 _atom_site_label
 _atom_site_symmetry_multiplicity
 _atom_site_fract_x
 _atom_site_fract_y
 _atom_site_fract_z
 _atom_site_occupancy
  Li  Li0  1  0.99999754  -0.00000036  0.50000169  1
  Li  Li1  1  -0.00000169  0.50000016  0.50000008  1
  Li  Li2  1  0.49999833  0.99999772  0.50000174  1
  Li  Li3  1  0.49999850  0.49999686  0.50000249  1
  Cr  Cr4  1  0.00002414  0.00002228  -0.00002758  1
  Cu  Cu5  1  -0.00000069  0.50000442  0.99999707  1
  Cu  Cu6  1  0.50000115  -0.00000774  0.00000445  1
  Cu  Cu7  1  0.49999325  0.49999569  0.00000753  1
  O  O8  1  0.99980226  0.99968304  0.25856208  1
  O  O9  1  -0.00002120  0.50698249  0.25228959  1
  O  O10  1  0.50700503  0.99991992  0.25233228  1
  O  O11  1  0.00019358  0.00031347  0.74144167  1
  O  O12  1  0.49359993  0.49355530  0.26553609  1
  O  O13  1  0.00001859  0.49301270  0.74771498  1
  O  O14  1  0.49299250  0.00008070  0.74766915  1
  O  O15  1  0.50639778  0.50644135  0.73446769  1
