# generated using pymatgen
data_Sr2TmCu2(BiO4)2
_symmetry_space_group_name_H-M   'P 1'
_cell_length_a   3.76273489
_cell_length_b   3.76273489
_cell_length_c   15.41639256
_cell_angle_alpha   97.00966927
_cell_angle_beta   97.00966927
_cell_angle_gamma   90.00000000
_symmetry_Int_Tables_number   1
_chemical_formula_structural   Sr2TmCu2(BiO4)2
_chemical_formula_sum   'Sr2 Tm1 Cu2 Bi2 O8'
_cell_volume   214.99272963
_cell_formula_units_Z   1
loop_
 _symmetry_equiv_pos_site_id
 _symmetry_equiv_pos_as_xyz
  1  'x, y, z'
loop_
 _atom_site_type_symbol
 _atom_site_label
 _atom_site_symmetry_multiplicity
 _atom_site_fract_x
 _atom_site_fract_y
 _atom_site_fract_z
 _atom_site_occupancy
  Sr  Sr0  1  0.11531097  0.11531097  0.23062193  1
  Sr  Sr1  1  0.88468903  0.88468903  0.76937807  1
  Tm  Tm2  1  -0.00000000  -0.00000000  -0.00000000  1
  Cu  Cu3  1  0.44744858  0.44744858  0.89489716  1
  Cu  Cu4  1  0.55255142  0.55255142  0.10510284  1
  Bi  Bi5  1  0.29466355  0.29466355  0.58932710  1
  Bi  Bi6  1  0.70533645  0.70533645  0.41067290  1
  O  O7  1  0.04731879  0.54731879  0.09463757  1
  O  O8  1  0.95268121  0.45268121  0.90536243  1
  O  O9  1  0.54731879  0.04731879  0.09463757  1
  O  O10  1  0.45268121  0.95268121  0.90536243  1
  O  O11  1  0.20316878  0.20316878  0.40633756  1
  O  O12  1  0.79683122  0.79683122  0.59366244  1
  O  O13  1  0.36515816  0.36515816  0.73031632  1
  O  O14  1  0.63484184  0.63484184  0.26968368  1
