# generated using pymatgen
data_Li3MnAlO4
_symmetry_space_group_name_H-M   'P 1'
_cell_length_a   10.21668392
_cell_length_b   10.21668392
_cell_length_c   10.21668392
_cell_angle_alpha   115.59462648
_cell_angle_beta   115.59462648
_cell_angle_gamma   97.81631392
_symmetry_Int_Tables_number   1
_chemical_formula_structural   Li3MnAlO4
_chemical_formula_sum   'Li24 Mn8 Al8 O32'
_cell_volume   796.25059704
_cell_formula_units_Z   8
loop_
 _symmetry_equiv_pos_site_id
 _symmetry_equiv_pos_as_xyz
  1  'x, y, z'
loop_
 _atom_site_type_symbol
 _atom_site_label
 _atom_site_symmetry_multiplicity
 _atom_site_fract_x
 _atom_site_fract_y
 _atom_site_fract_z
 _atom_site_occupancy
  Li  Li0  1  0.92715997  0.10349994  0.15142733  1
  Li  Li1  1  0.82284003  0.14650006  0.34857267  1
  Li  Li2  1  0.52573264  0.17715997  0.32366003  1
  Li  Li3  1  0.89650006  0.04792739  0.82366003  1
  Li  Li4  1  0.44152289  0.29771749  0.13778256  1
  Li  Li5  1  0.71384070  0.57195413  0.14718849  1
  Li  Li6  1  0.22426736  0.07284003  0.17633997  1
  Li  Li7  1  0.85349994  0.20207261  0.67633997  1
  Li  Li8  1  0.70228251  0.84006507  0.14380540  1
  Li  Li9  1  0.42804587  0.57523436  0.14188657  1
  Li  Li10  1  0.79792739  0.47426736  0.65142733  1
  Li  Li11  1  0.95207261  0.77573264  0.84857267  1
  Li  Li12  1  0.32195413  0.67476564  0.35811343  1
  Li  Li13  1  0.43334779  0.28615930  0.85811343  1
  Li  Li14  1  0.04771749  0.40993493  0.35619460  1
  Li  Li15  1  0.69625867  0.55847711  0.85619460  1
  Li  Li16  1  0.03615930  0.67804587  0.35281151  1
  Li  Li17  1  0.42476564  0.56665221  0.85281151  1
  Li  Li18  1  0.59006507  0.94625867  0.63778256  1
  Li  Li19  1  0.30847711  0.95228251  0.36221744  1
  Li  Li20  1  0.15993493  0.30374133  0.86221744  1
  Li  Li21  1  0.32523436  0.68334779  0.64718849  1
  Li  Li22  1  0.05374133  0.69152289  0.64380540  1
  Li  Li23  1  0.31665221  0.96384070  0.64188657  1
  Mn  Mn24  1  0.45177996  0.92599408  0.00027679  1
  Mn  Mn25  1  0.54849583  0.54822004  0.47421312  1
  Mn  Mn26  1  0.67599408  0.17571729  0.97421312  1
  Mn  Mn27  1  0.82428271  0.79849583  0.50027679  1
  Mn  Mn28  1  0.29822004  0.32400592  0.49972321  1
  Mn  Mn29  1  0.07400592  0.07428271  0.52578688  1
  Mn  Mn30  1  0.20150417  0.70177996  0.02578688  1
  Mn  Mn31  1  0.92571729  0.45150417  0.99972321  1
  Al  Al32  1  0.75124550  0.41165970  0.30008339  1
  Al  Al33  1  0.54883789  0.24875450  0.66041420  1
  Al  Al34  1  0.16165970  0.36157630  0.16041420  1
  Al  Al35  1  0.58834030  0.88842370  0.33958580  1
  Al  Al36  1  0.63842370  0.79883789  0.80008339  1
  Al  Al37  1  0.11157630  0.45116211  0.69991661  1
  Al  Al38  1  0.99875450  0.83834030  0.19991661  1
  Al  Al39  1  0.20116211  0.00124550  0.83958580  1
  O  O40  1  0.83312307  0.26875761  0.24440182  1
  O  O41  1  0.33872125  0.08312307  0.06436446  1
  O  O42  1  0.60134630  0.35800632  0.08678966  1
  O  O43  1  0.86302136  0.64218023  0.09483401  1
  O  O44  1  0.88697864  0.60781977  0.40516599  1
  O  O45  1  0.65118615  0.39234534  0.40018994  1
  O  O46  1  0.41127875  0.16687693  0.43563554  1
  O  O47  1  0.35781977  0.45265378  0.22084113  1
  O  O48  1  0.51818735  0.11302136  0.72084113  1
  O  O49  1  0.91687693  0.98124239  0.25559818  1
  O  O50  1  0.14234534  0.24215440  0.24115919  1
  O  O51  1  0.74900479  0.34881385  0.74115919  1
  O  O52  1  0.64199368  0.72878334  0.24333998  1
  O  O53  1  0.10800632  0.52121666  0.25666002  1
  O  O54  1  0.48544236  0.39865370  0.75666002  1
  O  O55  1  0.60765466  0.00784560  0.25884081  1
  O  O56  1  0.72564322  0.66127875  0.74440182  1
  O  O57  1  0.23181265  0.13697864  0.77915887  1
  O  O58  1  0.39218023  0.79734622  0.27915887  1
  O  O59  1  0.73124239  0.97564322  0.56436446  1
  O  O60  1  0.47878334  0.73544236  0.58678966  1
  O  O61  1  0.09881385  0.85765466  0.09981006  1
  O  O62  1  0.99215440  0.25099521  0.59981006  1
  O  O63  1  0.20265378  0.48181265  0.59483401  1
  O  O64  1  0.54734622  0.76818735  0.90516599  1
  O  O65  1  0.75784560  0.99900479  0.90018994  1
  O  O66  1  0.27121666  0.51455764  0.91321034  1
  O  O67  1  0.14865370  0.89199368  0.41321034  1
  O  O68  1  0.01875761  0.27435678  0.93563554  1
  O  O69  1  0.02435678  0.58872125  0.75559818  1
  O  O70  1  0.26455764  0.85134630  0.74333998  1
  O  O71  1  0.00099521  0.90118615  0.75884081  1
