# generated using pymatgen
data_Gd2W2O9
_symmetry_space_group_name_H-M   'P 1'
_cell_length_a   7.43247666
_cell_length_b   7.19472530
_cell_length_c   6.81499443
_cell_angle_alpha   96.81817808
_cell_angle_beta   95.07120149
_cell_angle_gamma   69.97555871
_symmetry_Int_Tables_number   1
_chemical_formula_structural   Gd2W2O9
_chemical_formula_sum   'Gd4 W4 O18'
_cell_volume   339.53135604
_cell_formula_units_Z   2
loop_
 _symmetry_equiv_pos_site_id
 _symmetry_equiv_pos_as_xyz
  1  'x, y, z'
loop_
 _atom_site_type_symbol
 _atom_site_label
 _atom_site_symmetry_multiplicity
 _atom_site_fract_x
 _atom_site_fract_y
 _atom_site_fract_z
 _atom_site_occupancy
  Gd  Gd0  1  0.15471066  0.25864654  0.84686714  1
  Gd  Gd1  1  0.38418733  0.28070711  0.38313021  1
  Gd  Gd2  1  0.61581267  0.71929289  0.61686979  1
  Gd  Gd3  1  0.84528934  0.74135346  0.15313286  1
  W  W4  1  0.05740417  0.73406428  0.72799464  1
  W  W5  1  0.36283792  0.79194265  0.15778198  1
  W  W6  1  0.63716208  0.20805735  0.84221802  1
  W  W7  1  0.94259583  0.26593572  0.27200536  1
  O  O8  1  0.09396742  0.22823420  0.50251463  1
  O  O9  1  0.20318703  0.06345367  0.14200137  1
  O  O10  1  0.09172282  0.42583927  0.18521986  1
  O  O11  1  0.24768470  0.49691261  0.66497028  1
  O  O12  1  0.14481028  0.72907107  0.03036753  1
  O  O13  1  0.17400207  0.92239213  0.73231508  1
  O  O14  1  0.46818058  0.08723098  0.68422477  1
  O  O15  1  0.37614079  0.63942506  0.36107205  1
  O  O16  1  0.46278853  0.30153414  0.03592831  1
  O  O17  1  0.53721147  0.69846586  0.96407169  1
  O  O18  1  0.62385921  0.36057494  0.63892795  1
  O  O19  1  0.53181942  0.91276902  0.31577523  1
  O  O20  1  0.82599793  0.07760787  0.26768492  1
  O  O21  1  0.85518972  0.27092893  0.96963247  1
  O  O22  1  0.75231530  0.50308739  0.33502972  1
  O  O23  1  0.90827718  0.57416073  0.81478014  1
  O  O24  1  0.79681297  0.93654633  0.85799863  1
  O  O25  1  0.90603258  0.77176580  0.49748537  1
