# generated using pymatgen
data_Li2CoH8(CO5)2
_symmetry_space_group_name_H-M   'P 1'
_cell_length_a   11.28070570
_cell_length_b   5.98839590
_cell_length_c   6.16084428
_cell_angle_alpha   90.00000000
_cell_angle_beta   98.05825664
_cell_angle_gamma   90.00000000
_symmetry_Int_Tables_number   1
_chemical_formula_structural   Li2CoH8(CO5)2
_chemical_formula_sum   'Li4 Co2 H16 C4 O20'
_cell_volume   412.07616189
_cell_formula_units_Z   2
loop_
 _symmetry_equiv_pos_site_id
 _symmetry_equiv_pos_as_xyz
  1  'x, y, z'
loop_
 _atom_site_type_symbol
 _atom_site_label
 _atom_site_symmetry_multiplicity
 _atom_site_fract_x
 _atom_site_fract_y
 _atom_site_fract_z
 _atom_site_occupancy
  Li  Li0  1  0.18781727  0.74501439  0.38637819  1
  Li  Li1  1  0.31218273  0.24501439  0.11362181  1
  Li  Li2  1  0.68781727  0.75498561  0.88637819  1
  Li  Li3  1  0.81218273  0.25498561  0.61362181  1
  Co  Co4  1  0.00000000  0.00000000  0.00000000  1
  Co  Co5  1  0.50000000  0.50000000  0.50000000  1
  H  H6  1  0.06922942  0.32693168  0.73778853  1
  H  H7  1  0.01902928  0.31766722  0.24437958  1
  H  H8  1  0.10255180  0.09167013  0.65127506  1
  H  H9  1  0.13792060  0.16915633  0.32996057  1
  H  H10  1  0.39744820  0.59167013  0.84872494  1
  H  H11  1  0.36207940  0.66915633  0.17003943  1
  H  H12  1  0.43077058  0.82693168  0.76221147  1
  H  H13  1  0.48097072  0.81766722  0.25562042  1
  H  H14  1  0.51902928  0.18233278  0.74437958  1
  H  H15  1  0.56922942  0.17306832  0.23778853  1
  H  H16  1  0.63792060  0.33084367  0.82996057  1
  H  H17  1  0.60255180  0.40832987  0.15127506  1
  H  H18  1  0.86207940  0.83084367  0.67003943  1
  H  H19  1  0.89744820  0.90832987  0.34872494  1
  H  H20  1  0.98097072  0.68233278  0.75562042  1
  H  H21  1  0.93077058  0.67306832  0.26221147  1
  C  C22  1  0.18222642  0.63913495  0.92050319  1
  C  C23  1  0.31777358  0.13913495  0.57949681  1
  C  C24  1  0.68222642  0.86086505  0.42050319  1
  C  C25  1  0.81777358  0.36086505  0.07949681  1
  O  O26  1  0.03838979  0.16985083  0.71860593  1
  O  O27  1  0.11635261  0.59649241  0.73630904  1
  O  O28  1  0.09367383  0.24812699  0.19831297  1
  O  O29  1  0.15270495  0.79010307  0.05499977  1
  O  O30  1  0.21832432  0.02873045  0.52279045  1
  O  O31  1  0.28167568  0.52873045  0.97720955  1
  O  O32  1  0.34729505  0.29010307  0.44500023  1
  O  O33  1  0.38364739  0.09649241  0.76369096  1
  O  O34  1  0.46161021  0.66985083  0.78139407  1
  O  O35  1  0.40632617  0.74812699  0.30168703  1
  O  O36  1  0.59367383  0.25187301  0.69831297  1
  O  O37  1  0.53838979  0.33014917  0.21860593  1
  O  O38  1  0.61635261  0.90350759  0.23630904  1
  O  O39  1  0.65270495  0.70989693  0.55499977  1
  O  O40  1  0.71832432  0.47126955  0.02279045  1
  O  O41  1  0.78167568  0.97126955  0.47720955  1
  O  O42  1  0.84729505  0.20989693  0.94500023  1
  O  O43  1  0.90632617  0.75187301  0.80168703  1
  O  O44  1  0.88364739  0.40350759  0.26369096  1
  O  O45  1  0.96161021  0.83014917  0.28139407  1
