# generated using pymatgen
data_LiCrPO4F
_symmetry_space_group_name_H-M   'P 1'
_cell_length_a   6.29672553
_cell_length_b   10.57567771
_cell_length_c   12.70753585
_cell_angle_alpha   90.00000000
_cell_angle_beta   90.00000000
_cell_angle_gamma   90.00000000
_symmetry_Int_Tables_number   1
_chemical_formula_structural   LiCrPO4F
_chemical_formula_sum   'Li8 Cr8 P8 O32 F8'
_cell_volume   846.22200426
_cell_formula_units_Z   8
loop_
 _symmetry_equiv_pos_site_id
 _symmetry_equiv_pos_as_xyz
  1  'x, y, z'
loop_
 _atom_site_type_symbol
 _atom_site_label
 _atom_site_symmetry_multiplicity
 _atom_site_fract_x
 _atom_site_fract_y
 _atom_site_fract_z
 _atom_site_occupancy
  Li  Li0  1  0.40750954  0.70512752  0.40128502  1
  Li  Li1  1  0.30569114  0.44797254  0.64100123  1
  Li  Li2  1  0.19430886  0.44797254  0.14100123  1
  Li  Li3  1  0.09249046  0.70512752  0.90128502  1
  Li  Li4  1  0.90750954  0.20512752  0.09871498  1
  Li  Li5  1  0.80569114  0.94797254  0.85899877  1
  Li  Li6  1  0.69430886  0.94797254  0.35899877  1
  Li  Li7  1  0.59249046  0.20512752  0.59871498  1
  Cr  Cr8  1  0.00353042  0.24717390  0.88084018  1
  Cr  Cr9  1  0.25751779  0.00131554  0.74541724  1
  Cr  Cr10  1  0.24248221  0.00131554  0.24541724  1
  Cr  Cr11  1  0.49646958  0.24717390  0.38084018  1
  Cr  Cr12  1  0.50353042  0.74717390  0.61915982  1
  Cr  Cr13  1  0.75751779  0.50131554  0.75458276  1
  Cr  Cr14  1  0.74248221  0.50131554  0.25458276  1
  Cr  Cr15  1  0.99646958  0.74717390  0.11915982  1
  P  P16  1  0.00168127  0.25181718  0.31257701  1
  P  P17  1  0.16974335  0.98857625  0.99257363  1
  P  P18  1  0.33025665  0.98857625  0.49257363  1
  P  P19  1  0.49831873  0.25181718  0.81257701  1
  P  P20  1  0.50168127  0.75181718  0.18742299  1
  P  P21  1  0.66974335  0.48857625  0.50742637  1
  P  P22  1  0.83025665  0.48857625  0.00742637  1
  P  P23  1  0.99831873  0.75181718  0.68742299  1
  O  O24  1  0.99932761  0.09667887  0.97926761  1
  O  O25  1  0.03189122  0.86336262  0.99280620  1
  O  O26  1  0.03118712  0.86816427  0.76294247  1
  O  O27  1  0.03593113  0.14260948  0.23075091  1
  O  O28  1  0.20280585  0.00630647  0.59305294  1
  O  O29  1  0.19424459  0.72407524  0.62049016  1
  O  O30  1  0.18960101  0.27103732  0.38664430  1
  O  O31  1  0.17823709  0.98579304  0.39813921  1
  O  O32  1  0.32176291  0.98579304  0.89813921  1
  O  O33  1  0.31039899  0.27103732  0.88664430  1
  O  O34  1  0.30575541  0.72407524  0.12049016  1
  O  O35  1  0.29719415  0.00630647  0.09305294  1
  O  O36  1  0.46406887  0.14260948  0.73075091  1
  O  O37  1  0.46881288  0.86816427  0.26294247  1
  O  O38  1  0.46810878  0.86336262  0.49280620  1
  O  O39  1  0.50067239  0.09667887  0.47926761  1
  O  O40  1  0.49932761  0.59667887  0.52073239  1
  O  O41  1  0.53189122  0.36336262  0.50719380  1
  O  O42  1  0.53118712  0.36816427  0.73705753  1
  O  O43  1  0.53593113  0.64260948  0.26924909  1
  O  O44  1  0.70280585  0.50630647  0.90694706  1
  O  O45  1  0.69424459  0.22407524  0.87950984  1
  O  O46  1  0.68960101  0.77103732  0.11335570  1
  O  O47  1  0.67823709  0.48579304  0.10186079  1
  O  O48  1  0.82176291  0.48579304  0.60186079  1
  O  O49  1  0.81039899  0.77103732  0.61335570  1
  O  O50  1  0.80575541  0.22407524  0.37950984  1
  O  O51  1  0.79719415  0.50630647  0.40694706  1
  O  O52  1  0.96406887  0.64260948  0.76924909  1
  O  O53  1  0.96881288  0.36816427  0.23705753  1
  O  O54  1  0.96810878  0.36336262  0.00719380  1
  O  O55  1  0.00067239  0.59667887  0.02073239  1
  F  F56  1  0.02049789  0.12176061  0.76543173  1
  F  F57  1  0.00332431  0.88199815  0.22792886  1
  F  F58  1  0.49667569  0.88199815  0.72792886  1
  F  F59  1  0.47950211  0.12176061  0.26543173  1
  F  F60  1  0.52049789  0.62176061  0.73456827  1
  F  F61  1  0.50332431  0.38199815  0.27207114  1
  F  F62  1  0.99667569  0.38199815  0.77207114  1
  F  F63  1  0.97950211  0.62176061  0.23456827  1
