# generated using pymatgen
data_Li4Ti3Mn2Fe3O16
_symmetry_space_group_name_H-M   'P 1'
_cell_length_a   5.96915187
_cell_length_b   5.90687327
_cell_length_c   9.59785045
_cell_angle_alpha   89.99835393
_cell_angle_beta   91.81717706
_cell_angle_gamma   119.65460768
_symmetry_Int_Tables_number   1
_chemical_formula_structural   Li4Ti3Mn2Fe3O16
_chemical_formula_sum   'Li4 Ti3 Mn2 Fe3 O16'
_cell_volume   293.89138126
_cell_formula_units_Z   1
loop_
 _symmetry_equiv_pos_site_id
 _symmetry_equiv_pos_as_xyz
  1  'x, y, z'
loop_
 _atom_site_type_symbol
 _atom_site_label
 _atom_site_symmetry_multiplicity
 _atom_site_fract_x
 _atom_site_fract_y
 _atom_site_fract_z
 _atom_site_occupancy
  Li  Li0  1  0.33556811  0.66776866  0.89257420  1
  Li  Li1  1  0.97640280  0.98824039  0.98889009  1
  Li  Li2  1  0.99497290  0.99752726  0.49829078  1
  Li  Li3  1  0.66805760  0.33403247  0.39969545  1
  Ti  Ti4  1  0.16305140  0.83138137  0.21382718  1
  Ti  Ti5  1  0.16312281  0.33171180  0.21381805  1
  Ti  Ti6  1  0.35390378  0.17696518  0.71593740  1
  Mn  Mn7  1  0.33866003  0.66934638  0.48618894  1
  Mn  Mn8  1  0.67534661  0.33766375  0.98290293  1
  Fe  Fe9  1  0.65463807  0.82736046  0.21449387  1
  Fe  Fe10  1  0.84371399  0.66266998  0.71015056  1
  Fe  Fe11  1  0.84366894  0.18099619  0.71014953  1
  O  O12  1  0.17902785  0.83732326  0.59608780  1
  O  O13  1  0.04203723  0.52103752  0.34192082  1
  O  O14  1  0.31140431  0.65572042  0.10595072  1
  O  O15  1  -0.00010124  -0.00002922  0.31278404  1
  O  O16  1  0.01932898  0.00966164  0.80248347  1
  O  O17  1  0.17904350  0.34172669  0.59609053  1
  O  O18  1  0.46961898  0.95456613  0.34398251  1
  O  O19  1  0.46964110  0.51509940  0.34398169  1
  O  O20  1  0.30763837  0.15383648  0.11131836  1
  O  O21  1  0.66650407  0.83326667  0.59526453  1
  O  O22  1  0.52361293  0.47820933  0.84381854  1
  O  O23  1  0.52355871  0.04539841  0.84382776  1
  O  O24  1  0.65254705  0.32627333  0.60159901  1
  O  O25  1  0.83288547  0.66686810  0.10395580  1
  O  O26  1  0.97925139  0.48959718  0.83389533  1
  O  O27  1  0.83289224  0.16608073  0.10396015  1
