# generated using pymatgen
data_Ta3InO9
_symmetry_space_group_name_H-M   'P 1'
_cell_length_a   5.19664371
_cell_length_b   7.49052997
_cell_length_c   8.37167919
_cell_angle_alpha   90.00000000
_cell_angle_beta   92.23621757
_cell_angle_gamma   90.00000000
_symmetry_Int_Tables_number   1
_chemical_formula_structural   Ta3InO9
_chemical_formula_sum   'Ta6 In2 O18'
_cell_volume   325.62459665
_cell_formula_units_Z   2
loop_
 _symmetry_equiv_pos_site_id
 _symmetry_equiv_pos_as_xyz
  1  'x, y, z'
loop_
 _atom_site_type_symbol
 _atom_site_label
 _atom_site_symmetry_multiplicity
 _atom_site_fract_x
 _atom_site_fract_y
 _atom_site_fract_z
 _atom_site_occupancy
  Ta  Ta0  1  0.00000000  0.00000000  0.00000000  1
  Ta  Ta1  1  0.00000000  0.50000000  0.00000000  1
  Ta  Ta2  1  0.47070637  0.50664299  0.69482177  1
  Ta  Ta3  1  0.47070637  0.99335701  0.69482177  1
  Ta  Ta4  1  0.52929363  0.00664299  0.30517823  1
  Ta  Ta5  1  0.52929363  0.49335701  0.30517823  1
  In  In6  1  0.02855669  0.75000000  0.44030949  1
  In  In7  1  0.97144331  0.25000000  0.55969051  1
  O  O8  1  0.10014517  0.75000000  0.97524549  1
  O  O9  1  0.14916819  0.06811925  0.78578854  1
  O  O10  1  0.14916819  0.43188075  0.78578854  1
  O  O11  1  0.25493334  0.05076997  0.47146567  1
  O  O12  1  0.25493334  0.44923003  0.47146567  1
  O  O13  1  0.32818887  0.75000000  0.65058170  1
  O  O14  1  0.32931241  0.05497778  0.12096028  1
  O  O15  1  0.32931241  0.44502222  0.12096028  1
  O  O16  1  0.40088830  0.75000000  0.31931912  1
  O  O17  1  0.59911170  0.25000000  0.68068088  1
  O  O18  1  0.67068759  0.94502222  0.87903972  1
  O  O19  1  0.67068759  0.55497778  0.87903972  1
  O  O20  1  0.67181113  0.25000000  0.34941830  1
  O  O21  1  0.74506666  0.94923003  0.52853433  1
  O  O22  1  0.74506666  0.55076997  0.52853433  1
  O  O23  1  0.85083181  0.93188075  0.21421146  1
  O  O24  1  0.85083181  0.56811925  0.21421146  1
  O  O25  1  0.89985483  0.25000000  0.02475451  1
