# generated using pymatgen
data_LiZnFe7O12
_symmetry_space_group_name_H-M   'P 1'
_cell_length_a   6.03899070
_cell_length_b   6.03899070
_cell_length_c   15.96359453
_cell_angle_alpha   78.86946624
_cell_angle_beta   79.29106552
_cell_angle_gamma   119.95042771
_symmetry_Int_Tables_number   1
_chemical_formula_structural   LiZnFe7O12
_chemical_formula_sum   'Li2 Zn2 Fe14 O24'
_cell_volume   466.88588285
_cell_formula_units_Z   2
loop_
 _symmetry_equiv_pos_site_id
 _symmetry_equiv_pos_as_xyz
  1  'x, y, z'
loop_
 _atom_site_type_symbol
 _atom_site_label
 _atom_site_symmetry_multiplicity
 _atom_site_fract_x
 _atom_site_fract_y
 _atom_site_fract_z
 _atom_site_occupancy
  Li  Li0  1  0.24848081  0.24941407  0.75105306  1
  Li  Li1  1  0.25190553  0.91798858  0.41505344  1
  Zn  Zn2  1  0.62331622  0.29285479  0.04191450  1
  Zn  Zn3  1  0.62042177  0.95921347  0.21018288  1
  Fe  Fe4  1  0.00224396  0.00096504  0.99839550  1
  Fe  Fe5  1  0.61980657  0.45247761  0.20857292  1
  Fe  Fe6  1  0.24164470  0.58804301  0.08515615  1
  Fe  Fe7  1  0.62466121  0.61729044  0.37902418  1
  Fe  Fe8  1  0.62002637  0.29668658  0.54164353  1
  Fe  Fe9  1  0.00511079  0.32494688  0.33497067  1
  Fe  Fe10  1  0.13037656  0.96304760  0.20857292  1
  Fe  Fe11  1  0.13735125  0.29885453  0.54017275  1
  Fe  Fe12  1  0.62080097  0.78230425  0.54017275  1
  Fe  Fe13  1  0.62586341  0.12299588  0.87311170  1
  Fe  Fe14  1  0.62113274  0.95442784  0.71222021  1
  Fe  Fe15  1  0.62572236  0.62867791  0.87279937  1
  Fe  Fe16  1  0.00118598  0.66937111  0.66472095  1
  Fe  Fe17  1  0.13078072  0.62791319  0.87311170  1
  O  O18  1  0.87076275  0.01788157  0.29281206  1
  O  O19  1  0.85877464  0.37671877  0.12623121  1
  O  O20  1  0.37258153  0.36889058  0.12926395  1
  O  O21  1  0.38270946  0.06263939  0.27732607  1
  O  O22  1  0.86829219  0.19776813  0.46696984  1
  O  O23  1  0.87096378  0.54991183  0.28956220  1
  O  O24  1  0.87207707  0.86696155  0.13048019  1
  O  O25  1  0.39649430  0.54361413  0.29281206  1
  O  O26  1  0.86713134  0.35912470  0.62330689  1
  O  O27  1  0.84326952  0.68711053  0.46325786  1
  O  O28  1  0.37081981  0.88876294  0.12623121  1
  O  O29  1  0.38637475  0.23021576  0.46325786  1
  O  O30  1  0.83761189  0.01944568  0.79668500  1
  O  O31  1  0.38805568  0.68918376  0.46138078  1
  O  O32  1  0.38556040  0.02003004  0.79720478  1
  O  O33  1  0.38402017  0.38706571  0.61445756  1
  O  O34  1  0.87404377  0.22103523  0.95246000  1
  O  O35  1  0.87061867  0.53478477  0.79729828  1
  O  O36  1  0.86796066  0.88613635  0.62295150  1
  O  O37  1  0.39619830  0.22371935  0.95136644  1
  O  O38  1  0.39426151  0.88625488  0.62330689  1
  O  O39  1  0.87354677  0.70106782  0.95136644  1
  O  O40  1  0.38718432  0.56901911  0.79668500  1
  O  O41  1  0.37985678  0.71518166  0.95248078  1
