# generated using pymatgen
data_Gd2W4O15
_symmetry_space_group_name_H-M   'P 1'
_cell_length_a   6.91817314
_cell_length_b   9.88335697
_cell_length_c   10.87753451
_cell_angle_alpha   90.00000000
_cell_angle_beta   105.68921799
_cell_angle_gamma   90.00000000
_symmetry_Int_Tables_number   1
_chemical_formula_structural   Gd2W4O15
_chemical_formula_sum   'Gd4 W8 O30'
_cell_volume   716.03885736
_cell_formula_units_Z   2
loop_
 _symmetry_equiv_pos_site_id
 _symmetry_equiv_pos_as_xyz
  1  'x, y, z'
loop_
 _atom_site_type_symbol
 _atom_site_label
 _atom_site_symmetry_multiplicity
 _atom_site_fract_x
 _atom_site_fract_y
 _atom_site_fract_z
 _atom_site_occupancy
  Gd  Gd0  1  0.21260334  0.47622698  0.77789066  1
  Gd  Gd1  1  0.21260334  0.02377302  0.27789066  1
  Gd  Gd2  1  0.78739666  0.97622698  0.72210934  1
  Gd  Gd3  1  0.78739666  0.52377302  0.22210934  1
  W  W4  1  0.08334814  0.75619490  0.51164420  1
  W  W5  1  0.38450623  0.09601501  0.84479346  1
  W  W6  1  0.08334814  0.74380510  0.01164420  1
  W  W7  1  0.38450623  0.40398499  0.34479346  1
  W  W8  1  0.61549377  0.59601501  0.65520654  1
  W  W9  1  0.91665186  0.25619490  0.98835580  1
  W  W10  1  0.61549377  0.90398499  0.15520654  1
  W  W11  1  0.91665186  0.24380510  0.48835580  1
  O  O12  1  0.02147176  0.37379936  0.89713936  1
  O  O13  1  0.12202826  0.05706727  0.81791976  1
  O  O14  1  0.22253604  0.65302756  0.91933787  1
  O  O15  1  0.02147176  0.12620064  0.39713936  1
  O  O16  1  0.11787631  0.33270890  0.59989371  1
  O  O17  1  0.25194617  0.63486349  0.61745619  1
  O  O18  1  0.12202826  0.44293273  0.31791976  1
  O  O19  1  0.38803747  0.27762134  0.85271160  1
  O  O20  1  0.22253604  0.84697244  0.41933787  1
  O  O21  1  0.11787631  0.16729110  0.09989371  1
  O  O22  1  0.44356910  0.02823245  0.70545300  1
  O  O23  1  0.25194617  0.86513651  0.11745619  1
  O  O24  1  0.55643090  0.52823245  0.79454700  1
  O  O25  1  0.38803747  0.22237866  0.35271160  1
  O  O26  1  0.50000000  0.50000000  0.50000000  1
  O  O27  1  0.61196253  0.77762134  0.64728840  1
  O  O28  1  0.44356910  0.47176755  0.20545300  1
  O  O29  1  0.74805383  0.13486349  0.88254381  1
  O  O30  1  0.55643090  0.97176755  0.29454700  1
  O  O31  1  0.50000000  0.00000000  0.00000000  1
  O  O32  1  0.88212369  0.83270890  0.90010629  1
  O  O33  1  0.77746396  0.15302756  0.58066213  1
  O  O34  1  0.61196253  0.72237866  0.14728840  1
  O  O35  1  0.87797174  0.55706727  0.68208024  1
  O  O36  1  0.74805383  0.36513651  0.38254381  1
  O  O37  1  0.88212369  0.66729110  0.40010629  1
  O  O38  1  0.97852824  0.87379936  0.60286064  1
  O  O39  1  0.77746396  0.34697244  0.08066213  1
  O  O40  1  0.87797174  0.94293273  0.18208024  1
  O  O41  1  0.97852824  0.62620064  0.10286064  1
