# generated using pymatgen
data_Sn2IF2
_symmetry_space_group_name_H-M   'P 1'
_cell_length_a   4.36153963
_cell_length_b   6.28001610
_cell_length_c   9.48006150
_cell_angle_alpha   90.00000000
_cell_angle_beta   90.00000000
_cell_angle_gamma   110.31953769
_symmetry_Int_Tables_number   1
_chemical_formula_structural   Sn2IF2
_chemical_formula_sum   'Sn4 I2 F4'
_cell_volume   243.50525450
_cell_formula_units_Z   2
loop_
 _symmetry_equiv_pos_site_id
 _symmetry_equiv_pos_as_xyz
  1  'x, y, z'
loop_
 _atom_site_type_symbol
 _atom_site_label
 _atom_site_symmetry_multiplicity
 _atom_site_fract_x
 _atom_site_fract_y
 _atom_site_fract_z
 _atom_site_occupancy
  Sn  Sn0  1  0.37941970  0.74407736  0.08039557  1
  Sn  Sn1  1  0.62058030  0.25592264  0.58039557  1
  Sn  Sn2  1  0.36465766  0.74407736  0.41960443  1
  Sn  Sn3  1  0.63534234  0.25592264  0.91960443  1
  I  I4  1  0.05236082  0.10472164  0.25000000  1
  I  I5  1  0.94763918  0.89527836  0.75000000  1
  F  F6  1  0.78345289  0.56999309  0.06733367  1
  F  F7  1  0.21654711  0.43000691  0.56733367  1
  F  F8  1  0.78654020  0.56999309  0.43266633  1
  F  F9  1  0.21345980  0.43000691  0.93266633  1
