# generated using pymatgen
data_Li2CuNiO4
_symmetry_space_group_name_H-M   'P 1'
_cell_length_a   5.03192083
_cell_length_b   10.13750176
_cell_length_c   9.70360585
_cell_angle_alpha   16.82388319
_cell_angle_beta   29.18824593
_cell_angle_gamma   33.31580752
_symmetry_Int_Tables_number   1
_chemical_formula_structural   Li2CuNiO4
_chemical_formula_sum   'Li2 Cu1 Ni1 O4'
_cell_volume   69.86796922
_cell_formula_units_Z   1
loop_
 _symmetry_equiv_pos_site_id
 _symmetry_equiv_pos_as_xyz
  1  'x, y, z'
loop_
 _atom_site_type_symbol
 _atom_site_label
 _atom_site_symmetry_multiplicity
 _atom_site_fract_x
 _atom_site_fract_y
 _atom_site_fract_z
 _atom_site_occupancy
  Li  Li0  1  0.00000000  0.00000000  0.00000000  1
  Li  Li1  1  0.00000000  0.50000000  0.00000000  1
  Cu  Cu2  1  0.50000000  0.00000000  0.50000000  1
  Ni  Ni3  1  0.50000000  0.50000000  0.50000000  1
  O  O4  1  0.24833012  1.00000000  0.24467755  1
  O  O5  1  0.20645154  0.50000000  0.25469252  1
  O  O6  1  0.75166988  0.00000000  0.75532245  1
  O  O7  1  0.79354846  0.50000000  0.74530748  1
