# generated using pymatgen
data_Dy2Cu2O5
_symmetry_space_group_name_H-M   'P 1'
_cell_length_a   12.59045865
_cell_length_b   10.90047164
_cell_length_c   3.53331150
_cell_angle_alpha   90.00000000
_cell_angle_beta   90.00000000
_cell_angle_gamma   90.00000000
_symmetry_Int_Tables_number   1
_chemical_formula_structural   Dy2Cu2O5
_chemical_formula_sum   'Dy8 Cu8 O20'
_cell_volume   484.91851587
_cell_formula_units_Z   4
loop_
 _symmetry_equiv_pos_site_id
 _symmetry_equiv_pos_as_xyz
  1  'x, y, z'
loop_
 _atom_site_type_symbol
 _atom_site_label
 _atom_site_symmetry_multiplicity
 _atom_site_fract_x
 _atom_site_fract_y
 _atom_site_fract_z
 _atom_site_occupancy
  Dy  Dy0  1  0.00113419  0.20891119  0.21725891  1
  Dy  Dy1  1  0.00113419  0.70891119  0.28274109  1
  Dy  Dy2  1  0.32887159  0.04202887  0.22190484  1
  Dy  Dy3  1  0.32887159  0.54202887  0.27809516  1
  Dy  Dy4  1  0.50113419  0.29108881  0.71725891  1
  Dy  Dy5  1  0.50113419  0.79108881  0.78274109  1
  Dy  Dy6  1  0.82887159  0.45797113  0.72190484  1
  Dy  Dy7  1  0.82887159  0.95797113  0.77809516  1
  Cu  Cu8  1  0.11245819  0.48998363  0.83925285  1
  Cu  Cu9  1  0.11245819  0.98998363  0.66074715  1
  Cu  Cu10  1  0.21650551  0.26189819  0.65416086  1
  Cu  Cu11  1  0.21650551  0.76189819  0.84583914  1
  Cu  Cu12  1  0.61245819  0.01001637  0.33925285  1
  Cu  Cu13  1  0.61245819  0.51001637  0.16074715  1
  Cu  Cu14  1  0.71650551  0.23810181  0.15416086  1
  Cu  Cu15  1  0.71650551  0.73810181  0.34583914  1
  O  O16  1  0.06596984  0.32415790  0.71391538  1
  O  O17  1  0.06596984  0.82415790  0.78608462  1
  O  O18  1  0.16481282  0.12513695  0.33972354  1
  O  O19  1  0.16481282  0.62513695  0.16027646  1
  O  O20  1  0.26220849  0.42795993  0.77641582  1
  O  O21  1  0.26220849  0.92795993  0.72358418  1
  O  O22  1  0.35518776  0.17391423  0.72406593  1
  O  O23  1  0.35518776  0.67391423  0.77593407  1
  O  O24  1  0.47335160  0.42269386  0.22373724  1
  O  O25  1  0.47335160  0.92269386  0.27626276  1
  O  O26  1  0.56596984  0.17584210  0.21391538  1
  O  O27  1  0.56596984  0.67584210  0.28608462  1
  O  O28  1  0.66481282  0.37486305  0.83972354  1
  O  O29  1  0.66481282  0.87486305  0.66027646  1
  O  O30  1  0.76220849  0.07204007  0.27641582  1
  O  O31  1  0.76220849  0.57204007  0.22358418  1
  O  O32  1  0.85518776  0.32608577  0.22406593  1
  O  O33  1  0.85518776  0.82608577  0.27593407  1
  O  O34  1  0.97335160  0.07730614  0.72373724  1
  O  O35  1  0.97335160  0.57730614  0.77626276  1
