# generated using pymatgen
data_Li3Mn3TeO8
_symmetry_space_group_name_H-M   'P 1'
_cell_length_a   10.50401962
_cell_length_b   10.51111452
_cell_length_c   14.78430003
_cell_angle_alpha   20.27341897
_cell_angle_beta   20.28127810
_cell_angle_gamma   34.93051677
_symmetry_Int_Tables_number   1
_chemical_formula_structural   Li3Mn3TeO8
_chemical_formula_sum   'Li3 Mn3 Te1 O8'
_cell_volume   169.79444686
_cell_formula_units_Z   1
loop_
 _symmetry_equiv_pos_site_id
 _symmetry_equiv_pos_as_xyz
  1  'x, y, z'
loop_
 _atom_site_type_symbol
 _atom_site_label
 _atom_site_symmetry_multiplicity
 _atom_site_fract_x
 _atom_site_fract_y
 _atom_site_fract_z
 _atom_site_occupancy
  Li  Li0  1  0.99999798  0.49999926  0.50000122  1
  Li  Li1  1  0.49999928  0.99999748  0.50000133  1
  Li  Li2  1  0.49999815  0.49999819  0.50000148  1
  Mn  Mn3  1  0.00000057  0.49999881  0.00000020  1
  Mn  Mn4  1  0.49999970  0.00000798  0.99999692  1
  Mn  Mn5  1  0.50001285  0.50000293  0.99999502  1
  Te  Te6  1  -0.00002345  -0.00001552  0.00002311  1
  O  O7  1  0.99907390  0.00345436  0.26538675  1
  O  O8  1  0.00002904  0.56065259  0.21652042  1
  O  O9  1  0.56002243  0.99952044  0.21711985  1
  O  O10  1  0.00093075  0.99654683  0.73460985  1
  O  O11  1  0.43950295  0.43917601  0.33768234  1
  O  O12  1  0.99997312  0.43934635  0.78347748  1
  O  O13  1  0.43997888  0.00048170  0.78287646  1
  O  O14  1  0.56050285  0.56082958  0.66230756  1
