# generated using pymatgen
data_Mn5Cr3O16
_symmetry_space_group_name_H-M   'P 1'
_cell_length_a   5.81890340
_cell_length_b   5.80857060
_cell_length_c   8.88540448
_cell_angle_alpha   89.99750634
_cell_angle_beta   90.42433479
_cell_angle_gamma   119.94096981
_symmetry_Int_Tables_number   1
_chemical_formula_structural   Mn5Cr3O16
_chemical_formula_sum   'Mn5 Cr3 O16'
_cell_volume   260.23188511
_cell_formula_units_Z   1
loop_
 _symmetry_equiv_pos_site_id
 _symmetry_equiv_pos_as_xyz
  1  'x, y, z'
loop_
 _atom_site_type_symbol
 _atom_site_label
 _atom_site_symmetry_multiplicity
 _atom_site_fract_x
 _atom_site_fract_y
 _atom_site_fract_z
 _atom_site_occupancy
  Mn  Mn0  1  0.33613544  0.66809036  0.48359214  1
  Mn  Mn1  1  0.65834114  0.82916562  0.21431181  1
  Mn  Mn2  1  0.66695612  0.33347590  0.98209130  1
  Mn  Mn3  1  0.82834956  0.66278952  0.71150851  1
  Mn  Mn4  1  0.82835028  0.16558014  0.71150690  1
  Cr  Cr5  1  0.16085791  0.83207622  0.20401514  1
  Cr  Cr6  1  0.16085453  0.32882591  0.20401517  1
  Cr  Cr7  1  0.32623970  0.16311489  0.70121429  1
  O  O8  1  0.17192214  0.83399250  0.60545621  1
  O  O9  1  0.05290492  0.52647046  0.33823439  1
  O  O10  1  0.34001257  0.67003849  0.09749771  1
  O  O11  1  0.99292307  0.99647742  0.31666008  1
  O  O12  1  0.99347498  0.99672148  0.81674367  1
  O  O13  1  0.17190960  0.33796124  0.60545768  1
  O  O14  1  0.47675567  0.95566575  0.34163078  1
  O  O15  1  0.47674387  0.52110210  0.34165011  1
  O  O16  1  0.34518542  0.17261710  0.10888739  1
  O  O17  1  0.66839223  0.83422421  0.60059850  1
  O  O18  1  0.52213314  0.47669807  0.83958441  1
  O  O19  1  0.52214864  0.04545787  0.83959404  1
  O  O20  1  0.67314708  0.33660580  0.59961208  1
  O  O21  1  0.83456200  0.66260349  0.10509763  1
  O  O22  1  0.95710945  0.47853662  0.84171444  1
  O  O23  1  0.83458953  0.17190683  0.10504761  1
