# generated using pymatgen
data_Fe5Te(PO4)6
_symmetry_space_group_name_H-M   'P 1'
_cell_length_a   8.55911911
_cell_length_b   8.74380073
_cell_length_c   8.74380066
_cell_angle_alpha   59.99999365
_cell_angle_beta   59.28362785
_cell_angle_gamma   59.28362759
_symmetry_Int_Tables_number   1
_chemical_formula_structural   Fe5Te(PO4)6
_chemical_formula_sum   'Fe5 Te1 P6 O24'
_cell_volume   457.64230418
_cell_formula_units_Z   1
loop_
 _symmetry_equiv_pos_site_id
 _symmetry_equiv_pos_as_xyz
  1  'x, y, z'
loop_
 _atom_site_type_symbol
 _atom_site_label
 _atom_site_symmetry_multiplicity
 _atom_site_fract_x
 _atom_site_fract_y
 _atom_site_fract_z
 _atom_site_occupancy
  Fe  Fe0  1  0.00768352  0.99743849  0.99743849  1
  Fe  Fe1  1  0.05669233  0.64776956  0.64776956  1
  Fe  Fe2  1  0.49525714  0.50158129  0.50158129  1
  Fe  Fe3  1  0.43188930  0.85603690  0.85603690  1
  Fe  Fe4  1  0.93951269  0.35349544  0.35349544  1
  Te  Te5  1  0.56334350  0.14555250  0.14555250  1
  P  P6  1  0.24819347  0.25166615  0.55500703  1
  P  P7  1  0.24819347  0.94513335  0.25166615  1
  P  P8  1  0.24819347  0.55500703  0.94513335  1
  P  P9  1  0.74623887  0.46229886  0.04767430  1
  P  P10  1  0.74623887  0.04767430  0.74378797  1
  P  P11  1  0.74623887  0.74378797  0.46229886  1
  O  O12  1  0.07572229  0.10686646  0.31767387  1
  O  O13  1  0.07572229  0.49973738  0.10686646  1
  O  O14  1  0.07572229  0.31767387  0.49973738  1
  O  O15  1  0.22331970  0.09495381  0.74749348  1
  O  O16  1  0.44064888  0.18207964  0.40490040  1
  O  O17  1  0.27534283  0.40965719  0.56803313  1
  O  O18  1  0.22331970  0.93423400  0.09495381  1
  O  O19  1  0.27534283  0.74696685  0.40965719  1
  O  O20  1  0.56515103  0.61275858  0.00331754  1
  O  O21  1  0.27534283  0.56803313  0.74696685  1
  O  O22  1  0.78226057  0.26188098  0.05766485  1
  O  O23  1  0.56515103  0.00331754  0.81877285  1
  O  O24  1  0.44064888  0.97237109  0.18207964  1
  O  O25  1  0.22331970  0.74749348  0.93423400  1
  O  O26  1  0.71516998  0.44265328  0.25098765  1
  O  O27  1  0.44064888  0.40490040  0.97237109  1
  O  O28  1  0.71516998  0.25098765  0.59118810  1
  O  O29  1  0.78226057  0.05766485  0.89819359  1
  O  O30  1  0.71516998  0.59118810  0.44265328  1
  O  O31  1  0.56515103  0.81877285  0.61275858  1
  O  O32  1  0.78226057  0.89819359  0.26188098  1
  O  O33  1  0.92982755  0.66890662  0.50349702  1
  O  O34  1  0.92982755  0.50349702  0.89776882  1
  O  O35  1  0.92982755  0.89776882  0.66890662  1
