# generated using pymatgen
data_Mn3Co5O16
_symmetry_space_group_name_H-M   'P 1'
_cell_length_a   5.66822841
_cell_length_b   5.69578788
_cell_length_c   8.61146680
_cell_angle_alpha   89.99839773
_cell_angle_beta   90.65085023
_cell_angle_gamma   120.15687732
_symmetry_Int_Tables_number   1
_chemical_formula_structural   Mn3Co5O16
_chemical_formula_sum   'Mn3 Co5 O16'
_cell_volume   240.37141432
_cell_formula_units_Z   1
loop_
 _symmetry_equiv_pos_site_id
 _symmetry_equiv_pos_as_xyz
  1  'x, y, z'
loop_
 _atom_site_type_symbol
 _atom_site_label
 _atom_site_symmetry_multiplicity
 _atom_site_fract_x
 _atom_site_fract_y
 _atom_site_fract_z
 _atom_site_occupancy
  Mn  Mn0  1  0.66506091  0.83253256  0.21088634  1
  Mn  Mn1  1  0.83268874  0.66465570  0.71059192  1
  Mn  Mn2  1  0.83265818  0.16803116  0.71058640  1
  Co  Co3  1  0.16750780  0.83141807  0.20681945  1
  Co  Co4  1  0.33578007  0.66790130  0.48359116  1
  Co  Co5  1  0.16751123  0.33612190  0.20683303  1
  Co  Co6  1  0.33476489  0.16740367  0.70565620  1
  Co  Co7  1  0.66654476  0.33327944  0.98615565  1
  O  O8  1  0.17250809  0.83725929  0.60134453  1
  O  O9  1  0.04586752  0.52297148  0.33745126  1
  O  O10  1  0.32859701  0.66428392  0.09679125  1
  O  O11  1  0.00698096  0.00351332  0.31856817  1
  O  O12  1  0.00403126  0.00202608  0.82009980  1
  O  O13  1  0.17248726  0.33527406  0.60133882  1
  O  O14  1  0.47400051  0.95823569  0.34230324  1
  O  O15  1  0.47402141  0.51577180  0.34231106  1
  O  O16  1  0.33364764  0.16682044  0.10433363  1
  O  O17  1  0.65709828  0.82855385  0.59878885  1
  O  O18  1  0.51563840  0.47244773  0.84223169  1
  O  O19  1  0.51566090  0.04322954  0.84224835  1
  O  O20  1  0.66586016  0.33295426  0.59587913  1
  O  O21  1  0.83585104  0.66304746  0.10221641  1
  O  O22  1  0.95937084  0.47965918  0.84646826  1
  O  O23  1  0.83586013  0.17280809  0.10222539  1
