# generated using pymatgen
data_Mn3Ni3(TeO8)2
_symmetry_space_group_name_H-M   'P 1'
_cell_length_a   5.88194490
_cell_length_b   5.81191621
_cell_length_c   9.19070070
_cell_angle_alpha   89.99950332
_cell_angle_beta   91.70385820
_cell_angle_gamma   119.60821655
_symmetry_Int_Tables_number   1
_chemical_formula_structural   Mn3Ni3(TeO8)2
_chemical_formula_sum   'Mn3 Ni3 Te2 O16'
_cell_volume   273.00244722
_cell_formula_units_Z   1
loop_
 _symmetry_equiv_pos_site_id
 _symmetry_equiv_pos_as_xyz
  1  'x, y, z'
loop_
 _atom_site_type_symbol
 _atom_site_label
 _atom_site_symmetry_multiplicity
 _atom_site_fract_x
 _atom_site_fract_y
 _atom_site_fract_z
 _atom_site_occupancy
  Mn  Mn0  1  0.17166259  0.83399494  0.21131067  1
  Mn  Mn1  1  0.17167245  0.33768411  0.21130611  1
  Mn  Mn2  1  0.33707735  0.16853844  0.71331192  1
  Ni  Ni3  1  0.66204330  0.83104369  0.21078730  1
  Ni  Ni4  1  0.83248448  0.66380213  0.71022277  1
  Ni  Ni5  1  0.83249191  0.16870228  0.71023039  1
  Te  Te6  1  0.34299738  0.67150269  0.49022761  1
  Te  Te7  1  0.67277553  0.33639871  0.98486450  1
  O  O8  1  0.17874430  0.83381829  0.59619403  1
  O  O9  1  0.03986441  0.51992521  0.33663131  1
  O  O10  1  0.31394458  0.65698783  0.10782616  1
  O  O11  1  0.01581465  0.00791346  0.30514341  1
  O  O12  1  0.00848341  0.00424661  0.80272074  1
  O  O13  1  0.17874267  0.34492921  0.59619620  1
  O  O14  1  0.46740294  0.96169272  0.34637536  1
  O  O15  1  0.46742122  0.50575282  0.34636965  1
  O  O16  1  0.34215048  0.17108019  0.10174476  1
  O  O17  1  0.67537605  0.83770081  0.59204719  1
  O  O18  1  0.50112252  0.46905082  0.84673017  1
  O  O19  1  0.50114063  0.03208463  0.84672994  1
  O  O20  1  0.65731810  0.32866616  0.61414084  1
  O  O21  1  0.83539557  0.66319337  0.09520511  1
  O  O22  1  0.95846930  0.47926039  0.84420324  1
  O  O23  1  0.83540320  0.17223149  0.09520063  1
