# generated using pymatgen
data_MnV4CrO12
_symmetry_space_group_name_H-M   'P 1'
_cell_length_a   6.83177072
_cell_length_b   6.83177118
_cell_length_c   5.90292052
_cell_angle_alpha   74.87500112
_cell_angle_beta   105.12500797
_cell_angle_gamma   95.49210986
_symmetry_Int_Tables_number   1
_chemical_formula_structural   MnV4CrO12
_chemical_formula_sum   'Mn1 V4 Cr1 O12'
_cell_volume   256.63754199
_cell_formula_units_Z   1
loop_
 _symmetry_equiv_pos_site_id
 _symmetry_equiv_pos_as_xyz
  1  'x, y, z'
loop_
 _atom_site_type_symbol
 _atom_site_label
 _atom_site_symmetry_multiplicity
 _atom_site_fract_x
 _atom_site_fract_y
 _atom_site_fract_z
 _atom_site_occupancy
  Mn  Mn0  1  0.91519750  0.91519750  0.25000000  1
  V  V1  1  0.20807253  0.60708167  0.76551275  1
  V  V2  1  0.38969849  0.79348523  0.25978677  1
  V  V3  1  0.60708167  0.20807253  0.73448725  1
  V  V4  1  0.79348523  0.38969849  0.24021323  1
  Cr  Cr5  1  0.08349437  0.08349437  0.75000000  1
  O  O6  1  0.03919321  0.80503122  0.65805279  1
  O  O7  1  0.09293003  0.37371648  0.78915911  1
  O  O8  1  0.19483186  0.96603268  0.12683558  1
  O  O9  1  0.36117381  0.64590922  0.55401621  1
  O  O10  1  0.37371648  0.09293003  0.71084089  1
  O  O11  1  0.35930890  0.63157678  0.05278928  1
  O  O12  1  0.64590922  0.36117381  0.94598379  1
  O  O13  1  0.61699683  0.91626921  0.28459416  1
  O  O14  1  0.63157678  0.35930890  0.44721072  1
  O  O15  1  0.80503122  0.03919321  0.84194721  1
  O  O16  1  0.91626921  0.61699683  0.21540584  1
  O  O17  1  0.96603268  0.19483186  0.37316442  1
