# generated using pymatgen
data_FeP2WO8
_symmetry_space_group_name_H-M   'P 1'
_cell_length_a   10.27465310
_cell_length_b   6.06267303
_cell_length_c   4.99416469
_cell_angle_alpha   90.00000000
_cell_angle_beta   92.73458647
_cell_angle_gamma   90.00000000
_symmetry_Int_Tables_number   1
_chemical_formula_structural   FeP2WO8
_chemical_formula_sum   'Fe2 P4 W2 O16'
_cell_volume   310.74156088
_cell_formula_units_Z   2
loop_
 _symmetry_equiv_pos_site_id
 _symmetry_equiv_pos_as_xyz
  1  'x, y, z'
loop_
 _atom_site_type_symbol
 _atom_site_label
 _atom_site_symmetry_multiplicity
 _atom_site_fract_x
 _atom_site_fract_y
 _atom_site_fract_z
 _atom_site_occupancy
  Fe  Fe0  1  0.27663277  0.25000000  0.95826135  1
  Fe  Fe1  1  0.72336723  0.75000000  0.04173865  1
  P  P2  1  0.09289157  0.25000000  0.41961242  1
  P  P3  1  0.40379611  0.75000000  0.90099185  1
  P  P4  1  0.59620389  0.25000000  0.09900815  1
  P  P5  1  0.90710843  0.75000000  0.58038758  1
  W  W6  1  0.22071357  0.75000000  0.45459106  1
  W  W7  1  0.77928643  0.25000000  0.54540894  1
  O  O8  1  0.05066787  0.75000000  0.67713218  1
  O  O9  1  0.11176276  0.25000000  0.72227533  1
  O  O10  1  0.16569963  0.04779445  0.28630888  1
  O  O11  1  0.16569963  0.45220555  0.28630888  1
  O  O12  1  0.32896246  0.94489127  0.74393516  1
  O  O13  1  0.32896246  0.55510873  0.74393516  1
  O  O14  1  0.37609974  0.75000000  0.19883025  1
  O  O15  1  0.45210267  0.25000000  0.14315543  1
  O  O16  1  0.54789733  0.75000000  0.85684457  1
  O  O17  1  0.62390026  0.25000000  0.80116975  1
  O  O18  1  0.67103754  0.05510873  0.25606484  1
  O  O19  1  0.67103754  0.44489127  0.25606484  1
  O  O20  1  0.83430037  0.54779445  0.71369112  1
  O  O21  1  0.83430037  0.95220555  0.71369112  1
  O  O22  1  0.88823724  0.75000000  0.27772467  1
  O  O23  1  0.94933213  0.25000000  0.32286782  1
