# generated using pymatgen
data_Li2MnH4(SO5)2
_symmetry_space_group_name_H-M   'P 1'
_cell_length_a   5.67962750
_cell_length_b   7.43265017
_cell_length_c   11.11412522
_cell_angle_alpha   69.04480717
_cell_angle_beta   68.96297670
_cell_angle_gamma   69.88321919
_symmetry_Int_Tables_number   1
_chemical_formula_structural   Li2MnH4(SO5)2
_chemical_formula_sum   'Li4 Mn2 H8 S4 O20'
_cell_volume   396.24230306
_cell_formula_units_Z   2
loop_
 _symmetry_equiv_pos_site_id
 _symmetry_equiv_pos_as_xyz
  1  'x, y, z'
loop_
 _atom_site_type_symbol
 _atom_site_label
 _atom_site_symmetry_multiplicity
 _atom_site_fract_x
 _atom_site_fract_y
 _atom_site_fract_z
 _atom_site_occupancy
  Li  Li0  1  0.22281627  0.23047484  0.62368102  1
  Li  Li1  1  0.72644084  0.26844191  0.08533241  1
  Li  Li2  1  0.27355916  0.73155809  0.91466759  1
  Li  Li3  1  0.77718373  0.76952516  0.37631898  1
  Mn  Mn4  1  0.24546803  0.02788138  0.24811083  1
  Mn  Mn5  1  0.75453197  0.97211862  0.75188917  1
  H  H6  1  0.22254822  0.41651347  0.18516947  1
  H  H7  1  0.37340379  0.31429700  0.29912011  1
  H  H8  1  0.24411479  0.62823481  0.37203672  1
  H  H9  1  0.29638517  0.68782919  0.21508491  1
  H  H10  1  0.70361483  0.31217081  0.78491509  1
  H  H11  1  0.75588521  0.37176519  0.62796328  1
  H  H12  1  0.62659621  0.68570300  0.70087989  1
  H  H13  1  0.77745178  0.58348653  0.81483053  1
  S  S14  1  0.22693998  0.23784622  0.92596900  1
  S  S15  1  0.29104032  0.77235793  0.56482045  1
  S  S16  1  0.70895968  0.22764207  0.43517955  1
  S  S17  1  0.77306002  0.76215378  0.07403100  1
  O  O18  1  0.14593769  0.10358388  0.06365806  1
  O  O19  1  0.36442662  0.30260900  0.21329896  1
  O  O20  1  0.98382108  0.38528277  0.90148705  1
  O  O21  1  0.16992777  0.72252851  0.29790937  1
  O  O22  1  0.13295294  0.64989317  0.56966976  1
  O  O23  1  0.16896328  0.87124596  0.67772031  1
  O  O24  1  0.33774464  0.11619935  0.82564178  1
  O  O25  1  0.43842882  0.34527742  0.42629214  1
  O  O26  1  0.32834182  0.93192769  0.43534849  1
  O  O27  1  0.57474635  0.66917731  0.08018578  1
  O  O28  1  0.42525365  0.33082269  0.91981422  1
  O  O29  1  0.67165818  0.06807231  0.56465151  1
  O  O30  1  0.56157118  0.65472258  0.57370786  1
  O  O31  1  0.66225536  0.88380065  0.17435822  1
  O  O32  1  0.83103672  0.12875404  0.32227969  1
  O  O33  1  0.86704706  0.35010683  0.43033024  1
  O  O34  1  0.83007223  0.27747149  0.70209063  1
  O  O35  1  0.01617892  0.61471723  0.09851295  1
  O  O36  1  0.63557338  0.69739100  0.78670104  1
  O  O37  1  0.85406231  0.89641612  0.93634194  1
