# generated using pymatgen
data_LiVAsCO7
_symmetry_space_group_name_H-M   'P 1'
_cell_length_a   8.85712981
_cell_length_b   6.48595753
_cell_length_c   5.31513571
_cell_angle_alpha   90.00000000
_cell_angle_beta   85.80100108
_cell_angle_gamma   90.00000000
_symmetry_Int_Tables_number   1
_chemical_formula_structural   LiVAsCO7
_chemical_formula_sum   'Li2 V2 As2 C2 O14'
_cell_volume   304.51882701
_cell_formula_units_Z   2
loop_
 _symmetry_equiv_pos_site_id
 _symmetry_equiv_pos_as_xyz
  1  'x, y, z'
loop_
 _atom_site_type_symbol
 _atom_site_label
 _atom_site_symmetry_multiplicity
 _atom_site_fract_x
 _atom_site_fract_y
 _atom_site_fract_z
 _atom_site_occupancy
  Li  Li0  1  0.18238341  0.53899835  0.22681230  1
  Li  Li1  1  0.81761659  0.03899835  0.77318770  1
  V  V2  1  0.32543617  0.75432597  0.79781587  1
  V  V3  1  0.67456383  0.25432597  0.20218413  1
  As  As4  1  0.43510992  0.24996093  0.71696295  1
  As  As5  1  0.56489008  0.74996093  0.28303705  1
  C  C6  1  0.05913800  0.74479655  0.72568206  1
  C  C7  1  0.94086200  0.24479655  0.27431794  1
  O  O8  1  0.07293145  0.28414440  0.31172034  1
  O  O9  1  0.11563513  0.73657118  0.95332806  1
  O  O10  1  0.17128284  0.71695569  0.54567937  1
  O  O11  1  0.32128351  0.03795760  0.79158864  1
  O  O12  1  0.32317625  0.44976206  0.82330507  1
  O  O13  1  0.39780361  0.73752762  0.14164275  1
  O  O14  1  0.47420782  0.24684865  0.39544618  1
  O  O15  1  0.52579218  0.74684865  0.60455382  1
  O  O16  1  0.60219639  0.23752762  0.85835725  1
  O  O17  1  0.67682375  0.94976206  0.17669493  1
  O  O18  1  0.67871649  0.53795760  0.20841136  1
  O  O19  1  0.82871716  0.21695569  0.45432063  1
  O  O20  1  0.88436487  0.23657118  0.04667194  1
  O  O21  1  0.92706855  0.78414440  0.68827966  1
