# generated using pymatgen
data_Ni7(PO4)6
_symmetry_space_group_name_H-M   'P 1'
_cell_length_a   6.36562909
_cell_length_b   7.94785061
_cell_length_c   9.37397920
_cell_angle_alpha   104.90558962
_cell_angle_beta   71.89391866
_cell_angle_gamma   78.84044655
_symmetry_Int_Tables_number   1
_chemical_formula_structural   Ni7(PO4)6
_chemical_formula_sum   'Ni7 P6 O24'
_cell_volume   415.84905977
_cell_formula_units_Z   1
loop_
 _symmetry_equiv_pos_site_id
 _symmetry_equiv_pos_as_xyz
  1  'x, y, z'
loop_
 _atom_site_type_symbol
 _atom_site_label
 _atom_site_symmetry_multiplicity
 _atom_site_fract_x
 _atom_site_fract_y
 _atom_site_fract_z
 _atom_site_occupancy
  Ni  Ni0  1  0.95513082  0.71369979  0.51863808  1
  Ni  Ni1  1  0.72982590  0.79904973  0.28208675  1
  Ni  Ni2  1  0.38497173  0.54338820  0.88984871  1
  Ni  Ni3  1  0.61502827  0.45661180  0.11015129  1
  Ni  Ni4  1  0.27017410  0.20095027  0.71791325  1
  Ni  Ni5  1  0.04486918  0.28630021  0.48136192  1
  Ni  Ni6  1  0.00000000  0.00000000  0.00000000  1
  P  P7  1  0.90592480  0.59595731  0.83370597  1
  P  P8  1  0.77201623  0.14246766  0.77096941  1
  P  P9  1  0.40310240  0.76732263  0.62643036  1
  P  P10  1  0.59689760  0.23267737  0.37356964  1
  P  P11  1  0.22798377  0.85753234  0.22903059  1
  P  P12  1  0.09407520  0.40404269  0.16629403  1
  O  O13  1  0.88452391  0.79183503  0.92021123  1
  O  O14  1  0.92994642  0.55434026  0.65715861  1
  O  O15  1  0.79095200  0.94068007  0.70681586  1
  O  O16  1  0.98339483  0.18718592  0.66632578  1
  O  O17  1  0.77548432  0.18656399  0.94242953  1
  O  O18  1  0.68983683  0.54178643  0.91760170  1
  O  O19  1  0.87698372  0.53205782  0.16290339  1
  O  O20  1  0.63191510  0.76697607  0.50109905  1
  O  O21  1  0.74040203  0.28521538  0.47289014  1
  O  O22  1  0.54426088  0.25672421  0.77057294  1
  O  O23  1  0.45813692  0.63287394  0.70820705  1
  O  O24  1  0.27615393  0.96074585  0.75692051  1
  O  O25  1  0.72384607  0.03925415  0.24307949  1
  O  O26  1  0.54186308  0.36712606  0.29179295  1
  O  O27  1  0.45573912  0.74327579  0.22942706  1
  O  O28  1  0.25959797  0.71478462  0.52710986  1
  O  O29  1  0.36808490  0.23302393  0.49890095  1
  O  O30  1  0.12301628  0.46794218  0.83709661  1
  O  O31  1  0.31016317  0.45821357  0.08239830  1
  O  O32  1  0.22451568  0.81343601  0.05757047  1
  O  O33  1  0.01660517  0.81281408  0.33367422  1
  O  O34  1  0.20904800  0.05931993  0.29318414  1
  O  O35  1  0.07005358  0.44565974  0.34284139  1
  O  O36  1  0.11547609  0.20816497  0.07978877  1
