# generated using pymatgen
data_Li4Y3MnO8
_symmetry_space_group_name_H-M   'P 1'
_cell_length_a   6.05758597
_cell_length_b   6.05756998
_cell_length_c   12.11546136
_cell_angle_alpha   138.16966347
_cell_angle_beta   138.17044735
_cell_angle_gamma   60.63801860
_symmetry_Int_Tables_number   1
_chemical_formula_structural   Li4Y3MnO8
_chemical_formula_sum   'Li4 Y3 Mn1 O8'
_cell_volume   195.62143856
_cell_formula_units_Z   1
loop_
 _symmetry_equiv_pos_site_id
 _symmetry_equiv_pos_as_xyz
  1  'x, y, z'
loop_
 _atom_site_type_symbol
 _atom_site_label
 _atom_site_symmetry_multiplicity
 _atom_site_fract_x
 _atom_site_fract_y
 _atom_site_fract_z
 _atom_site_occupancy
  Li  Li0  1  0.25541486  0.75541011  0.75542349  1
  Li  Li1  1  0.50001945  0.49998137  0.50000073  1
  Li  Li2  1  0.24458472  0.74458705  0.24457659  1
  Li  Li3  1  0.49999110  0.50000719  -0.00000077  1
  Y  Y4  1  0.00001501  0.99998341  0.50000037  1
  Y  Y5  1  0.75712925  0.25713133  0.75713201  1
  Y  Y6  1  0.74287831  0.24286197  0.24286472  1
  Mn  Mn7  1  0.00001890  0.00002349  0.00001377  1
  O  O8  1  0.54860477  0.01851466  0.76447529  1
  O  O9  1  0.21399546  0.21392677  0.49995077  1
  O  O10  1  0.98037999  0.51045007  0.76446218  1
  O  O11  1  0.48954428  0.01961923  0.23553147  1
  O  O12  1  0.22138917  0.22150859  0.00006456  1
  O  O13  1  0.78606773  0.78599153  0.50004558  1
  O  O14  1  0.98148144  0.45140297  0.23552584  1
  O  O15  1  0.77848655  0.77860026  0.99993339  1
