# generated using pymatgen
data_Li4Mn5Sn3O16
_symmetry_space_group_name_H-M   'P 1'
_cell_length_a   6.09003347
_cell_length_b   6.13056837
_cell_length_c   9.86586315
_cell_angle_alpha   89.98172672
_cell_angle_beta   90.56344837
_cell_angle_gamma   120.10776486
_symmetry_Int_Tables_number   1
_chemical_formula_structural   Li4Mn5Sn3O16
_chemical_formula_sum   'Li4 Mn5 Sn3 O16'
_cell_volume   318.62975543
_cell_formula_units_Z   1
loop_
 _symmetry_equiv_pos_site_id
 _symmetry_equiv_pos_as_xyz
  1  'x, y, z'
loop_
 _atom_site_type_symbol
 _atom_site_label
 _atom_site_symmetry_multiplicity
 _atom_site_fract_x
 _atom_site_fract_y
 _atom_site_fract_z
 _atom_site_occupancy
  Li  Li0  1  0.35356433  0.67671676  0.88384893  1
  Li  Li1  1  0.96195883  0.98189275  0.99323354  1
  Li  Li2  1  0.96909942  0.98445636  0.50090631  1
  Li  Li3  1  0.67778350  0.33888487  0.39438779  1
  Mn  Mn4  1  0.33783516  0.66798738  0.49659848  1
  Mn  Mn5  1  0.66393882  0.83197728  0.21753734  1
  Mn  Mn6  1  0.68038890  0.34075184  0.99009049  1
  Mn  Mn7  1  0.83555174  0.66269235  0.71519570  1
  Mn  Mn8  1  0.83558043  0.17198618  0.71516320  1
  Sn  Sn9  1  0.17175151  0.83425173  0.21463911  1
  Sn  Sn10  1  0.17093113  0.33814096  0.21460147  1
  Sn  Sn11  1  0.33972987  0.16956914  0.71421319  1
  O  O12  1  0.14370652  0.83353917  0.60178355  1
  O  O13  1  0.03667169  0.51956212  0.33950236  1
  O  O14  1  0.34797510  0.67379548  0.10050034  1
  O  O15  1  0.98627736  0.99413787  0.31848912  1
  O  O16  1  0.98369703  0.99111877  0.81065141  1
  O  O17  1  0.14299910  0.30878285  0.60210430  1
  O  O18  1  0.49961151  0.97021997  0.33442116  1
  O  O19  1  0.49713184  0.52652164  0.33575779  1
  O  O20  1  0.30587293  0.15297562  0.09315212  1
  O  O21  1  0.67037394  0.83463706  0.61118235  1
  O  O22  1  0.53713384  0.49574478  0.83263730  1
  O  O23  1  0.53704163  0.03978550  0.83189995  1
  O  O24  1  0.68631186  0.34313319  0.60643704  1
  O  O25  1  0.82556435  0.68122388  0.10567687  1
  O  O26  1  0.97642469  0.48784925  0.82808805  1
  O  O27  1  0.82509399  0.14796728  0.10514276  1
