# generated using pymatgen
data_Ba2LaI7
_symmetry_space_group_name_H-M   'P 1'
_cell_length_a   15.91160725
_cell_length_b   12.39567653
_cell_length_c   10.01326257
_cell_angle_alpha   90.00000000
_cell_angle_beta   88.73547196
_cell_angle_gamma   90.00000000
_symmetry_Int_Tables_number   1
_chemical_formula_structural   Ba2LaI7
_chemical_formula_sum   'Ba8 La4 I28'
_cell_volume   1974.48623400
_cell_formula_units_Z   4
loop_
 _symmetry_equiv_pos_site_id
 _symmetry_equiv_pos_as_xyz
  1  'x, y, z'
loop_
 _atom_site_type_symbol
 _atom_site_label
 _atom_site_symmetry_multiplicity
 _atom_site_fract_x
 _atom_site_fract_y
 _atom_site_fract_z
 _atom_site_occupancy
  Ba  Ba0  1  0.01623598  0.73920869  0.75912092  1
  Ba  Ba1  1  0.28168744  0.19177110  0.34076021  1
  Ba  Ba2  1  0.21831256  0.69177110  0.15923979  1
  Ba  Ba3  1  0.48376402  0.23920869  0.74087908  1
  Ba  Ba4  1  0.51623598  0.76079131  0.25912092  1
  Ba  Ba5  1  0.78168744  0.30822890  0.84076021  1
  Ba  Ba6  1  0.71831256  0.80822890  0.65923979  1
  Ba  Ba7  1  0.98376402  0.26079131  0.24087908  1
  La  La8  1  0.18375624  0.13783085  0.82782902  1
  La  La9  1  0.31624376  0.63783085  0.67217098  1
  La  La10  1  0.68375624  0.36216915  0.32782902  1
  La  La11  1  0.81624376  0.86216915  0.17217098  1
  I  I12  1  0.12271032  0.06680270  0.13180945  1
  I  I13  1  0.15204706  0.42522289  0.26950800  1
  I  I14  1  0.98906612  0.72709798  0.11800723  1
  I  I15  1  0.09907137  0.13483890  0.53898993  1
  I  I16  1  0.16057771  0.55491421  0.86519016  1
  I  I17  1  0.17198085  0.74414226  0.49881094  1
  I  I18  1  0.29295766  0.37277211  0.63922352  1
  I  I19  1  0.40092863  0.63483890  0.96101007  1
  I  I20  1  0.51093388  0.22709798  0.38199277  1
  I  I21  1  0.34795294  0.92522289  0.23049200  1
  I  I22  1  0.20704234  0.87277211  0.86077648  1
  I  I23  1  0.32801915  0.24414226  0.00118906  1
  I  I24  1  0.33942229  0.05491421  0.63480984  1
  I  I25  1  0.37728968  0.56680270  0.36819055  1
  I  I26  1  0.62271032  0.43319730  0.63180945  1
  I  I27  1  0.66057771  0.94508579  0.36519016  1
  I  I28  1  0.67198085  0.75585774  0.99881094  1
  I  I29  1  0.79295766  0.12722789  0.13922352  1
  I  I30  1  0.65204706  0.07477711  0.76950800  1
  I  I31  1  0.48906612  0.77290202  0.61800723  1
  I  I32  1  0.59907137  0.36516110  0.03898993  1
  I  I33  1  0.70704234  0.62722789  0.36077648  1
  I  I34  1  0.82801915  0.25585774  0.50118906  1
  I  I35  1  0.83942229  0.44508579  0.13480984  1
  I  I36  1  0.90092863  0.86516110  0.46101007  1
  I  I37  1  0.01093388  0.27290202  0.88199277  1
  I  I38  1  0.84795294  0.57477711  0.73049200  1
  I  I39  1  0.87728968  0.93319730  0.86819055  1
