# generated using pymatgen
data_SmWO5
_symmetry_space_group_name_H-M   'P 1'
_cell_length_a   5.36367594
_cell_length_b   6.73236827
_cell_length_c   13.03275118
_cell_angle_alpha   90.00000000
_cell_angle_beta   90.00000000
_cell_angle_gamma   108.65144912
_symmetry_Int_Tables_number   1
_chemical_formula_structural   SmWO5
_chemical_formula_sum   'Sm4 W4 O20'
_cell_volume   445.89981406
_cell_formula_units_Z   4
loop_
 _symmetry_equiv_pos_site_id
 _symmetry_equiv_pos_as_xyz
  1  'x, y, z'
loop_
 _atom_site_type_symbol
 _atom_site_label
 _atom_site_symmetry_multiplicity
 _atom_site_fract_x
 _atom_site_fract_y
 _atom_site_fract_z
 _atom_site_occupancy
  Sm  Sm0  1  0.14757024  0.78300352  0.44265039  1
  Sm  Sm1  1  0.85242976  0.21699648  0.55734961  1
  Sm  Sm2  1  0.35242976  0.71699648  0.94265039  1
  Sm  Sm3  1  0.64757024  0.28300352  0.05734961  1
  W  W4  1  0.95922751  0.84529142  0.13922222  1
  W  W5  1  0.04077249  0.15470858  0.86077778  1
  W  W6  1  0.54077249  0.65470858  0.63922222  1
  W  W7  1  0.45922751  0.34529142  0.36077778  1
  O  O8  1  0.04127018  0.57382361  0.09085306  1
  O  O9  1  0.95872982  0.42617639  0.90914694  1
  O  O10  1  0.45872982  0.92617639  0.59085306  1
  O  O11  1  0.54127018  0.07382361  0.40914694  1
  O  O12  1  0.84379552  0.84032648  0.57026841  1
  O  O13  1  0.15620448  0.15967352  0.42973159  1
  O  O14  1  0.65620448  0.65967352  0.07026841  1
  O  O15  1  0.34379552  0.34032648  0.92973159  1
  O  O16  1  0.26920206  0.97270201  0.06684773  1
  O  O17  1  0.73079794  0.02729799  0.93315227  1
  O  O18  1  0.23079794  0.52729799  0.56684773  1
  O  O19  1  0.76920206  0.47270201  0.43315227  1
  O  O20  1  -0.00001580  0.79401559  0.27282417  1
  O  O21  1  0.00001580  0.20598441  0.72717583  1
  O  O22  1  0.50001580  0.70598441  0.77282417  1
  O  O23  1  0.49998420  0.29401559  0.22717583  1
  O  O24  1  0.16065742  0.93143341  0.85335220  1
  O  O25  1  0.83934258  0.06856659  0.14664780  1
  O  O26  1  0.33934258  0.56856659  0.35335220  1
  O  O27  1  0.66065742  0.43143341  0.64664780  1
