# generated using pymatgen
data_Li3MnV(PO4)3
_symmetry_space_group_name_H-M   'P 1'
_cell_length_a   9.14166359
_cell_length_b   8.56493543
_cell_length_c   8.59430414
_cell_angle_alpha   59.76410516
_cell_angle_beta   62.89989006
_cell_angle_gamma   89.89071172
_symmetry_Int_Tables_number   1
_chemical_formula_structural   Li3MnV(PO4)3
_chemical_formula_sum   'Li6 Mn2 V2 P6 O24'
_cell_volume   494.38620042
_cell_formula_units_Z   2
loop_
 _symmetry_equiv_pos_site_id
 _symmetry_equiv_pos_as_xyz
  1  'x, y, z'
loop_
 _atom_site_type_symbol
 _atom_site_label
 _atom_site_symmetry_multiplicity
 _atom_site_fract_x
 _atom_site_fract_y
 _atom_site_fract_z
 _atom_site_occupancy
  Li  Li0  1  0.14203708  0.74230529  0.18784536  1
  Li  Li1  1  0.12947350  0.06721076  0.60928165  1
  Li  Li2  1  0.15099576  0.33742297  0.92357914  1
  Li  Li3  1  0.84900424  0.66257703  0.07642086  1
  Li  Li4  1  0.87052650  0.93278924  0.39071835  1
  Li  Li5  1  0.85796292  0.25769471  0.81215464  1
  Mn  Mn6  1  0.56038164  0.85557790  0.29535539  1
  Mn  Mn7  1  0.43961836  0.14442210  0.70464461  1
  V  V8  1  0.03984994  0.34792365  0.30625798  1
  V  V9  1  0.96015006  0.65207635  0.69374202  1
  P  P10  1  0.24938010  0.04799977  0.21261956  1
  P  P11  1  0.24925180  0.45966747  0.49472354  1
  P  P12  1  0.24757525  0.74413089  0.79912559  1
  P  P13  1  0.75242475  0.25586911  0.20087441  1
  P  P14  1  0.75074820  0.54033253  0.50527646  1
  P  P15  1  0.75061990  0.95200023  0.78738044  1
  O  O16  1  0.10601440  0.84417169  0.36864824  1
  O  O17  1  0.25614814  0.13678922  0.00167159  1
  O  O18  1  0.17722550  0.16438128  0.31346955  1
  O  O19  1  0.17691205  0.48735121  0.34934988  1
  O  O20  1  0.10440122  0.46945342  0.68560459  1
  O  O21  1  0.10008224  0.78509723  0.74240535  1
  O  O22  1  0.41697883  0.02607160  0.19888444  1
  O  O23  1  0.25829267  0.25524853  0.60672623  1
  O  O24  1  0.41421631  0.61318648  0.36766337  1
  O  O25  1  0.18019752  0.52776315  0.98937584  1
  O  O26  1  0.25051873  0.86862624  0.88046147  1
  O  O27  1  0.41317304  0.78266070  0.61058158  1
  O  O28  1  0.58682696  0.21733930  0.38941842  1
  O  O29  1  0.74948127  0.13137376  0.11953853  1
  O  O30  1  0.81980248  0.47223685  0.01062416  1
  O  O31  1  0.58578369  0.38681352  0.63233663  1
  O  O32  1  0.74170733  0.74475147  0.39327377  1
  O  O33  1  0.58302117  0.97392840  0.80111556  1
  O  O34  1  0.89991776  0.21490277  0.25759465  1
  O  O35  1  0.89559878  0.53054658  0.31439541  1
  O  O36  1  0.82308795  0.51264879  0.65065012  1
  O  O37  1  0.82277450  0.83561872  0.68653045  1
  O  O38  1  0.74385186  0.86321078  0.99832841  1
  O  O39  1  0.89398560  0.15582831  0.63135176  1
