# generated using pymatgen
data_Co3OF5
_symmetry_space_group_name_H-M   'P 1'
_cell_length_a   4.69251752
_cell_length_b   7.84135275
_cell_length_c   5.69916605
_cell_angle_alpha   91.46677056
_cell_angle_beta   89.63385111
_cell_angle_gamma   89.66697374
_symmetry_Int_Tables_number   1
_chemical_formula_structural   Co3OF5
_chemical_formula_sum   'Co6 O2 F10'
_cell_volume   209.62798091
_cell_formula_units_Z   2
loop_
 _symmetry_equiv_pos_site_id
 _symmetry_equiv_pos_as_xyz
  1  'x, y, z'
loop_
 _atom_site_type_symbol
 _atom_site_label
 _atom_site_symmetry_multiplicity
 _atom_site_fract_x
 _atom_site_fract_y
 _atom_site_fract_z
 _atom_site_occupancy
  Co  Co0  1  0.50904533  0.00135574  0.51383392  1
  Co  Co1  1  0.53416297  0.32957461  0.82446280  1
  Co  Co2  1  0.49066420  0.67008351  0.16879886  1
  Co  Co3  1  0.98194687  0.65008212  0.67764476  1
  Co  Co4  1  0.98538162  0.33213491  0.34884503  1
  Co  Co5  1  0.98186465  0.01352811  0.97933492  1
  O  O6  1  0.79386776  0.42527162  0.63867281  1
  O  O7  1  0.70582784  0.11074778  0.79470953  1
  F  F8  1  0.80435513  0.77223016  0.97122899  1
  F  F9  1  0.80487118  0.09747041  0.28852798  1
  F  F10  1  0.69344526  0.76973464  0.46744235  1
  F  F11  1  0.70060879  0.43894913  0.13444571  1
  F  F12  1  0.31888996  0.55574260  0.86343176  1
  F  F13  1  0.30195243  0.22778449  0.52916527  1
  F  F14  1  0.29357652  0.90834990  0.19707398  1
  F  F15  1  0.21702731  0.23706800  0.02434205  1
  F  F16  1  0.19471714  0.89303941  0.70712695  1
  F  F17  1  0.18779604  0.56685285  0.37091534  1
