# generated using pymatgen
data_Sr3TeO6
_symmetry_space_group_name_H-M   'P 1'
_cell_length_a   11.91335172
_cell_length_b   11.91335172
_cell_length_c   11.91335172
_cell_angle_alpha   109.47122063
_cell_angle_beta   109.47122063
_cell_angle_gamma   109.47122063
_symmetry_Int_Tables_number   1
_chemical_formula_structural   Sr3TeO6
_chemical_formula_sum   'Sr24 Te8 O48'
_cell_volume   1301.60737283
_cell_formula_units_Z   8
loop_
 _symmetry_equiv_pos_site_id
 _symmetry_equiv_pos_as_xyz
  1  'x, y, z'
loop_
 _atom_site_type_symbol
 _atom_site_label
 _atom_site_symmetry_multiplicity
 _atom_site_fract_x
 _atom_site_fract_y
 _atom_site_fract_z
 _atom_site_occupancy
  Sr  Sr0  1  0.84611885  0.15212095  0.24872553  1
  Sr  Sr1  1  0.69399790  0.34611885  0.09739332  1
  Sr  Sr2  1  0.34787905  0.19399790  0.09660458  1
  Sr  Sr3  1  0.59739332  0.25127447  0.40339542  1
  Sr  Sr4  1  0.84787905  0.75127447  0.15388115  1
  Sr  Sr5  1  0.90260668  0.30600210  0.65388115  1
  Sr  Sr6  1  0.74872553  0.59660458  0.40260668  1
  Sr  Sr7  1  0.19399790  0.09660458  0.34787905  1
  Sr  Sr8  1  0.75127447  0.15388115  0.84787905  1
  Sr  Sr9  1  0.40339542  0.59739332  0.25127447  1
  Sr  Sr10  1  0.09660458  0.34787905  0.19399790  1
  Sr  Sr11  1  0.34611885  0.09739332  0.69399790  1
  Sr  Sr12  1  0.90339542  0.65212095  0.80600210  1
  Sr  Sr13  1  0.65388115  0.90260668  0.30600210  1
  Sr  Sr14  1  0.59660458  0.40260668  0.74872553  1
  Sr  Sr15  1  0.80600210  0.90339542  0.65212095  1
  Sr  Sr16  1  0.24872553  0.84611885  0.15212095  1
  Sr  Sr17  1  0.25127447  0.40339542  0.59739332  1
  Sr  Sr18  1  0.09739332  0.69399790  0.34611885  1
  Sr  Sr19  1  0.40260668  0.74872553  0.59660458  1
  Sr  Sr20  1  0.15212095  0.24872553  0.84611885  1
  Sr  Sr21  1  0.65212095  0.80600210  0.90339542  1
  Sr  Sr22  1  0.30600210  0.65388115  0.90260668  1
  Sr  Sr23  1  0.15388115  0.84787905  0.75127447  1
  Te  Te24  1  0.50000000  0.00000000  0.00000000  1
  Te  Te25  1  0.00000000  0.00000000  0.00000000  1
  Te  Te26  1  0.50000000  0.00000000  0.50000000  1
  Te  Te27  1  0.50000000  0.50000000  0.00000000  1
  Te  Te28  1  0.50000000  0.50000000  0.50000000  1
  Te  Te29  1  0.00000000  0.00000000  0.50000000  1
  Te  Te30  1  0.00000000  0.50000000  0.00000000  1
  Te  Te31  1  0.00000000  0.50000000  0.50000000  1
  O  O32  1  0.00963495  0.11385954  0.17038198  1
  O  O33  1  0.66638586  0.10974146  0.00126083  1
  O  O34  1  0.89151937  0.39025854  0.05664440  1
  O  O35  1  0.55664440  0.16638586  0.16512503  1
  O  O36  1  0.94335560  0.10848063  0.60974146  1
  O  O37  1  0.89577542  0.50963495  0.33925297  1
  O  O38  1  0.88614046  0.82961802  0.99036505  1
  O  O39  1  0.83925297  0.32961802  0.44347755  1
  O  O40  1  0.66074703  0.10422458  0.49036505  1
  O  O41  1  0.38614046  0.39577542  0.05652245  1
  O  O42  1  0.39577542  0.05652245  0.38614046  1
  O  O43  1  0.67038198  0.55652245  0.16074703  1
  O  O44  1  0.82961802  0.99036505  0.88614046  1
  O  O45  1  0.50126083  0.39151937  0.33487497  1
  O  O46  1  0.99873917  0.33361414  0.89025854  1
  O  O47  1  0.55652245  0.16074703  0.67038198  1
  O  O48  1  0.49036505  0.66074703  0.10422458  1
  O  O49  1  0.94347755  0.61385954  0.60422458  1
  O  O50  1  0.60974146  0.94335560  0.10848063  1
  O  O51  1  0.89025854  0.99873917  0.33361414  1
  O  O52  1  0.66512503  0.49873917  0.60848063  1
  O  O53  1  0.83487497  0.44335560  0.83361414  1
  O  O54  1  0.83361414  0.83487497  0.44335560  1
  O  O55  1  0.39151937  0.33487497  0.50126083  1
  O  O56  1  0.60848063  0.66512503  0.49873917  1
  O  O57  1  0.16638586  0.16512503  0.55664440  1
  O  O58  1  0.33487497  0.50126083  0.39151937  1
  O  O59  1  0.10974146  0.00126083  0.66638586  1
  O  O60  1  0.16512503  0.55664440  0.16638586  1
  O  O61  1  0.39025854  0.05664440  0.89151937  1
  O  O62  1  0.44347755  0.83925297  0.32961802  1
  O  O63  1  0.05652245  0.38614046  0.39577542  1
  O  O64  1  0.50963495  0.33925297  0.89577542  1
  O  O65  1  0.00126083  0.66638586  0.10974146  1
  O  O66  1  0.49873917  0.60848063  0.66512503  1
  O  O67  1  0.60422458  0.94347755  0.61385954  1
  O  O68  1  0.17038198  0.00963495  0.11385954  1
  O  O69  1  0.32961802  0.44347755  0.83925297  1
  O  O70  1  0.61385954  0.60422458  0.94347755  1
  O  O71  1  0.33925297  0.89577542  0.50963495  1
  O  O72  1  0.16074703  0.67038198  0.55652245  1
  O  O73  1  0.11385954  0.17038198  0.00963495  1
  O  O74  1  0.10422458  0.49036505  0.66074703  1
  O  O75  1  0.05664440  0.89151937  0.39025854  1
  O  O76  1  0.44335560  0.83361414  0.83487497  1
  O  O77  1  0.10848063  0.60974146  0.94335560  1
  O  O78  1  0.33361414  0.89025854  0.99873917  1
  O  O79  1  0.99036505  0.88614046  0.82961802  1
