# generated using pymatgen
data_Ni(SO4)2
_symmetry_space_group_name_H-M   'P 1'
_cell_length_a   9.00586989
_cell_length_b   9.00587017
_cell_length_c   9.00586960
_cell_angle_alpha   56.23226739
_cell_angle_beta   56.23226809
_cell_angle_gamma   56.23227120
_symmetry_Int_Tables_number   1
_chemical_formula_structural   Ni(SO4)2
_chemical_formula_sum   'Ni3 S6 O24'
_cell_volume   471.45488438
_cell_formula_units_Z   3
loop_
 _symmetry_equiv_pos_site_id
 _symmetry_equiv_pos_as_xyz
  1  'x, y, z'
loop_
 _atom_site_type_symbol
 _atom_site_label
 _atom_site_symmetry_multiplicity
 _atom_site_fract_x
 _atom_site_fract_y
 _atom_site_fract_z
 _atom_site_occupancy
  Ni  Ni0  1  0.35639713  0.35639713  0.35639713  1
  Ni  Ni1  1  0.64368679  0.64368679  0.64368679  1
  Ni  Ni2  1  0.85109454  0.85109454  0.85109454  1
  S  S3  1  0.04334995  0.74470489  0.46457450  1
  S  S4  1  0.46457450  0.04334995  0.74470489  1
  S  S5  1  0.74470489  0.46457450  0.04334995  1
  S  S6  1  0.24979057  0.54207539  0.95948940  1
  S  S7  1  0.54207539  0.95948940  0.24979057  1
  S  S8  1  0.95948940  0.24979057  0.54207539  1
  O  O9  1  0.10463311  0.30260578  0.51252569  1
  O  O10  1  0.30260578  0.51252569  0.10463311  1
  O  O11  1  0.00550408  0.94870869  0.33452853  1
  O  O12  1  0.51252569  0.10463311  0.30260578  1
  O  O13  1  0.02581926  0.72082399  0.64983329  1
  O  O14  1  0.23566093  0.61965437  0.37957695  1
  O  O15  1  0.37957695  0.23566093  0.61965437  1
  O  O16  1  0.33452853  0.00550408  0.94870869  1
  O  O17  1  0.61965437  0.37957695  0.23566093  1
  O  O18  1  0.04898180  0.67371938  0.98519572  1
  O  O19  1  0.27686987  0.35678106  0.97171798  1
  O  O20  1  0.35678106  0.97171798  0.27686987  1
  O  O21  1  0.64983329  0.02581926  0.72082399  1
  O  O22  1  0.72082399  0.64983329  0.02581926  1
  O  O23  1  0.94870869  0.33452853  0.00550408  1
  O  O24  1  0.37922547  0.62264924  0.76254947  1
  O  O25  1  0.67371938  0.98519572  0.04898180  1
  O  O26  1  0.62264924  0.76254947  0.37922547  1
  O  O27  1  0.76254947  0.37922547  0.62264924  1
  O  O28  1  0.97171798  0.27686987  0.35678106  1
  O  O29  1  0.48917414  0.89553661  0.69492243  1
  O  O30  1  0.98519572  0.04898180  0.67371938  1
  O  O31  1  0.69492243  0.48917414  0.89553661  1
  O  O32  1  0.89553661  0.69492243  0.48917414  1
