# generated using pymatgen
data_NaLi5Mn2P2(CO7)2
_symmetry_space_group_name_H-M   'P 1'
_cell_length_a   8.64248901
_cell_length_b   6.63730322
_cell_length_c   10.04152947
_cell_angle_alpha   89.93779673
_cell_angle_beta   88.17531417
_cell_angle_gamma   89.63093126
_symmetry_Int_Tables_number   1
_chemical_formula_structural   NaLi5Mn2P2(CO7)2
_chemical_formula_sum   'Na2 Li10 Mn4 P4 C4 O28'
_cell_volume   575.70620633
_cell_formula_units_Z   2
loop_
 _symmetry_equiv_pos_site_id
 _symmetry_equiv_pos_as_xyz
  1  'x, y, z'
loop_
 _atom_site_type_symbol
 _atom_site_label
 _atom_site_symmetry_multiplicity
 _atom_site_fract_x
 _atom_site_fract_y
 _atom_site_fract_z
 _atom_site_occupancy
  Na  Na0  1  0.08632950  0.25078384  0.87650674  1
  Na  Na1  1  0.75148065  0.49973653  0.37598272  1
  Li  Li2  1  0.08165112  0.23666874  0.37234069  1
  Li  Li3  1  0.26673800  0.02788104  0.61087050  1
  Li  Li4  1  0.26622412  0.47136171  0.60987563  1
  Li  Li5  1  0.26847023  0.02372005  0.11661121  1
  Li  Li6  1  0.26636332  0.47703580  0.11738556  1
  Li  Li7  1  0.73159877  0.52756850  0.88530002  1
  Li  Li8  1  0.73026308  0.97064890  0.88622582  1
  Li  Li9  1  0.73306622  0.97916382  0.38555305  1
  Li  Li10  1  0.91619280  0.75677375  0.62964383  1
  Li  Li11  1  0.91340155  0.76266226  0.12736486  1
  Mn  Mn12  1  0.35221382  0.75107965  0.88671891  1
  Mn  Mn13  1  0.35380720  0.74966191  0.38905634  1
  Mn  Mn14  1  0.64874333  0.24472612  0.61669875  1
  Mn  Mn15  1  0.64568904  0.24815489  0.11132963  1
  P  P16  1  0.41525308  0.25090446  0.85577270  1
  P  P17  1  0.40546219  0.24509681  0.35644866  1
  P  P18  1  0.59195577  0.74908231  0.64841669  1
  P  P19  1  0.58829957  0.75419093  0.14545834  1
  C  C20  1  0.03783721  0.75049841  0.86420477  1
  C  C21  1  0.04288852  0.75924194  0.36106032  1
  C  C22  1  0.96155116  0.24916582  0.62863549  1
  C  C23  1  0.95290190  0.24727947  0.13924389  1
  O  O24  1  0.11016596  0.25088606  0.64613703  1
  O  O25  1  0.10255492  0.24919959  0.15412559  1
  O  O26  1  0.07998753  0.75295618  0.98712051  1
  O  O27  1  0.07979502  0.75182406  0.48497758  1
  O  O28  1  0.14209584  0.75144770  0.76737091  1
  O  O29  1  0.15006470  0.74544937  0.26645508  1
  O  O30  1  0.32474567  0.06647671  0.91196252  1
  O  O31  1  0.32342691  0.43613194  0.91117507  1
  O  O32  1  0.30244642  0.06630297  0.40528801  1
  O  O33  1  0.31713062  0.43420817  0.40985509  1
  O  O34  1  0.41533013  0.24934680  0.69974201  1
  O  O35  1  0.42217494  0.75364774  0.59975581  1
  O  O36  1  0.41469175  0.24931036  0.20011595  1
  O  O37  1  0.41891658  0.75016330  0.09747774  1
  O  O38  1  0.58750091  0.25224964  0.89688179  1
  O  O39  1  0.58279621  0.75551323  0.80459859  1
  O  O40  1  0.57318897  0.23053894  0.40618661  1
  O  O41  1  0.57982896  0.76913242  0.30063812  1
  O  O42  1  0.68431853  0.55991827  0.60263935  1
  O  O43  1  0.69064208  0.92852183  0.59439312  1
  O  O44  1  0.68430329  0.56542051  0.10069399  1
  O  O45  1  0.68416756  0.93274050  0.08670171  1
  O  O46  1  0.86598689  0.24432845  0.73109823  1
  O  O47  1  0.86132775  0.24166749  0.24439386  1
  O  O48  1  0.90872709  0.25151533  0.50909493  1
  O  O49  1  0.89308211  0.25051032  0.02300785  1
  O  O50  1  0.89227916  0.74737298  0.83463097  1
  O  O51  1  0.89993938  0.78013050  0.32677589  1
