# generated using pymatgen
data_BaLa2O4
_symmetry_space_group_name_H-M   'P 1'
_cell_length_a   6.41292251
_cell_length_b   6.41292251
_cell_length_c   23.54910871
_cell_angle_alpha   90.63365847
_cell_angle_beta   89.36634153
_cell_angle_gamma   118.85721072
_symmetry_Int_Tables_number   1
_chemical_formula_structural   BaLa2O4
_chemical_formula_sum   'Ba6 La12 O24'
_cell_volume   848.14102306
_cell_formula_units_Z   6
loop_
 _symmetry_equiv_pos_site_id
 _symmetry_equiv_pos_as_xyz
  1  'x, y, z'
loop_
 _atom_site_type_symbol
 _atom_site_label
 _atom_site_symmetry_multiplicity
 _atom_site_fract_x
 _atom_site_fract_y
 _atom_site_fract_z
 _atom_site_occupancy
  Ba  Ba0  1  0.44795433  0.77264696  0.15065055  1
  Ba  Ba1  1  0.22735304  0.55204567  0.65065055  1
  Ba  Ba2  1  0.11016530  0.11016530  0.25000000  1
  Ba  Ba3  1  0.88983470  0.88983470  0.75000000  1
  Ba  Ba4  1  0.55204567  0.22735304  0.84934945  1
  Ba  Ba5  1  0.77264696  0.44795433  0.34934945  1
  La  La6  1  0.44287103  0.78190087  0.30590132  1
  La  La7  1  0.21809913  0.55712897  0.80590132  1
  La  La8  1  0.44583635  0.77252745  0.44958041  1
  La  La9  1  0.22747255  0.55416365  0.94958041  1
  La  La10  1  0.10870930  0.11656355  0.42645051  1
  La  La11  1  0.88343645  0.89129070  0.92645051  1
  La  La12  1  0.89129070  0.88343645  0.57354949  1
  La  La13  1  0.11656355  0.10870930  0.07354949  1
  La  La14  1  0.77252745  0.44583635  0.05041959  1
  La  La15  1  0.55416365  0.22747255  0.55041959  1
  La  La16  1  0.78190087  0.44287103  0.19409868  1
  La  La17  1  0.55712897  0.21809913  0.69409868  1
  O  O18  1  0.21068938  0.92109747  0.50318773  1
  O  O19  1  0.07890253  0.78931062  0.00318773  1
  O  O20  1  0.38008039  0.03701742  0.37550751  1
  O  O21  1  0.96298258  0.61991961  0.87550751  1
  O  O22  1  0.30302296  0.89862552  0.75285753  1
  O  O23  1  0.10137448  0.69697704  0.25285753  1
  O  O24  1  0.19703120  0.47109219  0.37892133  1
  O  O25  1  0.52890781  0.80296880  0.87892133  1
  O  O26  1  0.14905965  0.23238612  0.87584624  1
  O  O27  1  0.76761388  0.85094035  0.37584624  1
  O  O28  1  0.51082677  0.51082677  0.25000000  1
  O  O29  1  0.50000000  0.50000000  0.00000000  1
  O  O30  1  0.50000000  0.50000000  0.50000000  1
  O  O31  1  0.48917323  0.48917323  0.75000000  1
  O  O32  1  0.23238612  0.14905965  0.62415376  1
  O  O33  1  0.85094035  0.76761388  0.12415376  1
  O  O34  1  0.47109219  0.19703120  0.12107867  1
  O  O35  1  0.80296880  0.52890781  0.62107867  1
  O  O36  1  0.69697704  0.10137448  0.24714247  1
  O  O37  1  0.89862552  0.30302296  0.74714247  1
  O  O38  1  0.03701742  0.38008039  0.12449249  1
  O  O39  1  0.61991961  0.96298258  0.62449249  1
  O  O40  1  0.78931062  0.07890253  0.49681227  1
  O  O41  1  0.92109747  0.21068938  0.99681227  1
