# generated using pymatgen
data_TiMn5O12
_symmetry_space_group_name_H-M   'P 1'
_cell_length_a   5.07684354
_cell_length_b   5.08281459
_cell_length_c   9.71485929
_cell_angle_alpha   89.99607224
_cell_angle_beta   89.99213835
_cell_angle_gamma   60.03885643
_symmetry_Int_Tables_number   1
_chemical_formula_structural   TiMn5O12
_chemical_formula_sum   'Ti1 Mn5 O12'
_cell_volume   217.18763766
_cell_formula_units_Z   1
loop_
 _symmetry_equiv_pos_site_id
 _symmetry_equiv_pos_as_xyz
  1  'x, y, z'
loop_
 _atom_site_type_symbol
 _atom_site_label
 _atom_site_symmetry_multiplicity
 _atom_site_fract_x
 _atom_site_fract_y
 _atom_site_fract_z
 _atom_site_occupancy
  Ti  Ti0  1  0.00000000  0.00000000  0.00000000  1
  Mn  Mn1  1  0.16671225  0.66657551  0.50000000  1
  Mn  Mn2  1  0.66667185  0.66665530  1.00000000  1
  Mn  Mn3  1  0.33332815  0.33334470  0.00000000  1
  Mn  Mn4  1  0.83328775  0.33342449  0.50000000  1
  Mn  Mn5  1  0.50000000  0.00000000  0.50000000  1
  O  O6  1  0.00008857  0.66052549  0.10007674  1
  O  O7  1  0.33938594  0.66052549  0.89992326  1
  O  O8  1  0.16680258  0.33322798  0.40168426  1
  O  O9  1  0.50003056  0.66677202  0.40168426  1
  O  O10  1  0.49996944  0.33322798  0.59831574  1
  O  O11  1  0.16640997  0.00000000  0.59847227  1
  O  O12  1  0.83319742  0.66677202  0.59831574  1
  O  O13  1  0.66061406  0.33947451  0.10007674  1
  O  O14  1  0.33956679  0.00000000  0.10013491  1
  O  O15  1  0.99991143  0.33947451  0.89992326  1
  O  O16  1  0.66043321  1.00000000  0.89986509  1
  O  O17  1  0.83359003  1.00000000  0.40152773  1
