# generated using pymatgen
data_CrPO5
_symmetry_space_group_name_H-M   'P 1'
_cell_length_a   8.38677898
_cell_length_b   9.30950878
_cell_length_c   5.18095200
_cell_angle_alpha   104.36657243
_cell_angle_beta   91.41058935
_cell_angle_gamma   102.25086302
_symmetry_Int_Tables_number   1
_chemical_formula_structural   CrPO5
_chemical_formula_sum   'Cr4 P4 O20'
_cell_volume   381.66105567
_cell_formula_units_Z   4
loop_
 _symmetry_equiv_pos_site_id
 _symmetry_equiv_pos_as_xyz
  1  'x, y, z'
loop_
 _atom_site_type_symbol
 _atom_site_label
 _atom_site_symmetry_multiplicity
 _atom_site_fract_x
 _atom_site_fract_y
 _atom_site_fract_z
 _atom_site_occupancy
  Cr  Cr0  1  0.22772218  0.55702291  0.74971263  1
  Cr  Cr1  1  0.26721949  0.05633828  0.31338992  1
  Cr  Cr2  1  0.73278051  0.94366172  0.68661008  1
  Cr  Cr3  1  0.77227782  0.44297709  0.25028737  1
  P  P4  1  0.07995149  0.84554929  0.72389020  1
  P  P5  1  0.51542904  0.81020150  0.13340262  1
  P  P6  1  0.48457096  0.18979850  0.86659738  1
  P  P7  1  0.92004851  0.15445071  0.27610980  1
  O  O8  1  0.10277596  0.67549611  0.66547820  1
  O  O9  1  0.11980516  0.91064346  0.02344654  1
  O  O10  1  0.11926525  0.41700707  0.83450533  1
  O  O11  1  0.19029678  0.93002386  0.55506660  1
  O  O12  1  0.10223221  0.17142890  0.36182875  1
  O  O13  1  0.37019023  0.66246456  0.02717082  1
  O  O14  1  0.31328886  0.49512305  0.48959415  1
  O  O15  1  0.39823123  0.21124075  0.62022328  1
  O  O16  1  0.43659111  0.94734724  0.22058704  1
  O  O17  1  0.62670154  0.81707492  0.90818704  1
  O  O18  1  0.37329846  0.18292508  0.09181296  1
  O  O19  1  0.56340889  0.05265276  0.77941296  1
  O  O20  1  0.60176877  0.78875925  0.37977672  1
  O  O21  1  0.68671114  0.50487695  0.51040585  1
  O  O22  1  0.62980977  0.33753544  0.97282918  1
  O  O23  1  0.89776779  0.82857110  0.63817125  1
  O  O24  1  0.80970322  0.06997614  0.44493340  1
  O  O25  1  0.88073475  0.58299293  0.16549467  1
  O  O26  1  0.88019484  0.08935654  0.97655346  1
  O  O27  1  0.89722404  0.32450389  0.33452280  1
