# generated using pymatgen
data_Li4Fe5Co3O16
_symmetry_space_group_name_H-M   'P 1'
_cell_length_a   5.87214448
_cell_length_b   5.86554811
_cell_length_c   9.56054305
_cell_angle_alpha   89.99255941
_cell_angle_beta   90.60581132
_cell_angle_gamma   120.07370493
_symmetry_Int_Tables_number   1
_chemical_formula_structural   Li4Fe5Co3O16
_chemical_formula_sum   'Li4 Fe5 Co3 O16'
_cell_volume   284.94659594
_cell_formula_units_Z   1
loop_
 _symmetry_equiv_pos_site_id
 _symmetry_equiv_pos_as_xyz
  1  'x, y, z'
loop_
 _atom_site_type_symbol
 _atom_site_label
 _atom_site_symmetry_multiplicity
 _atom_site_fract_x
 _atom_site_fract_y
 _atom_site_fract_z
 _atom_site_occupancy
  Li  Li0  1  0.32414883  0.66103170  0.89805117  1
  Li  Li1  1  0.01026666  0.00509352  0.99759304  1
  Li  Li2  1  0.01213131  0.00657308  0.49537472  1
  Li  Li3  1  0.65834134  0.32976502  0.39037926  1
  Fe  Fe4  1  0.33888621  0.67020920  0.48967424  1
  Fe  Fe5  1  0.65857685  0.82957068  0.21440770  1
  Fe  Fe6  1  0.66944769  0.33397927  0.98836120  1
  Fe  Fe7  1  0.82858505  0.65907125  0.71672040  1
  Fe  Fe8  1  0.82959594  0.16955385  0.71603377  1
  Co  Co9  1  0.16769572  0.82915669  0.21225320  1
  Co  Co10  1  0.16824231  0.33876683  0.21224231  1
  Co  Co11  1  0.34064936  0.16916921  0.71423362  1
  O  O12  1  0.17078637  0.83971233  0.60038464  1
  O  O13  1  0.04033206  0.51995642  0.32379375  1
  O  O14  1  0.31406213  0.65733847  0.10715511  1
  O  O15  1  0.01839603  0.00907468  0.30709248  1
  O  O16  1  0.01243171  0.00600184  0.80809757  1
  O  O17  1  0.16940974  0.33313678  0.59900810  1
  O  O18  1  0.46615300  0.95925867  0.33165821  1
  O  O19  1  0.46645526  0.50831379  0.33165226  1
  O  O20  1  0.31835707  0.15978435  0.11194736  1
  O  O21  1  0.67872724  0.83924360  0.59625167  1
  O  O22  1  0.51168383  0.47608550  0.84370222  1
  O  O23  1  0.51220294  0.03381931  0.84421095  1
  O  O24  1  0.65678543  0.32906841  0.60603566  1
  O  O25  1  0.84895313  0.67871447  0.10431511  1
  O  O26  1  0.95966049  0.47958529  0.84306729  1
  O  O27  1  0.84903530  0.16926578  0.10414400  1
