# generated using pymatgen
data_K3Li2Ta6(PO8)3
_symmetry_space_group_name_H-M   'P 1'
_cell_length_a   8.47735963
_cell_length_b   8.47735962
_cell_length_c   8.47735980
_cell_angle_alpha   103.34322370
_cell_angle_beta   103.34321807
_cell_angle_gamma   103.34321957
_symmetry_Int_Tables_number   1
_chemical_formula_structural   K3Li2Ta6(PO8)3
_chemical_formula_sum   'K3 Li2 Ta6 P3 O24'
_cell_volume   550.21091858
_cell_formula_units_Z   1
loop_
 _symmetry_equiv_pos_site_id
 _symmetry_equiv_pos_as_xyz
  1  'x, y, z'
loop_
 _atom_site_type_symbol
 _atom_site_label
 _atom_site_symmetry_multiplicity
 _atom_site_fract_x
 _atom_site_fract_y
 _atom_site_fract_z
 _atom_site_occupancy
  K  K0  1  0.30071440  0.60376737  0.91452273  1
  K  K1  1  0.60376737  0.91452273  0.30071440  1
  K  K2  1  0.91452273  0.30071440  0.60376737  1
  Li  Li3  1  0.36171310  0.36171310  0.36171310  1
  Li  Li4  1  0.63776490  0.63776490  0.63776490  1
  Ta  Ta5  1  0.02478810  0.34708092  0.15697092  1
  Ta  Ta6  1  0.15697092  0.02478810  0.34708092  1
  Ta  Ta7  1  0.65338800  0.97579561  0.84321973  1
  Ta  Ta8  1  0.34708092  0.15697092  0.02478810  1
  Ta  Ta9  1  0.84321973  0.65338800  0.97579561  1
  Ta  Ta10  1  0.97579561  0.84321973  0.65338800  1
  P  P11  1  0.28139297  0.71685317  0.49976527  1
  P  P12  1  0.49976527  0.28139297  0.71685317  1
  P  P13  1  0.71685317  0.49976527  0.28139297  1
  O  O14  1  0.02421003  0.97445644  0.49962424  1
  O  O15  1  0.99953863  0.84553763  0.15458765  1
  O  O16  1  0.13601516  0.70210502  0.58326219  1
  O  O17  1  0.07062442  0.20890309  0.31551163  1
  O  O18  1  0.15458765  0.99953863  0.84553763  1
  O  O19  1  0.29776581  0.86398909  0.41879240  1
  O  O20  1  0.24729389  0.54633250  0.36224263  1
  O  O21  1  0.45252901  0.75024891  0.63795380  1
  O  O22  1  0.20890309  0.31551163  0.07062442  1
  O  O23  1  0.41879240  0.29776581  0.86398909  1
  O  O24  1  0.36224263  0.24729389  0.54633250  1
  O  O25  1  0.31551163  0.07062442  0.20890309  1
  O  O26  1  0.49962424  0.02421003  0.97445644  1
  O  O27  1  0.68326164  0.79053996  0.92931607  1
  O  O28  1  0.63795380  0.45252901  0.75024891  1
  O  O29  1  0.58326219  0.13601516  0.70210502  1
  O  O30  1  0.79053996  0.92931607  0.68326164  1
  O  O31  1  0.54633250  0.36224263  0.24729389  1
  O  O32  1  0.75024891  0.63795380  0.45252901  1
  O  O33  1  0.70210502  0.58326219  0.13601516  1
  O  O34  1  0.92931607  0.68326164  0.79053996  1
  O  O35  1  0.86398909  0.41879240  0.29776581  1
  O  O36  1  0.84553763  0.15458765  0.99953863  1
  O  O37  1  0.97445644  0.49962424  0.02421003  1
