# generated using pymatgen
data_Mn5Cu(PO4)6
_symmetry_space_group_name_H-M   'P 1'
_cell_length_a   8.58600415
_cell_length_b   8.55766987
_cell_length_c   8.55766955
_cell_angle_alpha   59.99999472
_cell_angle_beta   60.10910576
_cell_angle_gamma   60.10911024
_symmetry_Int_Tables_number   1
_chemical_formula_structural   Mn5Cu(PO4)6
_chemical_formula_sum   'Mn5 Cu1 P6 O24'
_cell_volume   445.34992020
_cell_formula_units_Z   1
loop_
 _symmetry_equiv_pos_site_id
 _symmetry_equiv_pos_as_xyz
  1  'x, y, z'
loop_
 _atom_site_type_symbol
 _atom_site_label
 _atom_site_symmetry_multiplicity
 _atom_site_fract_x
 _atom_site_fract_y
 _atom_site_fract_z
 _atom_site_occupancy
  Mn  Mn0  1  0.99197004  0.00267632  0.00267632  1
  Mn  Mn1  1  0.06931847  0.64356084  0.64356084  1
  Mn  Mn2  1  0.49954454  0.50015149  0.50015149  1
  Mn  Mn3  1  0.42917479  0.85694207  0.85694207  1
  Mn  Mn4  1  0.93116064  0.35628012  0.35628012  1
  Cu  Cu5  1  0.56611634  0.14462755  0.14462755  1
  P  P6  1  0.24995626  0.24954219  0.54057869  1
  P  P7  1  0.24995626  0.95992186  0.24954219  1
  P  P8  1  0.24995626  0.54057869  0.95992186  1
  P  P9  1  0.75208460  0.46050557  0.03808736  1
  P  P10  1  0.75208460  0.03808736  0.74932148  1
  P  P11  1  0.75208460  0.74932148  0.46050557  1
  O  O12  1  0.06571628  0.12172816  0.30125510  1
  O  O13  1  0.06571628  0.51130046  0.12172816  1
  O  O14  1  0.06571628  0.30125510  0.51130046  1
  O  O15  1  0.23334636  0.08436166  0.73948829  1
  O  O16  1  0.43537667  0.19791349  0.38493632  1
  O  O17  1  0.25773348  0.41915787  0.56005856  1
  O  O18  1  0.23334636  0.94280269  0.08436166  1
  O  O19  1  0.25773348  0.76305009  0.41915787  1
  O  O20  1  0.56721145  0.62150886  0.01048363  1
  O  O21  1  0.25773348  0.56005856  0.76305009  1
  O  O22  1  0.76971463  0.26517939  0.05276808  1
  O  O23  1  0.56721145  0.01048363  0.80079605  1
  O  O24  1  0.43537667  0.98177252  0.19791349  1
  O  O25  1  0.23334636  0.73948829  0.94280269  1
  O  O26  1  0.73851001  0.44667103  0.23461861  1
  O  O27  1  0.43537667  0.38493632  0.98177252  1
  O  O28  1  0.73851001  0.23461861  0.58019935  1
  O  O29  1  0.76971463  0.05276808  0.91233789  1
  O  O30  1  0.73851001  0.58019935  0.44667103  1
  O  O31  1  0.56721145  0.80079605  0.62150886  1
  O  O32  1  0.76971463  0.91233789  0.26517939  1
  O  O33  1  0.93458663  0.69290064  0.49538515  1
  O  O34  1  0.93458663  0.49538515  0.87712758  1
  O  O35  1  0.93458663  0.87712758  0.69290064  1
