# generated using pymatgen
data_Li15Zr7(Cu3O14)2
_symmetry_space_group_name_H-M   'P 1'
_cell_length_a   5.40173972
_cell_length_b   13.13338896
_cell_length_c   8.07486257
_cell_angle_alpha   88.77790538
_cell_angle_beta   87.01715683
_cell_angle_gamma   80.85170651
_symmetry_Int_Tables_number   1
_chemical_formula_structural   Li15Zr7(Cu3O14)2
_chemical_formula_sum   'Li15 Zr7 Cu6 O28'
_cell_volume   564.75376382
_cell_formula_units_Z   1
loop_
 _symmetry_equiv_pos_site_id
 _symmetry_equiv_pos_as_xyz
  1  'x, y, z'
loop_
 _atom_site_type_symbol
 _atom_site_label
 _atom_site_symmetry_multiplicity
 _atom_site_fract_x
 _atom_site_fract_y
 _atom_site_fract_z
 _atom_site_occupancy
  Li  Li0  1  0.07035486  0.78715451  0.14740961  1
  Li  Li1  1  0.50085638  0.49804422  0.99554460  1
  Li  Li2  1  0.14609874  0.96108663  0.34395774  1
  Li  Li3  1  0.57868725  0.67692486  0.20545986  1
  Li  Li4  1  0.93558560  0.82704696  0.80427645  1
  Li  Li5  1  0.77749117  0.64478326  0.56776689  1
  Li  Li6  1  0.36135716  0.92927545  0.70983558  1
  Li  Li7  1  0.04736682  0.39266064  0.07436319  1
  Li  Li8  1  0.34089199  0.53889749  0.65102658  1
  Li  Li9  1  0.21488332  0.35353568  0.43307172  1
  Li  Li10  1  0.73709278  0.24665094  0.49587657  1
  Li  Li11  1  0.00002992  0.00241387  0.99673496  1
  Li  Li12  1  0.64226357  0.06897365  0.29278679  1
  Li  Li13  1  0.92644512  0.21598288  0.85021513  1
  Li  Li14  1  0.47684844  0.10852360  0.93212773  1
  Zr  Zr15  1  0.52677725  0.89427343  0.06880279  1
  Zr  Zr16  1  0.24480548  0.75511297  0.49634306  1
  Zr  Zr17  1  0.66420640  0.46166271  0.35546402  1
  Zr  Zr18  1  0.10347166  0.17553508  0.21228403  1
  Zr  Zr19  1  0.97764805  0.60623183  0.93141548  1
  Zr  Zr20  1  0.83029620  0.03544245  0.64891187  1
  Zr  Zr21  1  0.39853411  0.32233881  0.78491491  1
  Cu  Cu22  1  0.70915596  0.85721658  0.42863114  1
  Cu  Cu23  1  0.12707751  0.57103108  0.29094327  1
  Cu  Cu24  1  0.57682214  0.28383049  0.14302257  1
  Cu  Cu25  1  0.44336608  0.71593635  0.85560498  1
  Cu  Cu26  1  0.86162035  0.43117622  0.70893800  1
  Cu  Cu27  1  0.28135449  0.14122522  0.57120708  1
  O  O28  1  0.82037050  0.92008175  0.22186305  1
  O  O29  1  0.36320089  0.81895113  0.27497677  1
  O  O30  1  0.26063482  0.63692744  0.08151379  1
  O  O31  1  0.92400229  0.72384605  0.37533484  1
  O  O32  1  0.82909155  0.53706567  0.14931895  1
  O  O33  1  0.69666865  0.96621573  0.86612473  1
  O  O34  1  0.43805633  0.60465514  0.42336854  1
  O  O35  1  0.26882434  0.25164730  0.00710092  1
  O  O36  1  0.05927949  0.89538460  0.58267746  1
  O  O37  1  0.88286692  0.32009625  0.28227168  1
  O  O38  1  0.96752768  0.49818171  0.49255023  1
  O  O39  1  0.79434543  0.15236168  0.08135258  1
  O  O40  1  0.38355802  0.41906986  0.21348322  1
  O  O41  1  0.56793785  0.78669757  0.61427189  1
  O  O42  1  0.24224203  0.85363912  0.93016823  1
  O  O43  1  0.51521766  0.39133433  0.56255594  1
  O  O44  1  0.13890353  0.68090820  0.72536285  1
  O  O45  1  0.73921552  0.74739222  0.99212044  1
  O  O46  1  0.30420356  0.03363542  0.13546554  1
  O  O47  1  0.39543358  0.20441056  0.36712387  1
  O  O48  1  0.95460330  0.10482259  0.42394884  1
  O  O49  1  0.67072067  0.57441493  0.78985828  1
  O  O50  1  0.71366412  0.36279242  0.90152238  1
  O  O51  1  0.53518572  0.99382177  0.50788500  1
  O  O52  1  0.08249746  0.29524473  0.65481919  1
  O  O53  1  0.20102654  0.46735011  0.86400092  1
  O  O54  1  0.61342837  0.17951899  0.71614252  1
  O  O55  1  0.13590336  0.07656784  0.76587780  1
