# generated using pymatgen
data_NaVAsCO7
_symmetry_space_group_name_H-M   'P 1'
_cell_length_a   9.30863086
_cell_length_b   6.53112623
_cell_length_c   5.43491916
_cell_angle_alpha   90.00000000
_cell_angle_beta   86.94790181
_cell_angle_gamma   90.00000000
_symmetry_Int_Tables_number   1
_chemical_formula_structural   NaVAsCO7
_chemical_formula_sum   'Na2 V2 As2 C2 O14'
_cell_volume   329.95180271
_cell_formula_units_Z   2
loop_
 _symmetry_equiv_pos_site_id
 _symmetry_equiv_pos_as_xyz
  1  'x, y, z'
loop_
 _atom_site_type_symbol
 _atom_site_label
 _atom_site_symmetry_multiplicity
 _atom_site_fract_x
 _atom_site_fract_y
 _atom_site_fract_z
 _atom_site_occupancy
  Na  Na0  1  0.22247131  0.48461365  0.23664824  1
  Na  Na1  1  0.77752869  0.98461365  0.76335176  1
  V  V2  1  0.32903644  0.76939949  0.78972367  1
  V  V3  1  0.67096356  0.26939949  0.21027633  1
  As  As4  1  0.43869064  0.26126025  0.71689140  1
  As  As5  1  0.56130936  0.76126025  0.28310860  1
  C  C6  1  0.07643447  0.74159203  0.72380729  1
  C  C7  1  0.92356553  0.24159203  0.27619271  1
  O  O8  1  0.05289830  0.24881033  0.30913696  1
  O  O9  1  0.13566992  0.74264567  0.94347254  1
  O  O10  1  0.18201127  0.73610148  0.54560415  1
  O  O11  1  0.32908718  0.05046185  0.78575641  1
  O  O12  1  0.32815021  0.45984343  0.80099845  1
  O  O13  1  0.40909526  0.74229012  0.12370178  1
  O  O14  1  0.47919701  0.26083370  0.40474696  1
  O  O15  1  0.52080299  0.76083370  0.59525304  1
  O  O16  1  0.59090474  0.24229012  0.87629822  1
  O  O17  1  0.67184979  0.95984343  0.19900155  1
  O  O18  1  0.67091282  0.55046085  0.21424359  1
  O  O19  1  0.81798873  0.23610148  0.45439585  1
  O  O20  1  0.86433008  0.24264567  0.05652746  1
  O  O21  1  0.94710170  0.74881033  0.69086304  1
