# generated using pymatgen
data_LiNiO2
_symmetry_space_group_name_H-M   'P 1'
_cell_length_a   9.97877012
_cell_length_b   9.97876978
_cell_length_c   14.17332570
_cell_angle_alpha   19.31033661
_cell_angle_beta   19.31033756
_cell_angle_gamma   33.04791663
_symmetry_Int_Tables_number   1
_chemical_formula_structural   LiNiO2
_chemical_formula_sum   'Li4 Ni4 O8'
_cell_volume   135.43336823
_cell_formula_units_Z   4
loop_
 _symmetry_equiv_pos_site_id
 _symmetry_equiv_pos_as_xyz
  1  'x, y, z'
loop_
 _atom_site_type_symbol
 _atom_site_label
 _atom_site_symmetry_multiplicity
 _atom_site_fract_x
 _atom_site_fract_y
 _atom_site_fract_z
 _atom_site_occupancy
  Li  Li0  1  0.50000000  0.50000000  0.00000000  1
  Li  Li1  1  0.00000000  0.50000000  0.50000000  1
  Li  Li2  1  0.50000000  0.00000000  0.50000000  1
  Li  Li3  1  0.50000000  0.50000000  0.50000000  1
  Ni  Ni4  1  0.00000000  0.00000000  0.00000000  1
  Ni  Ni5  1  0.00000000  0.50000000  0.00000000  1
  Ni  Ni6  1  0.50000000  0.00000000  0.00000000  1
  Ni  Ni7  1  0.00000000  0.00000000  0.50000000  1
  O  O8  1  0.02702329  0.02702329  0.22280123  1
  O  O9  1  0.95773153  0.45828225  0.31322180  1
  O  O10  1  0.45828225  0.95773153  0.31322180  1
  O  O11  1  0.97297671  0.97297671  0.77719877  1
  O  O12  1  0.53167573  0.53167573  0.21716686  1
  O  O13  1  0.04226847  0.54171775  0.68677820  1
  O  O14  1  0.54171775  0.04226847  0.68677820  1
  O  O15  1  0.46832427  0.46832427  0.78283314  1
