# generated using pymatgen
data_Li5La3Nb2O12
_symmetry_space_group_name_H-M   'P 1'
_cell_length_a   11.12828385
_cell_length_b   11.20195688
_cell_length_c   11.12828385
_cell_angle_alpha   109.62292367
_cell_angle_beta   108.68474582
_cell_angle_gamma   109.83672304
_symmetry_Int_Tables_number   1
_chemical_formula_structural   Li5La3Nb2O12
_chemical_formula_sum   'Li20 La12 Nb8 O48'
_cell_volume   1071.33690477
_cell_formula_units_Z   4
loop_
 _symmetry_equiv_pos_site_id
 _symmetry_equiv_pos_as_xyz
  1  'x, y, z'
loop_
 _atom_site_type_symbol
 _atom_site_label
 _atom_site_symmetry_multiplicity
 _atom_site_fract_x
 _atom_site_fract_y
 _atom_site_fract_z
 _atom_site_occupancy
  Li  Li0  1  0.76564616  0.27973885  0.17192458  1
  Li  Li1  1  0.46368642  0.25210558  0.07666569  1
  Li  Li2  1  0.67723666  0.38627911  0.42476631  1
  Li  Li3  1  0.96151279  0.88627911  0.20904245  1
  Li  Li4  1  0.81274759  0.25247948  0.69980430  1
  Li  Li5  1  0.89085784  0.21385376  0.96913328  1
  Li  Li6  1  0.70200844  0.80765941  0.25930730  1
  Li  Li7  1  0.54835211  0.30765941  0.60564997  1
  Li  Li8  1  0.44631683  0.69225603  0.39345294  1
  Li  Li9  1  0.07188140  0.46383565  0.25440301  1
  Li  Li10  1  0.29880309  0.19225603  0.74593920  1
  Li  Li11  1  0.38932825  0.43507464  0.68333860  1
  Li  Li12  1  0.10781426  0.77973885  0.01409268  1
  Li  Li13  1  0.75173704  0.93507464  0.54574639  1
  Li  Li14  1  0.32117211  0.61214781  0.57150622  1
  Li  Li15  1  0.17544089  0.75210558  0.28842016  1
  Li  Li16  1  0.04064159  0.11214781  0.79097570  1
  Li  Li17  1  0.55267518  0.75247948  0.93973189  1
  Li  Li18  1  0.24472048  0.71385376  0.82299493  1
  Li  Li19  1  0.20943264  0.96383565  0.89195425  1
  La  La20  1  0.75193086  0.12364393  0.37020264  1
  La  La21  1  0.35994823  0.11426053  0.25306004  1
  La  La22  1  0.86120049  0.61426053  0.25431230  1
  La  La23  1  0.25474853  0.37129067  0.12407951  1
  La  La24  1  0.11636155  0.24158307  0.36796020  1
  La  La25  1  0.87362286  0.74158307  0.62522252  1
  La  La26  1  0.62070464  0.25140840  0.87115388  1
  La  La27  1  0.38025451  0.75140840  0.13070376  1
  La  La28  1  0.75344129  0.62364393  0.87171207  1
  La  La29  1  0.12640833  0.37991991  0.74876799  1
  La  La30  1  0.63115192  0.87991991  0.75351258  1
  La  La31  1  0.24721115  0.87129067  0.61654214  1
  Nb  Nb32  1  0.50459883  0.00065319  0.00179316  1
  Nb  Nb33  1  0.99355663  0.00102460  0.99822745  1
  Nb  Nb34  1  0.49884595  0.00204849  0.50203988  1
  Nb  Nb35  1  0.50000961  0.50204849  0.00320254  1
  Nb  Nb36  1  0.99886103  0.50065319  0.99605437  1
  Nb  Nb37  1  0.49966378  0.50274181  0.49474488  1
  Nb  Nb38  1  0.00799592  0.00274181  0.50307703  1
  Nb  Nb39  1  0.00279615  0.50102460  0.50746697  1
  O  O40  1  0.67397679  0.09949780  0.97580299  1
  O  O41  1  0.88352333  0.40318374  0.08446137  1
  O  O42  1  0.92465401  0.30850148  0.32865504  1
  O  O43  1  0.92036173  0.11669299  0.59922320  1
  O  O44  1  0.58760778  0.17781895  0.19857699  1
  O  O45  1  0.61006610  0.40724903  0.07994241  1
  O  O46  1  0.20275402  0.11587121  0.02815466  1
  O  O47  1  0.70208172  0.67541926  0.09100973  1
  O  O48  1  0.58440854  0.17541926  0.47333755  1
  O  O49  1  0.91115052  0.37764444  0.58098922  1
  O  O50  1  0.82920763  0.52573308  0.41884958  1
  O  O51  1  0.10688449  0.02573308  0.19652644  1
  O  O52  1  0.67648504  0.08433517  0.69529227  1
  O  O53  1  0.01409100  0.32206445  0.89873606  1
  O  O54  1  0.47330708  0.37215736  0.30184745  1
  O  O55  1  0.03322834  0.20811076  0.11439471  1
  O  O56  1  0.47258831  0.59166602  0.17295519  1
  O  O57  1  0.41871083  0.09166602  0.61907771  1
  O  O58  1  0.69093796  0.51845411  0.61039676  1
  O  O59  1  0.90805735  0.01845411  0.32751615  1
  O  O60  1  0.58537308  0.91180821  0.11645788  1
  O  O61  1  0.79535034  0.41180821  0.82643513  1
  O  O62  1  0.37999810  0.31391735  0.48538823  1
  O  O63  1  0.82852912  0.81391735  0.43391925  1
  O  O64  1  0.17492672  0.20835221  0.58870127  1
  O  O65  1  0.61965094  0.70835221  0.53342549  1
  O  O66  1  0.18860774  0.57612153  0.17559316  1
  O  O67  1  0.30768887  0.49017105  0.38285688  1
  O  O68  1  0.10731417  0.99017105  0.68248218  1
  O  O69  1  0.40052837  0.07612153  0.88751379  1
  O  O70  1  0.59022160  0.91185077  0.38716732  1
  O  O71  1  0.52468345  0.41185077  0.82162917  1
  O  O72  1  0.97984644  0.80850148  0.88384747  1
  O  O73  1  0.97924195  0.67781895  0.09021117  1
  O  O74  1  0.51746980  0.61669299  0.69633126  1
  O  O75  1  0.88695364  0.98047400  0.80063702  1
  O  O76  1  0.17983698  0.48047400  0.59352036  1
  O  O77  1  0.32730662  0.90724903  0.29718392  1
  O  O78  1  0.41003479  0.82469910  0.52445668  1
  O  O79  1  0.30024242  0.32469910  0.91466431  1
  O  O80  1  0.08771655  0.61587121  0.41311719  1
  O  O81  1  0.79665522  0.87764444  0.96649392  1
  O  O82  1  0.38904391  0.58433517  0.90785113  1
  O  O83  1  0.07030991  0.87215736  0.39884928  1
  O  O84  1  0.42332740  0.82206445  0.80797345  1
  O  O85  1  0.09371604  0.70811076  0.67488242  1
  O  O86  1  0.12369482  0.59949780  0.92552101  1
  O  O87  1  0.31872237  0.90318374  0.01966041  1
