# generated using pymatgen
data_Na8Co5O14
_symmetry_space_group_name_H-M   'P 1'
_cell_length_a   10.32211635
_cell_length_b   8.26357634
_cell_length_c   8.46594064
_cell_angle_alpha   112.55229225
_cell_angle_beta   103.75275777
_cell_angle_gamma   103.28577502
_symmetry_Int_Tables_number   1
_chemical_formula_structural   Na8Co5O14
_chemical_formula_sum   'Na16 Co10 O28'
_cell_volume   604.89396873
_cell_formula_units_Z   2
loop_
 _symmetry_equiv_pos_site_id
 _symmetry_equiv_pos_as_xyz
  1  'x, y, z'
loop_
 _atom_site_type_symbol
 _atom_site_label
 _atom_site_symmetry_multiplicity
 _atom_site_fract_x
 _atom_site_fract_y
 _atom_site_fract_z
 _atom_site_occupancy
  Na  Na0  1  0.01214406  0.44197141  0.66606859  1
  Na  Na1  1  0.00000000  0.00000000  0.00000000  1
  Na  Na2  1  0.15661074  0.15120848  0.64775387  1
  Na  Na3  1  0.16036485  0.29593915  0.36459411  1
  Na  Na4  1  0.10737885  0.37267225  0.01534240  1
  Na  Na5  1  0.29716181  0.70912128  0.41638472  1
  Na  Na6  1  0.38208955  0.10351893  0.47445037  1
  Na  Na7  1  0.43210192  0.56061215  0.12393500  1
  Na  Na8  1  0.50000000  0.50000000  0.50000000  1
  Na  Na9  1  0.56789808  0.43938785  0.87606500  1
  Na  Na10  1  0.61791045  0.89648107  0.52554963  1
  Na  Na11  1  0.70283819  0.29087872  0.58361528  1
  Na  Na12  1  0.89262115  0.62732775  0.98465760  1
  Na  Na13  1  0.83963515  0.70406085  0.63540589  1
  Na  Na14  1  0.84338926  0.84879152  0.35224613  1
  Na  Na15  1  0.98785594  0.55802859  0.33393141  1
  Co  Co16  1  0.17081321  0.86295177  0.74763599  1
  Co  Co17  1  0.22582119  0.79437435  0.06644536  1
  Co  Co18  1  0.33892213  0.60999915  0.76556372  1
  Co  Co19  1  0.33324827  0.16923269  0.10530247  1
  Co  Co20  1  0.47129799  0.03380603  0.83644426  1
  Co  Co21  1  0.52870201  0.96619397  0.16355574  1
  Co  Co22  1  0.66675173  0.83076731  0.89469753  1
  Co  Co23  1  0.66107787  0.39000085  0.23443628  1
  Co  Co24  1  0.77417881  0.20562565  0.93355464  1
  Co  Co25  1  0.82918679  0.13704823  0.25236401  1
  O  O26  1  0.02281595  0.83701968  0.56776359  1
  O  O27  1  0.06474524  0.74990762  0.85657039  1
  O  O28  1  0.19038247  0.62868069  0.60391689  1
  O  O29  1  0.24035601  0.56637559  0.91101780  1
  O  O30  1  0.12532994  0.69365626  0.16787305  1
  O  O31  1  0.18196507  0.10470283  0.90080018  1
  O  O32  1  0.30823988  0.97896159  0.66153538  1
  O  O33  1  0.35215767  0.92733477  0.96251226  1
  O  O34  1  0.34966354  0.39089830  0.64295232  1
  O  O35  1  0.22850277  0.04111372  0.19669816  1
  O  O36  1  0.31128752  0.39290883  0.23477547  1
  O  O37  1  0.52848809  0.73701961  0.98939308  1
  O  O38  1  0.48382133  0.79083177  0.71335233  1
  O  O39  1  0.40980386  0.85328346  0.25457801  1
  O  O40  1  0.59019614  0.14671654  0.74542199  1
  O  O41  1  0.51617867  0.20916823  0.28664767  1
  O  O42  1  0.47151191  0.26298039  0.01060692  1
  O  O43  1  0.68871248  0.60709117  0.76522453  1
  O  O44  1  0.77149723  0.95888628  0.80330184  1
  O  O45  1  0.65033646  0.60910170  0.35704768  1
  O  O46  1  0.64784233  0.07266523  0.03748774  1
  O  O47  1  0.69176012  0.02103841  0.33846462  1
  O  O48  1  0.81803493  0.89529717  0.09919982  1
  O  O49  1  0.87467006  0.30634374  0.83212695  1
  O  O50  1  0.75964399  0.43362441  0.08898220  1
  O  O51  1  0.80961753  0.37131931  0.39608311  1
  O  O52  1  0.93525476  0.25009238  0.14342961  1
  O  O53  1  0.97718405  0.16298032  0.43223641  1
