# generated using pymatgen
data_LiVSiO5
_symmetry_space_group_name_H-M   'P 1'
_cell_length_a   6.38834273
_cell_length_b   6.29329610
_cell_length_c   4.66233570
_cell_angle_alpha   90.00000000
_cell_angle_beta   87.48407378
_cell_angle_gamma   90.00000000
_symmetry_Int_Tables_number   1
_chemical_formula_structural   LiVSiO5
_chemical_formula_sum   'Li2 V2 Si2 O10'
_cell_volume   187.26261214
_cell_formula_units_Z   2
loop_
 _symmetry_equiv_pos_site_id
 _symmetry_equiv_pos_as_xyz
  1  'x, y, z'
loop_
 _atom_site_type_symbol
 _atom_site_label
 _atom_site_symmetry_multiplicity
 _atom_site_fract_x
 _atom_site_fract_y
 _atom_site_fract_z
 _atom_site_occupancy
  Li  Li0  1  0.50000000  0.00000000  0.50000000  1
  Li  Li1  1  0.50000000  0.50000000  0.50000000  1
  V  V2  1  0.24056664  0.25000000  0.10500025  1
  V  V3  1  0.75943336  0.75000000  0.89499975  1
  Si  Si4  1  0.25863162  0.75000000  0.00160510  1
  Si  Si5  1  0.74136838  0.25000000  0.99839490  1
  O  O6  1  0.04057545  0.75000000  0.82628214  1
  O  O7  1  0.27469753  0.25000000  0.75562610  1
  O  O8  1  0.26849300  0.53870506  0.20923986  1
  O  O9  1  0.26849300  0.96129494  0.20923986  1
  O  O10  1  0.45568458  0.75000000  0.76410671  1
  O  O11  1  0.54431542  0.25000000  0.23589329  1
  O  O12  1  0.73150700  0.03870506  0.79076014  1
  O  O13  1  0.73150700  0.46129494  0.79076014  1
  O  O14  1  0.72530247  0.75000000  0.24437390  1
  O  O15  1  0.95942455  0.25000000  0.17371786  1
