# generated using pymatgen
data_MnCr3(PO4)6
_symmetry_space_group_name_H-M   'P 1'
_cell_length_a   8.74469238
_cell_length_b   8.74469179
_cell_length_c   8.74469206
_cell_angle_alpha   58.30198910
_cell_angle_beta   58.30199256
_cell_angle_gamma   58.30198989
_symmetry_Int_Tables_number   1
_chemical_formula_structural   MnCr3(PO4)6
_chemical_formula_sum   'Mn1 Cr3 P6 O24'
_cell_volume   454.45757488
_cell_formula_units_Z   1
loop_
 _symmetry_equiv_pos_site_id
 _symmetry_equiv_pos_as_xyz
  1  'x, y, z'
loop_
 _atom_site_type_symbol
 _atom_site_label
 _atom_site_symmetry_multiplicity
 _atom_site_fract_x
 _atom_site_fract_y
 _atom_site_fract_z
 _atom_site_occupancy
  Mn  Mn0  1  0.85567028  0.85567028  0.85567028  1
  Cr  Cr1  1  0.14282754  0.14282754  0.14282754  1
  Cr  Cr2  1  0.35708304  0.35708304  0.35708304  1
  Cr  Cr3  1  0.64213578  0.64213578  0.64213578  1
  P  P4  1  0.03287511  0.75019362  0.46784436  1
  P  P5  1  0.46784436  0.03287511  0.75019362  1
  P  P6  1  0.75019362  0.46784436  0.03287511  1
  P  P7  1  0.24713764  0.53603622  0.96569566  1
  P  P8  1  0.53603622  0.96569566  0.24713764  1
  P  P9  1  0.96569566  0.24713764  0.53603622  1
  O  O10  1  0.13631448  0.27899044  0.50888815  1
  O  O11  1  0.27899044  0.50888815  0.13631448  1
  O  O12  1  0.06174507  0.92346333  0.28223610  1
  O  O13  1  0.50888815  0.13631448  0.27899044  1
  O  O14  1  0.21771652  0.57743687  0.43754490  1
  O  O15  1  0.01139607  0.77479588  0.64055420  1
  O  O16  1  0.28223610  0.06174507  0.92346333  1
  O  O17  1  0.43754490  0.21771652  0.57743687  1
  O  O18  1  0.57743687  0.43754490  0.21771652  1
  O  O19  1  0.21950536  0.36371578  0.99100828  1
  O  O20  1  0.07303722  0.72053358  0.94080206  1
  O  O21  1  0.36371578  0.99100828  0.21950536  1
  O  O22  1  0.64055420  0.01139607  0.77479588  1
  O  O23  1  0.92346333  0.28223610  0.06174507  1
  O  O24  1  0.77479588  0.64055420  0.01139607  1
  O  O25  1  0.42230975  0.56304761  0.78180417  1
  O  O26  1  0.56304761  0.78180417  0.42230975  1
  O  O27  1  0.72053358  0.94080206  0.07303722  1
  O  O28  1  0.99100828  0.21950536  0.36371578  1
  O  O29  1  0.78180417  0.42230975  0.56304761  1
  O  O30  1  0.49224944  0.86172036  0.72168615  1
  O  O31  1  0.94080206  0.07303722  0.72053358  1
  O  O32  1  0.72168615  0.49224944  0.86172036  1
  O  O33  1  0.86172036  0.72168615  0.49224944  1
