# generated using pymatgen
data_MnAlO3
_symmetry_space_group_name_H-M   'P 1'
_cell_length_a   4.98961970
_cell_length_b   4.86261762
_cell_length_c   5.38276141
_cell_angle_alpha   65.45844261
_cell_angle_beta   119.47650424
_cell_angle_gamma   117.59520818
_symmetry_Int_Tables_number   1
_chemical_formula_structural   MnAlO3
_chemical_formula_sum   'Mn2 Al2 O6'
_cell_volume   97.74293990
_cell_formula_units_Z   2
loop_
 _symmetry_equiv_pos_site_id
 _symmetry_equiv_pos_as_xyz
  1  'x, y, z'
loop_
 _atom_site_type_symbol
 _atom_site_label
 _atom_site_symmetry_multiplicity
 _atom_site_fract_x
 _atom_site_fract_y
 _atom_site_fract_z
 _atom_site_occupancy
  Mn  Mn0  1  0.65447118  0.35444480  0.94071344  1
  Mn  Mn1  1  0.34548410  0.64558261  0.05923092  1
  Al  Al2  1  0.84513758  0.14870096  0.54585583  1
  Al  Al3  1  0.15482507  0.85130713  0.45411640  1
  O  O4  1  0.97472903  0.78487826  0.74036052  1
  O  O5  1  0.56842747  0.08169561  0.71851242  1
  O  O6  1  0.24137417  0.44785368  0.74338980  1
  O  O7  1  0.75853386  0.55213796  0.25659933  1
  O  O8  1  0.43167110  0.91811981  0.28167758  1
  O  O9  1  0.02534545  0.21527818  0.25954478  1
