# generated using pymatgen
data_Li3Co2(PO4)3
_symmetry_space_group_name_H-M   'P 1'
_cell_length_a   8.41007118
_cell_length_b   8.48855379
_cell_length_c   8.48855400
_cell_angle_alpha   62.27185292
_cell_angle_beta   62.38991269
_cell_angle_gamma   62.38991158
_symmetry_Int_Tables_number   1
_chemical_formula_structural   Li3Co2(PO4)3
_chemical_formula_sum   'Li6 Co4 P6 O24'
_cell_volume   450.97120471
_cell_formula_units_Z   2
loop_
 _symmetry_equiv_pos_site_id
 _symmetry_equiv_pos_as_xyz
  1  'x, y, z'
loop_
 _atom_site_type_symbol
 _atom_site_label
 _atom_site_symmetry_multiplicity
 _atom_site_fract_x
 _atom_site_fract_y
 _atom_site_fract_z
 _atom_site_occupancy
  Li  Li0  1  0.02163494  0.00507843  0.99280072  1
  Li  Li1  1  0.75000000  0.14999804  0.35000196  1
  Li  Li2  1  0.47836506  0.50719928  0.49492157  1
  Li  Li3  1  0.25000000  0.84728644  0.65271356  1
  Li  Li4  1  0.65515846  0.25252073  0.84454212  1
  Li  Li5  1  0.84484154  0.65545788  0.24747927  1
  Co  Co6  1  0.14518872  0.14685666  0.13707165  1
  Co  Co7  1  0.35481128  0.36292835  0.35314334  1
  Co  Co8  1  0.64704291  0.64833079  0.64775147  1
  Co  Co9  1  0.85295709  0.85224853  0.85166921  1
  P  P10  1  0.04960068  0.75152801  0.44981642  1
  P  P11  1  0.45039932  0.05018358  0.74847199  1
  P  P12  1  0.75000000  0.45321504  0.04678496  1
  P  P13  1  0.25000000  0.54321654  0.95678346  1
  P  P14  1  0.54471876  0.95986331  0.25047293  1
  P  P15  1  0.95528124  0.24952707  0.54013669  1
  O  O16  1  0.12799557  0.29943312  0.49450048  1
  O  O17  1  0.31114299  0.50634563  0.11789762  1
  O  O18  1  0.04515523  0.92079315  0.26729783  1
  O  O19  1  0.53005068  0.11788463  0.30290420  1
  O  O20  1  0.24068657  0.59500811  0.43076643  1
  O  O21  1  0.01674787  0.81054624  0.61345682  1
  O  O22  1  0.25931343  0.06923357  0.90499189  1
  O  O23  1  0.45484577  0.23270217  0.57920685  1
  O  O24  1  0.59434823  0.43329959  0.24111060  1
  O  O25  1  0.18885701  0.38210238  0.99365437  1
  O  O26  1  0.09124304  0.73733025  0.93680934  1
  O  O27  1  0.37200443  0.00549952  0.20056688  1
  O  O28  1  0.61317400  0.01278233  0.81355528  1
  O  O29  1  0.90565177  0.25888940  0.06670041  1
  O  O30  1  0.81380130  0.61262024  0.01362781  1
  O  O31  1  0.40875696  0.56319066  0.76266975  1
  O  O32  1  0.56096559  0.76625354  0.41007616  1
  O  O33  1  0.73661093  0.93226684  0.08899576  1
  O  O34  1  0.96994932  0.19709580  0.38211537  1
  O  O35  1  0.76338907  0.41100424  0.56773316  1
  O  O36  1  0.48325213  0.88654318  0.68945376  1
  O  O37  1  0.93903441  0.08992384  0.73374646  1
  O  O38  1  0.68619870  0.48637219  0.88737976  1
  O  O39  1  0.88682600  0.68644472  0.48721767  1
