# generated using pymatgen
data_RbDyBr3
_symmetry_space_group_name_H-M   'P 1'
_cell_length_a   7.70016061
_cell_length_b   8.23599325
_cell_length_c   11.25852125
_cell_angle_alpha   90.00000000
_cell_angle_beta   90.00000000
_cell_angle_gamma   90.00000000
_symmetry_Int_Tables_number   1
_chemical_formula_structural   RbDyBr3
_chemical_formula_sum   'Rb4 Dy4 Br12'
_cell_volume   713.99820123
_cell_formula_units_Z   4
loop_
 _symmetry_equiv_pos_site_id
 _symmetry_equiv_pos_as_xyz
  1  'x, y, z'
loop_
 _atom_site_type_symbol
 _atom_site_label
 _atom_site_symmetry_multiplicity
 _atom_site_fract_x
 _atom_site_fract_y
 _atom_site_fract_z
 _atom_site_occupancy
  Rb  Rb0  1  0.02986373  0.43096965  0.25000000  1
  Rb  Rb1  1  0.97013627  0.56903035  0.75000000  1
  Rb  Rb2  1  0.52986373  0.06903035  0.75000000  1
  Rb  Rb3  1  0.47013627  0.93096965  0.25000000  1
  Dy  Dy4  1  0.00000000  -0.00000000  -0.00000000  1
  Dy  Dy5  1  0.50000000  0.50000000  -0.00000000  1
  Dy  Dy6  1  -0.00000000  0.00000000  0.50000000  1
  Dy  Dy7  1  0.50000000  0.50000000  0.50000000  1
  Br  Br8  1  0.29213063  0.21295548  0.03411493  1
  Br  Br9  1  0.70786937  0.78704452  0.96588507  1
  Br  Br10  1  0.79213063  0.28704452  0.96588507  1
  Br  Br11  1  0.70786937  0.78704452  0.53411493  1
  Br  Br12  1  0.20786937  0.71295548  0.03411493  1
  Br  Br13  1  0.29213063  0.21295548  0.46588507  1
  Br  Br14  1  0.20786937  0.71295548  0.46588507  1
  Br  Br15  1  0.79213063  0.28704452  0.53411493  1
  Br  Br16  1  0.57984700  0.51082622  0.25000000  1
  Br  Br17  1  0.42015300  0.48917378  0.75000000  1
  Br  Br18  1  0.07984700  0.98917378  0.75000000  1
  Br  Br19  1  0.92015300  0.01082622  0.25000000  1
