# generated using pymatgen
data_Li3TiV4O8
_symmetry_space_group_name_H-M   'P 1'
_cell_length_a   10.56262653
_cell_length_b   10.56262621
_cell_length_c   14.93823301
_cell_angle_alpha   19.37284365
_cell_angle_beta   19.37284660
_cell_angle_gamma   33.46312723
_symmetry_Int_Tables_number   1
_chemical_formula_structural   Li3TiV4O8
_chemical_formula_sum   'Li3 Ti1 V4 O8'
_cell_volume   158.13167502
_cell_formula_units_Z   1
loop_
 _symmetry_equiv_pos_site_id
 _symmetry_equiv_pos_as_xyz
  1  'x, y, z'
loop_
 _atom_site_type_symbol
 _atom_site_label
 _atom_site_symmetry_multiplicity
 _atom_site_fract_x
 _atom_site_fract_y
 _atom_site_fract_z
 _atom_site_occupancy
  Li  Li0  1  0.00000000  0.50000000  0.50000000  1
  Li  Li1  1  0.50000000  0.00000000  0.50000000  1
  Li  Li2  1  0.50000000  0.50000000  0.50000000  1
  Ti  Ti3  1  0.50000000  0.50000000  0.00000000  1
  V  V4  1  0.00000000  0.00000000  0.00000000  1
  V  V5  1  0.00000000  0.50000000  0.00000000  1
  V  V6  1  0.50000000  0.00000000  0.00000000  1
  V  V7  1  0.00000000  0.00000000  0.50000000  1
  O  O8  1  0.97482200  0.97482200  0.29151777  1
  O  O9  1  0.01826834  0.49424716  0.24692200  1
  O  O10  1  0.49424716  0.01826834  0.24692200  1
  O  O11  1  0.02517800  0.02517800  0.70848223  1
  O  O12  1  0.51177783  0.51177783  0.23831041  1
  O  O13  1  0.98173166  0.50575284  0.75307800  1
  O  O14  1  0.50575284  0.98173166  0.75307800  1
  O  O15  1  0.48822217  0.48822217  0.76168959  1
