# generated using pymatgen
data_Li4MnSn(WO6)2
_symmetry_space_group_name_H-M   'P 1'
_cell_length_a   5.42290314
_cell_length_b   10.86872109
_cell_length_c   9.56879621
_cell_angle_alpha   28.28358701
_cell_angle_beta   51.45100280
_cell_angle_gamma   56.73620928
_symmetry_Int_Tables_number   1
_chemical_formula_structural   Li4MnSn(WO6)2
_chemical_formula_sum   'Li4 Mn1 Sn1 W2 O12'
_cell_volume   208.99898658
_cell_formula_units_Z   1
loop_
 _symmetry_equiv_pos_site_id
 _symmetry_equiv_pos_as_xyz
  1  'x, y, z'
loop_
 _atom_site_type_symbol
 _atom_site_label
 _atom_site_symmetry_multiplicity
 _atom_site_fract_x
 _atom_site_fract_y
 _atom_site_fract_z
 _atom_site_occupancy
  Li  Li0  1  0.27326560  0.00247966  0.29792630  1
  Li  Li1  1  0.30998891  0.49812342  0.28280750  1
  Li  Li2  1  0.78126256  0.00248358  0.75600649  1
  Li  Li3  1  0.76274202  0.49705820  0.78670697  1
  Mn  Mn4  1  0.00112103  0.49834689  0.00576625  1
  Sn  Sn5  1  0.00167006  0.00069228  0.00031264  1
  W  W6  1  0.50269072  0.99740968  0.50492465  1
  W  W7  1  0.49948890  0.50422221  0.50022128  1
  O  O8  1  0.35903614  0.29469230  0.13890026  1
  O  O9  1  0.23943401  0.12814615  0.61255860  1
  O  O10  1  0.12575591  0.33811865  0.71615911  1
  O  O11  1  0.85804159  0.19997171  0.23627324  1
  O  O12  1  0.39332823  0.80554601  0.12061430  1
  O  O13  1  0.73205557  0.37918323  0.36820939  1
  O  O14  1  0.24916147  0.62078280  0.62584982  1
  O  O15  1  0.60578708  0.18326779  0.87486924  1
  O  O16  1  0.13453091  0.80604751  0.74678599  1
  O  O17  1  0.87817210  0.67527967  0.25254953  1
  O  O18  1  0.72808140  0.87388803  0.38384325  1
  O  O19  1  0.63558478  0.69426124  0.85991419  1
