# generated using pymatgen
data_Li2Fe(Si2O5)3
_symmetry_space_group_name_H-M   'P 1'
_cell_length_a   11.28237603
_cell_length_b   11.28237638
_cell_length_c   10.02960531
_cell_angle_alpha   90.00000000
_cell_angle_beta   90.00000000
_cell_angle_gamma   79.94627945
_symmetry_Int_Tables_number   1
_chemical_formula_structural   Li2Fe(Si2O5)3
_chemical_formula_sum   'Li8 Fe4 Si24 O60'
_cell_volume   1257.08446518
_cell_formula_units_Z   4
loop_
 _symmetry_equiv_pos_site_id
 _symmetry_equiv_pos_as_xyz
  1  'x, y, z'
loop_
 _atom_site_type_symbol
 _atom_site_label
 _atom_site_symmetry_multiplicity
 _atom_site_fract_x
 _atom_site_fract_y
 _atom_site_fract_z
 _atom_site_occupancy
  Li  Li0  1  0.99446947  0.49446947  0.75000000  1
  Li  Li1  1  0.24732880  0.75267120  0.50000000  1
  Li  Li2  1  0.25267120  0.74732880  0.00000000  1
  Li  Li3  1  0.49446947  0.99446947  0.75000000  1
  Li  Li4  1  0.50553053  0.00553053  0.25000000  1
  Li  Li5  1  0.74732880  0.25267120  0.00000000  1
  Li  Li6  1  0.75267120  0.24732880  0.50000000  1
  Li  Li7  1  0.00553053  0.50553053  0.25000000  1
  Fe  Fe8  1  0.16207615  0.66207615  0.75000000  1
  Fe  Fe9  1  0.33792385  0.83792385  0.25000000  1
  Fe  Fe10  1  0.66207615  0.16207615  0.75000000  1
  Fe  Fe11  1  0.83792385  0.33792385  0.25000000  1
  Si  Si12  1  0.02266280  0.23967916  0.99257007  1
  Si  Si13  1  0.07915284  0.29712767  0.45520522  1
  Si  Si14  1  0.04174148  0.82208533  0.30517021  1
  Si  Si15  1  0.23967916  0.02266280  0.99257007  1
  Si  Si16  1  0.20287233  0.42084716  0.95520522  1
  Si  Si17  1  0.29712767  0.07915284  0.45520522  1
  Si  Si18  1  0.26032084  0.47733720  0.49257007  1
  Si  Si19  1  0.17791467  0.95825852  0.69482979  1
  Si  Si20  1  0.32208533  0.54174148  0.19482979  1
  Si  Si21  1  0.42084716  0.20287233  0.95520522  1
  Si  Si22  1  0.47733720  0.26032084  0.49257007  1
  Si  Si23  1  0.45825852  0.67791467  0.80517021  1
  Si  Si24  1  0.54174148  0.32208533  0.19482979  1
  Si  Si25  1  0.52266280  0.73967916  0.50742993  1
  Si  Si26  1  0.57915284  0.79712767  0.04479478  1
  Si  Si27  1  0.67791467  0.45825852  0.80517021  1
  Si  Si28  1  0.82208533  0.04174148  0.30517021  1
  Si  Si29  1  0.73967916  0.52266280  0.50742993  1
  Si  Si30  1  0.70287233  0.92084716  0.54479478  1
  Si  Si31  1  0.79712767  0.57915284  0.04479478  1
  Si  Si32  1  0.76032084  0.97733720  0.00742993  1
  Si  Si33  1  0.95825852  0.17791467  0.69482979  1
  Si  Si34  1  0.92084716  0.70287233  0.54479478  1
  Si  Si35  1  0.97733720  0.76032084  0.00742993  1
  O  O36  1  0.04889083  0.04889083  0.68985571  1
  O  O37  1  0.00195013  0.34950991  0.32626539  1
  O  O38  1  0.11233345  0.11233345  0.02056273  1
  O  O39  1  0.00369551  0.73035102  0.41847649  1
  O  O40  1  0.09618737  0.35125952  0.01183657  1
  O  O41  1  0.02508617  0.75469872  0.16301175  1
  O  O42  1  0.17733993  0.17733993  0.41808371  1
  O  O43  1  0.14874048  0.40381263  0.51183657  1
  O  O44  1  0.09558208  0.74562206  0.91459517  1
  O  O45  1  0.15049009  0.49804987  0.82626539  1
  O  O46  1  0.16399634  0.82153728  0.66223137  1
  O  O47  1  0.23035102  0.50369551  0.08152351  1
  O  O48  1  0.17846272  0.83600366  0.33776863  1
  O  O49  1  0.34950991  0.00195013  0.32626539  1
  O  O50  1  0.25469872  0.52508617  0.33698825  1
  O  O51  1  0.24562206  0.59558208  0.58540483  1
  O  O52  1  0.35125952  0.09618737  0.01183657  1
  O  O53  1  0.32266007  0.32266007  0.91808371  1
  O  O54  1  0.25437794  0.90441792  0.08540483  1
  O  O55  1  0.24530128  0.97491383  0.83698825  1
  O  O56  1  0.40381263  0.14874048  0.51183657  1
  O  O57  1  0.32153728  0.66399634  0.83776863  1
  O  O58  1  0.26964898  0.99630449  0.58152351  1
  O  O59  1  0.38766655  0.38766655  0.52056273  1
  O  O60  1  0.33600366  0.67846272  0.16223137  1
  O  O61  1  0.49804987  0.15049009  0.82626539  1
  O  O62  1  0.45110917  0.45110917  0.18985571  1
  O  O63  1  0.40441792  0.75437794  0.41459517  1
  O  O64  1  0.50369551  0.23035102  0.08152351  1
  O  O65  1  0.52508617  0.25469872  0.33698825  1
  O  O66  1  0.47491383  0.74530128  0.66301175  1
  O  O67  1  0.49630449  0.76964898  0.91847649  1
  O  O68  1  0.59558208  0.24562206  0.58540483  1
  O  O69  1  0.54889083  0.54889083  0.81014429  1
  O  O70  1  0.50195013  0.84950991  0.17373461  1
  O  O71  1  0.66399634  0.32153728  0.83776863  1
  O  O72  1  0.61233345  0.61233345  0.47943727  1
  O  O73  1  0.73035102  0.00369551  0.41847649  1
  O  O74  1  0.67846272  0.33600366  0.16223137  1
  O  O75  1  0.59618737  0.85125952  0.48816343  1
  O  O76  1  0.75469872  0.02508617  0.16301175  1
  O  O77  1  0.74562206  0.09558208  0.91459517  1
  O  O78  1  0.67733993  0.67733993  0.08191629  1
  O  O79  1  0.64874048  0.90381263  0.98816343  1
  O  O80  1  0.75437794  0.40441792  0.41459517  1
  O  O81  1  0.74530128  0.47491383  0.66301175  1
  O  O82  1  0.65049009  0.99804987  0.67373461  1
  O  O83  1  0.82153728  0.16399634  0.66223137  1
  O  O84  1  0.76964898  0.49630449  0.91847649  1
  O  O85  1  0.83600366  0.17846272  0.33776863  1
  O  O86  1  0.84950991  0.50195013  0.17373461  1
  O  O87  1  0.90441792  0.25437794  0.08540483  1
  O  O88  1  0.85125952  0.59618737  0.48816343  1
  O  O89  1  0.82266007  0.82266007  0.58191629  1
  O  O90  1  0.97491383  0.24530128  0.83698825  1
  O  O91  1  0.90381263  0.64874048  0.98816343  1
  O  O92  1  0.99630449  0.26964898  0.58152351  1
  O  O93  1  0.88766655  0.88766655  0.97943727  1
  O  O94  1  0.99804987  0.65049009  0.67373461  1
  O  O95  1  0.95110917  0.95110917  0.31014429  1
