# generated using pymatgen
data_SrH6C6S2N2O7
_symmetry_space_group_name_H-M   'P 1'
_cell_length_a   6.96627006
_cell_length_b   7.73294187
_cell_length_c   23.65726639
_cell_angle_alpha   90.00000000
_cell_angle_beta   90.00000000
_cell_angle_gamma   93.78339786
_symmetry_Int_Tables_number   1
_chemical_formula_structural   SrH6C6S2N2O7
_chemical_formula_sum   'Sr4 H24 C24 S8 N8 O28'
_cell_volume   1271.63388171
_cell_formula_units_Z   4
loop_
 _symmetry_equiv_pos_site_id
 _symmetry_equiv_pos_as_xyz
  1  'x, y, z'
loop_
 _atom_site_type_symbol
 _atom_site_label
 _atom_site_symmetry_multiplicity
 _atom_site_fract_x
 _atom_site_fract_y
 _atom_site_fract_z
 _atom_site_occupancy
  Sr  Sr0  1  0.20676668  0.31388084  0.30357546  1
  Sr  Sr1  1  0.79323332  0.68611916  0.69642454  1
  Sr  Sr2  1  0.29323332  0.68611916  0.80357546  1
  Sr  Sr3  1  0.70676668  0.31388084  0.19642454  1
  H  H4  1  0.37696455  0.61279967  0.20893009  1
  H  H5  1  0.62303545  0.38720033  0.79106991  1
  H  H6  1  0.12303545  0.38720033  0.70893009  1
  H  H7  1  0.87696455  0.61279967  0.29106991  1
  H  H8  1  0.47782061  0.63265133  0.26943729  1
  H  H9  1  0.52217939  0.36734867  0.73056271  1
  H  H10  1  0.02217939  0.36734867  0.76943729  1
  H  H11  1  0.97782061  0.63265133  0.23056271  1
  H  H12  1  0.00696323  0.57524294  0.38313265  1
  H  H13  1  0.99303677  0.42475706  0.61686735  1
  H  H14  1  0.49303677  0.42475706  0.88313265  1
  H  H15  1  0.50696323  0.57524294  0.11686735  1
  H  H16  1  0.20227312  0.09803122  0.82948697  1
  H  H17  1  0.79772688  0.90196878  0.17051303  1
  H  H18  1  0.29772688  0.90196878  0.32948697  1
  H  H19  1  0.70227312  0.09803122  0.67051303  1
  H  H20  1  0.42489378  0.08208749  0.83559430  1
  H  H21  1  0.57510622  0.91791251  0.16440570  1
  H  H22  1  0.07510622  0.91791251  0.33559430  1
  H  H23  1  0.92489378  0.08208749  0.66440570  1
  H  H24  1  0.22395924  0.60932285  0.39898628  1
  H  H25  1  0.77604076  0.39067715  0.60101372  1
  H  H26  1  0.27604076  0.39067715  0.89898628  1
  H  H27  1  0.72395924  0.60932285  0.10101372  1
  C  C28  1  0.43061128  0.25954296  0.46479636  1
  C  C29  1  0.56938872  0.74045704  0.53520364  1
  C  C30  1  0.06938872  0.74045704  0.96479636  1
  C  C31  1  0.93061128  0.25954296  0.03520364  1
  C  C32  1  0.18780828  0.22591804  0.16711216  1
  C  C33  1  0.81219172  0.77408196  0.83288784  1
  C  C34  1  0.31219172  0.77408196  0.66711216  1
  C  C35  1  0.68780828  0.22591804  0.33288784  1
  C  C36  1  0.08214044  0.73824766  0.06756677  1
  C  C37  1  0.91785956  0.26175234  0.93243323  1
  C  C38  1  0.41785956  0.26175234  0.56756677  1
  C  C39  1  0.58214044  0.73824766  0.43243323  1
  C  C40  1  0.10073296  0.22889852  0.00590376  1
  C  C41  1  0.89926704  0.77110148  0.99409624  1
  C  C42  1  0.39926704  0.77110148  0.50590376  1
  C  C43  1  0.60073296  0.22889852  0.49409624  1
  C  C44  1  0.13931982  0.72518115  0.12885083  1
  C  C45  1  0.86068018  0.27481885  0.87114917  1
  C  C46  1  0.36068018  0.27481885  0.62885083  1
  C  C47  1  0.63931982  0.72518115  0.37114917  1
  C  C48  1  0.11838890  0.23027033  0.10748641  1
  C  C49  1  0.88161110  0.76972967  0.89251359  1
  C  C50  1  0.38161110  0.76972967  0.60748641  1
  C  C51  1  0.61838890  0.23027033  0.39251359  1
  S  S52  1  0.25169946  0.29194137  0.51341165  1
  S  S53  1  0.74830054  0.70805863  0.48658835  1
  S  S54  1  0.24830054  0.70805863  0.01341165  1
  S  S55  1  0.75169946  0.29194137  0.98658835  1
  S  S56  1  0.28227802  0.19930237  0.05354662  1
  S  S57  1  0.71772198  0.80069763  0.94645338  1
  S  S58  1  0.21772198  0.80069763  0.55354662  1
  S  S59  1  0.78227802  0.19930237  0.44645338  1
  N  N60  1  0.44102371  0.26108027  0.40750236  1
  N  N61  1  0.55897629  0.73891973  0.59249764  1
  N  N62  1  0.05897629  0.73891973  0.90750236  1
  N  N63  1  0.94102371  0.26108027  0.09249764  1
  N  N64  1  0.59423288  0.23217049  0.55126768  1
  N  N65  1  0.40576712  0.76782951  0.44873232  1
  N  N66  1  0.90576712  0.76782951  0.05126768  1
  N  N67  1  0.09423288  0.23217049  0.94873232  1
  O  O68  1  0.18667612  0.30734508  0.63875140  1
  O  O69  1  0.81332388  0.69265492  0.36124860  1
  O  O70  1  0.31332388  0.69265492  0.13875140  1
  O  O71  1  0.68667612  0.30734508  0.86124860  1
  O  O72  1  0.36424560  0.20505756  0.17424740  1
  O  O73  1  0.63575440  0.79494244  0.82575260  1
  O  O74  1  0.13575440  0.79494244  0.67424740  1
  O  O75  1  0.86424560  0.20505756  0.32575260  1
  O  O76  1  0.00929796  0.74598040  0.16497354  1
  O  O77  1  0.99070204  0.25401960  0.83502646  1
  O  O78  1  0.49070204  0.25401960  0.66497354  1
  O  O79  1  0.50929796  0.74598040  0.33502646  1
  O  O80  1  0.12953458  0.51791943  0.38588255  1
  O  O81  1  0.87046542  0.48208057  0.61411745  1
  O  O82  1  0.37046542  0.48208057  0.88588255  1
  O  O83  1  0.62953458  0.51791943  0.11411745  1
  O  O84  1  0.30590892  0.01926482  0.82365274  1
  O  O85  1  0.69409108  0.98073518  0.17634726  1
  O  O86  1  0.19409108  0.98073518  0.32365274  1
  O  O87  1  0.80590892  0.01926482  0.67634726  1
  O  O88  1  0.42871965  0.54652929  0.24082313  1
  O  O89  1  0.57128035  0.45347071  0.75917687  1
  O  O90  1  0.07128035  0.45347071  0.74082313  1
  O  O91  1  0.92871965  0.54652929  0.25917687  1
  O  O92  1  0.06366061  0.24652545  0.20552086  1
  O  O93  1  0.93633939  0.75347455  0.79447914  1
  O  O94  1  0.43633939  0.75347455  0.70552086  1
  O  O95  1  0.56366061  0.24652545  0.29447914  1
