# generated using pymatgen
data_Li2V3CoO8
_symmetry_space_group_name_H-M   'P 1'
_cell_length_a   8.36145904
_cell_length_b   8.30449079
_cell_length_c   8.31602544
_cell_angle_alpha   90.28422320
_cell_angle_beta   90.03079142
_cell_angle_gamma   89.74922514
_symmetry_Int_Tables_number   1
_chemical_formula_structural   Li2V3CoO8
_chemical_formula_sum   'Li8 V12 Co4 O32'
_cell_volume   577.43263030
_cell_formula_units_Z   4
loop_
 _symmetry_equiv_pos_site_id
 _symmetry_equiv_pos_as_xyz
  1  'x, y, z'
loop_
 _atom_site_type_symbol
 _atom_site_label
 _atom_site_symmetry_multiplicity
 _atom_site_fract_x
 _atom_site_fract_y
 _atom_site_fract_z
 _atom_site_occupancy
  Li  Li0  1  0.00156845  0.00321723  0.00431698  1
  Li  Li1  1  0.24709213  0.24650621  0.24796959  1
  Li  Li2  1  0.25241227  0.75326345  0.74815150  1
  Li  Li3  1  0.49561447  0.99830364  0.50169730  1
  Li  Li4  1  0.50161167  0.49761570  0.99783794  1
  Li  Li5  1  0.74696527  0.25296893  0.75164551  1
  Li  Li6  1  0.75414626  0.74744592  0.25254846  1
  Li  Li7  1  0.99755393  0.50480771  0.49767898  1
  V  V8  1  0.13021469  0.11775129  0.62240653  1
  V  V9  1  0.12566949  0.36984635  0.88050717  1
  V  V10  1  0.12106801  0.62417359  0.12829297  1
  V  V11  1  0.37595225  0.37113477  0.62572224  1
  V  V12  1  0.37661045  0.63083619  0.38530968  1
  V  V13  1  0.36728725  0.87917451  0.12744027  1
  V  V14  1  0.63294398  0.37799759  0.37783388  1
  V  V15  1  0.62770034  0.12833173  0.12198808  1
  V  V16  1  0.61884898  0.87480231  0.86460112  1
  V  V17  1  0.87737658  0.12309182  0.37389414  1
  V  V18  1  0.87887291  0.87425552  0.62051964  1
  V  V19  1  0.86956672  0.62156924  0.87325706  1
  Co  Co20  1  0.12688476  0.87699038  0.37546802  1
  Co  Co21  1  0.37334160  0.12440927  0.87530430  1
  Co  Co22  1  0.62398463  0.62592030  0.62502512  1
  Co  Co23  1  0.87264276  0.37545847  0.12245013  1
  O  O24  1  0.11490341  0.11270264  0.38696723  1
  O  O25  1  0.12317155  0.89098625  0.61180005  1
  O  O26  1  0.11576384  0.60318415  0.88160788  1
  O  O27  1  0.13762361  0.14080645  0.86513353  1
  O  O28  1  0.10399284  0.37852643  0.11268171  1
  O  O29  1  0.13523045  0.35661183  0.63406443  1
  O  O30  1  0.14202538  0.64195845  0.36676319  1
  O  O31  1  0.13936290  0.87060543  0.14223746  1
  O  O32  1  0.36210219  0.12745380  0.64469768  1
  O  O33  1  0.36263615  0.35947385  0.86411318  1
  O  O34  1  0.37021272  0.64486035  0.14180208  1
  O  O35  1  0.38895948  0.62260803  0.60747576  1
  O  O36  1  0.35967192  0.86742568  0.36248140  1
  O  O37  1  0.39585957  0.38833026  0.38019655  1
  O  O38  1  0.38830596  0.10897289  0.11171363  1
  O  O39  1  0.38618160  0.88931913  0.88836448  1
  O  O40  1  0.61506068  0.39443051  0.61119103  1
  O  O41  1  0.61437742  0.61499455  0.38995038  1
  O  O42  1  0.61630711  0.89225359  0.10664503  1
  O  O43  1  0.63568381  0.35729948  0.13312123  1
  O  O44  1  0.60508499  0.11235351  0.88382553  1
  O  O45  1  0.63418355  0.13610373  0.36183965  1
  O  O46  1  0.62948280  0.86264249  0.64331209  1
  O  O47  1  0.63571896  0.63477117  0.86087794  1
  O  O48  1  0.85560569  0.37237095  0.35703552  1
  O  O49  1  0.86080799  0.14050336  0.13424321  1
  O  O50  1  0.86373285  0.85295203  0.86944522  1
  O  O51  1  0.89616009  0.87890670  0.38703208  1
  O  O52  1  0.85421299  0.63294335  0.63928620  1
  O  O53  1  0.88990871  0.11515567  0.61720538  1
  O  O54  1  0.88600982  0.38986176  0.88931013  1
  O  O55  1  0.88572913  0.60889840  0.11185353  1
