# generated using pymatgen
data_Li3Nb(NiO2)4
_symmetry_space_group_name_H-M   'P 1'
_cell_length_a   10.39230822
_cell_length_b   10.39230860
_cell_length_c   14.65072338
_cell_angle_alpha   19.50113058
_cell_angle_beta   19.50112797
_cell_angle_gamma   33.71970305
_symmetry_Int_Tables_number   1
_chemical_formula_structural   Li3Nb(NiO2)4
_chemical_formula_sum   'Li3 Nb1 Ni4 O8'
_cell_volume   151.70758344
_cell_formula_units_Z   1
loop_
 _symmetry_equiv_pos_site_id
 _symmetry_equiv_pos_as_xyz
  1  'x, y, z'
loop_
 _atom_site_type_symbol
 _atom_site_label
 _atom_site_symmetry_multiplicity
 _atom_site_fract_x
 _atom_site_fract_y
 _atom_site_fract_z
 _atom_site_occupancy
  Li  Li0  1  0.00000000  0.50000000  0.50000000  1
  Li  Li1  1  0.50000000  0.00000000  0.50000000  1
  Li  Li2  1  0.50000000  0.50000000  0.50000000  1
  Nb  Nb3  1  0.50000000  0.50000000  0.00000000  1
  Ni  Ni4  1  0.00000000  0.00000000  0.00000000  1
  Ni  Ni5  1  0.00000000  0.50000000  0.00000000  1
  Ni  Ni6  1  0.50000000  0.00000000  0.00000000  1
  Ni  Ni7  1  0.00000000  0.00000000  0.50000000  1
  O  O8  1  0.98056565  0.98056565  0.27970276  1
  O  O9  1  0.02218147  0.50282883  0.23602900  1
  O  O10  1  0.50282883  0.02218147  0.23602900  1
  O  O11  1  0.01943435  0.01943435  0.72029724  1
  O  O12  1  0.51626613  0.51626613  0.23381096  1
  O  O13  1  0.97781853  0.49717117  0.76397100  1
  O  O14  1  0.49717117  0.97781853  0.76397100  1
  O  O15  1  0.48373387  0.48373387  0.76618904  1
