# generated using pymatgen
data_Li4Mn3Sn3(TeO8)2
_symmetry_space_group_name_H-M   'P 1'
_cell_length_a   6.27519602
_cell_length_b   6.28115259
_cell_length_c   10.30355066
_cell_angle_alpha   90.00251699
_cell_angle_beta   90.37695092
_cell_angle_gamma   120.03795965
_symmetry_Int_Tables_number   1
_chemical_formula_structural   Li4Mn3Sn3(TeO8)2
_chemical_formula_sum   'Li4 Mn3 Sn3 Te2 O16'
_cell_volume   351.56473881
_cell_formula_units_Z   1
loop_
 _symmetry_equiv_pos_site_id
 _symmetry_equiv_pos_as_xyz
  1  'x, y, z'
loop_
 _atom_site_type_symbol
 _atom_site_label
 _atom_site_symmetry_multiplicity
 _atom_site_fract_x
 _atom_site_fract_y
 _atom_site_fract_z
 _atom_site_occupancy
  Li  Li0  1  0.34718630  0.67355425  0.90000004  1
  Li  Li1  1  0.98941859  0.99463373  0.98795024  1
  Li  Li2  1  0.99087178  0.99537162  0.49565478  1
  Li  Li3  1  0.66803545  0.33413381  0.40727950  1
  Mn  Mn4  1  0.66281641  0.83122483  0.21034988  1
  Mn  Mn5  1  0.83541891  0.66756383  0.71268831  1
  Mn  Mn6  1  0.83541917  0.16785924  0.71267308  1
  Sn  Sn7  1  0.16341793  0.82976292  0.21534416  1
  Sn  Sn8  1  0.16316583  0.33369671  0.21532281  1
  Sn  Sn9  1  0.33990114  0.16998943  0.71591593  1
  Te  Te10  1  0.35509538  0.67758331  0.48699942  1
  Te  Te11  1  0.71276732  0.35635963  0.98382560  1
  O  O12  1  0.14277167  0.84391965  0.60951787  1
  O  O13  1  0.00769504  0.50396417  0.32287493  1
  O  O14  1  0.32515340  0.66261543  0.10813958  1
  O  O15  1  0.99818979  0.99912593  0.31547694  1
  O  O16  1  0.98114322  0.99060403  0.80643964  1
  O  O17  1  0.14281126  0.29891243  0.60950665  1
  O  O18  1  0.46575429  0.95690968  0.35100208  1
  O  O19  1  0.46559080  0.50886008  0.35098998  1
  O  O20  1  0.29635772  0.14830286  0.10837157  1
  O  O21  1  0.66816435  0.83403710  0.57852774  1
  O  O22  1  0.53424623  0.49773718  0.82539175  1
  O  O23  1  0.53422101  0.03649992  0.82533914  1
  O  O24  1  0.68746715  0.34373905  0.61518323  1
  O  O25  1  0.85404672  0.68180861  0.08886000  1
  O  O26  1  0.97900634  0.48948741  0.85937078  1
  O  O27  1  0.85386782  0.17204215  0.08884338  1
