# generated using pymatgen
data_Li5Mn2V5O12
_symmetry_space_group_name_H-M   'P 1'
_cell_length_a   5.24706162
_cell_length_b   5.24706183
_cell_length_c   9.97902498
_cell_angle_alpha   85.01259185
_cell_angle_beta   94.98741082
_cell_angle_gamma   60.64990393
_symmetry_Int_Tables_number   1
_chemical_formula_structural   Li5Mn2V5O12
_chemical_formula_sum   'Li5 Mn2 V5 O12'
_cell_volume   235.89723819
_cell_formula_units_Z   1
loop_
 _symmetry_equiv_pos_site_id
 _symmetry_equiv_pos_as_xyz
  1  'x, y, z'
loop_
 _atom_site_type_symbol
 _atom_site_label
 _atom_site_symmetry_multiplicity
 _atom_site_fract_x
 _atom_site_fract_y
 _atom_site_fract_z
 _atom_site_occupancy
  Li  Li0  1  0.17045566  0.66157360  0.51158309  1
  Li  Li1  1  0.31416702  0.84681127  0.98773156  1
  Li  Li2  1  0.66157360  0.17045566  0.98841691  1
  Li  Li3  1  0.84681127  0.31416702  0.51226844  1
  Li  Li4  1  0.91808447  0.91808447  0.75000000  1
  Mn  Mn5  1  0.24610765  0.24610765  0.75000000  1
  Mn  Mn6  1  0.75225170  0.75225170  0.25000000  1
  V  V7  1  0.99939233  0.51351285  0.99105424  1
  V  V8  1  0.51351285  0.99939233  0.50894576  1
  V  V9  1  0.42134949  0.42134949  0.25000000  1
  V  V10  1  0.57712364  0.57712364  0.75000000  1
  V  V11  1  0.08271022  0.08271022  0.25000000  1
  O  O12  1  0.93383059  0.23929955  0.87296975  1
  O  O13  1  0.23929955  0.93383059  0.62703025  1
  O  O14  1  0.15779068  0.34867327  0.37139976  1
  O  O15  1  0.34867327  0.15779068  0.12860024  1
  O  O16  1  0.28425954  0.54298835  0.87792159  1
  O  O17  1  0.54298835  0.28425954  0.62207841  1
  O  O18  1  0.43479078  0.73182446  0.36724087  1
  O  O19  1  0.73182446  0.43479078  0.13275913  1
  O  O20  1  0.63817932  0.84065939  0.88018428  1
  O  O21  1  0.84065939  0.63817932  0.61981572  1
  O  O22  1  0.77940515  0.06476002  0.36885707  1
  O  O23  1  0.06476002  0.77940515  0.13114293  1
