# generated using pymatgen
data_Mn3SbO8
_symmetry_space_group_name_H-M   'P 1'
_cell_length_a   5.91069376
_cell_length_b   5.90996169
_cell_length_c   9.30089339
_cell_angle_alpha   89.97351228
_cell_angle_beta   90.01215515
_cell_angle_gamma   119.99605402
_symmetry_Int_Tables_number   1
_chemical_formula_structural   Mn3SbO8
_chemical_formula_sum   'Mn6 Sb2 O16'
_cell_volume   281.38156619
_cell_formula_units_Z   2
loop_
 _symmetry_equiv_pos_site_id
 _symmetry_equiv_pos_as_xyz
  1  'x, y, z'
loop_
 _atom_site_type_symbol
 _atom_site_label
 _atom_site_symmetry_multiplicity
 _atom_site_fract_x
 _atom_site_fract_y
 _atom_site_fract_z
 _atom_site_occupancy
  Mn  Mn0  1  0.16751279  0.83241915  0.21121330  1
  Mn  Mn1  1  0.16748806  0.33496717  0.21110656  1
  Mn  Mn2  1  0.66478694  0.83239380  0.21121516  1
  Mn  Mn3  1  0.33520697  0.16760179  0.71121460  1
  Mn  Mn4  1  0.83248172  0.66489681  0.71121798  1
  Mn  Mn5  1  0.83250743  0.16748643  0.71111239  1
  Sb  Sb6  1  0.33336112  0.66661229  0.48925307  1
  Sb  Sb7  1  0.66662578  0.33324504  0.98925872  1
  O  O8  1  0.16644781  0.83367407  0.59961953  1
  O  O9  1  0.03753971  0.51910288  0.33957080  1
  O  O10  1  0.33330883  0.66671039  0.11199945  1
  O  O11  1  0.99994809  0.99994982  0.30599122  1
  O  O12  1  0.00005089  0.00000165  0.80599178  1
  O  O13  1  0.16669989  0.33281995  0.59959459  1
  O  O14  1  0.48133089  0.96258659  0.33940462  1
  O  O15  1  0.48160354  0.51910051  0.33937979  1
  O  O16  1  0.33284647  0.16619855  0.09950947  1
  O  O17  1  0.66716177  0.83335626  0.59951105  1
  O  O18  1  0.51868869  0.48127676  0.83940026  1
  O  O19  1  0.51841693  0.03749817  0.83937601  1
  O  O20  1  0.66669126  0.33340095  0.61199844  1
  O  O21  1  0.83353989  0.66722369  0.09961985  1
  O  O22  1  0.96246546  0.48156764  0.83956405  1
  O  O23  1  0.83328908  0.16611062  0.09959532  1
