# generated using pymatgen
data_LiFe2(BO3)2
_symmetry_space_group_name_H-M   'P 1'
_cell_length_a   5.28621487
_cell_length_b   9.08933096
_cell_length_c   10.07349222
_cell_angle_alpha   89.25778579
_cell_angle_beta   90.98732335
_cell_angle_gamma   90.27109915
_symmetry_Int_Tables_number   1
_chemical_formula_structural   LiFe2(BO3)2
_chemical_formula_sum   'Li4 Fe8 B8 O24'
_cell_volume   483.89534656
_cell_formula_units_Z   4
loop_
 _symmetry_equiv_pos_site_id
 _symmetry_equiv_pos_as_xyz
  1  'x, y, z'
loop_
 _atom_site_type_symbol
 _atom_site_label
 _atom_site_symmetry_multiplicity
 _atom_site_fract_x
 _atom_site_fract_y
 _atom_site_fract_z
 _atom_site_occupancy
  Li  Li0  1  0.64889032  0.00824484  0.08816584  1
  Li  Li1  1  0.84366026  0.48737180  0.33905799  1
  Li  Li2  1  0.85353568  0.51304491  0.83281004  1
  Li  Li3  1  0.33663712  0.98907972  0.35319433  1
  Fe  Fe4  1  0.15558575  0.17311404  0.11920261  1
  Fe  Fe5  1  0.83659333  0.15257762  0.38042029  1
  Fe  Fe6  1  0.34094604  0.33485005  0.86766563  1
  Fe  Fe7  1  0.65565436  0.33114504  0.62094913  1
  Fe  Fe8  1  0.33531186  0.65479539  0.37189347  1
  Fe  Fe9  1  0.16742085  0.83285916  0.62762699  1
  Fe  Fe10  1  0.65568662  0.66541742  0.11756767  1
  Fe  Fe11  1  0.83767693  0.85202140  0.86322814  1
  B  B12  1  0.16347501  0.16569331  0.62104883  1
  B  B13  1  0.33144828  0.32974352  0.37149501  1
  B  B14  1  0.82819207  0.17370111  0.87821995  1
  B  B15  1  0.66066321  0.32880840  0.12702610  1
  B  B16  1  0.33542579  0.66411615  0.87124670  1
  B  B17  1  0.66276868  0.67145689  0.62289624  1
  B  B18  1  0.16189309  0.83690362  0.12361101  1
  B  B19  1  0.83446533  0.82747625  0.36569307  1
  O  O20  1  0.26765572  0.03000241  0.61448977  1
  O  O21  1  0.07669741  0.18122076  0.92578414  1
  O  O22  1  0.69143791  0.04810878  0.89286642  1
  O  O23  1  0.22385272  0.19656676  0.32647219  1
  O  O24  1  0.30768299  0.28641511  0.65901422  1
  O  O25  1  0.79809475  0.20127780  0.16132912  1
  O  O26  1  0.91182516  0.18768153  0.58259238  1
  O  O27  1  0.41895099  0.31006547  0.07832822  1
  O  O28  1  0.19252330  0.45429425  0.37089445  1
  O  O29  1  0.58728162  0.33047780  0.41530489  1
  O  O30  1  0.72576714  0.30456554  0.82375009  1
  O  O31  1  0.20627829  0.53554257  0.86987613  1
  O  O32  1  0.76272953  0.46521068  0.14363074  1
  O  O33  1  0.30316370  0.71225672  0.15319888  1
  O  O34  1  0.41865715  0.69279140  0.57482728  1
  O  O35  1  0.75673014  0.53239916  0.63943916  1
  O  O36  1  0.59381428  0.66927151  0.91658875  1
  O  O37  1  0.08692806  0.82903716  0.40958474  1
  O  O38  1  0.22006447  0.79446555  0.82666179  1
  O  O39  1  0.72466563  0.69311050  0.32368314  1
  O  O40  1  0.81059617  0.79235720  0.65710601  1
  O  O41  1  0.27739500  0.97294130  0.13727832  1
  O  O42  1  0.90636086  0.82696007  0.08624496  1
  O  O43  1  0.69422347  0.95303033  0.35915613  1
