# generated using pymatgen
data_MnV3O8
_symmetry_space_group_name_H-M   'P 1'
_cell_length_a   6.30997742
_cell_length_b   6.30997710
_cell_length_c   6.63740225
_cell_angle_alpha   74.10230449
_cell_angle_beta   105.89769897
_cell_angle_gamma   144.87296888
_symmetry_Int_Tables_number   1
_chemical_formula_structural   MnV3O8
_chemical_formula_sum   'Mn1 V3 O8'
_cell_volume   145.64924745
_cell_formula_units_Z   1
loop_
 _symmetry_equiv_pos_site_id
 _symmetry_equiv_pos_as_xyz
  1  'x, y, z'
loop_
 _atom_site_type_symbol
 _atom_site_label
 _atom_site_symmetry_multiplicity
 _atom_site_fract_x
 _atom_site_fract_y
 _atom_site_fract_z
 _atom_site_occupancy
  Mn  Mn0  1  0.70782028  0.29217972  0.30765967  1
  V  V1  1  0.40236880  0.59763120  0.29629169  1
  V  V2  1  0.60164272  0.39835728  0.71957410  1
  V  V3  1  0.30015538  0.69984462  0.72229374  1
  O  O4  1  0.13236934  0.86763066  0.68966028  1
  O  O5  1  0.24306255  0.75693745  0.35659965  1
  O  O6  1  0.35987368  0.64012632  0.98883100  1
  O  O7  1  0.44590683  0.55409317  0.63084756  1
  O  O8  1  0.55366309  0.44633691  0.35531443  1
  O  O9  1  0.62972697  0.37027303  0.97753796  1
  O  O10  1  0.75878554  0.24121446  0.66390629  1
  O  O11  1  0.86462483  0.13537517  0.29148363  1
