# generated using pymatgen
data_MnCr2Fe3(PO4)6
_symmetry_space_group_name_H-M   'P 1'
_cell_length_a   8.42393008
_cell_length_b   8.42393062
_cell_length_c   8.42393070
_cell_angle_alpha   61.67822769
_cell_angle_beta   61.67823173
_cell_angle_gamma   61.67823435
_symmetry_Int_Tables_number   1
_chemical_formula_structural   MnCr2Fe3(PO4)6
_chemical_formula_sum   'Mn1 Cr2 Fe3 P6 O24'
_cell_volume   438.60099577
_cell_formula_units_Z   1
loop_
 _symmetry_equiv_pos_site_id
 _symmetry_equiv_pos_as_xyz
  1  'x, y, z'
loop_
 _atom_site_type_symbol
 _atom_site_label
 _atom_site_symmetry_multiplicity
 _atom_site_fract_x
 _atom_site_fract_y
 _atom_site_fract_z
 _atom_site_occupancy
  Mn  Mn0  1  0.85489100  0.85489100  0.85489100  1
  Cr  Cr1  1  0.00048831  0.00048831  0.00048831  1
  Cr  Cr2  1  0.49951626  0.49951626  0.49951626  1
  Fe  Fe3  1  0.14632046  0.14632046  0.14632046  1
  Fe  Fe4  1  0.35313910  0.35313910  0.35313910  1
  Fe  Fe5  1  0.64656087  0.64656087  0.64656087  1
  P  P6  1  0.24987576  0.54823036  0.95036359  1
  P  P7  1  0.54823036  0.95036359  0.24987576  1
  P  P8  1  0.95036359  0.24987576  0.54823036  1
  P  P9  1  0.04926532  0.74947056  0.45192866  1
  P  P10  1  0.45192866  0.04926532  0.74947056  1
  P  P11  1  0.74947056  0.45192866  0.04926532  1
  O  O12  1  0.10485211  0.32409508  0.50444955  1
  O  O13  1  0.32409508  0.50444955  0.10485211  1
  O  O14  1  0.06234540  0.90450555  0.24864763  1
  O  O15  1  0.50444955  0.10485211  0.32409508  1
  O  O16  1  0.01118938  0.82223568  0.60459344  1
  O  O17  1  0.25295446  0.59455857  0.43513494  1
  O  O18  1  0.24864763  0.06234540  0.90450555  1
  O  O19  1  0.43513494  0.25295446  0.59455857  1
  O  O20  1  0.17505347  0.39442306  0.99439251  1
  O  O21  1  0.59455857  0.43513494  0.25295446  1
  O  O22  1  0.09546425  0.75126590  0.93848316  1
  O  O23  1  0.39442306  0.99439251  0.17505347  1
  O  O24  1  0.60459344  0.01118938  0.82223568  1
  O  O25  1  0.90450555  0.24864763  0.06234540  1
  O  O26  1  0.40432948  0.56301386  0.74731188  1
  O  O27  1  0.82223568  0.60459344  0.01118938  1
  O  O28  1  0.56301386  0.74731188  0.40432948  1
  O  O29  1  0.75126590  0.93848316  0.09546425  1
  O  O30  1  0.74731188  0.40432948  0.56301386  1
  O  O31  1  0.99439251  0.17505347  0.39442306  1
  O  O32  1  0.49711907  0.89472726  0.67480405  1
  O  O33  1  0.93848316  0.09546425  0.75126590  1
  O  O34  1  0.67480405  0.49711907  0.89472726  1
  O  O35  1  0.89472726  0.67480405  0.49711907  1
