# generated using pymatgen
data_LiFeF5
_symmetry_space_group_name_H-M   'P 1'
_cell_length_a   9.17738808
_cell_length_b   5.38347262
_cell_length_c   7.98508734
_cell_angle_alpha   90.00000000
_cell_angle_beta   90.00000000
_cell_angle_gamma   90.00000000
_symmetry_Int_Tables_number   1
_chemical_formula_structural   LiFeF5
_chemical_formula_sum   'Li4 Fe4 F20'
_cell_volume   394.51296149
_cell_formula_units_Z   4
loop_
 _symmetry_equiv_pos_site_id
 _symmetry_equiv_pos_as_xyz
  1  'x, y, z'
loop_
 _atom_site_type_symbol
 _atom_site_label
 _atom_site_symmetry_multiplicity
 _atom_site_fract_x
 _atom_site_fract_y
 _atom_site_fract_z
 _atom_site_occupancy
  Li  Li0  1  0.01901151  0.75000000  0.69949193  1
  Li  Li1  1  0.48098849  0.25000000  0.19949193  1
  Li  Li2  1  0.51901151  0.75000000  0.80050807  1
  Li  Li3  1  0.98098849  0.25000000  0.30050807  1
  Fe  Fe4  1  0.22353440  0.75000000  0.09700626  1
  Fe  Fe5  1  0.27646560  0.25000000  0.59700626  1
  Fe  Fe6  1  0.72353440  0.75000000  0.40299374  1
  Fe  Fe7  1  0.77646560  0.25000000  0.90299374  1
  F  F8  1  0.10611262  0.98247423  0.18251870  1
  F  F9  1  0.10611262  0.51752577  0.18251870  1
  F  F10  1  0.13508664  0.01957178  0.57096277  1
  F  F11  1  0.13508664  0.48042822  0.57096277  1
  F  F12  1  0.16176281  0.75000000  0.87729380  1
  F  F13  1  0.33823719  0.25000000  0.37729380  1
  F  F14  1  0.36491336  0.51957178  0.07096277  1
  F  F15  1  0.36491336  0.98042822  0.07096277  1
  F  F16  1  0.39388738  0.01752577  0.68251870  1
  F  F17  1  0.39388738  0.48247423  0.68251870  1
  F  F18  1  0.60611262  0.51752577  0.31748130  1
  F  F19  1  0.60611262  0.98247423  0.31748130  1
  F  F20  1  0.63508664  0.01957178  0.92903723  1
  F  F21  1  0.63508664  0.48042822  0.92903723  1
  F  F22  1  0.66176281  0.75000000  0.62270620  1
  F  F23  1  0.83823719  0.25000000  0.12270620  1
  F  F24  1  0.86491336  0.51957178  0.42903723  1
  F  F25  1  0.86491336  0.98042822  0.42903723  1
  F  F26  1  0.89388738  0.01752577  0.81748130  1
  F  F27  1  0.89388738  0.48247423  0.81748130  1
