# generated using pymatgen
data_Mn7Nb(PO4)12
_symmetry_space_group_name_H-M   'P 1'
_cell_length_a   8.52217791
_cell_length_b   8.49535628
_cell_length_c   11.85042650
_cell_angle_alpha   89.98942150
_cell_angle_beta   89.97077098
_cell_angle_gamma   90.03000467
_symmetry_Int_Tables_number   1
_chemical_formula_structural   Mn7Nb(PO4)12
_chemical_formula_sum   'Mn7 Nb1 P12 O48'
_cell_volume   857.95804450
_cell_formula_units_Z   1
loop_
 _symmetry_equiv_pos_site_id
 _symmetry_equiv_pos_as_xyz
  1  'x, y, z'
loop_
 _atom_site_type_symbol
 _atom_site_label
 _atom_site_symmetry_multiplicity
 _atom_site_fract_x
 _atom_site_fract_y
 _atom_site_fract_z
 _atom_site_occupancy
  Mn  Mn0  1  0.24982485  0.96641953  0.61728897  1
  Mn  Mn1  1  0.25038212  0.53547947  0.38096713  1
  Mn  Mn2  1  0.24981682  0.03484163  0.11746320  1
  Mn  Mn3  1  0.24964701  0.46654155  0.88263862  1
  Mn  Mn4  1  0.75071953  0.53534069  0.11962600  1
  Mn  Mn5  1  0.75061275  0.96514498  0.88355639  1
  Mn  Mn6  1  0.74950915  0.03356013  0.38108545  1
  Nb  Nb7  1  0.74972012  0.46905019  0.62408897  1
  P  P8  1  0.04220184  0.24555596  0.49585799  1
  P  P9  1  0.46527636  0.75002951  0.00056075  1
  P  P10  1  0.53598867  0.25015176  0.99985237  1
  P  P11  1  0.96877563  0.75765166  0.49603671  1
  P  P12  1  0.10679344  0.39109953  0.14506951  1
  P  P13  1  0.10664017  0.10925360  0.85552960  1
  P  P14  1  0.38154605  0.61033507  0.64592155  1
  P  P15  1  0.39327685  0.89181460  0.35493286  1
  P  P16  1  0.60537058  0.09611631  0.64625791  1
  P  P17  1  0.60278895  0.39011216  0.35040184  1
  P  P18  1  0.89957388  0.61273632  0.86357458  1
  P  P19  1  0.89299864  0.89194627  0.14571351  1
  O  O20  1  0.06354355  0.64572107  0.42129109  1
  O  O21  1  0.06201358  0.86432810  0.57486723  1
  O  O22  1  0.07397367  0.90187298  0.15857763  1
  O  O23  1  0.07824829  0.60476850  0.84803717  1
  O  O24  1  0.15038050  0.15862384  0.57868030  1
  O  O25  1  0.14773632  0.34035431  0.41545562  1
  O  O26  1  0.16061265  0.43860296  0.02754999  1
  O  O27  1  0.15987516  0.06046947  0.97319698  1
  O  O28  1  0.15145228  0.22114969  0.17516596  1
  O  O29  1  0.14978525  0.27979577  0.82607339  1
  O  O30  1  0.17827084  0.51355938  0.22743966  1
  O  O31  1  0.17707492  0.98956044  0.77152149  1
  O  O32  1  0.32096810  0.01208292  0.27165492  1
  O  O33  1  0.31172210  0.48852688  0.72771259  1
  O  O34  1  0.33914171  0.78012906  0.67576852  1
  O  O35  1  0.34971427  0.72166752  0.32424704  1
  O  O36  1  0.33622397  0.56200416  0.52643507  1
  O  O37  1  0.34080848  0.93893065  0.47306550  1
  O  O38  1  0.35422475  0.84070320  0.08068052  1
  O  O39  1  0.35806891  0.65794546  0.91924790  1
  O  O40  1  0.42545994  0.09274841  0.65931165  1
  O  O41  1  0.42251637  0.40020638  0.33848724  1
  O  O42  1  0.43962504  0.14159899  0.07673117  1
  O  O43  1  0.43981838  0.35752166  0.92236248  1
  O  O44  1  0.56101821  0.64157039  0.07755940  1
  O  O45  1  0.56136960  0.85924423  0.92429107  1
  O  O46  1  0.56361588  0.59858267  0.65750970  1
  O  O47  1  0.57411862  0.90132330  0.34135038  1
  O  O48  1  0.64618120  0.34152049  0.07998668  1
  O  O49  1  0.64514442  0.15852516  0.91863669  1
  O  O50  1  0.66014087  0.05645886  0.52718549  1
  O  O51  1  0.65823479  0.43765662  0.46950558  1
  O  O52  1  0.64965488  0.22026317  0.32341415  1
  O  O53  1  0.65085854  0.26869843  0.67449179  1
  O  O54  1  0.67789914  0.51152144  0.27042347  1
  O  O55  1  0.68054385  0.97843847  0.72871943  1
  O  O56  1  0.81966214  0.01385720  0.22717678  1
  O  O57  1  0.82455651  0.49297194  0.77965084  1
  O  O58  1  0.84743206  0.72272506  0.17728514  1
  O  O59  1  0.85015170  0.77930654  0.82882747  1
  O  O60  1  0.84399841  0.56625189  0.98015700  1
  O  O61  1  0.84054074  0.93995766  0.02772647  1
  O  O62  1  0.86119622  0.66054173  0.57638430  1
  O  O63  1  0.85733189  0.84376866  0.41516315  1
  O  O64  1  0.92562089  0.09854250  0.84196908  1
  O  O65  1  0.92600828  0.40137004  0.15964017  1
  O  O66  1  0.94197134  0.13921179  0.42085504  1
  O  O67  1  0.94002534  0.35163804  0.57210669  1
