# generated using pymatgen
data_PrWO5
_symmetry_space_group_name_H-M   'P 1'
_cell_length_a   5.39910600
_cell_length_b   6.92833801
_cell_length_c   13.26608672
_cell_angle_alpha   90.00000000
_cell_angle_beta   90.00000000
_cell_angle_gamma   108.73965564
_symmetry_Int_Tables_number   1
_chemical_formula_structural   PrWO5
_chemical_formula_sum   'Pr4 W4 O20'
_cell_volume   469.93554618
_cell_formula_units_Z   4
loop_
 _symmetry_equiv_pos_site_id
 _symmetry_equiv_pos_as_xyz
  1  'x, y, z'
loop_
 _atom_site_type_symbol
 _atom_site_label
 _atom_site_symmetry_multiplicity
 _atom_site_fract_x
 _atom_site_fract_y
 _atom_site_fract_z
 _atom_site_occupancy
  Pr  Pr0  1  0.15285139  0.78242292  0.44204680  1
  Pr  Pr1  1  0.84714861  0.21757708  0.55795320  1
  Pr  Pr2  1  0.34714861  0.71757708  0.94204680  1
  Pr  Pr3  1  0.65285139  0.28242292  0.05795320  1
  W  W4  1  0.96415372  0.84504509  0.14005178  1
  W  W5  1  0.03584628  0.15495491  0.85994822  1
  W  W6  1  0.53584628  0.65495491  0.64005178  1
  W  W7  1  0.46415372  0.34504509  0.35994822  1
  O  O8  1  0.03557175  0.58171612  0.09365882  1
  O  O9  1  0.96442825  0.41828388  0.90634118  1
  O  O10  1  0.46442825  0.91828388  0.59365882  1
  O  O11  1  0.53557175  0.08171612  0.40634118  1
  O  O12  1  0.83398431  0.83730167  0.56817851  1
  O  O13  1  0.16601569  0.16269833  0.43182149  1
  O  O14  1  0.66601569  0.66269833  0.06817851  1
  O  O15  1  0.33398431  0.33730167  0.93182149  1
  O  O16  1  0.27307577  0.97114262  0.07047422  1
  O  O17  1  0.72692423  0.02885738  0.92952578  1
  O  O18  1  0.22692423  0.52885738  0.57047422  1
  O  O19  1  0.77307577  0.47114262  0.42952578  1
  O  O20  1  0.00710736  0.80179900  0.27165823  1
  O  O21  1  0.99289264  0.19820100  0.72834177  1
  O  O22  1  0.49289264  0.69820100  0.77165823  1
  O  O23  1  0.50710736  0.30179900  0.22834177  1
  O  O24  1  0.16318629  0.94159076  0.85648616  1
  O  O25  1  0.83681371  0.05840924  0.14351384  1
  O  O26  1  0.33681371  0.55840924  0.35648616  1
  O  O27  1  0.66318629  0.44159076  0.64351384  1
