# generated using pymatgen
data_Li4V3Sn3(SbO8)2
_symmetry_space_group_name_H-M   'P 1'
_cell_length_a   6.25938931
_cell_length_b   6.20671529
_cell_length_c   10.25109497
_cell_angle_alpha   90.15337055
_cell_angle_beta   89.46120805
_cell_angle_gamma   119.48160414
_symmetry_Int_Tables_number   1
_chemical_formula_structural   Li4V3Sn3(SbO8)2
_chemical_formula_sum   'Li4 V3 Sn3 Sb2 O16'
_cell_volume   346.67249728
_cell_formula_units_Z   1
loop_
 _symmetry_equiv_pos_site_id
 _symmetry_equiv_pos_as_xyz
  1  'x, y, z'
loop_
 _atom_site_type_symbol
 _atom_site_label
 _atom_site_symmetry_multiplicity
 _atom_site_fract_x
 _atom_site_fract_y
 _atom_site_fract_z
 _atom_site_occupancy
  Li  Li0  1  0.34031737  0.66823080  0.89174984  1
  Li  Li1  1  0.98388407  0.99275875  0.99266519  1
  Li  Li2  1  0.98925687  0.99615636  0.49877640  1
  Li  Li3  1  0.66411503  0.33118231  0.39812638  1
  V  V4  1  0.66204457  0.83069679  0.21655358  1
  V  V5  1  0.83162760  0.66398933  0.71559670  1
  V  V6  1  0.82828499  0.17034197  0.71475640  1
  Sn  Sn7  1  0.16967487  0.83371636  0.21522767  1
  Sn  Sn8  1  0.16991071  0.33599727  0.21540515  1
  Sn  Sn9  1  0.33480290  0.16947471  0.71493641  1
  Sb  Sb10  1  0.33191491  0.66731506  0.49752424  1
  Sb  Sb11  1  0.67420158  0.33595752  0.99063908  1
  O  O12  1  0.14357953  0.83734576  0.60228798  1
  O  O13  1  0.03593007  0.51890604  0.34246200  1
  O  O14  1  0.32849877  0.66369324  0.10416754  1
  O  O15  1  0.99979468  0.00038187  0.31848720  1
  O  O16  1  0.00095379  0.00904905  0.81394151  1
  O  O17  1  0.14427273  0.30826660  0.60080148  1
  O  O18  1  0.48840044  0.97308145  0.32613555  1
  O  O19  1  0.48986075  0.51562684  0.32512172  1
  O  O20  1  0.30411334  0.15127336  0.09477668  1
  O  O21  1  0.71173686  0.86938378  0.61829240  1
  O  O22  1  0.52533896  0.49272222  0.82886068  1
  O  O23  1  0.52493494  0.03150743  0.82881417  1
  O  O24  1  0.66443710  0.32064156  0.60734747  1
  O  O25  1  0.84581943  0.69423546  0.10650962  1
  O  O26  1  0.96760464  0.46768714  0.82012490  1
  O  O27  1  0.84468748  0.15068097  0.10775206  1
