# generated using pymatgen
data_Fe3Cu2Sn(PO4)6
_symmetry_space_group_name_H-M   'P 1'
_cell_length_a   8.62515369
_cell_length_b   8.62515360
_cell_length_c   8.62515347
_cell_angle_alpha   60.24798072
_cell_angle_beta   60.24797402
_cell_angle_gamma   60.24797918
_symmetry_Int_Tables_number   1
_chemical_formula_structural   Fe3Cu2Sn(PO4)6
_chemical_formula_sum   'Fe3 Cu2 Sn1 P6 O24'
_cell_volume   456.26439184
_cell_formula_units_Z   1
loop_
 _symmetry_equiv_pos_site_id
 _symmetry_equiv_pos_as_xyz
  1  'x, y, z'
loop_
 _atom_site_type_symbol
 _atom_site_label
 _atom_site_symmetry_multiplicity
 _atom_site_fract_x
 _atom_site_fract_y
 _atom_site_fract_z
 _atom_site_occupancy
  Fe  Fe0  1  0.14493510  0.14493510  0.14493510  1
  Fe  Fe1  1  0.35529616  0.35529616  0.35529616  1
  Fe  Fe2  1  0.64411927  0.64411927  0.64411927  1
  Cu  Cu3  1  0.00415724  0.00415724  0.00415724  1
  Cu  Cu4  1  0.49971070  0.49971070  0.49971070  1
  Sn  Sn5  1  0.85643654  0.85643654  0.85643654  1
  P  P6  1  0.74846283  0.45191679  0.04612140  1
  P  P7  1  0.04612140  0.74846283  0.45191679  1
  P  P8  1  0.45191679  0.04612140  0.74846283  1
  P  P9  1  0.25353795  0.53998288  0.95569666  1
  P  P10  1  0.53998288  0.95569666  0.25353795  1
  P  P11  1  0.95569666  0.25353795  0.53998288  1
  O  O12  1  0.11233618  0.31357882  0.50440625  1
  O  O13  1  0.31357882  0.50440625  0.11233618  1
  O  O14  1  0.05989315  0.91356398  0.25851852  1
  O  O15  1  0.50440625  0.11233618  0.31357882  1
  O  O16  1  0.01456517  0.80937674  0.60765676  1
  O  O17  1  0.24075897  0.58569903  0.43909803  1
  O  O18  1  0.25851852  0.05989315  0.91356398  1
  O  O19  1  0.43909803  0.24075897  0.58569903  1
  O  O20  1  0.18931467  0.38625954  0.99295543  1
  O  O21  1  0.58569903  0.43909803  0.24075897  1
  O  O22  1  0.08921691  0.73838255  0.94316234  1
  O  O23  1  0.38625954  0.99295543  0.18931467  1
  O  O24  1  0.60765676  0.01456517  0.80937674  1
  O  O25  1  0.91356398  0.25851852  0.05989315  1
  O  O26  1  0.41508947  0.55653502  0.75954434  1
  O  O27  1  0.80937674  0.60765676  0.01456517  1
  O  O28  1  0.55653502  0.75954434  0.41508947  1
  O  O29  1  0.73838255  0.94316234  0.08921691  1
  O  O30  1  0.75954434  0.41508947  0.55653502  1
  O  O31  1  0.99295543  0.18931467  0.38625954  1
  O  O32  1  0.49400082  0.88533633  0.69037848  1
  O  O33  1  0.94316234  0.08921691  0.73838255  1
  O  O34  1  0.69037848  0.49400082  0.88533633  1
  O  O35  1  0.88533633  0.69037848  0.49400082  1
