# generated using pymatgen
data_LiV4O5F7
_symmetry_space_group_name_H-M   'P 1'
_cell_length_a   5.14683815
_cell_length_b   5.33954749
_cell_length_c   7.58296126
_cell_angle_alpha   86.83283527
_cell_angle_beta   90.52663937
_cell_angle_gamma   92.14530887
_symmetry_Int_Tables_number   1
_chemical_formula_structural   LiV4O5F7
_chemical_formula_sum   'Li1 V4 O5 F7'
_cell_volume   207.92388460
_cell_formula_units_Z   1
loop_
 _symmetry_equiv_pos_site_id
 _symmetry_equiv_pos_as_xyz
  1  'x, y, z'
loop_
 _atom_site_type_symbol
 _atom_site_label
 _atom_site_symmetry_multiplicity
 _atom_site_fract_x
 _atom_site_fract_y
 _atom_site_fract_z
 _atom_site_occupancy
  Li  Li0  1  0.49325439  0.91684086  0.19810085  1
  V  V1  1  0.01207964  0.02682200  0.49767358  1
  V  V2  1  0.47514475  0.53149571  0.50092249  1
  V  V3  1  0.48473242  0.48342813  0.97381147  1
  V  V4  1  0.99509629  0.99533111  0.99592921  1
  O  O5  1  0.20676916  0.28597979  0.45802124  1
  O  O6  1  0.29832039  0.79211340  0.44758579  1
  O  O7  1  0.29337762  0.18104734  0.05673610  1
  O  O8  1  0.41166410  0.50320291  0.75339882  1
  O  O9  1  0.71814165  0.79358560  0.97492674  1
  F  F10  1  0.10304985  0.98836649  0.74840471  1
  F  F11  1  0.21188516  0.69416275  0.06185406  1
  F  F12  1  0.58937036  0.51514937  0.25314752  1
  F  F13  1  0.69911028  0.21605352  0.54305472  1
  F  F14  1  0.80375037  0.71367764  0.55070289  1
  F  F15  1  0.80287004  0.30199270  0.94832424  1
  F  F16  1  0.86995252  0.00537467  0.25739856  1
