# generated using pymatgen
data_Ti2N2O
_symmetry_space_group_name_H-M   'P 1'
_cell_length_a   8.24023467
_cell_length_b   8.23533165
_cell_length_c   8.19294280
_cell_angle_alpha   109.40120914
_cell_angle_beta   109.42795988
_cell_angle_gamma   109.60100907
_symmetry_Int_Tables_number   1
_chemical_formula_structural   Ti2N2O
_chemical_formula_sum   'Ti16 N16 O8'
_cell_volume   427.90659785
_cell_formula_units_Z   8
loop_
 _symmetry_equiv_pos_site_id
 _symmetry_equiv_pos_as_xyz
  1  'x, y, z'
loop_
 _atom_site_type_symbol
 _atom_site_label
 _atom_site_symmetry_multiplicity
 _atom_site_fract_x
 _atom_site_fract_y
 _atom_site_fract_z
 _atom_site_occupancy
  Ti  Ti0  1  0.49943221  0.99846319  0.98650751  1
  Ti  Ti1  1  0.75989135  0.30417008  0.54582059  1
  Ti  Ti2  1  0.20840840  0.95000622  0.24928617  1
  Ti  Ti3  1  0.71208132  0.46590351  0.24998675  1
  Ti  Ti4  1  0.23876130  0.20322572  0.94756090  1
  Ti  Ti5  1  0.00990464  0.51133433  0.00834404  1
  Ti  Ti6  1  0.96442109  0.26038918  0.20492254  1
  Ti  Ti7  1  0.49937871  0.50758527  0.51179860  1
  Ti  Ti8  1  0.54413914  0.75043171  0.30023207  1
  Ti  Ti9  1  0.00880306  0.99653268  0.50536668  1
  Ti  Ti10  1  0.45112991  0.25001530  0.71628641  1
  Ti  Ti11  1  0.03571080  0.74011757  0.78465693  1
  Ti  Ti12  1  0.75093473  0.78913593  0.04064436  1
  Ti  Ti13  1  0.79702039  0.04173268  0.75815783  1
  Ti  Ti14  1  0.28881929  0.53944848  0.74267658  1
  Ti  Ti15  1  0.25081861  0.70720198  0.45967006  1
  N  N16  1  0.72316919  0.99221882  0.95122227  1
  N  N17  1  0.50990994  0.23275876  0.96009634  1
  N  N18  1  0.77106812  0.72561722  0.26380769  1
  N  N19  1  0.23175323  0.96044477  0.50773807  1
  N  N20  1  0.77165630  0.54561333  0.53592838  1
  N  N21  1  0.05162756  0.27541858  0.01127523  1
  N  N22  1  0.27864672  0.73700427  0.22321570  1
  N  N23  1  0.22372399  0.44627004  0.45851059  1
  N  N24  1  0.55001317  0.54131077  0.77540800  1
  N  N25  1  0.95321521  0.72716489  0.99497095  1
  N  N26  1  0.95748196  0.50725746  0.23279233  1
  N  N27  1  0.54143644  0.77117122  0.54748627  1
  N  N28  1  0.98874039  0.94987019  0.72421142  1
  N  N29  1  0.22289460  0.27378929  0.73552206  1
  N  N30  1  0.03451792  0.48339074  0.75754214  1
  N  N31  1  0.26824040  0.77783843  0.72966140  1
  O  O32  1  0.76127712  0.03965648  0.48913122  1
  O  O33  1  0.27661773  0.01105508  0.05416537  1
  O  O34  1  0.73271962  0.22213666  0.27845595  1
  O  O35  1  0.45820145  0.22266646  0.45001295  1
  O  O36  1  0.44853860  0.46119014  0.22250608  1
  O  O37  1  0.72373282  0.26252365  0.76763669  1
  O  O38  1  0.00901684  0.04994091  0.27400764  1
  O  O39  1  0.49214372  0.76799698  0.04277523  1
