# generated using pymatgen
data_Li4Fe3Co3(CuO8)2
_symmetry_space_group_name_H-M   'P 1'
_cell_length_a   5.80333848
_cell_length_b   5.78023631
_cell_length_c   9.55011385
_cell_angle_alpha   90.21783268
_cell_angle_beta   90.32702937
_cell_angle_gamma   119.90065793
_symmetry_Int_Tables_number   1
_chemical_formula_structural   Li4Fe3Co3(CuO8)2
_chemical_formula_sum   'Li4 Fe3 Co3 Cu2 O16'
_cell_volume   277.70053040
_cell_formula_units_Z   1
loop_
 _symmetry_equiv_pos_site_id
 _symmetry_equiv_pos_as_xyz
  1  'x, y, z'
loop_
 _atom_site_type_symbol
 _atom_site_label
 _atom_site_symmetry_multiplicity
 _atom_site_fract_x
 _atom_site_fract_y
 _atom_site_fract_z
 _atom_site_occupancy
  Li  Li0  1  0.32430734  0.66062985  0.89902862  1
  Li  Li1  1  0.01619669  0.00794202  0.99693387  1
  Li  Li2  1  0.02096928  0.01099528  0.49493752  1
  Li  Li3  1  0.65433847  0.32741550  0.39621746  1
  Fe  Fe4  1  0.66062701  0.82857531  0.21370105  1
  Fe  Fe5  1  0.82721067  0.66215319  0.71335924  1
  Fe  Fe6  1  0.82959631  0.16908628  0.71227135  1
  Co  Co7  1  0.16734504  0.82948296  0.21214160  1
  Co  Co8  1  0.16799644  0.33638260  0.21269691  1
  Co  Co9  1  0.33945702  0.17048893  0.71211410  1
  Cu  Cu10  1  0.33805643  0.67252756  0.48695447  1
  Cu  Cu11  1  0.67548188  0.33497124  0.98937160  1
  O  O12  1  0.17385111  0.84642025  0.60609136  1
  O  O13  1  0.03397925  0.51760696  0.32488661  1
  O  O14  1  0.32203015  0.65862397  0.10709272  1
  O  O15  1  0.00952755  0.00449190  0.30890737  1
  O  O16  1  0.01249902  0.00834578  0.80970356  1
  O  O17  1  0.17770144  0.33189097  0.60632862  1
  O  O18  1  0.46311184  0.95959795  0.33531906  1
  O  O19  1  0.46369341  0.50525138  0.33618484  1
  O  O20  1  0.32258484  0.15960552  0.11282822  1
  O  O21  1  0.67769559  0.84217519  0.59782510  1
  O  O22  1  0.50512308  0.46942384  0.83761519  1
  O  O23  1  0.50229061  0.03384602  0.83551709  1
  O  O24  1  0.65729926  0.32957920  0.60221254  1
  O  O25  1  0.85082410  0.67779833  0.10288662  1
  O  O26  1  0.95678549  0.47574149  0.84039643  1
  O  O27  1  0.84941866  0.16924954  0.10431590  1
