# generated using pymatgen
data_Mn3O5F
_symmetry_space_group_name_H-M   'P 1'
_cell_length_a   7.09839434
_cell_length_b   5.44901492
_cell_length_c   5.44549842
_cell_angle_alpha   72.28405149
_cell_angle_beta   72.74781005
_cell_angle_gamma   72.81664256
_symmetry_Int_Tables_number   1
_chemical_formula_structural   Mn3O5F
_chemical_formula_sum   'Mn6 O10 F2'
_cell_volume   186.67484476
_cell_formula_units_Z   2
loop_
 _symmetry_equiv_pos_site_id
 _symmetry_equiv_pos_as_xyz
  1  'x, y, z'
loop_
 _atom_site_type_symbol
 _atom_site_label
 _atom_site_symmetry_multiplicity
 _atom_site_fract_x
 _atom_site_fract_y
 _atom_site_fract_z
 _atom_site_occupancy
  Mn  Mn0  1  0.82540793  0.66826014  0.68308946  1
  Mn  Mn1  1  0.66815601  0.33209172  0.34212067  1
  Mn  Mn2  1  0.33301340  0.65084035  0.66043359  1
  Mn  Mn3  1  0.17071352  0.31586969  0.33098645  1
  Mn  Mn4  1  0.51066966  0.00525987  0.00800150  1
  Mn  Mn5  1  0.99061767  0.02160649  0.98060823  1
  O  O6  1  0.66444625  0.02780164  0.64690053  1
  O  O7  1  0.33491479  0.35401204  0.97168461  1
  O  O8  1  0.62785181  0.56763229  0.56630111  1
  O  O9  1  0.96200486  0.23102206  0.22823411  1
  O  O10  1  0.70163462  0.10618394  0.10843421  1
  O  O11  1  0.03724445  0.77067663  0.76687005  1
  O  O12  1  0.37163847  0.43204100  0.42887102  1
  O  O13  1  0.33623648  0.96430078  0.36036452  1
  O  O14  1  0.66325004  0.64134473  0.03491559  1
  O  O15  1  0.00018662  0.31409240  0.68747887  1
  F  F16  1  0.30103644  0.89532028  0.89794923  1
  F  F17  1  0.00097799  0.70164596  0.29675524  1
