# generated using pymatgen
data_Li2FeF4
_symmetry_space_group_name_H-M   'P 1'
_cell_length_a   5.99933046
_cell_length_b   9.64524532
_cell_length_c   5.42863730
_cell_angle_alpha   90.00000000
_cell_angle_beta   90.00000000
_cell_angle_gamma   90.00000000
_symmetry_Int_Tables_number   1
_chemical_formula_structural   Li2FeF4
_chemical_formula_sum   'Li8 Fe4 F16'
_cell_volume   314.12817360
_cell_formula_units_Z   4
loop_
 _symmetry_equiv_pos_site_id
 _symmetry_equiv_pos_as_xyz
  1  'x, y, z'
loop_
 _atom_site_type_symbol
 _atom_site_label
 _atom_site_symmetry_multiplicity
 _atom_site_fract_x
 _atom_site_fract_y
 _atom_site_fract_z
 _atom_site_occupancy
  Li  Li0  1  0.00991738  0.22907807  0.78898434  1
  Li  Li1  1  0.16640750  0.02352534  0.37198150  1
  Li  Li2  1  0.33359250  0.52352534  0.87198150  1
  Li  Li3  1  0.49008262  0.72907807  0.28898434  1
  Li  Li4  1  0.50991738  0.27092193  0.78898434  1
  Li  Li5  1  0.66640750  0.47647466  0.37198150  1
  Li  Li6  1  0.83359250  0.97647466  0.87198150  1
  Li  Li7  1  0.99008262  0.77092193  0.28898434  1
  Fe  Fe8  1  0.16339920  0.38874442  0.31359340  1
  Fe  Fe9  1  0.33660080  0.88874442  0.81359340  1
  Fe  Fe10  1  0.66339920  0.11125558  0.31359340  1
  Fe  Fe11  1  0.83660080  0.61125558  0.81359340  1
  F  F12  1  0.10060171  0.50052203  0.63344366  1
  F  F13  1  0.09846551  0.03897737  0.71836526  1
  F  F14  1  0.08295426  0.75169142  0.94635574  1
  F  F15  1  0.25548303  0.80772569  0.47302410  1
  F  F16  1  0.24451697  0.30772569  0.97302410  1
  F  F17  1  0.41704574  0.25169142  0.44635574  1
  F  F18  1  0.40153449  0.53897737  0.21836526  1
  F  F19  1  0.39939829  0.00052203  0.13344366  1
  F  F20  1  0.60060171  0.99947797  0.63344366  1
  F  F21  1  0.59846551  0.46102263  0.71836526  1
  F  F22  1  0.58295426  0.74830858  0.94635574  1
  F  F23  1  0.75548303  0.69227431  0.47302410  1
  F  F24  1  0.74451697  0.19227431  0.97302410  1
  F  F25  1  0.91704574  0.24830858  0.44635574  1
  F  F26  1  0.90153449  0.96102263  0.21836526  1
  F  F27  1  0.89939829  0.49947797  0.13344366  1
