# generated using pymatgen
data_Sn2N2O
_symmetry_space_group_name_H-M   'P 1'
_cell_length_a   8.83230581
_cell_length_b   8.81891502
_cell_length_c   8.89527577
_cell_angle_alpha   109.64247763
_cell_angle_beta   109.59239913
_cell_angle_gamma   109.31908508
_symmetry_Int_Tables_number   1
_chemical_formula_structural   Sn2N2O
_chemical_formula_sum   'Sn16 N16 O8'
_cell_volume   532.43858191
_cell_formula_units_Z   8
loop_
 _symmetry_equiv_pos_site_id
 _symmetry_equiv_pos_as_xyz
  1  'x, y, z'
loop_
 _atom_site_type_symbol
 _atom_site_label
 _atom_site_symmetry_multiplicity
 _atom_site_fract_x
 _atom_site_fract_y
 _atom_site_fract_z
 _atom_site_occupancy
  Sn  Sn0  1  0.96223235  0.24926194  0.22408953  1
  Sn  Sn1  1  0.50655481  0.00631489  0.99681187  1
  Sn  Sn2  1  0.78063661  0.02608872  0.75698044  1
  Sn  Sn3  1  0.71077647  0.46139629  0.24029633  1
  Sn  Sn4  1  0.74727452  0.28005688  0.53291523  1
  Sn  Sn5  1  0.75063397  0.77819681  0.03096928  1
  Sn  Sn6  1  0.53379068  0.74862436  0.28600990  1
  Sn  Sn7  1  0.00323402  0.99050140  0.50456879  1
  Sn  Sn8  1  -0.00000043  0.50212534  0.99067230  1
  Sn  Sn9  1  0.49410170  0.49799251  0.50476152  1
  Sn  Sn10  1  0.46576475  0.24940029  0.71552642  1
  Sn  Sn11  1  0.26293300  0.72216795  0.47248684  1
  Sn  Sn12  1  0.24849418  0.21702151  0.95396300  1
  Sn  Sn13  1  0.27192877  0.52641633  0.73540043  1
  Sn  Sn14  1  0.22491552  0.96065480  0.25597454  1
  Sn  Sn15  1  0.03596902  0.75240871  0.78575826  1
  N  N16  1  0.73588102  0.23750357  0.27853196  1
  N  N17  1  0.76243069  0.72369101  0.26268844  1
  N  N18  1  0.46421994  0.23005565  0.45543107  1
  N  N19  1  0.73195339  0.25476280  0.77060449  1
  N  N20  1  0.21886268  0.45539270  0.45150026  1
  N  N21  1  0.50327292  0.23787906  0.96259248  1
  N  N22  1  0.27204909  0.72255667  0.22292881  1
  N  N23  1  0.99387881  0.95971629  0.73831764  1
  N  N24  1  0.53992517  0.54064142  0.77507353  1
  N  N25  1  0.96615219  0.74192768  0.00222949  1
  N  N26  1  0.54522763  0.76977724  0.54161664  1
  N  N27  1  0.21843012  0.26929961  0.72684540  1
  N  N28  1  0.02724681  0.49387824  0.75395792  1
  N  N29  1  0.74260704  0.99868128  0.97106415  1
  N  N30  1  0.27384694  0.77763110  0.73637051  1
  N  N31  1  0.23186355  0.95587772  0.50159304  1
  O  O32  1  0.76461397  0.03423457  0.48195349  1
  O  O33  1  0.28119238  0.01380196  0.05291742  1
  O  O34  1  0.95321783  0.50190966  0.21978200  1
  O  O35  1  0.44623652  0.45164267  0.22446537  1
  O  O36  1  0.05735134  0.28160119  0.01853327  1
  O  O37  1  0.76675456  0.55462624  0.53079454  1
  O  O38  1  0.49545423  0.77582184  0.04749936  1
  O  O39  1  0.00809125  0.04846215  0.28552608  1
