# generated using pymatgen
data_Li2FeF5
_symmetry_space_group_name_H-M   'P 1'
_cell_length_a   7.42393001
_cell_length_b   5.46497666
_cell_length_c   9.59847758
_cell_angle_alpha   90.00000000
_cell_angle_beta   90.00000000
_cell_angle_gamma   90.00000000
_symmetry_Int_Tables_number   1
_chemical_formula_structural   Li2FeF5
_chemical_formula_sum   'Li8 Fe4 F20'
_cell_volume   389.42563359
_cell_formula_units_Z   4
loop_
 _symmetry_equiv_pos_site_id
 _symmetry_equiv_pos_as_xyz
  1  'x, y, z'
loop_
 _atom_site_type_symbol
 _atom_site_label
 _atom_site_symmetry_multiplicity
 _atom_site_fract_x
 _atom_site_fract_y
 _atom_site_fract_z
 _atom_site_occupancy
  Li  Li0  1  0.93314478  0.75000000  0.28057437  1
  Li  Li1  1  0.08563647  0.25000000  0.43013544  1
  Li  Li2  1  0.41436353  0.75000000  0.93013544  1
  Li  Li3  1  0.56685522  0.25000000  0.78057437  1
  Li  Li4  1  0.43314478  0.75000000  0.21942563  1
  Li  Li5  1  0.58563647  0.25000000  0.06986456  1
  Li  Li6  1  0.91436353  0.75000000  0.56986456  1
  Li  Li7  1  0.06685522  0.25000000  0.71942563  1
  Fe  Fe8  1  0.18260026  0.25000000  0.04865538  1
  Fe  Fe9  1  0.31739974  0.75000000  0.54865538  1
  Fe  Fe10  1  0.68260026  0.25000000  0.45134462  1
  Fe  Fe11  1  0.81739974  0.75000000  0.95134462  1
  F  F12  1  0.00000000  0.00000000  0.00000000  1
  F  F13  1  0.00000000  0.50000000  0.00000000  1
  F  F14  1  0.11140521  0.25000000  0.23787839  1
  F  F15  1  0.13596864  0.49640521  0.58288043  1
  F  F16  1  0.13596864  0.00359479  0.58288043  1
  F  F17  1  0.23716436  0.75000000  0.35246939  1
  F  F18  1  0.26283564  0.25000000  0.85246939  1
  F  F19  1  0.36403136  0.99640521  0.08288043  1
  F  F20  1  0.36403136  0.50359479  0.08288043  1
  F  F21  1  0.38859479  0.75000000  0.73787839  1
  F  F22  1  0.50000000  0.00000000  0.50000000  1
  F  F23  1  0.50000000  0.50000000  0.50000000  1
  F  F24  1  0.61140521  0.25000000  0.26212161  1
  F  F25  1  0.63596864  0.49640521  0.91711957  1
  F  F26  1  0.63596864  0.00359479  0.91711957  1
  F  F27  1  0.73716436  0.75000000  0.14753061  1
  F  F28  1  0.76283564  0.25000000  0.64753061  1
  F  F29  1  0.86403136  0.99640521  0.41711957  1
  F  F30  1  0.86403136  0.50359479  0.41711957  1
  F  F31  1  0.88859479  0.75000000  0.76212161  1
