# generated using pymatgen
data_Li9Mn3(WO4)7
_symmetry_space_group_name_H-M   'P 1'
_cell_length_a   8.59095065
_cell_length_b   8.59095065
_cell_length_c   8.59095065
_cell_angle_alpha   89.95853429
_cell_angle_beta   90.04146571
_cell_angle_gamma   90.04146571
_symmetry_Int_Tables_number   1
_chemical_formula_structural   Li9Mn3(WO4)7
_chemical_formula_sum   'Li9 Mn3 W7 O28'
_cell_volume   634.04974536
_cell_formula_units_Z   1
loop_
 _symmetry_equiv_pos_site_id
 _symmetry_equiv_pos_as_xyz
  1  'x, y, z'
loop_
 _atom_site_type_symbol
 _atom_site_label
 _atom_site_symmetry_multiplicity
 _atom_site_fract_x
 _atom_site_fract_y
 _atom_site_fract_z
 _atom_site_occupancy
  Li  Li0  1  0.09612225  0.35977161  0.64362077  1
  Li  Li1  1  0.09612225  0.64362077  0.35977161  1
  Li  Li2  1  0.35637923  0.35977161  0.90387775  1
  Li  Li3  1  0.35637923  0.90387775  0.35977161  1
  Li  Li4  1  0.64592625  0.09314472  0.35407375  1
  Li  Li5  1  0.64592625  0.35407375  0.09314472  1
  Li  Li6  1  0.64022839  0.64362077  0.90387775  1
  Li  Li7  1  0.64022839  0.90387775  0.64362077  1
  Li  Li8  1  0.90685528  0.35407375  0.35407375  1
  Mn  Mn9  1  0.35954372  0.09463673  0.64045628  1
  Mn  Mn10  1  0.35954372  0.64045628  0.09463673  1
  Mn  Mn11  1  0.90536327  0.64045628  0.64045628  1
  W  W12  1  0.35885724  0.35852136  0.35852136  1
  W  W13  1  0.35803852  0.64196148  0.64196148  1
  W  W14  1  0.64147864  0.35852136  0.64114276  1
  W  W15  1  0.64147864  0.64114276  0.35852136  1
  W  W16  1  0.99671074  0.00328926  0.49656758  1
  W  W17  1  0.99671074  0.49656758  0.00328926  1
  W  W18  1  0.50343242  0.00328926  0.00328926  1
  O  O19  1  0.15019099  0.38235184  0.38235184  1
  O  O20  1  0.14156667  0.61202589  0.61202589  1
  O  O21  1  0.11882265  0.12764048  0.61947648  1
  O  O22  1  0.11882265  0.61947648  0.12764048  1
  O  O23  1  0.12011832  0.37967097  0.87988168  1
  O  O24  1  0.12011832  0.87988168  0.37967097  1
  O  O25  1  0.38052352  0.12764048  0.88117735  1
  O  O26  1  0.38052352  0.88117735  0.12764048  1
  O  O27  1  0.39177730  0.38561481  0.60822270  1
  O  O28  1  0.39177730  0.60822270  0.38561481  1
  O  O29  1  0.38465485  0.14675589  0.38523062  1
  O  O30  1  0.38465485  0.38523062  0.14675589  1
  O  O31  1  0.38797411  0.61202589  0.85843333  1
  O  O32  1  0.38797411  0.85843333  0.61202589  1
  O  O33  1  0.61476938  0.14675589  0.61534515  1
  O  O34  1  0.61476938  0.61534515  0.14675589  1
  O  O35  1  0.61764816  0.38235184  0.84980901  1
  O  O36  1  0.61764816  0.84980901  0.38235184  1
  O  O37  1  0.60754137  0.39245863  0.39245863  1
  O  O38  1  0.61438519  0.60822270  0.60822270  1
  O  O39  1  0.62466139  0.12389184  0.12389184  1
  O  O40  1  0.62032903  0.87988168  0.87988168  1
  O  O41  1  0.87610816  0.12389184  0.37533861  1
  O  O42  1  0.87610816  0.37533861  0.12389184  1
  O  O43  1  0.87235952  0.61947648  0.88117735  1
  O  O44  1  0.87235952  0.88117735  0.61947648  1
  O  O45  1  0.85324411  0.38523062  0.61534515  1
  O  O46  1  0.85324411  0.61534515  0.38523062  1
