# generated using pymatgen
data_V3(O2F)2
_symmetry_space_group_name_H-M   'P 1'
_cell_length_a   7.45347002
_cell_length_b   5.57891933
_cell_length_c   5.57891933
_cell_angle_alpha   70.22405398
_cell_angle_beta   71.03423359
_cell_angle_gamma   71.03423359
_symmetry_Int_Tables_number   1
_chemical_formula_structural   V3(O2F)2
_chemical_formula_sum   'V6 O8 F4'
_cell_volume   200.33379968
_cell_formula_units_Z   2
loop_
 _symmetry_equiv_pos_site_id
 _symmetry_equiv_pos_as_xyz
  1  'x, y, z'
loop_
 _atom_site_type_symbol
 _atom_site_label
 _atom_site_symmetry_multiplicity
 _atom_site_fract_x
 _atom_site_fract_y
 _atom_site_fract_z
 _atom_site_occupancy
  V  V0  1  0.83726061  0.66597664  0.66597664  1
  V  V1  1  0.66666700  0.33333300  0.33333300  1
  V  V2  1  0.32766056  0.65128099  0.65128099  1
  V  V3  1  0.16666700  0.33333300  0.33333300  1
  V  V4  1  0.49607239  0.00069036  0.00069036  1
  V  V5  1  0.00567244  0.01538501  0.01538501  1
  O  O6  1  0.66666700  0.03803185  0.62863515  1
  O  O7  1  0.33147305  0.36205124  0.97011597  1
  O  O8  1  0.96175203  0.23894927  0.23894927  1
  O  O9  1  0.37158097  0.42771773  0.42771773  1
  O  O10  1  0.00185995  0.30461576  0.69655103  1
  O  O11  1  0.66666700  0.62863515  0.03803185  1
  O  O12  1  0.33147305  0.97011597  0.36205124  1
  O  O13  1  0.00185995  0.69655103  0.30461576  1
  F  F14  1  0.63193297  0.56385120  0.56385120  1
  F  F15  1  0.30229446  0.89197114  0.89197114  1
  F  F16  1  0.70140003  0.10281480  0.10281480  1
  F  F17  1  0.03103954  0.77469586  0.77469586  1
