# generated using pymatgen
data_VCr2Fe3(PO4)6
_symmetry_space_group_name_H-M   'P 1'
_cell_length_a   8.49874587
_cell_length_b   8.72988367
_cell_length_c   8.72988334
_cell_angle_alpha   60.00000074
_cell_angle_beta   59.09618897
_cell_angle_gamma   59.09618603
_symmetry_Int_Tables_number   1
_chemical_formula_structural   VCr2Fe3(PO4)6
_chemical_formula_sum   'V1 Cr2 Fe3 P6 O24'
_cell_volume   451.63406780
_cell_formula_units_Z   1
loop_
 _symmetry_equiv_pos_site_id
 _symmetry_equiv_pos_as_xyz
  1  'x, y, z'
loop_
 _atom_site_type_symbol
 _atom_site_label
 _atom_site_symmetry_multiplicity
 _atom_site_fract_x
 _atom_site_fract_y
 _atom_site_fract_z
 _atom_site_occupancy
  V  V0  1  0.56884509  0.14371864  0.14371864  1
  Cr  Cr1  1  0.00018044  -0.00006015  -0.00006015  1
  Cr  Cr2  1  0.50109626  0.49963425  0.49963425  1
  Fe  Fe3  1  0.06187734  0.64604122  0.64604122  1
  Fe  Fe4  1  0.43704430  0.85431823  0.85431823  1
  Fe  Fe5  1  0.93930297  0.35356568  0.35356568  1
  P  P6  1  0.25044338  0.25052476  0.54671213  1
  P  P7  1  0.25044338  0.95231973  0.25052476  1
  P  P8  1  0.25044338  0.54671213  0.95231973  1
  P  P9  1  0.74808684  0.45339767  0.04883543  1
  P  P10  1  0.74808684  0.04883543  0.74968006  1
  P  P11  1  0.74808684  0.74968006  0.45339767  1
  O  O12  1  0.06602828  0.10440895  0.32663401  1
  O  O13  1  0.06602828  0.50292976  0.10440895  1
  O  O14  1  0.06602828  0.32663401  0.50292976  1
  O  O15  1  0.21844150  0.09539149  0.74763319  1
  O  O16  1  0.43484395  0.17639421  0.39036734  1
  O  O17  1  0.28602848  0.40447757  0.55882062  1
  O  O18  1  0.21844150  0.93853282  0.09539149  1
  O  O19  1  0.28602848  0.75067333  0.40447757  1
  O  O20  1  0.56357050  0.60586167  0.00570011  1
  O  O21  1  0.28602848  0.55882062  0.75067333  1
  O  O22  1  0.77901057  0.25069823  0.06520433  1
  O  O23  1  0.56357050  0.00570011  0.82486773  1
  O  O24  1  0.43484395  0.99839451  0.17639421  1
  O  O25  1  0.21844150  0.74763319  0.93853282  1
  O  O26  1  0.71684766  0.43777412  0.25017770  1
  O  O27  1  0.43484395  0.39036734  0.99839451  1
  O  O28  1  0.71684766  0.25017770  0.59520052  1
  O  O29  1  0.77901057  0.06520433  0.90508687  1
  O  O30  1  0.71684766  0.59520052  0.43777412  1
  O  O31  1  0.56357050  0.82486773  0.60586167  1
  O  O32  1  0.77901057  0.90508687  0.25069823  1
  O  O33  1  0.93391672  0.67949516  0.49294077  1
  O  O34  1  0.93391672  0.49294077  0.89364734  1
  O  O35  1  0.93391672  0.89364734  0.67949516  1
