# generated using pymatgen
data_Mn3(O2F)2
_symmetry_space_group_name_H-M   'P 1'
_cell_length_a   4.61767272
_cell_length_b   4.61767272
_cell_length_c   9.08988497
_cell_angle_alpha   90.37406937
_cell_angle_beta   89.62593063
_cell_angle_gamma   94.08762355
_symmetry_Int_Tables_number   1
_chemical_formula_structural   Mn3(O2F)2
_chemical_formula_sum   'Mn6 O8 F4'
_cell_volume   193.32198297
_cell_formula_units_Z   2
loop_
 _symmetry_equiv_pos_site_id
 _symmetry_equiv_pos_as_xyz
  1  'x, y, z'
loop_
 _atom_site_type_symbol
 _atom_site_label
 _atom_site_symmetry_multiplicity
 _atom_site_fract_x
 _atom_site_fract_y
 _atom_site_fract_z
 _atom_site_occupancy
  Mn  Mn0  1  0.98794426  0.01205574  0.00858613  1
  Mn  Mn1  1  0.00000000  0.00000000  0.33333300  1
  Mn  Mn2  1  0.01205574  0.98794426  0.65807987  1
  Mn  Mn3  1  0.50000000  0.50000000  0.83333300  1
  Mn  Mn4  1  0.52113581  0.47886419  0.16773151  1
  Mn  Mn5  1  0.47886419  0.52113581  0.49893449  1
  O  O6  1  0.19121453  0.80878547  0.49480311  1
  O  O7  1  0.31750632  0.29299225  0.00297127  1
  O  O8  1  0.30756550  0.30756550  0.33333300  1
  O  O9  1  0.29299225  0.31750632  0.66369473  1
  O  O10  1  0.70700775  0.68249368  0.00297127  1
  O  O11  1  0.69243450  0.69243450  0.33333300  1
  O  O12  1  0.68249368  0.70700775  0.66369473  1
  O  O13  1  0.80878547  0.19121453  0.17186389  1
  F  F14  1  0.22305509  0.77694491  0.16709554  1
  F  F15  1  0.18751195  0.81248805  0.84647515  1
  F  F16  1  0.77694491  0.22305509  0.49957146  1
  F  F17  1  0.81248805  0.18751195  0.82019185  1
