# generated using pymatgen
data_LiCrP2O7
_symmetry_space_group_name_H-M   'P 1'
_cell_length_a   7.04307316
_cell_length_b   10.02668026
_cell_length_c   8.09974886
_cell_angle_alpha   90.00000000
_cell_angle_beta   110.91581699
_cell_angle_gamma   90.00000000
_symmetry_Int_Tables_number   1
_chemical_formula_structural   LiCrP2O7
_chemical_formula_sum   'Li4 Cr4 P8 O28'
_cell_volume   534.30232181
_cell_formula_units_Z   4
loop_
 _symmetry_equiv_pos_site_id
 _symmetry_equiv_pos_as_xyz
  1  'x, y, z'
loop_
 _atom_site_type_symbol
 _atom_site_label
 _atom_site_symmetry_multiplicity
 _atom_site_fract_x
 _atom_site_fract_y
 _atom_site_fract_z
 _atom_site_occupancy
  Li  Li0  1  0.39760127  0.16190146  0.95013352  1
  Li  Li1  1  0.39760127  0.33809854  0.45013352  1
  Li  Li2  1  0.60239873  0.66190146  0.54986648  1
  Li  Li3  1  0.60239873  0.83809854  0.04986648  1
  Cr  Cr4  1  0.26906808  0.60796866  0.74357338  1
  Cr  Cr5  1  0.26906808  0.89203134  0.24357338  1
  Cr  Cr6  1  0.73093192  0.10796866  0.75642662  1
  Cr  Cr7  1  0.73093192  0.39203134  0.25642662  1
  P  P8  1  0.03138361  0.85385915  0.79573951  1
  P  P9  1  0.03138361  0.64614085  0.29573951  1
  P  P10  1  0.36121691  0.90901136  0.68167825  1
  P  P11  1  0.36121691  0.59098864  0.18167825  1
  P  P12  1  0.63878309  0.40901136  0.81832175  1
  P  P13  1  0.63878309  0.09098864  0.31832175  1
  P  P14  1  0.96861639  0.35385915  0.70426049  1
  P  P15  1  0.96861639  0.14614085  0.20426049  1
  O  O16  1  0.01139602  0.70597860  0.74024021  1
  O  O17  1  0.17954382  0.88041665  0.98181556  1
  O  O18  1  0.17580115  0.41805799  0.74575694  1
  O  O19  1  0.12843112  0.92835840  0.66381754  1
  O  O20  1  0.01139602  0.79402140  0.24024021  1
  O  O21  1  0.17954382  0.61958335  0.48181556  1
  O  O22  1  0.37678755  0.60478139  0.00295960  1
  O  O23  1  0.17580115  0.08194201  0.24575694  1
  O  O24  1  0.12843112  0.57164160  0.16381754  1
  O  O25  1  0.43859751  0.78142101  0.79275044  1
  O  O26  1  0.37678755  0.89521861  0.50295960  1
  O  O27  1  0.52526471  0.53090510  0.71267909  1
  O  O28  1  0.47473529  0.03090510  0.78732091  1
  O  O29  1  0.43859751  0.71857899  0.29275044  1
  O  O30  1  0.56140249  0.28142101  0.70724956  1
  O  O31  1  0.52526471  0.96909490  0.21267909  1
  O  O32  1  0.47473529  0.46909490  0.28732091  1
  O  O33  1  0.62321245  0.10478139  0.49704040  1
  O  O34  1  0.56140249  0.21857899  0.20724956  1
  O  O35  1  0.87156888  0.42835840  0.83618246  1
  O  O36  1  0.82419885  0.91805799  0.75424306  1
  O  O37  1  0.62321245  0.39521861  0.99704040  1
  O  O38  1  0.82045618  0.38041665  0.51818444  1
  O  O39  1  0.98860398  0.20597860  0.75975979  1
  O  O40  1  0.87156888  0.07164160  0.33618246  1
  O  O41  1  0.82419885  0.58194201  0.25424306  1
  O  O42  1  0.82045618  0.11958335  0.01818444  1
  O  O43  1  0.98860398  0.29402140  0.25975979  1
