# generated using pymatgen
data_Mn6O7F5
_symmetry_space_group_name_H-M   'P 1'
_cell_length_a   4.72480725
_cell_length_b   7.72537261
_cell_length_c   5.61313414
_cell_angle_alpha   95.16727974
_cell_angle_beta   94.16346598
_cell_angle_gamma   86.07994847
_symmetry_Int_Tables_number   1
_chemical_formula_structural   Mn6O7F5
_chemical_formula_sum   'Mn6 O7 F5'
_cell_volume   203.11868262
_cell_formula_units_Z   1
loop_
 _symmetry_equiv_pos_site_id
 _symmetry_equiv_pos_as_xyz
  1  'x, y, z'
loop_
 _atom_site_type_symbol
 _atom_site_label
 _atom_site_symmetry_multiplicity
 _atom_site_fract_x
 _atom_site_fract_y
 _atom_site_fract_z
 _atom_site_occupancy
  Mn  Mn0  1  0.52448294  0.00901764  0.49338719  1
  Mn  Mn1  1  0.53274729  0.66230050  0.15492963  1
  Mn  Mn2  1  0.49212413  0.33433030  0.83876685  1
  Mn  Mn3  1  0.99533289  0.67242971  0.67779514  1
  Mn  Mn4  1  0.99060757  0.32103240  0.33904383  1
  Mn  Mn5  1  0.96494884  0.99979155  0.99724660  1
  O  O6  1  0.81589218  0.78271101  0.95566271  1
  O  O7  1  0.81107600  0.09346273  0.28156953  1
  O  O8  1  0.70017143  0.10854959  0.79673430  1
  O  O9  1  0.68972433  0.77032565  0.46254282  1
  O  O10  1  0.69897824  0.42827848  0.13304862  1
  O  O11  1  0.30889675  0.56720704  0.87720984  1
  O  O12  1  0.31325679  0.23259880  0.53153317  1
  F  F13  1  0.80613374  0.43330986  0.63660300  1
  F  F14  1  0.29851110  0.89488073  0.19244162  1
  F  F15  1  0.17495025  0.56153814  0.38580961  1
  F  F16  1  0.18684516  0.21200306  0.03260253  1
  F  F17  1  0.19531937  0.91623181  0.71307302  1
