# generated using pymatgen
data_Co3OF5
_symmetry_space_group_name_H-M   'P 1'
_cell_length_a   4.73155823
_cell_length_b   7.83299136
_cell_length_c   5.67537169
_cell_angle_alpha   93.78949424
_cell_angle_beta   88.04059033
_cell_angle_gamma   91.30330744
_symmetry_Int_Tables_number   1
_chemical_formula_structural   Co3OF5
_chemical_formula_sum   'Co6 O2 F10'
_cell_volume   209.71519992
_cell_formula_units_Z   2
loop_
 _symmetry_equiv_pos_site_id
 _symmetry_equiv_pos_as_xyz
  1  'x, y, z'
loop_
 _atom_site_type_symbol
 _atom_site_label
 _atom_site_symmetry_multiplicity
 _atom_site_fract_x
 _atom_site_fract_y
 _atom_site_fract_z
 _atom_site_occupancy
  Co  Co0  1  0.51386117  0.00636970  0.49784274  1
  Co  Co1  1  0.52541694  0.33957713  0.81431494  1
  Co  Co2  1  0.49434704  0.66546051  0.16543728  1
  Co  Co3  1  0.98675866  0.65718292  0.66638845  1
  Co  Co4  1  0.98030530  0.32404832  0.34119697  1
  Co  Co5  1  0.99672619  0.00573146  0.01541446  1
  O  O6  1  0.79809515  0.42015652  0.61244375  1
  O  O7  1  0.81150578  0.11863380  0.30689969  1
  F  F8  1  0.80514407  0.76715672  0.96649681  1
  F  F9  1  0.69631865  0.76552058  0.46406815  1
  F  F10  1  0.68917326  0.10205857  0.81286846  1
  F  F11  1  0.70520465  0.43798852  0.11354235  1
  F  F12  1  0.30733057  0.56393704  0.85831809  1
  F  F13  1  0.29618936  0.23363656  0.54906581  1
  F  F14  1  0.30548474  0.89832257  0.20438303  1
  F  F15  1  0.20613167  0.24790315  0.04672747  1
  F  F16  1  0.19433076  0.89656560  0.70378082  1
  F  F17  1  0.18767804  0.54975133  0.36080874  1
