# generated using pymatgen
data_LiFeP3H8O13
_symmetry_space_group_name_H-M   'P 1'
_cell_length_a   7.69420148
_cell_length_b   9.96493324
_cell_length_c   7.12298623
_cell_angle_alpha   105.89570886
_cell_angle_beta   101.65340428
_cell_angle_gamma   84.02858409
_symmetry_Int_Tables_number   1
_chemical_formula_structural   LiFeP3H8O13
_chemical_formula_sum   'Li2 Fe2 P6 H16 O26'
_cell_volume   513.73675778
_cell_formula_units_Z   2
loop_
 _symmetry_equiv_pos_site_id
 _symmetry_equiv_pos_as_xyz
  1  'x, y, z'
loop_
 _atom_site_type_symbol
 _atom_site_label
 _atom_site_symmetry_multiplicity
 _atom_site_fract_x
 _atom_site_fract_y
 _atom_site_fract_z
 _atom_site_occupancy
  Li  Li0  1  0.00000000  0.00000000  0.00000000  1
  Li  Li1  1  0.50000000  0.50000000  0.00000000  1
  Fe  Fe2  1  0.19236059  0.23781730  0.81489862  1
  Fe  Fe3  1  0.80763941  0.76218270  0.18510138  1
  P  P4  1  0.19439077  0.25709373  0.32752933  1
  P  P5  1  0.19448960  0.52211800  0.23818711  1
  P  P6  1  0.53784819  0.26905625  0.59555746  1
  P  P7  1  0.46215181  0.73094375  0.40444254  1
  P  P8  1  0.80551040  0.47788200  0.76181289  1
  P  P9  1  0.80560923  0.74290627  0.67247067  1
  H  H10  1  0.01757902  0.03243418  0.35926543  1
  H  H11  1  0.18194481  0.56954033  0.81888753  1
  H  H12  1  0.13619359  0.89647349  0.30895181  1
  H  H13  1  0.25872892  0.79490349  0.92027680  1
  H  H14  1  0.30571457  0.60127922  0.69034939  1
  H  H15  1  0.33702794  0.99053495  0.85716929  1
  H  H16  1  0.37448765  0.99653695  0.64991966  1
  H  H17  1  0.34014623  0.91583608  0.09980576  1
  H  H18  1  0.65985377  0.08416392  0.90019424  1
  H  H19  1  0.62551235  0.00346305  0.35008034  1
  H  H20  1  0.66297206  0.00946505  0.14283071  1
  H  H21  1  0.69428543  0.39872078  0.30965061  1
  H  H22  1  0.74127108  0.20509651  0.07972320  1
  H  H23  1  0.86380641  0.10352651  0.69104819  1
  H  H24  1  0.81805519  0.43045967  0.18111247  1
  H  H25  1  0.98242098  0.96756582  0.64073457  1
  O  O26  1  0.12198994  0.20901219  0.47786139  1
  O  O27  1  0.01430525  0.93677274  0.27053040  1
  O  O28  1  0.03975868  0.61887223  0.19251139  1
  O  O29  1  0.13972126  0.42402946  0.36301029  1
  O  O30  1  0.14600809  0.18617183  0.11144650  1
  O  O31  1  0.25247664  0.89846041  0.97604275  1
  O  O32  1  0.28631568  0.62031630  0.82702465  1
  O  O33  1  0.37367800  0.05501750  0.78696184  1
  O  O34  1  0.43515776  0.32558177  0.76171901  1
  O  O35  1  0.28748537  0.43478884  0.07581489  1
  O  O36  1  0.34493009  0.60692096  0.41552317  1
  O  O37  1  0.41033892  0.25377225  0.38163947  1
  O  O38  1  0.34841178  0.86357103  0.41333281  1
  O  O39  1  0.65158822  0.13642897  0.58666719  1
  O  O40  1  0.58966108  0.74622775  0.61836053  1
  O  O41  1  0.65506991  0.39307904  0.58447683  1
  O  O42  1  0.71251463  0.56521116  0.92418511  1
  O  O43  1  0.56484224  0.67441823  0.23828099  1
  O  O44  1  0.62632200  0.94498250  0.21303816  1
  O  O45  1  0.71368432  0.37968370  0.17297535  1
  O  O46  1  0.74752336  0.10153959  0.02395725  1
  O  O47  1  0.85399191  0.81382817  0.88855350  1
  O  O48  1  0.86027874  0.57597054  0.63698971  1
  O  O49  1  0.96024132  0.38112777  0.80748861  1
  O  O50  1  0.98569475  0.06322726  0.72946960  1
  O  O51  1  0.87801006  0.79098781  0.52213861  1
