# generated using pymatgen
data_Mn3(O2F)2
_symmetry_space_group_name_H-M   'P 1'
_cell_length_a   7.69450172
_cell_length_b   5.56231234
_cell_length_c   5.56231234
_cell_angle_alpha   68.96065671
_cell_angle_beta   68.80212480
_cell_angle_gamma   68.80212480
_symmetry_Int_Tables_number   1
_chemical_formula_structural   Mn3(O2F)2
_chemical_formula_sum   'Mn6 O8 F4'
_cell_volume   199.67437102
_cell_formula_units_Z   2
loop_
 _symmetry_equiv_pos_site_id
 _symmetry_equiv_pos_as_xyz
  1  'x, y, z'
loop_
 _atom_site_type_symbol
 _atom_site_label
 _atom_site_symmetry_multiplicity
 _atom_site_fract_x
 _atom_site_fract_y
 _atom_site_fract_z
 _atom_site_occupancy
  Mn  Mn0  1  0.84783579  0.67367995  0.67367995  1
  Mn  Mn1  1  0.65782676  0.33813040  0.33813040  1
  Mn  Mn2  1  0.31699047  0.66081871  0.66081871  1
  Mn  Mn3  1  0.17929413  0.34116911  0.34116911  1
  Mn  Mn4  1  0.49552442  0.99771454  0.99771454  1
  Mn  Mn5  1  0.00038712  0.99283269  0.99283269  1
  O  O6  1  0.67063921  0.03358058  0.63871626  1
  O  O7  1  0.33255777  0.36342799  0.97144257  1
  O  O8  1  0.04747160  0.76816366  0.76816366  1
  O  O9  1  0.36680526  0.43881415  0.43881415  1
  O  O10  1  0.33255777  0.97144257  0.36342799  1
  O  O11  1  0.67063921  0.63871626  0.03358058  1
  O  O12  1  0.00153945  0.30488177  0.69224469  1
  O  O13  1  0.00153945  0.69224469  0.30488177  1
  F  F14  1  0.30816681  0.88084368  0.88084368  1
  F  F15  1  0.61482472  0.56722550  0.56722550  1
  F  F16  1  0.96081318  0.22444031  0.22444031  1
  F  F17  1  0.69458589  0.11187144  0.11187144  1
