# generated using pymatgen
data_Li6Fe3Sn(PO4)6
_symmetry_space_group_name_H-M   'P 1'
_cell_length_a   8.58767541
_cell_length_b   8.65690837
_cell_length_c   8.64650526
_cell_angle_alpha   61.77204391
_cell_angle_beta   62.04515716
_cell_angle_gamma   62.05397509
_symmetry_Int_Tables_number   1
_chemical_formula_structural   Li6Fe3Sn(PO4)6
_chemical_formula_sum   'Li6 Fe3 Sn1 P6 O24'
_cell_volume   474.42771917
_cell_formula_units_Z   1
loop_
 _symmetry_equiv_pos_site_id
 _symmetry_equiv_pos_as_xyz
  1  'x, y, z'
loop_
 _atom_site_type_symbol
 _atom_site_label
 _atom_site_symmetry_multiplicity
 _atom_site_fract_x
 _atom_site_fract_y
 _atom_site_fract_z
 _atom_site_occupancy
  Li  Li0  1  0.02288872  0.00825372  0.00135668  1
  Li  Li1  1  0.74615311  0.14876260  0.35173317  1
  Li  Li2  1  0.48056246  0.50352989  0.49738761  1
  Li  Li3  1  0.29307836  0.83912179  0.64734545  1
  Li  Li4  1  0.64319805  0.29470544  0.83870242  1
  Li  Li5  1  0.83925119  0.64319654  0.29604017  1
  Fe  Fe6  1  0.14653447  0.14375934  0.13950907  1
  Fe  Fe7  1  0.35243456  0.36110306  0.35649574  1
  Fe  Fe8  1  0.64915892  0.64574624  0.65295369  1
  Sn  Sn9  1  0.85466559  0.84977256  0.85370327  1
  P  P10  1  0.74694337  0.44245341  0.05360313  1
  P  P11  1  0.05497812  0.74594860  0.44174193  1
  P  P12  1  0.44127246  0.05381273  0.74833444  1
  P  P13  1  0.24754585  0.53874243  0.95971579  1
  P  P14  1  0.54609775  0.96070388  0.25073319  1
  P  P15  1  0.95388880  0.24490359  0.53731618  1
  O  O16  1  0.12536218  0.29060356  0.49187749  1
  O  O17  1  0.30557992  0.50486764  0.11806111  1
  O  O18  1  0.05842423  0.91656618  0.26319598  1
  O  O19  1  0.53571697  0.11493542  0.30067122  1
  O  O20  1  0.01775329  0.80092229  0.60837521  1
  O  O21  1  0.24440415  0.59041612  0.42800280  1
  O  O22  1  0.25659477  0.07684579  0.90831410  1
  O  O23  1  0.44633164  0.23544865  0.58084733  1
  O  O24  1  0.17217813  0.38958900  0.00506496  1
  O  O25  1  0.59419607  0.42458912  0.24647968  1
  O  O26  1  0.09446470  0.73885325  0.93070528  1
  O  O27  1  0.38333688  0.01814169  0.18671163  1
  O  O28  1  0.60744414  0.01431557  0.80783719  1
  O  O29  1  0.90415434  0.25324326  0.07759691  1
  O  O30  1  0.40555253  0.55364293  0.76980429  1
  O  O31  1  0.80495530  0.60560244  0.01697950  1
  O  O32  1  0.55429758  0.77236006  0.41004746  1
  O  O33  1  0.74278097  0.92385278  0.09415629  1
  O  O34  1  0.76786838  0.40624300  0.55978722  1
  O  O35  1  0.97318442  0.18025000  0.39006622  1
  O  O36  1  0.46732973  0.89687446  0.69372814  1
  O  O37  1  0.93252129  0.08936879  0.73640511  1
  O  O38  1  0.68718817  0.47133769  0.89921840  1
  O  O39  1  0.89972943  0.68361349  0.47239456  1
