# generated using pymatgen
data_Pr2RuO5
_symmetry_space_group_name_H-M   'P 1'
_cell_length_a   3.99426791
_cell_length_b   10.75286792
_cell_length_c   11.68942871
_cell_angle_alpha   90.00000000
_cell_angle_beta   90.00000000
_cell_angle_gamma   90.00000000
_symmetry_Int_Tables_number   1
_chemical_formula_structural   Pr2RuO5
_chemical_formula_sum   'Pr8 Ru4 O20'
_cell_volume   502.05903753
_cell_formula_units_Z   4
loop_
 _symmetry_equiv_pos_site_id
 _symmetry_equiv_pos_as_xyz
  1  'x, y, z'
loop_
 _atom_site_type_symbol
 _atom_site_label
 _atom_site_symmetry_multiplicity
 _atom_site_fract_x
 _atom_site_fract_y
 _atom_site_fract_z
 _atom_site_occupancy
  Pr  Pr0  1  0.75000000  0.90064093  0.27272080  1
  Pr  Pr1  1  0.25000000  0.09935907  0.72727920  1
  Pr  Pr2  1  0.25000000  0.59935907  0.77272080  1
  Pr  Pr3  1  0.75000000  0.40064093  0.22727920  1
  Pr  Pr4  1  0.75000000  0.86591119  0.93599035  1
  Pr  Pr5  1  0.25000000  0.13408881  0.06400965  1
  Pr  Pr6  1  0.25000000  0.63408881  0.43599035  1
  Pr  Pr7  1  0.75000000  0.36591119  0.56400965  1
  Ru  Ru8  1  0.75000000  0.80708136  0.61949697  1
  Ru  Ru9  1  0.25000000  0.19291864  0.38050303  1
  Ru  Ru10  1  0.25000000  0.69291864  0.11949697  1
  Ru  Ru11  1  0.75000000  0.30708136  0.88050303  1
  O  O12  1  0.75000000  0.51043847  0.40232799  1
  O  O13  1  0.25000000  0.48956153  0.59767201  1
  O  O14  1  0.25000000  0.98956153  0.90232799  1
  O  O15  1  0.75000000  0.01043847  0.09767201  1
  O  O16  1  0.75000000  0.78015694  0.45840375  1
  O  O17  1  0.25000000  0.21984306  0.54159625  1
  O  O18  1  0.25000000  0.71984306  0.95840375  1
  O  O19  1  0.75000000  0.28015694  0.04159625  1
  O  O20  1  0.75000000  0.72576392  0.77305821  1
  O  O21  1  0.25000000  0.27423608  0.22694179  1
  O  O22  1  0.25000000  0.77423608  0.27305821  1
  O  O23  1  0.75000000  0.22576392  0.72694179  1
  O  O24  1  0.75000000  0.96523518  0.69363264  1
  O  O25  1  0.25000000  0.03476482  0.30636736  1
  O  O26  1  0.25000000  0.53476482  0.19363264  1
  O  O27  1  0.75000000  0.46523518  0.80636736  1
  O  O28  1  0.75000000  0.73790775  0.11721441  1
  O  O29  1  0.25000000  0.26209225  0.88278559  1
  O  O30  1  0.25000000  0.76209225  0.61721441  1
  O  O31  1  0.75000000  0.23790775  0.38278559  1
