# generated using pymatgen
data_Fe3OF5
_symmetry_space_group_name_H-M   'P 1'
_cell_length_a   7.50616275
_cell_length_b   5.78886085
_cell_length_c   5.82870706
_cell_angle_alpha   71.33211766
_cell_angle_beta   73.00626196
_cell_angle_gamma   72.57955858
_symmetry_Int_Tables_number   1
_chemical_formula_structural   Fe3OF5
_chemical_formula_sum   'Fe6 O2 F10'
_cell_volume   223.46835410
_cell_formula_units_Z   2
loop_
 _symmetry_equiv_pos_site_id
 _symmetry_equiv_pos_as_xyz
  1  'x, y, z'
loop_
 _atom_site_type_symbol
 _atom_site_label
 _atom_site_symmetry_multiplicity
 _atom_site_fract_x
 _atom_site_fract_y
 _atom_site_fract_z
 _atom_site_occupancy
  Fe  Fe0  1  0.84641431  0.65125421  0.66507383  1
  Fe  Fe1  1  0.64933367  0.33817349  0.33981114  1
  Fe  Fe2  1  0.32796495  0.65034093  0.66306553  1
  Fe  Fe3  1  0.16960345  0.33866014  0.36392770  1
  Fe  Fe4  1  0.49543477  0.99679411  0.00274188  1
  Fe  Fe5  1  0.00581951  0.02091513  0.98041164  1
  O  O6  1  0.38122878  0.42264743  0.42249322  1
  O  O7  1  0.00810333  0.30735547  0.67960956  1
  F  F8  1  0.67532702  0.02982877  0.63196322  1
  F  F9  1  0.31641961  0.36193276  0.98766008  1
  F  F10  1  0.31128683  0.88516960  0.89435964  1
  F  F11  1  0.94821489  0.24843998  0.24469510  1
  F  F12  1  0.63748219  0.55904351  0.55039974  1
  F  F13  1  0.03643701  0.77245182  0.76890098  1
  F  F14  1  0.68806262  0.10906317  0.11831208  1
  F  F15  1  0.31795205  0.97740665  0.36895704  1
  F  F16  1  0.67266522  0.62816425  0.03959102  1
  F  F17  1  0.01224879  0.70235958  0.27802662  1
