# generated using pymatgen
data_In2WO6
_symmetry_space_group_name_H-M   'P 1'
_cell_length_a   16.05974590
_cell_length_b   10.38077330
_cell_length_c   5.46052645
_cell_angle_alpha   90.00000000
_cell_angle_beta   90.00000000
_cell_angle_gamma   90.00000000
_symmetry_Int_Tables_number   1
_chemical_formula_structural   In2WO6
_chemical_formula_sum   'In16 W8 O48'
_cell_volume   910.33846052
_cell_formula_units_Z   8
loop_
 _symmetry_equiv_pos_site_id
 _symmetry_equiv_pos_as_xyz
  1  'x, y, z'
loop_
 _atom_site_type_symbol
 _atom_site_label
 _atom_site_symmetry_multiplicity
 _atom_site_fract_x
 _atom_site_fract_y
 _atom_site_fract_z
 _atom_site_occupancy
  In  In0  1  0.06313846  0.35813489  0.09385996  1
  In  In1  1  0.06313846  0.14186511  0.59385996  1
  In  In2  1  0.22875855  0.14597053  0.04162348  1
  In  In3  1  0.22875855  0.35402947  0.54162348  1
  In  In4  1  0.27124145  0.64597053  0.04162348  1
  In  In5  1  0.27124145  0.85402947  0.54162348  1
  In  In6  1  0.43686154  0.64186511  0.59385996  1
  In  In7  1  0.43686154  0.85813489  0.09385996  1
  In  In8  1  0.56313846  0.14186511  0.90614004  1
  In  In9  1  0.56313846  0.35813489  0.40614004  1
  In  In10  1  0.72875855  0.14597053  0.45837652  1
  In  In11  1  0.72875855  0.35402947  0.95837652  1
  In  In12  1  0.77124145  0.64597053  0.45837652  1
  In  In13  1  0.77124145  0.85402947  0.95837652  1
  In  In14  1  0.93686154  0.64186511  0.90614004  1
  In  In15  1  0.93686154  0.85813489  0.40614004  1
  W  W16  1  0.11804791  0.61923101  0.60880773  1
  W  W17  1  0.11804791  0.88076899  0.10880773  1
  W  W18  1  0.38195209  0.11923101  0.60880773  1
  W  W19  1  0.38195209  0.38076899  0.10880773  1
  W  W20  1  0.61804791  0.61923101  0.89119227  1
  W  W21  1  0.61804791  0.88076899  0.39119227  1
  W  W22  1  0.88195209  0.11923101  0.89119227  1
  W  W23  1  0.88195209  0.38076899  0.39119227  1
  O  O24  1  0.01978309  0.78314932  0.07828240  1
  O  O25  1  0.01978309  0.71685068  0.57828240  1
  O  O26  1  0.06806216  0.53861907  0.88189728  1
  O  O27  1  0.06806216  0.96138093  0.38189728  1
  O  O28  1  0.10458086  0.01073502  0.88854522  1
  O  O29  1  0.10458086  0.48926498  0.38854522  1
  O  O30  1  0.14678545  0.22904017  0.31461987  1
  O  O31  1  0.14678545  0.27095983  0.81461987  1
  O  O32  1  0.17348041  0.73219931  0.33566010  1
  O  O33  1  0.17348041  0.76780069  0.83566010  1
  O  O34  1  0.22860226  0.95224493  0.19840673  1
  O  O35  1  0.22860226  0.54775507  0.69840673  1
  O  O36  1  0.27139774  0.04775507  0.69840673  1
  O  O37  1  0.27139774  0.45224493  0.19840673  1
  O  O38  1  0.32651959  0.23219931  0.33566010  1
  O  O39  1  0.32651959  0.26780069  0.83566010  1
  O  O40  1  0.35321455  0.72904017  0.31461987  1
  O  O41  1  0.35321455  0.77095983  0.81461987  1
  O  O42  1  0.39541914  0.51073502  0.88854522  1
  O  O43  1  0.39541914  0.98926498  0.38854522  1
  O  O44  1  0.43193784  0.03861907  0.88189728  1
  O  O45  1  0.43193784  0.46138093  0.38189728  1
  O  O46  1  0.48021691  0.21685068  0.57828240  1
  O  O47  1  0.48021691  0.28314932  0.07828240  1
  O  O48  1  0.51978309  0.71685068  0.92171760  1
  O  O49  1  0.51978309  0.78314932  0.42171760  1
  O  O50  1  0.56806216  0.53861907  0.61810272  1
  O  O51  1  0.56806216  0.96138093  0.11810272  1
  O  O52  1  0.60458086  0.01073502  0.61145478  1
  O  O53  1  0.60458086  0.48926498  0.11145478  1
  O  O54  1  0.64678545  0.22904017  0.18538013  1
  O  O55  1  0.64678545  0.27095983  0.68538013  1
  O  O56  1  0.67348041  0.73219931  0.16433990  1
  O  O57  1  0.67348041  0.76780069  0.66433990  1
  O  O58  1  0.72860226  0.54775507  0.80159327  1
  O  O59  1  0.72860226  0.95224493  0.30159327  1
  O  O60  1  0.77139774  0.04775507  0.80159327  1
  O  O61  1  0.77139774  0.45224493  0.30159327  1
  O  O62  1  0.82651959  0.23219931  0.16433990  1
  O  O63  1  0.82651959  0.26780069  0.66433990  1
  O  O64  1  0.85321455  0.72904017  0.18538013  1
  O  O65  1  0.85321455  0.77095983  0.68538013  1
  O  O66  1  0.89541914  0.51073502  0.61145478  1
  O  O67  1  0.89541914  0.98926498  0.11145478  1
  O  O68  1  0.93193784  0.03861907  0.61810272  1
  O  O69  1  0.93193784  0.46138093  0.11810272  1
  O  O70  1  0.98021691  0.21685068  0.92171760  1
  O  O71  1  0.98021691  0.28314932  0.42171760  1
