# generated using pymatgen
data_Li6MnV3(PO4)6
_symmetry_space_group_name_H-M   'P 1'
_cell_length_a   8.60654380
_cell_length_b   8.67873184
_cell_length_c   12.71367000
_cell_angle_alpha   74.14704622
_cell_angle_beta   106.15287866
_cell_angle_gamma   85.40390438
_symmetry_Int_Tables_number   1
_chemical_formula_structural   Li6MnV3(PO4)6
_chemical_formula_sum   'Li12 Mn2 V6 P12 O48'
_cell_volume   864.83520681
_cell_formula_units_Z   2
loop_
 _symmetry_equiv_pos_site_id
 _symmetry_equiv_pos_as_xyz
  1  'x, y, z'
loop_
 _atom_site_type_symbol
 _atom_site_label
 _atom_site_symmetry_multiplicity
 _atom_site_fract_x
 _atom_site_fract_y
 _atom_site_fract_z
 _atom_site_occupancy
  Li  Li0  1  0.00604440  0.99593466  0.87209875  1
  Li  Li1  1  0.00311576  0.00413980  0.37545253  1
  Li  Li2  1  0.28579494  0.29027911  0.62484074  1
  Li  Li3  1  0.50000000  0.50000000  0.75000000  1
  Li  Li4  1  0.28740931  0.29230186  0.12238358  1
  Li  Li5  1  0.50335635  0.49932195  0.50092883  1
  Li  Li6  1  0.71420506  0.70972089  0.87515926  1
  Li  Li7  1  0.50000000  0.50000000  0.25000000  1
  Li  Li8  1  0.49664365  0.50067805  0.99907117  1
  Li  Li9  1  0.71259069  0.70769814  0.37761642  1
  Li  Li10  1  0.99395560  0.00406534  0.62790125  1
  Li  Li11  1  0.99688424  0.99586020  0.12454747  1
  Mn  Mn12  1  0.05947679  0.62988650  0.81527928  1
  Mn  Mn13  1  0.94052321  0.37011350  0.68472072  1
  V  V14  1  0.05778424  0.62055873  0.32044109  1
  V  V15  1  0.37839193  0.94397178  0.56849263  1
  V  V16  1  0.62160807  0.05602822  0.93150737  1
  V  V17  1  0.37979423  0.94381495  0.06931570  1
  V  V18  1  0.62020577  0.05618505  0.43068430  1
  V  V19  1  0.94221576  0.37944127  0.17955891  1
  P  P20  1  0.28462810  0.28931211  0.87482018  1
  P  P21  1  0.14087446  0.66516289  0.56837340  1
  P  P22  1  0.33852588  0.86922246  0.81674206  1
  P  P23  1  0.28767540  0.28724484  0.37460710  1
  P  P24  1  0.13777834  0.66113520  0.06704960  1
  P  P25  1  0.33822681  0.86237049  0.31714633  1
  P  P26  1  0.66147412  0.13077754  0.68325794  1
  P  P27  1  0.85912554  0.33483711  0.93162660  1
  P  P28  1  0.71537190  0.71068789  0.62517982  1
  P  P29  1  0.66177319  0.13762951  0.18285367  1
  P  P30  1  0.86222166  0.33886480  0.43295040  1
  P  P31  1  0.71232460  0.71275516  0.12539290  1
  O  O32  1  0.01359110  0.66338699  0.95000314  1
  O  O33  1  0.05472027  0.61532335  0.66394722  1
  O  O34  1  0.25639408  0.17190020  0.98158694  1
  O  O35  1  0.01404610  0.65925883  0.45564191  1
  O  O36  1  0.17308873  0.26714222  0.76151957  1
  O  O37  1  0.15249516  0.85982436  0.80111554  1
  O  O38  1  0.26078650  0.46347732  0.88572484  1
  O  O39  1  0.16118420  0.84839584  0.54696931  1
  O  O40  1  0.04876787  0.60208389  0.16092942  1
  O  O41  1  0.26021973  0.17422458  0.48344945  1
  O  O42  1  0.17300156  0.26092068  0.26531520  1
  O  O43  1  0.15423815  0.84136225  0.30134118  1
  O  O44  1  0.29904306  0.54582262  0.60206482  1
  O  O45  1  0.40207896  0.95399906  0.91227725  1
  O  O46  1  0.34235255  0.99056320  0.70235893  1
  O  O47  1  0.46203377  0.26364553  0.86827326  1
  O  O48  1  0.26447750  0.46271924  0.38294393  1
  O  O49  1  0.45011792  0.70772083  0.85058123  1
  O  O50  1  0.15836436  0.84285058  0.05378636  1
  O  O51  1  0.29659747  0.54301286  0.10187501  1
  O  O52  1  0.39701549  0.95080570  0.41128656  1
  O  O53  1  0.54988208  0.29227917  0.64941877  1
  O  O54  1  0.33887292  0.98689189  0.20327214  1
  O  O55  1  0.46478700  0.26279962  0.36734130  1
  O  O56  1  0.53796623  0.73635447  0.63172674  1
  O  O57  1  0.65764745  0.00943680  0.79764107  1
  O  O58  1  0.45671630  0.70442609  0.35198711  1
  O  O59  1  0.59792104  0.04600094  0.58772275  1
  O  O60  1  0.70095694  0.45417738  0.89793518  1
  O  O61  1  0.83881580  0.15160416  0.95303069  1
  O  O62  1  0.54328370  0.29557391  0.14801289  1
  O  O63  1  0.73921350  0.53652268  0.61427516  1
  O  O64  1  0.53521300  0.73720038  0.13265870  1
  O  O65  1  0.66112708  0.01310811  0.29672786  1
  O  O66  1  0.60298451  0.04919430  0.08871344  1
  O  O67  1  0.70340253  0.45698714  0.39812499  1
  O  O68  1  0.84750484  0.14017564  0.69888446  1
  O  O69  1  0.82691127  0.73285778  0.73848043  1
  O  O70  1  0.74360592  0.82809980  0.51841306  1
  O  O71  1  0.94527973  0.38467665  0.83605278  1
  O  O72  1  0.84163564  0.15714942  0.44621364  1
  O  O73  1  0.73552250  0.53728076  0.11705607  1
  O  O74  1  0.84576185  0.15863775  0.19865882  1
  O  O75  1  0.82699844  0.73907932  0.23468480  1
  O  O76  1  0.98640890  0.33661301  0.54999686  1
  O  O77  1  0.73978027  0.82577542  0.01655055  1
  O  O78  1  0.95123213  0.39791611  0.33907058  1
  O  O79  1  0.98595390  0.34074117  0.04435809  1
