# generated using pymatgen
data_Li3Mn2P4HO14
_symmetry_space_group_name_H-M   'P 1'
_cell_length_a   5.26740852
_cell_length_b   5.13908529
_cell_length_c   12.72969677
_cell_angle_alpha   77.41691321
_cell_angle_beta   103.34793642
_cell_angle_gamma   117.83757509
_symmetry_Int_Tables_number   1
_chemical_formula_structural   Li3Mn2P4HO14
_chemical_formula_sum   'Li3 Mn2 P4 H1 O14'
_cell_volume   294.04436996
_cell_formula_units_Z   1
loop_
 _symmetry_equiv_pos_site_id
 _symmetry_equiv_pos_as_xyz
  1  'x, y, z'
loop_
 _atom_site_type_symbol
 _atom_site_label
 _atom_site_symmetry_multiplicity
 _atom_site_fract_x
 _atom_site_fract_y
 _atom_site_fract_z
 _atom_site_occupancy
  Li  Li0  1  0.18994180  0.77689898  0.99100718  1
  Li  Li1  1  0.00000000  0.00000000  0.50000000  1
  Li  Li2  1  0.81005820  0.22310102  0.00899282  1
  Mn  Mn3  1  0.07423865  0.89194757  0.76204512  1
  Mn  Mn4  1  0.92576135  0.10805243  0.23795488  1
  P  P5  1  0.40774089  0.69868060  0.62331224  1
  P  P6  1  0.43710127  0.47281744  0.85747164  1
  P  P7  1  0.56289873  0.52718256  0.14252836  1
  P  P8  1  0.59225911  0.30131940  0.37668776  1
  H  H9  1  0.50000000  0.50000000  0.50000000  1
  O  O10  1  0.22570307  0.85489538  0.62595615  1
  O  O11  1  0.35061486  0.70450993  0.87374432  1
  O  O12  1  0.25186372  0.15590832  0.90652071  1
  O  O13  1  0.34198774  0.43027639  0.72781434  1
  O  O14  1  0.30772941  0.52524773  0.52617753  1
  O  O15  1  0.23386448  0.43957732  0.11488789  1
  O  O16  1  0.73467026  0.89674515  0.64129210  1
  O  O17  1  0.26532974  0.10325485  0.35870790  1
  O  O18  1  0.76613552  0.56042268  0.88511211  1
  O  O19  1  0.69227059  0.47475227  0.47382247  1
  O  O20  1  0.65801226  0.56972361  0.27218566  1
  O  O21  1  0.74813628  0.84409168  0.09347929  1
  O  O22  1  0.64938514  0.29549007  0.12625568  1
  O  O23  1  0.77429693  0.14510462  0.37404385  1
