# generated using pymatgen
data_LiMnPO4
_symmetry_space_group_name_H-M   'P 1'
_cell_length_a   10.40346406
_cell_length_b   8.58563042
_cell_length_c   5.30421241
_cell_angle_alpha   90.00000000
_cell_angle_beta   90.00000000
_cell_angle_gamma   90.00000000
_symmetry_Int_Tables_number   1
_chemical_formula_structural   LiMnPO4
_chemical_formula_sum   'Li4 Mn4 P4 O16'
_cell_volume   473.77383050
_cell_formula_units_Z   4
loop_
 _symmetry_equiv_pos_site_id
 _symmetry_equiv_pos_as_xyz
  1  'x, y, z'
loop_
 _atom_site_type_symbol
 _atom_site_label
 _atom_site_symmetry_multiplicity
 _atom_site_fract_x
 _atom_site_fract_y
 _atom_site_fract_z
 _atom_site_occupancy
  Li  Li0  1  0.20327279  0.31762671  0.04292131  1
  Li  Li1  1  0.29672721  0.81762671  0.54292131  1
  Li  Li2  1  0.70327279  0.18237329  0.04292131  1
  Li  Li3  1  0.79672721  0.68237329  0.54292131  1
  Mn  Mn4  1  0.13013014  0.13663250  0.53467497  1
  Mn  Mn5  1  0.36986986  0.63663250  0.03467497  1
  Mn  Mn6  1  0.63013014  0.36336750  0.53467497  1
  Mn  Mn7  1  0.86986986  0.86336750  0.03467497  1
  P  P8  1  0.19083563  0.94622930  0.03209458  1
  P  P9  1  0.30916437  0.44622930  0.53209458  1
  P  P10  1  0.69083563  0.55377070  0.03209458  1
  P  P11  1  0.80916437  0.05377070  0.53209458  1
  O  O12  1  0.06199588  0.86340709  0.99227003  1
  O  O13  1  0.18718801  0.11206749  0.90895929  1
  O  O14  1  0.22314070  0.96624669  0.31800480  1
  O  O15  1  0.20083753  0.34873462  0.40277402  1
  O  O16  1  0.29916247  0.84873462  0.90277402  1
  O  O17  1  0.27685930  0.46624669  0.81800480  1
  O  O18  1  0.31281199  0.61206749  0.40895929  1
  O  O19  1  0.43800412  0.36340709  0.49227003  1
  O  O20  1  0.56199588  0.63659291  0.99227003  1
  O  O21  1  0.68718801  0.38793251  0.90895929  1
  O  O22  1  0.72314070  0.53375331  0.31800480  1
  O  O23  1  0.70083753  0.15126538  0.40277402  1
  O  O24  1  0.79916247  0.65126538  0.90277402  1
  O  O25  1  0.77685930  0.03375331  0.81800480  1
  O  O26  1  0.81281199  0.88793251  0.40895929  1
  O  O27  1  0.93800412  0.13659291  0.49227003  1
