# generated using pymatgen
data_Li4Co3OF11
_symmetry_space_group_name_H-M   'P 1'
_cell_length_a   6.22542631
_cell_length_b   5.95587157
_cell_length_c   5.81291063
_cell_angle_alpha   98.83568421
_cell_angle_beta   100.08854962
_cell_angle_gamma   99.74572683
_symmetry_Int_Tables_number   1
_chemical_formula_structural   Li4Co3OF11
_chemical_formula_sum   'Li4 Co3 O1 F11'
_cell_volume   205.37192903
_cell_formula_units_Z   1
loop_
 _symmetry_equiv_pos_site_id
 _symmetry_equiv_pos_as_xyz
  1  'x, y, z'
loop_
 _atom_site_type_symbol
 _atom_site_label
 _atom_site_symmetry_multiplicity
 _atom_site_fract_x
 _atom_site_fract_y
 _atom_site_fract_z
 _atom_site_occupancy
  Li  Li0  1  0.12513878  0.57157615  0.31692916  1
  Li  Li1  1  0.39199537  0.65093051  0.85611901  1
  Li  Li2  1  0.60726642  0.33319670  0.12440862  1
  Li  Li3  1  0.87703469  0.42587430  0.69486028  1
  Co  Co4  1  0.65895456  0.84492358  0.39873933  1
  Co  Co5  1  0.01099931  0.00298452  0.02228775  1
  Co  Co6  1  0.32979570  0.15125963  0.59114662  1
  O  O7  1  0.13075022  0.99023736  0.33930769  1
  F  F8  1  0.05236232  0.70766259  0.91119482  1
  F  F9  1  0.44866869  0.84669305  0.61764425  1
  F  F10  1  0.71066237  0.86417179  0.07579552  1
  F  F11  1  0.17708515  0.42122790  0.59438193  1
  F  F12  1  0.41320957  0.60698591  0.19869623  1
  F  F13  1  0.58133969  0.39252905  0.78846459  1
  F  F14  1  0.81600822  0.59698698  0.41496650  1
  F  F15  1  0.28935201  0.13115413  0.92930750  1
  F  F16  1  0.57099156  0.14700701  0.37281194  1
  F  F17  1  0.93810630  0.29676244  0.08215995  1
  F  F18  1  0.87027706  0.01783841  0.67077831  1
