# generated using pymatgen
data_FeNi(PO4)2
_symmetry_space_group_name_H-M   'P 1'
_cell_length_a   8.51549691
_cell_length_b   8.64915062
_cell_length_c   8.64915138
_cell_angle_alpha   59.99999988
_cell_angle_beta   59.47942540
_cell_angle_gamma   59.47942649
_symmetry_Int_Tables_number   1
_chemical_formula_structural   FeNi(PO4)2
_chemical_formula_sum   'Fe3 Ni3 P6 O24'
_cell_volume   446.86827766
_cell_formula_units_Z   3
loop_
 _symmetry_equiv_pos_site_id
 _symmetry_equiv_pos_as_xyz
  1  'x, y, z'
loop_
 _atom_site_type_symbol
 _atom_site_label
 _atom_site_symmetry_multiplicity
 _atom_site_fract_x
 _atom_site_fract_y
 _atom_site_fract_z
 _atom_site_occupancy
  Fe  Fe0  1  0.06621555  0.64459515  0.64459515  1
  Fe  Fe1  1  0.43031901  0.85656000  0.85656000  1
  Fe  Fe2  1  0.93097482  0.35634173  0.35634173  1
  Ni  Ni3  1  0.99826042  0.00057953  0.00057953  1
  Ni  Ni4  1  0.57435787  0.14188038  0.14188038  1
  Ni  Ni5  1  0.49926701  0.50024433  0.50024433  1
  P  P6  1  0.25112862  0.24995990  0.54495084  1
  P  P7  1  0.25112862  0.95396064  0.24995990  1
  P  P8  1  0.25112862  0.54495084  0.95396064  1
  P  P9  1  0.74866077  0.45310802  0.04682969  1
  P  P10  1  0.74866077  0.04682969  0.75140152  1
  P  P11  1  0.74866077  0.75140152  0.45310802  1
  O  O12  1  0.06722262  0.11106778  0.31798241  1
  O  O13  1  0.06722262  0.50372820  0.11106778  1
  O  O14  1  0.06722262  0.31798241  0.50372820  1
  O  O15  1  0.22289541  0.09234422  0.74489544  1
  O  O16  1  0.43755552  0.18647337  0.38930515  1
  O  O17  1  0.27470433  0.40881010  0.56253398  1
  O  O18  1  0.22289541  0.93986494  0.09234422  1
  O  O19  1  0.27470433  0.75395160  0.40881010  1
  O  O20  1  0.56481801  0.60882191  0.00425276  1
  O  O21  1  0.27470433  0.56253398  0.75395160  1
  O  O22  1  0.77947694  0.25492295  0.05786751  1
  O  O23  1  0.56481801  0.00425276  0.82210731  1
  O  O24  1  0.43755552  0.98666596  0.18647337  1
  O  O25  1  0.22289541  0.74489544  0.93986494  1
  O  O26  1  0.72130092  0.44020911  0.24596480  1
  O  O27  1  0.43755552  0.38930515  0.98666596  1
  O  O28  1  0.72130092  0.24596480  0.59252516  1
  O  O29  1  0.77947694  0.05786751  0.90773160  1
  O  O30  1  0.72130092  0.59252516  0.44020911  1
  O  O31  1  0.56481801  0.82210731  0.60882191  1
  O  O32  1  0.77947694  0.90773160  0.25492295  1
  O  O33  1  0.93243997  0.67919098  0.49689305  1
  O  O34  1  0.93243997  0.49689305  0.89147600  1
  O  O35  1  0.93243997  0.89147600  0.67919098  1
