# generated using pymatgen
data_V6O11F
_symmetry_space_group_name_H-M   'P 1'
_cell_length_a   10.33121961
_cell_length_b   6.60954345
_cell_length_c   2.93809470
_cell_angle_alpha   90.00000000
_cell_angle_beta   90.00000000
_cell_angle_gamma   108.66164793
_symmetry_Int_Tables_number   1
_chemical_formula_structural   V6O11F
_chemical_formula_sum   'V6 O11 F1'
_cell_volume   190.07873618
_cell_formula_units_Z   1
loop_
 _symmetry_equiv_pos_site_id
 _symmetry_equiv_pos_as_xyz
  1  'x, y, z'
loop_
 _atom_site_type_symbol
 _atom_site_label
 _atom_site_symmetry_multiplicity
 _atom_site_fract_x
 _atom_site_fract_y
 _atom_site_fract_z
 _atom_site_occupancy
  V  V0  1  -0.00006383  0.00121432  0.00000000  1
  V  V1  1  0.33277506  0.16641705  0.50000000  1
  V  V2  1  0.00033025  0.50026804  0.50000000  1
  V  V3  1  0.33362104  0.66795203  0.00000000  1
  V  V4  1  0.66652384  0.34854934  0.00000000  1
  V  V5  1  0.66691036  0.81731484  0.50000000  1
  O  O6  1  0.13095889  0.06537472  0.50000000  1
  O  O7  1  0.00020637  0.30375095  0.00000000  1
  O  O8  1  0.99839668  0.69549531  0.00000000  1
  O  O9  1  0.33499645  0.36371820  0.00000000  1
  O  O10  1  0.20267506  0.60116399  0.50000000  1
  O  O11  1  0.53630348  0.26543710  0.50000000  1
  O  O12  1  0.46631604  0.73586600  0.50000000  1
  O  O13  1  0.79699385  0.39597341  0.50000000  1
  O  O14  1  0.33311537  0.97025739  0.00000000  1
  O  O15  1  0.66651804  0.63106006  0.00000000  1
  O  O16  1  0.86675855  0.93591781  0.50000000  1
  F  F17  1  0.66666450  0.03427046  0.00000000  1
