# generated using pymatgen
data_Ni(IO3)2
_symmetry_space_group_name_H-M   'P 1'
_cell_length_a   6.66021508
_cell_length_b   10.87177240
_cell_length_c   8.08545672
_cell_angle_alpha   90.00000000
_cell_angle_beta   109.34387248
_cell_angle_gamma   90.00000000
_symmetry_Int_Tables_number   1
_chemical_formula_structural   Ni(IO3)2
_chemical_formula_sum   'Ni4 I8 O24'
_cell_volume   552.40420270
_cell_formula_units_Z   4
loop_
 _symmetry_equiv_pos_site_id
 _symmetry_equiv_pos_as_xyz
  1  'x, y, z'
loop_
 _atom_site_type_symbol
 _atom_site_label
 _atom_site_symmetry_multiplicity
 _atom_site_fract_x
 _atom_site_fract_y
 _atom_site_fract_z
 _atom_site_occupancy
  Ni  Ni0  1  0.19504671  0.90547239  0.08574905  1
  Ni  Ni1  1  0.30495329  0.40547239  0.41425095  1
  Ni  Ni2  1  0.69504671  0.59452761  0.58574905  1
  Ni  Ni3  1  0.80495329  0.09452761  0.91425095  1
  I  I4  1  0.28803889  0.20642018  0.92690070  1
  I  I5  1  0.21196111  0.70642018  0.57309930  1
  I  I6  1  0.24567857  0.08308193  0.47677978  1
  I  I7  1  0.25432143  0.58308193  0.02322022  1
  I  I8  1  0.74567857  0.41691807  0.97677978  1
  I  I9  1  0.75432143  0.91691807  0.52322022  1
  I  I10  1  0.78803889  0.29357982  0.42690070  1
  I  I11  1  0.71196111  0.79357982  0.07309930  1
  O  O12  1  0.12995581  0.07794433  0.98164112  1
  O  O13  1  0.04053693  0.89916722  0.64197573  1
  O  O14  1  0.00095387  0.60926254  0.59472500  1
  O  O15  1  0.13569734  0.21733904  0.69391009  1
  O  O16  1  0.36430266  0.71733904  0.80608991  1
  O  O17  1  0.15690826  0.71838704  0.11289167  1
  O  O18  1  0.19208485  0.45896766  0.15689396  1
  O  O19  1  0.49904613  0.10926254  0.90527500  1
  O  O20  1  0.30791515  0.95896766  0.34310604  1
  O  O21  1  0.34309174  0.21838704  0.38710833  1
  O  O22  1  0.45946307  0.39916722  0.85802427  1
  O  O23  1  0.37004419  0.57794433  0.51835888  1
  O  O24  1  0.62995581  0.42205567  0.48164112  1
  O  O25  1  0.54053693  0.60083278  0.14197573  1
  O  O26  1  0.65690826  0.78161296  0.61289167  1
  O  O27  1  0.69208485  0.04103234  0.65689396  1
  O  O28  1  0.50095387  0.89073746  0.09472500  1
  O  O29  1  0.80791515  0.54103234  0.84310604  1
  O  O30  1  0.84309174  0.28161296  0.88710833  1
  O  O31  1  0.63569734  0.28266096  0.19391009  1
  O  O32  1  0.86430266  0.78266096  0.30608991  1
  O  O33  1  0.99904613  0.39073746  0.40527500  1
  O  O34  1  0.95946307  0.10083278  0.35802427  1
  O  O35  1  0.87004419  0.92205567  0.01835888  1
