# generated using pymatgen
data_NaZn2Se2O7
_symmetry_space_group_name_H-M   'P 1'
_cell_length_a   6.27324659
_cell_length_b   13.56423092
_cell_length_c   8.35324318
_cell_angle_alpha   90.00000000
_cell_angle_beta   90.00000000
_cell_angle_gamma   90.00000000
_symmetry_Int_Tables_number   1
_chemical_formula_structural   NaZn2Se2O7
_chemical_formula_sum   'Na4 Zn8 Se8 O28'
_cell_volume   710.79220871
_cell_formula_units_Z   4
loop_
 _symmetry_equiv_pos_site_id
 _symmetry_equiv_pos_as_xyz
  1  'x, y, z'
loop_
 _atom_site_type_symbol
 _atom_site_label
 _atom_site_symmetry_multiplicity
 _atom_site_fract_x
 _atom_site_fract_y
 _atom_site_fract_z
 _atom_site_occupancy
  Na  Na0  1  0.75000000  0.75263110  0.36400380  1
  Na  Na1  1  0.25000000  0.24736890  0.63599620  1
  Na  Na2  1  0.25000000  0.74736890  0.86400380  1
  Na  Na3  1  0.75000000  0.25263110  0.13599620  1
  Zn  Zn4  1  0.75000000  0.88778972  0.72136044  1
  Zn  Zn5  1  0.25000000  0.11221028  0.27863956  1
  Zn  Zn6  1  0.25000000  0.61221028  0.22136044  1
  Zn  Zn7  1  0.75000000  0.38778972  0.77863956  1
  Zn  Zn8  1  0.00000000  -0.00000000  -0.00000000  1
  Zn  Zn9  1  -0.00000000  0.50000000  0.50000000  1
  Zn  Zn10  1  0.50000000  -0.00000000  0.00000000  1
  Zn  Zn11  1  0.50000000  0.50000000  0.50000000  1
  Se  Se12  1  0.75000000  0.67242375  0.72815969  1
  Se  Se13  1  0.25000000  0.32757625  0.27184031  1
  Se  Se14  1  0.25000000  0.82757625  0.22815969  1
  Se  Se15  1  0.75000000  0.17242375  0.77184031  1
  Se  Se16  1  0.75000000  0.52455379  0.11431875  1
  Se  Se17  1  0.25000000  0.47544621  0.88568125  1
  Se  Se18  1  0.25000000  0.97544621  0.61431875  1
  Se  Se19  1  0.75000000  0.02455379  0.38568125  1
  O  O20  1  0.75000000  0.91009194  0.47550500  1
  O  O21  1  0.25000000  0.08990806  0.52449500  1
  O  O22  1  0.25000000  0.58990806  0.97550500  1
  O  O23  1  0.75000000  0.41009194  0.02449500  1
  O  O24  1  0.95231086  0.75655063  0.70514127  1
  O  O25  1  0.04768914  0.24344937  0.29485873  1
  O  O26  1  0.04768914  0.74344937  0.20514127  1
  O  O27  1  0.45231086  0.24344937  0.29485873  1
  O  O28  1  0.95231086  0.25655063  0.79485873  1
  O  O29  1  0.54768914  0.75655063  0.70514127  1
  O  O30  1  0.54768914  0.25655063  0.79485873  1
  O  O31  1  0.45231086  0.74344937  0.20514127  1
  O  O32  1  0.46606975  0.98425913  0.74397007  1
  O  O33  1  0.53393025  0.01574087  0.25602993  1
  O  O34  1  0.53393025  0.51574087  0.24397007  1
  O  O35  1  0.96606975  0.01574087  0.25602993  1
  O  O36  1  0.46606975  0.48425913  0.75602993  1
  O  O37  1  0.03393025  0.98425913  0.74397007  1
  O  O38  1  0.03393025  0.48425913  0.75602993  1
  O  O39  1  0.96606975  0.51574087  0.24397007  1
  O  O40  1  0.75000000  0.61423110  0.53730153  1
  O  O41  1  0.25000000  0.38576890  0.46269847  1
  O  O42  1  0.25000000  0.88576890  0.03730153  1
  O  O43  1  0.75000000  0.11423110  0.96269847  1
  O  O44  1  0.75000000  0.91780038  0.95872091  1
  O  O45  1  0.25000000  0.08219962  0.04127909  1
  O  O46  1  0.25000000  0.58219962  0.45872091  1
  O  O47  1  0.75000000  0.41780038  0.54127909  1
