# generated using pymatgen
data_Li2VO2F
_symmetry_space_group_name_H-M   'P 1'
_cell_length_a   2.94531103
_cell_length_b   5.94913387
_cell_length_c   6.71498106
_cell_angle_alpha   77.56966143
_cell_angle_beta   77.33334348
_cell_angle_gamma   90.00404569
_symmetry_Int_Tables_number   1
_chemical_formula_structural   Li2VO2F
_chemical_formula_sum   'Li4 V2 O4 F2'
_cell_volume   111.96758491
_cell_formula_units_Z   2
loop_
 _symmetry_equiv_pos_site_id
 _symmetry_equiv_pos_as_xyz
  1  'x, y, z'
loop_
 _atom_site_type_symbol
 _atom_site_label
 _atom_site_symmetry_multiplicity
 _atom_site_fract_x
 _atom_site_fract_y
 _atom_site_fract_z
 _atom_site_occupancy
  Li  Li0  1  0.99923163  0.48942852  0.00137848  1
  Li  Li1  1  0.33409847  0.17724209  0.33184481  1
  Li  Li2  1  0.66666706  0.33330766  0.66662985  1
  Li  Li3  1  0.66666305  0.83337377  0.66664172  1
  V  V4  1  0.99758217  0.00816085  0.00489087  1
  V  V5  1  0.33571600  0.65850466  0.32848684  1
  O  O6  1  0.50459163  0.23778432  0.99089251  1
  O  O7  1  0.49806457  0.76596855  0.00384118  1
  O  O8  1  0.82870905  0.42888825  0.34249920  1
  O  O9  1  0.83520460  0.90071132  0.32954908  1
  F  F10  1  0.16462337  0.07826297  0.67098099  1
  F  F11  1  0.16884640  0.58836704  0.66236449  1
