# generated using pymatgen
data_Li2VP4(HO2)8
_symmetry_space_group_name_H-M   'P 1'
_cell_length_a   6.76021641
_cell_length_b   7.13158208
_cell_length_c   7.34578451
_cell_angle_alpha   79.30717906
_cell_angle_beta   77.41053693
_cell_angle_gamma   79.39339605
_symmetry_Int_Tables_number   1
_chemical_formula_structural   Li2VP4(HO2)8
_chemical_formula_sum   'Li2 V1 P4 H8 O16'
_cell_volume   335.80120158
_cell_formula_units_Z   1
loop_
 _symmetry_equiv_pos_site_id
 _symmetry_equiv_pos_as_xyz
  1  'x, y, z'
loop_
 _atom_site_type_symbol
 _atom_site_label
 _atom_site_symmetry_multiplicity
 _atom_site_fract_x
 _atom_site_fract_y
 _atom_site_fract_z
 _atom_site_occupancy
  Li  Li0  1  0.18561656  0.72341486  0.28885093  1
  Li  Li1  1  0.81438344  0.27658514  0.71114907  1
  V  V2  1  0.50000000  0.50000000  0.50000000  1
  P  P3  1  0.30535341  0.28276978  0.23307258  1
  P  P4  1  0.24049751  0.82072127  0.76964630  1
  P  P5  1  0.75950249  0.17927873  0.23035370  1
  P  P6  1  0.69464659  0.71723022  0.76692742  1
  H  H7  1  0.04105057  0.27400412  0.04337391  1
  H  H8  1  0.22686140  0.06116067  0.48429840  1
  H  H9  1  0.40205078  0.17247207  0.71964035  1
  H  H10  1  0.38479551  0.31653098  0.85988130  1
  H  H11  1  0.61520449  0.68346902  0.14011870  1
  H  H12  1  0.59794922  0.82752793  0.28035965  1
  H  H13  1  0.77313860  0.93883933  0.51570160  1
  H  H14  1  0.95894943  0.72599588  0.95662609  1
  O  O15  1  0.21690024  0.34893741  0.05482180  1
  O  O16  1  0.23233828  0.08750338  0.33642859  1
  O  O17  1  0.08940571  0.78559012  0.96328709  1
  O  O18  1  0.22110825  0.03481313  0.68421821  1
  O  O19  1  0.27104579  0.43316116  0.36376668  1
  O  O20  1  0.23939274  0.68844333  0.63036790  1
  O  O21  1  0.54749051  0.23443810  0.15081169  1
  O  O22  1  0.52535855  0.72689772  0.25771950  1
  O  O23  1  0.47464145  0.27310228  0.74228050  1
  O  O24  1  0.45250949  0.76556190  0.84918831  1
  O  O25  1  0.76060726  0.31155667  0.36963210  1
  O  O26  1  0.72895421  0.56683884  0.63623332  1
  O  O27  1  0.77889175  0.96518687  0.31578179  1
  O  O28  1  0.91059429  0.21440988  0.03671291  1
  O  O29  1  0.76766172  0.91249662  0.66357141  1
  O  O30  1  0.78309976  0.65106259  0.94517820  1
