# generated using pymatgen
data_Li3Cr2(PO4)3
_symmetry_space_group_name_H-M   'P 1'
_cell_length_a   9.68750961
_cell_length_b   9.68065139
_cell_length_c   9.68065128
_cell_angle_alpha   86.26946276
_cell_angle_beta   86.46552298
_cell_angle_gamma   86.46552245
_symmetry_Int_Tables_number   1
_chemical_formula_structural   Li3Cr2(PO4)3
_chemical_formula_sum   'Li12 Cr8 P12 O48'
_cell_volume   902.70278564
_cell_formula_units_Z   4
loop_
 _symmetry_equiv_pos_site_id
 _symmetry_equiv_pos_as_xyz
  1  'x, y, z'
loop_
 _atom_site_type_symbol
 _atom_site_label
 _atom_site_symmetry_multiplicity
 _atom_site_fract_x
 _atom_site_fract_y
 _atom_site_fract_z
 _atom_site_occupancy
  Li  Li0  1  0.15468999  0.01778941  0.73219039  1
  Li  Li1  1  0.27643005  0.82365728  0.00296353  1
  Li  Li2  1  0.34531001  0.76780961  0.48221059  1
  Li  Li3  1  0.22356995  0.49703647  0.67634272  1
  Li  Li4  1  0.49718549  0.51436875  0.47473529  1
  Li  Li5  1  0.00281451  0.02526471  0.98563125  1
  Li  Li6  1  0.49977750  0.33740923  0.76635816  1
  Li  Li7  1  0.75759312  0.50851606  0.33472883  1
  Li  Li8  1  0.00022250  0.73364184  0.16259077  1
  Li  Li9  1  0.66129736  0.24047826  0.49305610  1
  Li  Li10  1  0.74240688  0.16527117  0.99148394  1
  Li  Li11  1  0.83870264  0.00694390  0.25952174  1
  Cr  Cr12  1  0.53334049  0.96782488  0.75086987  1
  Cr  Cr13  1  0.03181827  0.25226853  0.47138234  1
  Cr  Cr14  1  0.25000000  0.46641098  0.03358902  1
  Cr  Cr15  1  0.25000000  0.24880375  0.25119625  1
  Cr  Cr16  1  0.75000000  0.74945413  0.75054587  1
  Cr  Cr17  1  0.96665951  0.74913013  0.53217512  1
  Cr  Cr18  1  0.75000000  0.53230274  0.96769726  1
  Cr  Cr19  1  0.46818173  0.02861766  0.24773147  1
  P  P20  1  0.15124132  0.94793583  0.32857665  1
  P  P21  1  0.05341400  0.67407496  0.84819552  1
  P  P22  1  0.17045244  0.55158710  0.34878751  1
  P  P23  1  0.44658600  0.65180448  0.82592504  1
  P  P24  1  0.65265002  0.82286798  0.44871217  1
  P  P25  1  0.67556619  0.84822956  0.05202408  1
  P  P26  1  0.32954756  0.15121249  0.94841290  1
  P  P27  1  0.34875868  0.17142335  0.55206417  1
  P  P28  1  0.55217101  0.34316612  0.17712364  1
  P  P29  1  0.82443381  0.44797592  0.65177044  1
  P  P30  1  0.94782899  0.32287636  0.15683388  1
  P  P31  1  0.84734998  0.05128783  0.67713202  1
  O  O32  1  0.07053852  0.90443382  0.21003620  1
  O  O33  1  0.10587187  0.88332841  0.47313242  1
  O  O34  1  0.09544121  0.79197479  0.93113398  1
  O  O35  1  0.09075115  0.68885172  0.68940634  1
  O  O36  1  0.30956845  0.90940763  0.31477362  1
  O  O37  1  0.02472275  0.61733060  0.38959638  1
  O  O38  1  0.12081089  0.53048470  0.89233281  1
  O  O39  1  0.40924885  0.81059366  0.81114828  1
  O  O40  1  0.18565895  0.58921775  0.18997818  1
  O  O41  1  0.60474881  0.96637493  0.38226762  1
  O  O42  1  0.53017706  0.89602104  0.11066755  1
  O  O43  1  0.28388086  0.59323244  0.43702701  1
  O  O44  1  0.37918911  0.60766719  0.96951530  1
  O  O45  1  0.11115298  0.32809782  0.12213561  1
  O  O46  1  0.16807757  0.38735539  0.37909015  1
  O  O47  1  0.67039885  0.87913002  0.88678915  1
  O  O48  1  0.62213848  0.83288754  0.61280732  1
  O  O49  1  0.40455879  0.56886602  0.70802521  1
  O  O50  1  0.57495801  0.70055301  0.41159660  1
  O  O51  1  0.79203560  0.93444957  0.09236200  1
  O  O52  1  0.60969538  0.62275487  0.83353154  1
  O  O53  1  0.87786152  0.88719268  0.66711246  1
  O  O54  1  0.31434105  0.31002182  0.91078225  1
  O  O55  1  0.19043155  0.18522638  0.59059237  1
  O  O56  1  0.81146465  0.81381868  0.40874350  1
  O  O57  1  0.70241001  0.69194428  0.08923740  1
  O  O58  1  0.11988352  0.11168038  0.33284157  1
  O  O59  1  0.38884702  0.37786439  0.17190218  1
  O  O60  1  0.21611914  0.06297299  0.90676756  1
  O  O61  1  0.42946148  0.28996380  0.59556618  1
  O  O62  1  0.59849851  0.40681785  0.30498697  1
  O  O63  1  0.33192243  0.12090985  0.11264461  1
  O  O64  1  0.38011648  0.16715843  0.38831962  1
  O  O65  1  0.82960115  0.61321085  0.62086998  1
  O  O66  1  0.89030462  0.66646846  0.87724513  1
  O  O67  1  0.61641535  0.39592453  0.03497969  1
  O  O68  1  0.70796440  0.40763800  0.56555043  1
  O  O69  1  0.39412813  0.02686758  0.61667159  1
  O  O70  1  0.47527725  0.11040362  0.88266940  1
  O  O71  1  0.79758999  0.41076260  0.80805572  1
  O  O72  1  0.58915643  0.18378662  0.18110422  1
  O  O73  1  0.88358465  0.46502031  0.10407547  1
  O  O74  1  0.96982294  0.38933245  0.60397896  1
  O  O75  1  0.68853535  0.09125650  0.68618132  1
  O  O76  1  0.91084357  0.31889578  0.31621338  1
  O  O77  1  0.90150149  0.19501303  0.09318215  1
  O  O78  1  0.89525119  0.11773238  0.53362507  1
  O  O79  1  0.92504199  0.08840340  0.79944699  1
