# generated using pymatgen
data_LiMn3CrO8
_symmetry_space_group_name_H-M   'P 1'
_cell_length_a   6.12208211
_cell_length_b   5.84104305
_cell_length_c   6.10816020
_cell_angle_alpha   118.53733974
_cell_angle_beta   122.79198966
_cell_angle_gamma   90.02302768
_symmetry_Int_Tables_number   1
_chemical_formula_structural   LiMn3CrO8
_chemical_formula_sum   'Li1 Mn3 Cr1 O8'
_cell_volume   151.05141299
_cell_formula_units_Z   1
loop_
 _symmetry_equiv_pos_site_id
 _symmetry_equiv_pos_as_xyz
  1  'x, y, z'
loop_
 _atom_site_type_symbol
 _atom_site_label
 _atom_site_symmetry_multiplicity
 _atom_site_fract_x
 _atom_site_fract_y
 _atom_site_fract_z
 _atom_site_occupancy
  Li  Li0  1  0.50001138  0.99999248  0.00000986  1
  Mn  Mn1  1  -0.00000363  0.50000310  0.00000332  1
  Mn  Mn2  1  0.50000155  0.00000331  0.50000404  1
  Mn  Mn3  1  0.49999853  0.50000525  0.50000457  1
  Cr  Cr4  1  0.00000324  0.99998894  0.99998560  1
  O  O5  1  0.76252363  0.23231121  0.95737169  1
  O  O6  1  0.76257482  0.72494839  0.95743687  1
  O  O7  1  0.72774661  0.26454932  0.52895159  1
  O  O8  1  0.72043795  0.76558526  0.53098561  1
  O  O9  1  0.27955619  0.23441638  0.46901069  1
  O  O10  1  0.27224686  0.73545286  0.47104459  1
  O  O11  1  0.23742441  0.27505697  0.04256188  1
  O  O12  1  0.23747944  0.76768754  0.04262968  1
