# generated using pymatgen
data_LiMn(PO3)3
_symmetry_space_group_name_H-M   'P 1'
_cell_length_a   7.40549116
_cell_length_b   12.10407152
_cell_length_c   9.19779311
_cell_angle_alpha   90.00000000
_cell_angle_beta   90.00000000
_cell_angle_gamma   90.00000000
_symmetry_Int_Tables_number   1
_chemical_formula_structural   LiMn(PO3)3
_chemical_formula_sum   'Li4 Mn4 P12 O36'
_cell_volume   824.45885260
_cell_formula_units_Z   4
loop_
 _symmetry_equiv_pos_site_id
 _symmetry_equiv_pos_as_xyz
  1  'x, y, z'
loop_
 _atom_site_type_symbol
 _atom_site_label
 _atom_site_symmetry_multiplicity
 _atom_site_fract_x
 _atom_site_fract_y
 _atom_site_fract_z
 _atom_site_occupancy
  Li  Li0  1  0.25000000  0.03124178  0.02665026  1
  Li  Li1  1  0.25000000  0.46875822  0.52665026  1
  Li  Li2  1  0.75000000  0.53124178  0.47334974  1
  Li  Li3  1  0.75000000  0.96875822  0.97334974  1
  Mn  Mn4  1  0.25000000  0.71434690  0.47696796  1
  Mn  Mn5  1  0.25000000  0.78565310  0.97696796  1
  Mn  Mn6  1  0.75000000  0.21434690  0.02303204  1
  Mn  Mn7  1  0.75000000  0.28565310  0.52303204  1
  P  P8  1  0.04742213  0.34898047  0.25158237  1
  P  P9  1  0.04742213  0.15101953  0.75158237  1
  P  P10  1  0.25000000  0.95964599  0.69279781  1
  P  P11  1  0.25000000  0.54035401  0.19279781  1
  P  P12  1  0.45257787  0.15101953  0.75158237  1
  P  P13  1  0.45257787  0.34898047  0.25158237  1
  P  P14  1  0.54742213  0.65101953  0.74841763  1
  P  P15  1  0.54742213  0.84898047  0.24841763  1
  P  P16  1  0.75000000  0.04035401  0.30720219  1
  P  P17  1  0.75000000  0.45964599  0.80720219  1
  P  P18  1  0.95257787  0.65101953  0.74841763  1
  P  P19  1  0.95257787  0.84898047  0.24841763  1
  O  O20  1  0.01790402  0.75868555  0.34570747  1
  O  O21  1  0.01790402  0.74131445  0.84570747  1
  O  O22  1  0.05852151  0.88284924  0.11552338  1
  O  O23  1  0.05852151  0.61715076  0.61552338  1
  O  O24  1  0.08256805  0.04096615  0.65385220  1
  O  O25  1  0.08256805  0.45903385  0.15385220  1
  O  O26  1  0.25000000  0.31891011  0.31083028  1
  O  O27  1  0.25000000  0.63627429  0.09303966  1
  O  O28  1  0.25000000  0.86372571  0.59303966  1
  O  O29  1  0.25000000  0.94177292  0.85550624  1
  O  O30  1  0.25000000  0.18108989  0.81083028  1
  O  O31  1  0.25000000  0.55822708  0.35550624  1
  O  O32  1  0.41743195  0.04096615  0.65385220  1
  O  O33  1  0.41743195  0.45903385  0.15385220  1
  O  O34  1  0.44147849  0.88284924  0.11552338  1
  O  O35  1  0.44147849  0.61715076  0.61552338  1
  O  O36  1  0.48209598  0.75868555  0.34570747  1
  O  O37  1  0.48209598  0.74131445  0.84570747  1
  O  O38  1  0.51790402  0.25868555  0.15429253  1
  O  O39  1  0.51790402  0.24131445  0.65429253  1
  O  O40  1  0.55852151  0.11715076  0.88447662  1
  O  O41  1  0.55852151  0.38284924  0.38447662  1
  O  O42  1  0.58256805  0.54096615  0.84614780  1
  O  O43  1  0.58256805  0.95903385  0.34614780  1
  O  O44  1  0.75000000  0.05822708  0.14449376  1
  O  O45  1  0.75000000  0.13627429  0.40696034  1
  O  O46  1  0.75000000  0.44177292  0.64449376  1
  O  O47  1  0.75000000  0.36372571  0.90696034  1
  O  O48  1  0.75000000  0.68108989  0.68916972  1
  O  O49  1  0.75000000  0.81891011  0.18916972  1
  O  O50  1  0.91743195  0.54096615  0.84614780  1
  O  O51  1  0.91743195  0.95903385  0.34614780  1
  O  O52  1  0.94147849  0.38284924  0.38447662  1
  O  O53  1  0.94147849  0.11715076  0.88447662  1
  O  O54  1  0.98209598  0.24131445  0.65429253  1
  O  O55  1  0.98209598  0.25868555  0.15429253  1
