# generated using pymatgen
data_Li2CrP2O7
_symmetry_space_group_name_H-M   'P 1'
_cell_length_a   12.87254023
_cell_length_b   5.09421283
_cell_length_c   8.56785798
_cell_angle_alpha   90.00000000
_cell_angle_beta   97.84327555
_cell_angle_gamma   90.00000000
_symmetry_Int_Tables_number   1
_chemical_formula_structural   Li2CrP2O7
_chemical_formula_sum   'Li8 Cr4 P8 O28'
_cell_volume   556.58522949
_cell_formula_units_Z   4
loop_
 _symmetry_equiv_pos_site_id
 _symmetry_equiv_pos_as_xyz
  1  'x, y, z'
loop_
 _atom_site_type_symbol
 _atom_site_label
 _atom_site_symmetry_multiplicity
 _atom_site_fract_x
 _atom_site_fract_y
 _atom_site_fract_z
 _atom_site_occupancy
  Li  Li0  1  0.07891276  0.27566869  0.57845974  1
  Li  Li1  1  0.18530131  0.74339676  0.12151325  1
  Li  Li2  1  0.42108724  0.77566869  0.92154026  1
  Li  Li3  1  0.31469869  0.24339676  0.37848675  1
  Li  Li4  1  0.68530131  0.75660324  0.62151325  1
  Li  Li5  1  0.57891276  0.22433131  0.07845974  1
  Li  Li6  1  0.81469869  0.25660324  0.87848675  1
  Li  Li7  1  0.92108724  0.72433131  0.42154026  1
  Cr  Cr8  1  0.01989596  0.23917290  0.24140762  1
  Cr  Cr9  1  0.51989596  0.26082710  0.74140762  1
  Cr  Cr10  1  0.48010404  0.73917290  0.25859238  1
  Cr  Cr11  1  0.98010404  0.76082710  0.75859238  1
  P  P12  1  0.12432221  0.25114067  0.92852373  1
  P  P13  1  0.15017986  0.76096843  0.47284028  1
  P  P14  1  0.37567779  0.75114067  0.57147627  1
  P  P15  1  0.34982014  0.26096843  0.02715972  1
  P  P16  1  0.65017986  0.73903157  0.97284028  1
  P  P17  1  0.62432221  0.24885933  0.42852373  1
  P  P18  1  0.84982014  0.23903157  0.52715972  1
  P  P19  1  0.87567779  0.74885933  0.07147627  1
  O  O20  1  0.06335473  0.12964065  0.78064091  1
  O  O21  1  0.10734187  0.54590438  0.93925296  1
  O  O22  1  0.06158834  0.68288847  0.56852242  1
  O  O23  1  0.14656018  0.58464519  0.32663571  1
  O  O24  1  0.24616715  0.19158708  0.90447046  1
  O  O25  1  0.15282048  0.05516620  0.43738000  1
  O  O26  1  0.11203227  0.10460754  0.08210522  1
  O  O27  1  0.25383285  0.69158708  0.59552954  1
  O  O28  1  0.43841166  0.18288847  0.93147758  1
  O  O29  1  0.39265813  0.04590438  0.56074704  1
  O  O30  1  0.38796773  0.60460754  0.41789478  1
  O  O31  1  0.43664527  0.62964065  0.71935909  1
  O  O32  1  0.34717952  0.55516620  0.06262000  1
  O  O33  1  0.35343982  0.08464519  0.17336429  1
  O  O34  1  0.64656018  0.91535481  0.82663571  1
  O  O35  1  0.65282048  0.44483380  0.93738000  1
  O  O36  1  0.56335473  0.37035935  0.28064091  1
  O  O37  1  0.61203227  0.39539246  0.58210522  1
  O  O38  1  0.60734187  0.95409562  0.43925296  1
  O  O39  1  0.56158834  0.81711153  0.06852242  1
  O  O40  1  0.74616715  0.30841292  0.40447046  1
  O  O41  1  0.88796773  0.89539246  0.91789478  1
  O  O42  1  0.84717952  0.94483380  0.56262000  1
  O  O43  1  0.75383285  0.80841292  0.09552954  1
  O  O44  1  0.85343982  0.41535481  0.67336429  1
  O  O45  1  0.93841166  0.31711153  0.43147758  1
  O  O46  1  0.89265813  0.45409562  0.06074704  1
  O  O47  1  0.93664527  0.87035935  0.21935909  1
