# generated using pymatgen
data_LiV2P4(HO8)2
_symmetry_space_group_name_H-M   'P 1'
_cell_length_a   9.28556035
_cell_length_b   9.23554505
_cell_length_c   7.34455044
_cell_angle_alpha   97.37639845
_cell_angle_beta   97.59068876
_cell_angle_gamma   116.39173078
_symmetry_Int_Tables_number   1
_chemical_formula_structural   LiV2P4(HO8)2
_chemical_formula_sum   'Li2 V4 P8 H4 O32'
_cell_volume   546.70132541
_cell_formula_units_Z   2
loop_
 _symmetry_equiv_pos_site_id
 _symmetry_equiv_pos_as_xyz
  1  'x, y, z'
loop_
 _atom_site_type_symbol
 _atom_site_label
 _atom_site_symmetry_multiplicity
 _atom_site_fract_x
 _atom_site_fract_y
 _atom_site_fract_z
 _atom_site_occupancy
  Li  Li0  1  0.63697216  0.26863231  0.35086840  1
  Li  Li1  1  0.36652514  0.73692309  0.64903500  1
  V  V2  1  0.00035436  0.50091818  0.00380745  1
  V  V3  1  0.49932955  0.50014273  0.49764945  1
  V  V4  1  0.00035535  0.99978592  0.49635024  1
  V  V5  1  0.50015256  0.99947937  0.00211565  1
  P  P6  1  0.25920694  0.11403115  0.22907143  1
  P  P7  1  0.23576738  0.38847802  0.76847239  1
  P  P8  1  0.61418021  0.26570694  0.74129964  1
  P  P9  1  0.10641696  0.76182640  0.73451887  1
  P  P10  1  0.38593447  0.73820734  0.26611633  1
  P  P11  1  0.89314346  0.24198905  0.27050350  1
  P  P12  1  0.75879664  0.61167301  0.22534333  1
  P  P13  1  0.73872791  0.88701105  0.76451015  1
  H  H14  1  0.51280736  0.02050207  0.51323957  1
  H  H15  1  0.00850181  0.51573021  0.50786023  1
  H  H16  1  0.48003569  0.48804867  0.98872767  1
  H  H17  1  0.98377845  0.98987956  0.99128767  1
  O  O18  1  0.14827616  0.20911190  0.65052763  1
  O  O19  1  0.10260799  0.43267097  0.82631411  1
  O  O20  1  0.14385119  0.08987723  0.05201414  1
  O  O21  1  0.00406579  0.33765278  0.14002655  1
  O  O22  1  0.50297943  0.16277946  0.86477144  1
  O  O23  1  0.35033919  0.40109580  0.94612282  1
  O  O24  1  0.40366428  0.07985821  0.19210287  1
  O  O25  1  0.34779287  0.29507487  0.34994188  1
  O  O26  1  0.59767668  0.15021392  0.55640196  1
  O  O27  1  0.09701641  0.64802420  0.55426210  1
  O  O28  1  0.83451717  0.99735689  0.63320365  1
  O  O29  1  0.32964160  0.50761571  0.64350987  1
  O  O30  1  0.56787572  0.39474152  0.68486161  1
  O  O31  1  0.06243110  0.89510375  0.67832835  1
  O  O32  1  0.28825084  0.84224792  0.83842829  1
  O  O33  1  0.79403795  0.34657621  0.85243726  1
  O  O34  1  0.20541052  0.65344220  0.14837168  1
  O  O35  1  0.71165853  0.15827848  0.16192254  1
  O  O36  1  0.93772242  0.10646734  0.32180641  1
  O  O37  1  0.43168317  0.60536516  0.31273862  1
  O  O38  1  0.67093849  0.49548469  0.35745242  1
  O  O39  1  0.16578935  0.00510248  0.36654929  1
  O  O40  1  0.40440341  0.85360113  0.44494816  1
  O  O41  1  0.90453894  0.35627564  0.44647692  1
  O  O42  1  0.65140795  0.70575688  0.64804731  1
  O  O43  1  0.59674803  0.92185645  0.80802771  1
  O  O44  1  0.64463039  0.59545818  0.05139281  1
  O  O45  1  0.49405189  0.83666313  0.13458842  1
  O  O46  1  0.99481352  0.66342004  0.86043746  1
  O  O47  1  0.85070222  0.90716195  0.94703054  1
  O  O48  1  0.89589367  0.56728872  0.17316994  1
  O  O49  1  0.85237073  0.79193812  0.34747526  1
