# generated using pymatgen
data_Na2Ca(CO3)2
_symmetry_space_group_name_H-M   'P 1'
_cell_length_a   5.22188915
_cell_length_b   5.22188915
_cell_length_c   11.53807951
_cell_angle_alpha   90.00000000
_cell_angle_beta   90.00000000
_cell_angle_gamma   120.00001248
_symmetry_Int_Tables_number   1
_chemical_formula_structural   Na2Ca(CO3)2
_chemical_formula_sum   'Na4 Ca2 C4 O12'
_cell_volume   272.47044466
_cell_formula_units_Z   2
loop_
 _symmetry_equiv_pos_site_id
 _symmetry_equiv_pos_as_xyz
  1  'x, y, z'
loop_
 _atom_site_type_symbol
 _atom_site_label
 _atom_site_symmetry_multiplicity
 _atom_site_fract_x
 _atom_site_fract_y
 _atom_site_fract_z
 _atom_site_occupancy
  Na  Na0  1  0.66666700  0.33333300  0.69266224  1
  Na  Na1  1  0.33333300  0.66666700  0.19266224  1
  Na  Na2  1  0.66666700  0.33333300  0.36195850  1
  Na  Na3  1  0.33333300  0.66666700  0.86195850  1
  Ca  Ca4  1  0.00000000  0.00000000  0.02099606  1
  Ca  Ca5  1  0.00000000  0.00000000  0.52099606  1
  C  C6  1  0.66666700  0.33333300  0.00285573  1
  C  C7  1  0.33333300  0.66666700  0.50285573  1
  C  C8  1  0.00000000  0.00000000  0.74479765  1
  C  C9  1  0.00000000  0.00000000  0.24479765  1
  O  O10  1  0.52267238  0.04534476  0.00240326  1
  O  O11  1  0.52267238  0.47732762  0.00240326  1
  O  O12  1  0.47732762  0.95465524  0.50240326  1
  O  O13  1  0.95465524  0.47732762  0.00240326  1
  O  O14  1  0.47732762  0.52267238  0.50240326  1
  O  O15  1  0.04534476  0.52267238  0.50240326  1
  O  O16  1  0.14341859  0.28683718  0.73984001  1
  O  O17  1  0.14341859  0.85658141  0.73984001  1
  O  O18  1  0.85658141  0.71316282  0.23984001  1
  O  O19  1  0.71316282  0.85658141  0.73984001  1
  O  O20  1  0.85658141  0.14341859  0.23984001  1
  O  O21  1  0.28683718  0.14341859  0.23984001  1
