# generated using pymatgen
data_LiNiH12(SO7)2
_symmetry_space_group_name_H-M   'P 1'
_cell_length_a   8.70726659
_cell_length_b   11.52373546
_cell_length_c   5.89845426
_cell_angle_alpha   90.00000000
_cell_angle_beta   103.80901037
_cell_angle_gamma   90.00000000
_symmetry_Int_Tables_number   1
_chemical_formula_structural   LiNiH12(SO7)2
_chemical_formula_sum   'Li2 Ni2 H24 S4 O28'
_cell_volume   574.74584534
_cell_formula_units_Z   2
loop_
 _symmetry_equiv_pos_site_id
 _symmetry_equiv_pos_as_xyz
  1  'x, y, z'
loop_
 _atom_site_type_symbol
 _atom_site_label
 _atom_site_symmetry_multiplicity
 _atom_site_fract_x
 _atom_site_fract_y
 _atom_site_fract_z
 _atom_site_occupancy
  Li  Li0  1  0.63515313  0.12416199  0.34671118  1
  Li  Li1  1  0.86484687  0.62416199  0.65328882  1
  Ni  Ni2  1  0.00035717  0.00107560  0.00249495  1
  Ni  Ni3  1  0.49964283  0.50107560  0.99750505  1
  H  H4  1  0.12794098  0.80793755  0.98378105  1
  H  H5  1  0.03314339  0.85490115  0.33025653  1
  H  H6  1  0.11574246  0.05816475  0.68391694  1
  H  H7  1  0.23092075  0.40031420  0.93433081  1
  H  H8  1  0.24246319  0.62691752  0.91060304  1
  H  H9  1  0.21395497  0.09184984  0.32783379  1
  H  H10  1  0.28604503  0.59184984  0.67216621  1
  H  H11  1  0.25753681  0.12691752  0.08939696  1
  H  H12  1  0.26907925  0.90031420  0.06566919  1
  H  H13  1  0.38425754  0.55816475  0.31608306  1
  H  H14  1  0.46685661  0.35490115  0.66974347  1
  H  H15  1  0.37205902  0.30793755  0.01621895  1
  H  H16  1  0.63620213  0.69426835  0.98067904  1
  H  H17  1  0.53431486  0.64659715  0.32501245  1
  H  H18  1  0.61327850  0.44788325  0.68103610  1
  H  H19  1  0.73038332  0.09743261  0.92169657  1
  H  H20  1  0.74641507  0.87142377  0.90980237  1
  H  H21  1  0.71363293  0.41593556  0.32562091  1
  H  H22  1  0.78636707  0.91593556  0.67437909  1
  H  H23  1  0.75358493  0.37142377  0.09019763  1
  H  H24  1  0.76961668  0.59743261  0.07830343  1
  H  H25  1  0.88672150  0.94788325  0.31896390  1
  H  H26  1  0.96568514  0.14659715  0.67498755  1
  H  H27  1  0.86379787  0.19426835  0.01932096  1
  S  S28  1  0.07436781  0.63440747  0.27359440  1
  S  S29  1  0.42563219  0.13440747  0.72640560  1
  S  S30  1  0.59141015  0.86570905  0.27313197  1
  S  S31  1  0.90858985  0.36570905  0.72686803  1
  O  O32  1  0.06365416  0.42067942  0.75295142  1
  O  O33  1  0.99653589  0.94023338  0.29127926  1
  O  O34  1  0.16121480  0.88899497  0.95882647  1
  O  O35  1  0.07365716  0.73867151  0.42394092  1
  O  O36  1  0.07998361  0.66948870  0.02912617  1
  O  O37  1  0.16754022  0.11601838  0.16327561  1
  O  O38  1  0.21567662  0.56308684  0.37873718  1
  O  O39  1  0.28432338  0.06308684  0.62126282  1
  O  O40  1  0.33245978  0.61601838  0.83672439  1
  O  O41  1  0.42001639  0.16948870  0.97087383  1
  O  O42  1  0.42634284  0.23867151  0.57605908  1
  O  O43  1  0.33878520  0.38899497  0.04117353  1
  O  O44  1  0.50346411  0.44023338  0.70872074  1
  O  O45  1  0.43634584  0.92067942  0.24704858  1
  O  O46  1  0.57244322  0.06787262  0.73317732  1
  O  O47  1  0.49447592  0.56386527  0.28784252  1
  O  O48  1  0.66840707  0.61206941  0.95457124  1
  O  O49  1  0.61527497  0.76372236  0.43300791  1
  O  O50  1  0.61749897  0.82843476  0.04302787  1
  O  O51  1  0.66432248  0.38508216  0.16805469  1
  O  O52  1  0.71483435  0.95698039  0.37674054  1
  O  O53  1  0.78516565  0.45698039  0.62325946  1
  O  O54  1  0.83567752  0.88508216  0.83194531  1
  O  O55  1  0.88250103  0.32843476  0.95697213  1
  O  O56  1  0.88472503  0.26372236  0.56699209  1
  O  O57  1  0.83159293  0.11206941  0.04542876  1
  O  O58  1  0.00552408  0.06386527  0.71215748  1
  O  O59  1  0.92755678  0.56787262  0.26682268  1
