# generated using pymatgen
data_LiFe2O2F3
_symmetry_space_group_name_H-M   'P 1'
_cell_length_a   3.87233933
_cell_length_b   5.35896626
_cell_length_c   10.09602684
_cell_angle_alpha   90.50460927
_cell_angle_beta   90.00000000
_cell_angle_gamma   111.17977013
_symmetry_Int_Tables_number   1
_chemical_formula_structural   LiFe2O2F3
_chemical_formula_sum   'Li2 Fe4 O4 F6'
_cell_volume   195.34926033
_cell_formula_units_Z   2
loop_
 _symmetry_equiv_pos_site_id
 _symmetry_equiv_pos_as_xyz
  1  'x, y, z'
loop_
 _atom_site_type_symbol
 _atom_site_label
 _atom_site_symmetry_multiplicity
 _atom_site_fract_x
 _atom_site_fract_y
 _atom_site_fract_z
 _atom_site_occupancy
  Li  Li0  1  0.30884399  0.61768698  0.73720702  1
  Li  Li1  1  0.63552235  0.27104469  0.57366739  1
  Fe  Fe2  1  0.35338818  0.70677635  0.44025462  1
  Fe  Fe3  1  0.37041337  0.74082574  0.08010754  1
  Fe  Fe4  1  0.70003837  0.40007774  0.25370155  1
  Fe  Fe5  1  0.64367695  0.28735291  0.94519754  1
  O  O6  1  0.26057767  0.52115635  0.24457913  1
  O  O7  1  0.55584422  0.11168844  0.11579599  1
  O  O8  1  0.81194953  0.62389806  0.06209657  1
  O  O9  1  0.82177559  0.64355017  0.41127122  1
  F  F10  1  0.44922008  0.89843915  0.88770792  1
  F  F11  1  0.19399058  0.38798116  0.56142431  1
  F  F12  1  0.44785507  0.89571014  0.61114278  1
  F  F13  1  0.17507264  0.35014627  0.92928075  1
  F  F14  1  0.72541748  0.45083496  0.76742392  1
  F  F15  1  0.54641494  0.09283087  0.37914178  1
