# generated using pymatgen
data_Li2FeF4
_symmetry_space_group_name_H-M   'P 1'
_cell_length_a   5.36333576
_cell_length_b   5.36333576
_cell_length_c   5.83904299
_cell_angle_alpha   90.00000000
_cell_angle_beta   90.00000000
_cell_angle_gamma   114.04364954
_symmetry_Int_Tables_number   1
_chemical_formula_structural   Li2FeF4
_chemical_formula_sum   'Li4 Fe2 F8'
_cell_volume   153.38904660
_cell_formula_units_Z   2
loop_
 _symmetry_equiv_pos_site_id
 _symmetry_equiv_pos_as_xyz
  1  'x, y, z'
loop_
 _atom_site_type_symbol
 _atom_site_label
 _atom_site_symmetry_multiplicity
 _atom_site_fract_x
 _atom_site_fract_y
 _atom_site_fract_z
 _atom_site_occupancy
  Li  Li0  1  0.49674883  0.99674883  0.25000000  1
  Li  Li1  1  0.00325117  0.50325117  0.75000000  1
  Li  Li2  1  0.50325117  0.00325117  0.75000000  1
  Li  Li3  1  0.99674883  0.49674883  0.25000000  1
  Fe  Fe4  1  0.50000000  0.50000000  0.50000000  1
  Fe  Fe5  1  -0.00000000  -0.00000000  0.00000000  1
  F  F6  1  0.23574385  0.76425615  -0.00000000  1
  F  F7  1  0.26425615  0.73574385  0.50000000  1
  F  F8  1  0.75513083  0.75513083  0.24401410  1
  F  F9  1  0.25513083  0.25513083  0.25598590  1
  F  F10  1  0.24486917  0.24486917  0.75598590  1
  F  F11  1  0.74486917  0.74486917  0.74401410  1
  F  F12  1  0.73574385  0.26425615  0.50000000  1
  F  F13  1  0.76425615  0.23574385  -0.00000000  1
