# generated using pymatgen
data_LiVF3
_symmetry_space_group_name_H-M   'P 1'
_cell_length_a   19.27674607
_cell_length_b   9.39906597
_cell_length_c   5.72425706
_cell_angle_alpha   90.00000000
_cell_angle_beta   90.00000000
_cell_angle_gamma   90.00000000
_symmetry_Int_Tables_number   1
_chemical_formula_structural   LiVF3
_chemical_formula_sum   'Li16 V16 F48'
_cell_volume   1037.14040239
_cell_formula_units_Z   16
loop_
 _symmetry_equiv_pos_site_id
 _symmetry_equiv_pos_as_xyz
  1  'x, y, z'
loop_
 _atom_site_type_symbol
 _atom_site_label
 _atom_site_symmetry_multiplicity
 _atom_site_fract_x
 _atom_site_fract_y
 _atom_site_fract_z
 _atom_site_occupancy
  Li  Li0  1  0.03803412  0.67051822  0.33652658  1
  Li  Li1  1  0.03803412  0.82948178  0.83652658  1
  Li  Li2  1  0.22347671  0.67084761  0.55411118  1
  Li  Li3  1  0.22347671  0.82915239  0.05411118  1
  Li  Li4  1  0.27652329  0.17084761  0.55411118  1
  Li  Li5  1  0.27652329  0.32915239  0.05411118  1
  Li  Li6  1  0.46196588  0.17051822  0.33652658  1
  Li  Li7  1  0.46196588  0.32948178  0.83652658  1
  Li  Li8  1  0.53803412  0.67051822  0.16347342  1
  Li  Li9  1  0.53803412  0.82948178  0.66347342  1
  Li  Li10  1  0.72347671  0.67084761  0.94588882  1
  Li  Li11  1  0.72347671  0.82915239  0.44588882  1
  Li  Li12  1  0.77652329  0.17084761  0.94588882  1
  Li  Li13  1  0.77652329  0.32915239  0.44588882  1
  Li  Li14  1  0.96196588  0.17051822  0.16347342  1
  Li  Li15  1  0.96196588  0.32948178  0.66347342  1
  V  V16  1  0.12105495  0.97915128  0.33211074  1
  V  V17  1  0.12105495  0.52084872  0.83211074  1
  V  V18  1  0.12042723  0.34269110  0.34053383  1
  V  V19  1  0.12042723  0.15730890  0.84053383  1
  V  V20  1  0.37957277  0.65730890  0.84053383  1
  V  V21  1  0.37957277  0.84269110  0.34053383  1
  V  V22  1  0.37894505  0.02084872  0.83211074  1
  V  V23  1  0.37894505  0.47915128  0.33211074  1
  V  V24  1  0.62105495  0.52084872  0.66788926  1
  V  V25  1  0.62105495  0.97915128  0.16788926  1
  V  V26  1  0.62042723  0.15730890  0.65946617  1
  V  V27  1  0.62042723  0.34269110  0.15946617  1
  V  V28  1  0.87957277  0.65730890  0.65946617  1
  V  V29  1  0.87957277  0.84269110  0.15946617  1
  V  V30  1  0.87894505  0.02084872  0.66788926  1
  V  V31  1  0.87894505  0.47915128  0.16788926  1
  F  F32  1  0.05551709  0.83655273  0.16137921  1
  F  F33  1  0.05551709  0.66344727  0.66137921  1
  F  F34  1  0.06646369  0.16665482  0.17567926  1
  F  F35  1  0.06646369  0.33334518  0.67567926  1
  F  F36  1  0.07215834  0.51158994  0.16554066  1
  F  F37  1  0.07215834  0.98841006  0.66554066  1
  F  F38  1  0.17411357  0.16310561  0.50865481  1
  F  F39  1  0.17411357  0.33689439  0.00865481  1
  F  F40  1  0.17822264  0.49119657  0.52010445  1
  F  F41  1  0.17822264  0.00880343  0.02010445  1
  F  F42  1  0.19331340  0.81740801  0.37106463  1
  F  F43  1  0.19331340  0.68259199  0.87106463  1
  F  F44  1  0.30668660  0.18259199  0.87106463  1
  F  F45  1  0.30668660  0.31740801  0.37106463  1
  F  F46  1  0.32177736  0.99119657  0.52010445  1
  F  F47  1  0.32177736  0.50880343  0.02010445  1
  F  F48  1  0.32588643  0.66310561  0.50865481  1
  F  F49  1  0.32588643  0.83689439  0.00865481  1
  F  F50  1  0.42784166  0.01158994  0.16554066  1
  F  F51  1  0.42784166  0.48841006  0.66554066  1
  F  F52  1  0.43353631  0.66665482  0.17567926  1
  F  F53  1  0.43353631  0.83334518  0.67567926  1
  F  F54  1  0.44448291  0.16344727  0.66137921  1
  F  F55  1  0.44448291  0.33655273  0.16137921  1
  F  F56  1  0.55551709  0.66344727  0.83862079  1
  F  F57  1  0.55551709  0.83655273  0.33862079  1
  F  F58  1  0.56646369  0.16665482  0.32432074  1
  F  F59  1  0.56646369  0.33334518  0.82432074  1
  F  F60  1  0.57215834  0.51158994  0.33445934  1
  F  F61  1  0.57215834  0.98841006  0.83445934  1
  F  F62  1  0.67411357  0.16310561  0.99134519  1
  F  F63  1  0.67411357  0.33689439  0.49134519  1
  F  F64  1  0.67822264  0.49119657  0.97989555  1
  F  F65  1  0.67822264  0.00880343  0.47989555  1
  F  F66  1  0.69331340  0.68259199  0.62893537  1
  F  F67  1  0.69331340  0.81740801  0.12893537  1
  F  F68  1  0.80668660  0.18259199  0.62893537  1
  F  F69  1  0.80668660  0.31740801  0.12893537  1
  F  F70  1  0.82177736  0.99119657  0.97989555  1
  F  F71  1  0.82177736  0.50880343  0.47989555  1
  F  F72  1  0.82588643  0.66310561  0.99134519  1
  F  F73  1  0.82588643  0.83689439  0.49134519  1
  F  F74  1  0.92784166  0.01158994  0.33445934  1
  F  F75  1  0.92784166  0.48841006  0.83445934  1
  F  F76  1  0.93353631  0.66665482  0.32432074  1
  F  F77  1  0.93353631  0.83334518  0.82432074  1
  F  F78  1  0.94448291  0.16344727  0.83862079  1
  F  F79  1  0.94448291  0.33655273  0.33862079  1
