# generated using pymatgen
data_Li2Fe4O3F8
_symmetry_space_group_name_H-M   'P 1'
_cell_length_a   6.67797647
_cell_length_b   6.86098602
_cell_length_c   5.08146629
_cell_angle_alpha   105.74207674
_cell_angle_beta   96.67447962
_cell_angle_gamma   108.63559943
_symmetry_Int_Tables_number   1
_chemical_formula_structural   Li2Fe4O3F8
_chemical_formula_sum   'Li2 Fe4 O3 F8'
_cell_volume   207.01612151
_cell_formula_units_Z   1
loop_
 _symmetry_equiv_pos_site_id
 _symmetry_equiv_pos_as_xyz
  1  'x, y, z'
loop_
 _atom_site_type_symbol
 _atom_site_label
 _atom_site_symmetry_multiplicity
 _atom_site_fract_x
 _atom_site_fract_y
 _atom_site_fract_z
 _atom_site_occupancy
  Li  Li0  1  0.17920209  0.39106415  0.66336451  1
  Li  Li1  1  0.82079791  0.60893585  0.33663549  1
  Fe  Fe2  1  0.24976208  0.97179708  0.90928475  1
  Fe  Fe3  1  0.37782670  0.75907791  0.34459116  1
  Fe  Fe4  1  0.62217330  0.24092209  0.65540884  1
  Fe  Fe5  1  0.75023792  0.02820292  0.09071525  1
  O  O6  1  0.00000000  0.00000000  0.00000000  1
  O  O7  1  0.52815610  0.94980462  0.73567224  1
  O  O8  1  0.47184390  0.05019538  0.26432776  1
  F  F9  1  0.11627419  0.80125496  0.48636410  1
  F  F10  1  0.20379059  0.66173862  0.94621591  1
  F  F11  1  0.28870109  0.47803038  0.37218818  1
  F  F12  1  0.35789463  0.25458467  0.80388588  1
  F  F13  1  0.64210537  0.74541533  0.19611412  1
  F  F14  1  0.71129891  0.52196962  0.62781182  1
  F  F15  1  0.79620941  0.33826138  0.05378409  1
  F  F16  1  0.88372581  0.19874504  0.51363590  1
