# generated using pymatgen
data_Li3MnCr3O8
_symmetry_space_group_name_H-M   'P 1'
_cell_length_a   5.91073574
_cell_length_b   5.95042615
_cell_length_c   5.93094227
_cell_angle_alpha   120.33726222
_cell_angle_beta   60.30795102
_cell_angle_gamma   89.55640072
_symmetry_Int_Tables_number   1
_chemical_formula_structural   Li3MnCr3O8
_chemical_formula_sum   'Li3 Mn1 Cr3 O8'
_cell_volume   146.85039614
_cell_formula_units_Z   1
loop_
 _symmetry_equiv_pos_site_id
 _symmetry_equiv_pos_as_xyz
  1  'x, y, z'
loop_
 _atom_site_type_symbol
 _atom_site_label
 _atom_site_symmetry_multiplicity
 _atom_site_fract_x
 _atom_site_fract_y
 _atom_site_fract_z
 _atom_site_occupancy
  Li  Li0  1  0.49999998  0.50000541  0.00000570  1
  Li  Li1  1  0.00000042  0.50000449  0.00000377  1
  Li  Li2  1  0.49999940  0.00000728  0.50000546  1
  Mn  Mn3  1  0.00000212  -0.00000056  -0.00000134  1
  Cr  Cr4  1  0.50000518  0.50000499  0.49999194  1
  Cr  Cr5  1  0.50000141  0.99998455  -0.00000476  1
  Cr  Cr6  1  -0.00001180  0.49999191  0.49999170  1
  O  O7  1  0.73501785  0.73484114  0.51994058  1
  O  O8  1  0.23746937  0.74372411  0.53066919  1
  O  O9  1  0.74398300  0.23726867  0.02415230  1
  O  O10  1  0.76365152  0.76385253  0.98604650  1
  O  O11  1  0.23635674  0.23614148  0.01394726  1
  O  O12  1  0.25602029  0.76273628  0.97585505  1
  O  O13  1  0.76252186  0.25627886  0.46933680  1
  O  O14  1  0.26498267  0.26515784  0.48006085  1
