# generated using pymatgen
data_LiFe2(BO3)2
_symmetry_space_group_name_H-M   'P 1'
_cell_length_a   5.23695708
_cell_length_b   9.14864479
_cell_length_c   10.12122812
_cell_angle_alpha   91.06155062
_cell_angle_beta   90.84980517
_cell_angle_gamma   89.23229060
_symmetry_Int_Tables_number   1
_chemical_formula_structural   LiFe2(BO3)2
_chemical_formula_sum   'Li4 Fe8 B8 O24'
_cell_volume   484.74044037
_cell_formula_units_Z   4
loop_
 _symmetry_equiv_pos_site_id
 _symmetry_equiv_pos_as_xyz
  1  'x, y, z'
loop_
 _atom_site_type_symbol
 _atom_site_label
 _atom_site_symmetry_multiplicity
 _atom_site_fract_x
 _atom_site_fract_y
 _atom_site_fract_z
 _atom_site_occupancy
  Li  Li0  1  0.84820606  0.82877478  0.65292631  1
  Li  Li1  1  0.67059446  0.67191449  0.40340011  1
  Li  Li2  1  0.67247296  0.68160561  0.92168869  1
  Li  Li3  1  0.17201292  0.17054590  0.40398201  1
  Fe  Fe4  1  0.82868760  0.17098837  0.63095144  1
  Fe  Fe5  1  0.83490035  0.49451565  0.13630608  1
  Fe  Fe6  1  0.68227460  0.00978321  0.88068958  1
  Fe  Fe7  1  0.64929976  0.34054413  0.37540583  1
  Fe  Fe8  1  0.34455239  0.65054958  0.62762983  1
  Fe  Fe9  1  0.33284922  0.99623086  0.12666632  1
  Fe  Fe10  1  0.15642577  0.83925525  0.37784552  1
  Fe  Fe11  1  0.17064279  0.49523631  0.87678456  1
  B  B12  1  0.84585725  0.50099523  0.62524879  1
  B  B13  1  0.83318303  0.16615003  0.13233236  1
  B  B14  1  0.66123916  0.00193844  0.38362152  1
  B  B15  1  0.67008135  0.33944362  0.87419319  1
  B  B16  1  0.32779451  0.99611584  0.62685710  1
  B  B17  1  0.32936872  0.66799685  0.12396020  1
  B  B18  1  0.16564292  0.50262214  0.37527876  1
  B  B19  1  0.17561320  0.82475891  0.87991322  1
  O  O20  1  0.90515978  0.51889516  0.33327799  1
  O  O21  1  0.91410011  0.82900263  0.85889262  1
  O  O22  1  0.79982678  0.21727557  0.82527661  1
  O  O23  1  0.78595013  0.13088848  0.42441667  1
  O  O24  1  0.78236381  0.86905695  0.39088626  1
  O  O25  1  0.81094518  0.46146625  0.92242569  1
  O  O26  1  0.72084105  0.63286251  0.60630915  1
  O  O27  1  0.67724483  0.05460529  0.08562964  1
  O  O28  1  0.73890407  0.37084723  0.58161006  1
  O  O29  1  0.72129114  0.30085066  0.16708731  1
  O  O30  1  0.59026027  0.64883879  0.11703541  1
  O  O31  1  0.59102378  0.00287588  0.66116143  1
  O  O32  1  0.40726279  0.01270087  0.33797635  1
  O  O33  1  0.41212768  0.34578736  0.87774410  1
  O  O34  1  0.31650265  0.69455269  0.85019670  1
  O  O35  1  0.29657114  0.62852396  0.41335301  1
  O  O36  1  0.27566285  0.36807794  0.37879127  1
  O  O37  1  0.31240610  0.94265351  0.92914114  1
  O  O38  1  0.17068529  0.55384298  0.08049953  1
  O  O39  1  0.18376512  0.12252997  0.61391634  1
  O  O40  1  0.21599988  0.86223072  0.59946894  1
  O  O41  1  0.22306293  0.79823245  0.16753069  1
  O  O42  1  0.08969299  0.14631520  0.14540494  1
  O  O43  1  0.08662060  0.49953476  0.68437873  1
