# generated using pymatgen
data_Li2Mn(Si2O5)2
_symmetry_space_group_name_H-M   'P 1'
_cell_length_a   9.76755276
_cell_length_b   7.64273459
_cell_length_c   6.97530207
_cell_angle_alpha   62.81107935
_cell_angle_beta   77.98107911
_cell_angle_gamma   100.17009645
_symmetry_Int_Tables_number   1
_chemical_formula_structural   Li2Mn(Si2O5)2
_chemical_formula_sum   'Li4 Mn2 Si8 O20'
_cell_volume   430.36111051
_cell_formula_units_Z   2
loop_
 _symmetry_equiv_pos_site_id
 _symmetry_equiv_pos_as_xyz
  1  'x, y, z'
loop_
 _atom_site_type_symbol
 _atom_site_label
 _atom_site_symmetry_multiplicity
 _atom_site_fract_x
 _atom_site_fract_y
 _atom_site_fract_z
 _atom_site_occupancy
  Li  Li0  1  0.05541784  0.24876454  0.61208805  1
  Li  Li1  1  0.57652532  0.68648138  0.78077984  1
  Li  Li2  1  0.42347468  0.31351862  0.21922016  1
  Li  Li3  1  0.94458216  0.75123546  0.38791195  1
  Mn  Mn4  1  0.42292540  0.30749009  0.75543766  1
  Mn  Mn5  1  0.57707460  0.69250991  0.24456234  1
  Si  Si6  1  0.18562401  0.94877233  0.75220781  1
  Si  Si7  1  0.25541402  0.64210819  0.60937805  1
  Si  Si8  1  0.23824067  0.61433768  0.19069336  1
  Si  Si9  1  0.14193950  0.27718746  0.10684391  1
  Si  Si10  1  0.85806050  0.72281254  0.89315609  1
  Si  Si11  1  0.76175933  0.38566232  0.80930664  1
  Si  Si12  1  0.74458598  0.35789181  0.39062195  1
  Si  Si13  1  0.81437599  0.05122767  0.24779219  1
  O  O14  1  0.00824446  0.92418410  0.77519149  1
  O  O15  1  0.13834991  0.44953444  0.85663129  1
  O  O16  1  0.25275391  0.86401159  0.58761808  1
  O  O17  1  0.18014133  0.62235944  0.42567524  1
  O  O18  1  0.19467374  0.80373455  0.00619433  1
  O  O19  1  0.12223486  0.38631910  0.26676275  1
  O  O20  1  0.42096670  0.62676926  0.56769371  1
  O  O21  1  0.25909650  0.19153139  0.64525832  1
  O  O22  1  0.71032264  0.78448808  0.91197503  1
  O  O23  1  0.59384756  0.38179282  0.88668990  1
  O  O24  1  0.40615244  0.61820718  0.11331010  1
  O  O25  1  0.28967736  0.21551192  0.08802497  1
  O  O26  1  0.74090350  0.80846861  0.35474168  1
  O  O27  1  0.57903330  0.37323074  0.43230629  1
  O  O28  1  0.87776514  0.61368090  0.73323725  1
  O  O29  1  0.80532626  0.19626545  0.99380567  1
  O  O30  1  0.81985867  0.37764056  0.57432476  1
  O  O31  1  0.74724609  0.13598841  0.41238192  1
  O  O32  1  0.86165009  0.55046556  0.14336871  1
  O  O33  1  0.99175554  0.07581590  0.22480851  1
