# generated using pymatgen
data_Mn3O5F
_symmetry_space_group_name_H-M   'P 1'
_cell_length_a   10.17746145
_cell_length_b   6.42920724
_cell_length_c   3.01623518
_cell_angle_alpha   90.00000000
_cell_angle_beta   90.00000000
_cell_angle_gamma   108.45480268
_symmetry_Int_Tables_number   1
_chemical_formula_structural   Mn3O5F
_chemical_formula_sum   'Mn6 O10 F2'
_cell_volume   187.21177234
_cell_formula_units_Z   2
loop_
 _symmetry_equiv_pos_site_id
 _symmetry_equiv_pos_as_xyz
  1  'x, y, z'
loop_
 _atom_site_type_symbol
 _atom_site_label
 _atom_site_symmetry_multiplicity
 _atom_site_fract_x
 _atom_site_fract_y
 _atom_site_fract_z
 _atom_site_occupancy
  Mn  Mn0  1  0.01432509  0.00731216  0.00000000  1
  Mn  Mn1  1  0.33954713  0.15273828  0.50000000  1
  Mn  Mn2  1  0.99946760  0.50048343  0.50000000  1
  Mn  Mn3  1  0.66796711  0.33279380  0.00000000  1
  Mn  Mn4  1  0.32841459  0.67632756  0.00000000  1
  Mn  Mn5  1  0.65222048  0.82592469  0.50000000  1
  O  O6  1  0.13671765  0.06990358  0.50000000  1
  O  O7  1  0.99889719  0.30441826  0.00000000  1
  O  O8  1  0.99854449  0.69536340  0.00000000  1
  O  O9  1  0.66607269  0.02521906  0.00000000  1
  O  O10  1  0.53895181  0.27416642  0.50000000  1
  O  O11  1  0.20180679  0.59930812  0.50000000  1
  O  O12  1  0.45704581  0.72593495  0.50000000  1
  O  O13  1  0.79539118  0.39768370  0.50000000  1
  O  O14  1  0.66677901  0.64134582  0.00000000  1
  O  O15  1  0.33511000  0.97059317  0.00000000  1
  F  F16  1  0.33384923  0.36574692  0.00000000  1
  F  F17  1  0.86889213  0.93473766  0.50000000  1
