# generated using pymatgen
data_Si6BiO14
_symmetry_space_group_name_H-M   'P 1'
_cell_length_a   13.16482813
_cell_length_b   13.16482907
_cell_length_c   7.59055947
_cell_angle_alpha   73.24442826
_cell_angle_beta   106.75555808
_cell_angle_gamma   82.02046069
_symmetry_Int_Tables_number   1
_chemical_formula_structural   Si6BiO14
_chemical_formula_sum   'Si24 Bi4 O56'
_cell_volume   1170.33792461
_cell_formula_units_Z   4
loop_
 _symmetry_equiv_pos_site_id
 _symmetry_equiv_pos_as_xyz
  1  'x, y, z'
loop_
 _atom_site_type_symbol
 _atom_site_label
 _atom_site_symmetry_multiplicity
 _atom_site_fract_x
 _atom_site_fract_y
 _atom_site_fract_z
 _atom_site_occupancy
  Si  Si0  1  0.02838474  0.26862995  0.52326508  1
  Si  Si1  1  0.07214092  0.22077178  0.17962819  1
  Si  Si2  1  0.12933151  0.87066848  0.95508705  1
  Si  Si3  1  0.22077156  0.07214107  0.82037154  1
  Si  Si4  1  0.26862983  0.02838488  0.47673446  1
  Si  Si5  1  0.17066202  0.82933795  0.40935586  1
  Si  Si6  1  0.27922822  0.42785908  0.67174195  1
  Si  Si7  1  0.23137005  0.47161526  0.23648871  1
  Si  Si8  1  0.37066848  0.62933151  0.69642403  1
  Si  Si9  1  0.47161512  0.23137017  0.76351149  1
  Si  Si10  1  0.42785893  0.27922844  0.32825795  1
  Si  Si11  1  0.32933795  0.67066202  0.06803179  1
  Si  Si12  1  0.67066205  0.32933798  0.93196821  1
  Si  Si13  1  0.57214107  0.72077156  0.67174205  1
  Si  Si14  1  0.52838488  0.76862983  0.23648851  1
  Si  Si15  1  0.62933152  0.37066849  0.30357597  1
  Si  Si16  1  0.76862995  0.52838474  0.76351129  1
  Si  Si17  1  0.72077178  0.57214092  0.32825805  1
  Si  Si18  1  0.82933798  0.17066205  0.59064414  1
  Si  Si19  1  0.73137017  0.97161512  0.52326554  1
  Si  Si20  1  0.77922844  0.92785893  0.17962846  1
  Si  Si21  1  0.87066849  0.12933152  0.04491295  1
  Si  Si22  1  0.92785908  0.77922822  0.82037181  1
  Si  Si23  1  0.97161526  0.73137005  0.47673492  1
  Bi  Bi24  1  0.03854824  0.46145176  0.78854824  1
  Bi  Bi25  1  0.46145165  0.03854835  0.21145165  1
  Bi  Bi26  1  0.53854835  0.96145165  0.78854835  1
  Bi  Bi27  1  0.96145176  0.53854824  0.21145176  1
  O  O28  1  0.06213773  0.29517544  0.96185258  1
  O  O29  1  0.01015485  0.86041495  0.83516664  1
  O  O30  1  0.00134228  0.60653021  0.46915817  1
  O  O31  1  0.03955176  0.29584647  0.30465391  1
  O  O32  1  0.14346312  0.19511254  0.69175913  1
  O  O33  1  0.06864401  0.79577588  0.47294157  1
  O  O34  1  0.20482456  0.43786227  0.80510971  1
  O  O35  1  0.13958569  0.98984541  0.83516686  1
  O  O36  1  0.19511313  0.14346247  0.30824154  1
  O  O37  1  0.22481675  0.77518315  0.96243673  1
  O  O38  1  0.10653021  0.50134228  0.07434610  1
  O  O39  1  0.29584666  0.03955161  0.69534635  1
  O  O40  1  0.20415353  0.46044824  0.43905138  1
  O  O41  1  0.13617846  0.86382168  0.17459139  1
  O  O42  1  0.20422413  0.93135589  0.47294163  1
  O  O43  1  0.35653753  0.30488687  0.74340913  1
  O  O44  1  0.27518315  0.72481675  0.51280214  1
  O  O45  1  0.36382168  0.63617846  0.90223560  1
  O  O46  1  0.29517535  0.06213798  0.03814737  1
  O  O47  1  0.30488746  0.35653688  0.25659145  1
  O  O48  1  0.36041495  0.51015485  0.68542673  1
  O  O49  1  0.29577588  0.56864401  0.20007245  1
  O  O50  1  0.50134250  0.10652989  0.92565422  1
  O  O51  1  0.46044839  0.20415334  0.56094870  1
  O  O52  1  0.43786202  0.20482465  0.19489000  1
  O  O53  1  0.39347011  0.99865750  0.46915839  1
  O  O54  1  0.48984541  0.63958569  0.68542657  1
  O  O55  1  0.56864411  0.29577587  0.79992761  1
  O  O56  1  0.43135589  0.70422413  0.20007239  1
  O  O57  1  0.51015459  0.36041431  0.31457343  1
  O  O58  1  0.60652989  0.00134250  0.53084161  1
  O  O59  1  0.56213798  0.79517535  0.80511000  1
  O  O60  1  0.53955161  0.79584666  0.43905130  1
  O  O61  1  0.49865750  0.89347011  0.07434578  1
  O  O62  1  0.70422412  0.43135599  0.79992755  1
  O  O63  1  0.63958505  0.48984515  0.31457327  1
  O  O64  1  0.69511254  0.64346312  0.74340855  1
  O  O65  1  0.70482465  0.93786202  0.96185263  1
  O  O66  1  0.63617832  0.36382154  0.09776440  1
  O  O67  1  0.72481685  0.27518325  0.48719786  1
  O  O68  1  0.64346247  0.69511313  0.25659087  1
  O  O69  1  0.79577587  0.06864411  0.52705837  1
  O  O70  1  0.86382154  0.13617832  0.82540861  1
  O  O71  1  0.79584647  0.53955176  0.56094862  1
  O  O72  1  0.70415334  0.96044839  0.30465365  1
  O  O73  1  0.89346979  0.49865772  0.92565390  1
  O  O74  1  0.77518325  0.22481685  0.03756327  1
  O  O75  1  0.80488687  0.85653753  0.69175846  1
  O  O76  1  0.86041431  0.01015459  0.16483314  1
  O  O77  1  0.79517544  0.56213773  0.19489029  1
  O  O78  1  0.93135599  0.20422412  0.52705843  1
  O  O79  1  0.85653688  0.80488746  0.30824087  1
  O  O80  1  0.96044824  0.70415353  0.69534609  1
  O  O81  1  0.99865772  0.39346979  0.53084183  1
  O  O82  1  0.98984515  0.13958505  0.16483336  1
  O  O83  1  0.93786227  0.70482456  0.03814742  1
