# generated using pymatgen
data_Li3V2Cr2O8
_symmetry_space_group_name_H-M   'P 1'
_cell_length_a   5.98504297
_cell_length_b   5.87248895
_cell_length_c   5.98879984
_cell_angle_alpha   60.20803316
_cell_angle_beta   59.70692743
_cell_angle_gamma   89.59294946
_symmetry_Int_Tables_number   1
_chemical_formula_structural   Li3V2Cr2O8
_chemical_formula_sum   'Li3 V2 Cr2 O8'
_cell_volume   149.16606582
_cell_formula_units_Z   1
loop_
 _symmetry_equiv_pos_site_id
 _symmetry_equiv_pos_as_xyz
  1  'x, y, z'
loop_
 _atom_site_type_symbol
 _atom_site_label
 _atom_site_symmetry_multiplicity
 _atom_site_fract_x
 _atom_site_fract_y
 _atom_site_fract_z
 _atom_site_occupancy
  Li  Li0  1  0.00000000  0.50000000  0.00000000  1
  Li  Li1  1  0.50000000  0.00000000  0.50000000  1
  Li  Li2  1  0.50000000  0.50000000  0.00000000  1
  V  V3  1  0.00000000  0.50000000  0.50000000  1
  V  V4  1  0.50000000  0.00000000  0.00000000  1
  Cr  Cr5  1  0.00000000  0.00000000  0.50000000  1
  Cr  Cr6  1  0.00000000  0.00000000  0.00000000  1
  O  O7  1  0.76376675  0.78515429  0.96968073  1
  O  O8  1  0.22979349  0.74716135  0.48555804  1
  O  O9  1  0.21795204  0.23963517  0.51948562  1
  O  O10  1  0.76744491  0.25432103  0.97677239  1
  O  O11  1  0.23255509  0.74567897  0.02322761  1
  O  O12  1  0.78204796  0.76036483  0.48051438  1
  O  O13  1  0.77020651  0.25283865  0.51444196  1
  O  O14  1  0.23623325  0.21484571  0.03031927  1
