# generated using pymatgen
data_Li2MnSiO4
_symmetry_space_group_name_H-M   'P 1'
_cell_length_a   10.61562657
_cell_length_b   5.45265700
_cell_length_c   13.18726975
_cell_angle_alpha   90.00000000
_cell_angle_beta   90.00000000
_cell_angle_gamma   90.00000000
_symmetry_Int_Tables_number   1
_chemical_formula_structural   Li2MnSiO4
_chemical_formula_sum   'Li16 Mn8 Si8 O32'
_cell_volume   763.32362117
_cell_formula_units_Z   8
loop_
 _symmetry_equiv_pos_site_id
 _symmetry_equiv_pos_as_xyz
  1  'x, y, z'
loop_
 _atom_site_type_symbol
 _atom_site_label
 _atom_site_symmetry_multiplicity
 _atom_site_fract_x
 _atom_site_fract_y
 _atom_site_fract_z
 _atom_site_occupancy
  Li  Li0  1  0.97197630  0.96904210  0.56080237  1
  Li  Li1  1  0.95284778  0.46128489  0.94272486  1
  Li  Li2  1  0.21261907  0.36782337  0.30051166  1
  Li  Li3  1  0.20748057  0.85103364  0.20227350  1
  Li  Li4  1  0.29251943  0.85103364  0.70227350  1
  Li  Li5  1  0.28738093  0.36782337  0.80051166  1
  Li  Li6  1  0.52802370  0.96904210  0.06080237  1
  Li  Li7  1  0.54715222  0.46128489  0.44272486  1
  Li  Li8  1  0.45284778  0.53871511  0.94272486  1
  Li  Li9  1  0.47197630  0.03095790  0.56080237  1
  Li  Li10  1  0.71261907  0.63217663  0.30051166  1
  Li  Li11  1  0.70748057  0.14896636  0.20227350  1
  Li  Li12  1  0.79251943  0.14896636  0.70227350  1
  Li  Li13  1  0.78738093  0.63217663  0.80051166  1
  Li  Li14  1  0.02802370  0.03095790  0.06080237  1
  Li  Li15  1  0.04715222  0.53871511  0.44272486  1
  Mn  Mn16  1  0.03577672  0.96877368  0.81266605  1
  Mn  Mn17  1  0.20637572  0.51765394  0.05700098  1
  Mn  Mn18  1  0.29362428  0.51765394  0.55700098  1
  Mn  Mn19  1  0.46422328  0.96877368  0.31266605  1
  Mn  Mn20  1  0.53577672  0.03122632  0.81266605  1
  Mn  Mn21  1  0.70637572  0.48234606  0.05700098  1
  Mn  Mn22  1  0.79362428  0.48234606  0.55700098  1
  Mn  Mn23  1  0.96422328  0.03122632  0.31266605  1
  Si  Si24  1  0.03508156  0.47812874  0.69037279  1
  Si  Si25  1  0.21092297  0.02433233  0.43717136  1
  Si  Si26  1  0.28907703  0.02433233  0.93717136  1
  Si  Si27  1  0.46491844  0.47812874  0.19037279  1
  Si  Si28  1  0.53508156  0.52187126  0.69037279  1
  Si  Si29  1  0.71092297  0.97566767  0.43717136  1
  Si  Si30  1  0.78907703  0.97566767  0.93717136  1
  Si  Si31  1  0.96491844  0.52187126  0.19037279  1
  O  O32  1  0.02300991  0.39454255  0.29483946  1
  O  O33  1  0.01092763  0.81328221  0.18809676  1
  O  O34  1  0.07027307  0.89813598  0.43378466  1
  O  O35  1  0.02727171  0.39303469  0.08832049  1
  O  O36  1  0.19006102  0.52479620  0.69213250  1
  O  O37  1  0.22884390  0.01235821  0.82076671  1
  O  O38  1  0.19548787  0.32205808  0.45576476  1
  O  O39  1  0.19824331  0.89478619  0.02350206  1
  O  O40  1  0.30175669  0.89478619  0.52350206  1
  O  O41  1  0.30451213  0.32205808  0.95576476  1
  O  O42  1  0.27115610  0.01235821  0.32076671  1
  O  O43  1  0.30993898  0.52479620  0.19213250  1
  O  O44  1  0.47272829  0.39303469  0.58832049  1
  O  O45  1  0.42972693  0.89813598  0.93378466  1
  O  O46  1  0.48907237  0.81328221  0.68809676  1
  O  O47  1  0.47699009  0.39454255  0.79483946  1
  O  O48  1  0.52300991  0.60545745  0.29483946  1
  O  O49  1  0.51092763  0.18671779  0.18809676  1
  O  O50  1  0.57027307  0.10186402  0.43378466  1
  O  O51  1  0.52727171  0.60696531  0.08832049  1
  O  O52  1  0.69006102  0.47520380  0.69213250  1
  O  O53  1  0.72884390  0.98764179  0.82076671  1
  O  O54  1  0.69548787  0.67794192  0.45576476  1
  O  O55  1  0.69824331  0.10521381  0.02350206  1
  O  O56  1  0.80175669  0.10521381  0.52350206  1
  O  O57  1  0.80451213  0.67794192  0.95576476  1
  O  O58  1  0.77115610  0.98764179  0.32076671  1
  O  O59  1  0.80993898  0.47520380  0.19213250  1
  O  O60  1  0.97272829  0.60696531  0.58832049  1
  O  O61  1  0.92972693  0.10186402  0.93378466  1
  O  O62  1  0.98907237  0.18671779  0.68809676  1
  O  O63  1  0.97699009  0.60545745  0.79483946  1
