# generated using pymatgen
data_NaCa3C2O7F3
_symmetry_space_group_name_H-M   'P 1'
_cell_length_a   6.80841644
_cell_length_b   6.80841644
_cell_length_c   15.36860454
_cell_angle_alpha   90.00000000
_cell_angle_beta   90.00000000
_cell_angle_gamma   119.99999369
_symmetry_Int_Tables_number   1
_chemical_formula_structural   NaCa3C2O7F3
_chemical_formula_sum   'Na3 Ca9 C6 O21 F9'
_cell_volume   616.96044120
_cell_formula_units_Z   3
loop_
 _symmetry_equiv_pos_site_id
 _symmetry_equiv_pos_as_xyz
  1  'x, y, z'
loop_
 _atom_site_type_symbol
 _atom_site_label
 _atom_site_symmetry_multiplicity
 _atom_site_fract_x
 _atom_site_fract_y
 _atom_site_fract_z
 _atom_site_occupancy
  Na  Na0  1  0.59489504  0.66330991  0.49911679  1
  Na  Na1  1  0.06841487  0.40510496  0.16578379  1
  Na  Na2  1  0.33669009  0.93158513  0.83244979  1
  Ca  Ca3  1  0.97320821  0.66764327  0.66082020  1
  Ca  Ca4  1  0.69443506  0.02679179  0.32748720  1
  Ca  Ca5  1  0.33235673  0.30556494  0.99415320  1
  Ca  Ca6  1  0.70350200  0.04063258  0.00773277  1
  Ca  Ca7  1  0.33713058  0.29649800  0.67439977  1
  Ca  Ca8  1  0.95936742  0.66286942  0.34106577  1
  Ca  Ca9  1  0.71889373  0.04926422  0.66251614  1
  Ca  Ca10  1  0.33037049  0.28110627  0.32918314  1
  Ca  Ca11  1  0.95073578  0.66962951  0.99584914  1
  C  C12  1  0.89909230  0.99498756  0.82447799  1
  C  C13  1  0.09589526  0.10090770  0.49114499  1
  C  C14  1  0.00501244  0.90410474  0.15781099  1
  C  C15  1  0.76664257  0.43119005  0.82632979  1
  C  C16  1  0.66454748  0.23335743  0.49299679  1
  C  C17  1  0.56880995  0.33545252  0.15966279  1
  O  O18  1  0.33026060  0.36962865  0.84149790  1
  O  O19  1  0.03936805  0.66973940  0.50816490  1
  O  O20  1  0.63037135  0.96063195  0.17483090  1
  O  O21  1  0.97163526  0.59349721  0.83770398  1
  O  O22  1  0.62186195  0.02836474  0.50437098  1
  O  O23  1  0.40650279  0.37813805  0.17103698  1
  O  O24  1  0.01794994  0.03809619  0.89637227  1
  O  O25  1  0.02014626  0.98205006  0.56303927  1
  O  O26  1  0.96190381  0.97985374  0.22970527  1
  O  O27  1  0.69652249  0.96022786  0.82928343  1
  O  O28  1  0.26370537  0.30347751  0.49595043  1
  O  O29  1  0.03977214  0.73629463  0.16261643  1
  O  O30  1  0.64106482  0.33667902  0.89518350  1
  O  O31  1  0.69561420  0.35893518  0.56185050  1
  O  O32  1  0.66332098  0.30438580  0.22851650  1
  O  O33  1  0.68573528  0.36247287  0.74910566  1
  O  O34  1  0.67673758  0.31426472  0.41577266  1
  O  O35  1  0.63752713  0.32326242  0.08243866  1
  O  O36  1  0.00181569  0.01272595  0.41693906  1
  O  O37  1  0.01091026  0.99818431  0.08360606  1
  O  O38  1  0.98727405  0.98908974  0.75027206  1
  F  F39  1  0.60086381  0.66870337  0.64583418  1
  F  F40  1  0.06783956  0.39913619  0.31250118  1
  F  F41  1  0.33129663  0.93216044  0.97916718  1
  F  F42  1  0.61191312  0.67809614  0.99811327  1
  F  F43  1  0.06618302  0.38808688  0.66478027  1
  F  F44  1  0.32190386  0.93381698  0.33144627  1
  F  F45  1  0.60149996  0.65372764  0.35017308  1
  F  F46  1  0.05222768  0.39850004  0.01684008  1
  F  F47  1  0.34627236  0.94777232  0.68350608  1
