# generated using pymatgen
data_Li4V5(FeO6)2
_symmetry_space_group_name_H-M   'P 1'
_cell_length_a   5.20542427
_cell_length_b   9.00639375
_cell_length_c   9.90617081
_cell_angle_alpha   90.00000072
_cell_angle_beta   100.35321700
_cell_angle_gamma   90.00000625
_symmetry_Int_Tables_number   1
_chemical_formula_structural   Li4V5(FeO6)2
_chemical_formula_sum   'Li8 V10 Fe4 O24'
_cell_volume   456.86062634
_cell_formula_units_Z   2
loop_
 _symmetry_equiv_pos_site_id
 _symmetry_equiv_pos_as_xyz
  1  'x, y, z'
loop_
 _atom_site_type_symbol
 _atom_site_label
 _atom_site_symmetry_multiplicity
 _atom_site_fract_x
 _atom_site_fract_y
 _atom_site_fract_z
 _atom_site_occupancy
  Li  Li0  1  0.23896952  0.08441094  0.99166476  1
  Li  Li1  1  0.76628210  0.08052375  0.50954546  1
  Li  Li2  1  0.49181664  0.41779646  0.75317476  1
  Li  Li3  1  0.75065044  0.41648730  0.50727054  1
  Li  Li4  1  0.26103048  0.58441094  0.50833524  1
  Li  Li5  1  0.73371790  0.58052375  0.99045454  1
  Li  Li6  1  0.00818336  0.91779646  0.74682524  1
  Li  Li7  1  0.74934956  0.91648730  0.99272946  1
  V  V8  1  -0.00352186  0.08121393  0.25229590  1
  V  V9  1  0.50108692  0.07226545  0.74485338  1
  V  V10  1  0.26190598  0.25120862  0.50523887  1
  V  V11  1  0.00452361  0.42663971  0.24772571  1
  V  V12  1  0.73639230  0.25620401  0.99242236  1
  V  V13  1  0.99891308  0.57226545  0.75514662  1
  V  V14  1  0.50352186  0.58121393  0.24770410  1
  V  V15  1  0.23809402  0.75120862  0.99476113  1
  V  V16  1  0.76360770  0.75620401  0.50757764  1
  V  V17  1  0.49547639  0.92663971  0.25227429  1
  Fe  Fe18  1  0.01190278  0.24667825  0.75565880  1
  Fe  Fe19  1  0.49261179  0.25612355  0.24121760  1
  Fe  Fe20  1  0.00738821  0.75612355  0.25878240  1
  Fe  Fe21  1  0.48809722  0.74667825  0.74434120  1
  O  O22  1  0.13757205  0.09743943  0.63434330  1
  O  O23  1  0.36709617  0.09253811  0.36750837  1
  O  O24  1  0.09643506  0.24844467  0.13218381  1
  O  O25  1  0.38767722  0.22951739  0.86969923  1
  O  O26  1  0.86275868  0.09365086  0.87058756  1
  O  O27  1  0.63412214  0.08508235  0.12476725  1
  O  O28  1  0.61419055  0.23774472  0.62155703  1
  O  O29  1  0.12118099  0.40181693  0.62950456  1
  O  O30  1  0.36790527  0.42432680  0.37081887  1
  O  O31  1  0.89839836  0.25408508  0.36896052  1
  O  O32  1  0.36242795  0.59743943  0.86565670  1
  O  O33  1  0.13290383  0.59253811  0.13249163  1
  O  O34  1  0.64965964  0.42516173  0.12972786  1
  O  O35  1  0.86199347  0.40493797  0.86363860  1
  O  O36  1  0.11232278  0.72951739  0.63030077  1
  O  O37  1  0.63724132  0.59365086  0.62941244  1
  O  O38  1  0.86587786  0.58508235  0.37523275  1
  O  O39  1  0.40356494  0.74844467  0.36781619  1
  O  O40  1  0.60160164  0.75408508  0.13103948  1
  O  O41  1  0.13209473  0.92432680  0.12918113  1
  O  O42  1  0.37881901  0.90181693  0.87049544  1
  O  O43  1  0.88580945  0.73774472  0.87844297  1
  O  O44  1  0.63800653  0.90493797  0.63636140  1
  O  O45  1  0.85034036  0.92516173  0.37027214  1
