# generated using pymatgen
data_Mn2O3F
_symmetry_space_group_name_H-M   'P 1'
_cell_length_a   4.59415468
_cell_length_b   4.59415468
_cell_length_c   15.16894908
_cell_angle_alpha   90.00000000
_cell_angle_beta   90.00000000
_cell_angle_gamma   92.86438918
_symmetry_Int_Tables_number   1
_chemical_formula_structural   Mn2O3F
_chemical_formula_sum   'Mn10 O15 F5'
_cell_volume   319.75973614
_cell_formula_units_Z   5
loop_
 _symmetry_equiv_pos_site_id
 _symmetry_equiv_pos_as_xyz
  1  'x, y, z'
loop_
 _atom_site_type_symbol
 _atom_site_label
 _atom_site_symmetry_multiplicity
 _atom_site_fract_x
 _atom_site_fract_y
 _atom_site_fract_z
 _atom_site_occupancy
  Mn  Mn0  1  0.01482367  0.98517633  0.39904383  1
  Mn  Mn1  1  0.99930873  0.00069127  0.19972683  1
  Mn  Mn2  1  0.99930873  0.00069127  0.00027317  1
  Mn  Mn3  1  0.01998543  0.98001457  0.60000000  1
  Mn  Mn4  1  0.01482367  0.98517633  0.80095617  1
  Mn  Mn5  1  0.48750474  0.51249526  0.49979429  1
  Mn  Mn6  1  0.52367314  0.47632686  0.10000000  1
  Mn  Mn7  1  0.48087762  0.51912238  0.29950791  1
  Mn  Mn8  1  0.48087762  0.51912238  0.90049209  1
  Mn  Mn9  1  0.48750474  0.51249526  0.70020571  1
  O  O10  1  0.19146931  0.80853069  0.90075157  1
  O  O11  1  0.19146931  0.80853069  0.29924843  1
  O  O12  1  0.19685590  0.80314410  0.50020747  1
  O  O13  1  0.19685590  0.80314410  0.69979253  1
  O  O14  1  0.31327800  0.30436510  0.00002017  1
  O  O15  1  0.31327800  0.30436510  0.19997983  1
  O  O16  1  0.29898651  0.31253001  0.39933016  1
  O  O17  1  0.30534288  0.30726459  0.60000000  1
  O  O18  1  0.29898651  0.31253001  0.80066984  1
  O  O19  1  0.69563490  0.68672200  0.00002017  1
  O  O20  1  0.69563490  0.68672200  0.19997983  1
  O  O21  1  0.68746999  0.70101349  0.39933016  1
  O  O22  1  0.69273541  0.69465712  0.60000000  1
  O  O23  1  0.68746999  0.70101349  0.80066984  1
  O  O24  1  0.81204821  0.18795179  0.10000000  1
  F  F25  1  0.22202737  0.77797263  0.10000000  1
  F  F26  1  0.78885803  0.21114197  0.30465504  1
  F  F27  1  0.80702689  0.19297311  0.49952618  1
  F  F28  1  0.78885803  0.21114197  0.89534496  1
  F  F29  1  0.80702689  0.19297311  0.70047382  1
