# generated using pymatgen
data_Li4Co3OF11
_symmetry_space_group_name_H-M   'P 1'
_cell_length_a   6.30195693
_cell_length_b   5.90716758
_cell_length_c   5.74959576
_cell_angle_alpha   97.62969894
_cell_angle_beta   100.76144607
_cell_angle_gamma   100.49297560
_symmetry_Int_Tables_number   1
_chemical_formula_structural   Li4Co3OF11
_chemical_formula_sum   'Li4 Co3 O1 F11'
_cell_volume   203.65318763
_cell_formula_units_Z   1
loop_
 _symmetry_equiv_pos_site_id
 _symmetry_equiv_pos_as_xyz
  1  'x, y, z'
loop_
 _atom_site_type_symbol
 _atom_site_label
 _atom_site_symmetry_multiplicity
 _atom_site_fract_x
 _atom_site_fract_y
 _atom_site_fract_z
 _atom_site_occupancy
  Li  Li0  1  0.43212765  0.66223029  0.87593150  1
  Li  Li1  1  0.67587882  0.84798613  0.40069401  1
  Li  Li2  1  0.60165995  0.35587203  0.14841084  1
  Li  Li3  1  0.85245675  0.39637348  0.67876048  1
  Co  Co4  1  0.13394783  0.62036803  0.30966469  1
  Co  Co5  1  0.99029443  0.99321954  0.99858813  1
  Co  Co6  1  0.34214672  0.14261180  0.58826556  1
  O  O7  1  0.13045665  0.94070532  0.31899868  1
  F  F8  1  0.03338221  0.67694730  0.91432988  1
  F  F9  1  0.41154619  0.82682900  0.61115298  1
  F  F10  1  0.19291650  0.40992580  0.56774847  1
  F  F11  1  0.71053601  0.89661390  0.06728067  1
  F  F12  1  0.40093780  0.58938624  0.19355267  1
  F  F13  1  0.58460218  0.39714046  0.81650119  1
  F  F14  1  0.27497986  0.11008272  0.90709970  1
  F  F15  1  0.84022402  0.58589913  0.40856850  1
  F  F16  1  0.54937456  0.17819715  0.39609077  1
  F  F17  1  0.96987293  0.31802797  0.11370908  1
  F  F18  1  0.87265895  0.05158373  0.68465120  1
