# generated using pymatgen
data_Cr(SO4)2
_symmetry_space_group_name_H-M   'P 1'
_cell_length_a   9.11040230
_cell_length_b   8.98868612
_cell_length_c   13.45145197
_cell_angle_alpha   90.00000000
_cell_angle_beta   90.00000000
_cell_angle_gamma   90.00000000
_symmetry_Int_Tables_number   1
_chemical_formula_structural   Cr(SO4)2
_chemical_formula_sum   'Cr8 S16 O64'
_cell_volume   1101.54675575
_cell_formula_units_Z   8
loop_
 _symmetry_equiv_pos_site_id
 _symmetry_equiv_pos_as_xyz
  1  'x, y, z'
loop_
 _atom_site_type_symbol
 _atom_site_label
 _atom_site_symmetry_multiplicity
 _atom_site_fract_x
 _atom_site_fract_y
 _atom_site_fract_z
 _atom_site_occupancy
  Cr  Cr0  1  0.13970343  0.10595323  0.12574018  1
  Cr  Cr1  1  0.13970343  0.39404677  0.62574018  1
  Cr  Cr2  1  0.36029657  0.60595323  0.12574018  1
  Cr  Cr3  1  0.36029657  0.89404677  0.62574018  1
  Cr  Cr4  1  0.63970343  0.10595323  0.37425982  1
  Cr  Cr5  1  0.63970343  0.39404677  0.87425982  1
  Cr  Cr6  1  0.86029657  0.60595323  0.37425982  1
  Cr  Cr7  1  0.86029657  0.89404677  0.87425982  1
  S  S8  1  0.07570807  0.06565853  0.72260707  1
  S  S9  1  0.07570807  0.43434147  0.22260707  1
  S  S10  1  0.15866747  0.68831597  0.48861389  1
  S  S11  1  0.15866747  0.81168403  0.98861389  1
  S  S12  1  0.34133253  0.18831597  0.48861389  1
  S  S13  1  0.34133253  0.31168403  0.98861389  1
  S  S14  1  0.42429193  0.93434147  0.22260707  1
  S  S15  1  0.42429193  0.56565853  0.72260707  1
  S  S16  1  0.57570807  0.43434147  0.27739293  1
  S  S17  1  0.57570807  0.06565853  0.77739293  1
  S  S18  1  0.65866747  0.68831597  0.01138611  1
  S  S19  1  0.65866747  0.81168403  0.51138611  1
  S  S20  1  0.84133253  0.18831597  0.01138611  1
  S  S21  1  0.84133253  0.31168403  0.51138611  1
  S  S22  1  0.92429193  0.56565853  0.77739293  1
  S  S23  1  0.92429193  0.93434147  0.27739293  1
  O  O24  1  0.99496891  0.70141825  0.47246476  1
  O  O25  1  0.99496891  0.79858175  0.97246476  1
  O  O26  1  0.01680997  0.98892498  0.35660073  1
  O  O27  1  0.01680997  0.51107502  0.85660073  1
  O  O28  1  0.02230929  0.47286155  0.32515012  1
  O  O29  1  0.02230929  0.02713845  0.82515012  1
  O  O30  1  0.08546287  0.23374183  0.72221241  1
  O  O31  1  0.08546287  0.26625817  0.22221241  1
  O  O32  1  0.18733172  0.72272450  0.08128697  1
  O  O33  1  0.18733172  0.77727550  0.58128697  1
  O  O34  1  0.19330104  0.97082051  0.01486319  1
  O  O35  1  0.19330104  0.52917949  0.51486319  1
  O  O36  1  0.22992505  0.00564927  0.71797628  1
  O  O37  1  0.22992505  0.49435073  0.21797628  1
  O  O38  1  0.24087481  0.73355542  0.40219619  1
  O  O39  1  0.24087481  0.76644458  0.90219619  1
  O  O40  1  0.25912519  0.23355542  0.40219619  1
  O  O41  1  0.25912519  0.26644458  0.90219619  1
  O  O42  1  0.27007495  0.99435073  0.21797628  1
  O  O43  1  0.27007495  0.50564927  0.71797628  1
  O  O44  1  0.30669896  0.02917949  0.51486319  1
  O  O45  1  0.30669896  0.47082051  0.01486319  1
  O  O46  1  0.31266828  0.22272450  0.08128697  1
  O  O47  1  0.31266828  0.27727550  0.58128697  1
  O  O48  1  0.41453713  0.76625817  0.22221241  1
  O  O49  1  0.41453713  0.73374183  0.72221241  1
  O  O50  1  0.47769071  0.52713845  0.82515012  1
  O  O51  1  0.47769071  0.97286155  0.32515012  1
  O  O52  1  0.48319003  0.48892498  0.35660073  1
  O  O53  1  0.48319003  0.01107502  0.85660073  1
  O  O54  1  0.50503109  0.20141825  0.47246476  1
  O  O55  1  0.50503109  0.29858175  0.97246476  1
  O  O56  1  0.49496891  0.70141825  0.02753524  1
  O  O57  1  0.49496891  0.79858175  0.52753524  1
  O  O58  1  0.51680997  0.51107502  0.64339927  1
  O  O59  1  0.51680997  0.98892498  0.14339927  1
  O  O60  1  0.52230929  0.47286155  0.17484988  1
  O  O61  1  0.52230929  0.02713845  0.67484988  1
  O  O62  1  0.58546287  0.26625817  0.27778759  1
  O  O63  1  0.58546287  0.23374183  0.77778759  1
  O  O64  1  0.68733172  0.72272450  0.41871303  1
  O  O65  1  0.68733172  0.77727550  0.91871303  1
  O  O66  1  0.69330104  0.52917949  0.98513681  1
  O  O67  1  0.69330104  0.97082051  0.48513681  1
  O  O68  1  0.72992505  0.49435073  0.28202372  1
  O  O69  1  0.72992505  0.00564927  0.78202372  1
  O  O70  1  0.74087481  0.73355542  0.09780381  1
  O  O71  1  0.74087481  0.76644458  0.59780381  1
  O  O72  1  0.75912519  0.23355542  0.09780381  1
  O  O73  1  0.75912519  0.26644458  0.59780381  1
  O  O74  1  0.77007495  0.50564927  0.78202372  1
  O  O75  1  0.77007495  0.99435073  0.28202372  1
  O  O76  1  0.80669896  0.47082051  0.48513681  1
  O  O77  1  0.80669896  0.02917949  0.98513681  1
  O  O78  1  0.81266828  0.22272450  0.41871303  1
  O  O79  1  0.81266828  0.27727550  0.91871303  1
  O  O80  1  0.91453713  0.73374183  0.77778759  1
  O  O81  1  0.91453713  0.76625817  0.27778759  1
  O  O82  1  0.97769071  0.52713845  0.67484988  1
  O  O83  1  0.97769071  0.97286155  0.17484988  1
  O  O84  1  0.98319003  0.01107502  0.64339927  1
  O  O85  1  0.98319003  0.48892498  0.14339927  1
  O  O86  1  0.00503109  0.20141825  0.02753524  1
  O  O87  1  0.00503109  0.29858175  0.52753524  1
