# generated using pymatgen
data_Fe3OF5
_symmetry_space_group_name_H-M   'P 1'
_cell_length_a   4.80734313
_cell_length_b   8.07526421
_cell_length_c   5.80720144
_cell_angle_alpha   92.59652845
_cell_angle_beta   90.16235841
_cell_angle_gamma   90.64275090
_symmetry_Int_Tables_number   1
_chemical_formula_structural   Fe3OF5
_chemical_formula_sum   'Fe6 O2 F10'
_cell_volume   225.19196131
_cell_formula_units_Z   2
loop_
 _symmetry_equiv_pos_site_id
 _symmetry_equiv_pos_as_xyz
  1  'x, y, z'
loop_
 _atom_site_type_symbol
 _atom_site_label
 _atom_site_symmetry_multiplicity
 _atom_site_fract_x
 _atom_site_fract_y
 _atom_site_fract_z
 _atom_site_occupancy
  Fe  Fe0  1  0.49576520  0.67130854  0.16199734  1
  Fe  Fe1  1  0.50600757  0.00204590  0.51584937  1
  Fe  Fe2  1  0.53755193  0.31771887  0.82240190  1
  Fe  Fe3  1  0.98374334  0.64781258  0.66821128  1
  Fe  Fe4  1  0.98553389  0.33699292  0.34467180  1
  Fe  Fe5  1  0.99462451  0.01124677  0.98811423  1
  O  O6  1  0.79392838  0.44566869  0.63642736  1
  O  O7  1  0.68930404  0.10617859  0.80652863  1
  F  F8  1  0.81050024  0.75398701  0.95757855  1
  F  F9  1  0.80260229  0.09976203  0.30342620  1
  F  F10  1  0.71141382  0.76510898  0.46604112  1
  F  F11  1  0.69185787  0.43212476  0.12193247  1
  F  F12  1  0.29792401  0.56154084  0.86010175  1
  F  F13  1  0.29626392  0.24228580  0.54352501  1
  F  F14  1  0.29922723  0.90420257  0.19922513  1
  F  F15  1  0.21244935  0.24805665  0.03621018  1
  F  F16  1  0.19766348  0.57898484  0.37363900  1
  F  F17  1  0.19363993  0.87497566  0.69411767  1
