# generated using pymatgen
data_Li2Mn3(BO3)3
_symmetry_space_group_name_H-M   'P 1'
_cell_length_a   7.85410263
_cell_length_b   5.29808263
_cell_length_c   9.61347478
_cell_angle_alpha   75.77573906
_cell_angle_beta   75.23667606
_cell_angle_gamma   87.42198587
_symmetry_Int_Tables_number   1
_chemical_formula_structural   Li2Mn3(BO3)3
_chemical_formula_sum   'Li4 Mn6 B6 O18'
_cell_volume   374.90054295
_cell_formula_units_Z   2
loop_
 _symmetry_equiv_pos_site_id
 _symmetry_equiv_pos_as_xyz
  1  'x, y, z'
loop_
 _atom_site_type_symbol
 _atom_site_label
 _atom_site_symmetry_multiplicity
 _atom_site_fract_x
 _atom_site_fract_y
 _atom_site_fract_z
 _atom_site_occupancy
  Li  Li0  1  0.23028786  0.46715180  0.91772493  1
  Li  Li1  1  0.08695951  0.87340224  0.42652169  1
  Li  Li2  1  0.43858128  0.19128607  0.75193715  1
  Li  Li3  1  0.75213389  0.54126919  0.09369069  1
  Mn  Mn4  1  0.36670479  0.76939252  0.61176067  1
  Mn  Mn5  1  0.03134069  0.43377406  0.29227588  1
  Mn  Mn6  1  0.30042800  0.88520571  0.05969870  1
  Mn  Mn7  1  0.70673962  0.10742837  0.95493712  1
  Mn  Mn8  1  0.96067509  0.55581836  0.71583352  1
  Mn  Mn9  1  0.62539510  0.22216553  0.38271658  1
  B  B10  1  0.08086839  0.00548041  0.83517333  1
  B  B11  1  0.58218062  0.65024979  0.84219596  1
  B  B12  1  0.25203663  0.32156446  0.50586069  1
  B  B13  1  0.75152411  0.68456531  0.48627835  1
  B  B14  1  0.41874074  0.34965266  0.15158326  1
  B  B15  1  0.91668256  0.98659762  0.17427300  1
  O  O16  1  0.12096992  0.76793913  0.79861104  1
  O  O17  1  0.19233868  0.12132679  0.89207587  1
  O  O18  1  0.05318438  0.85128255  0.22878205  1
  O  O19  1  0.54995687  0.89589772  0.86983203  1
  O  O20  1  0.20101285  0.56000768  0.53916881  1
  O  O21  1  0.47734546  0.53793909  0.77911984  1
  O  O22  1  0.16614567  0.20707930  0.42983307  1
  O  O23  1  0.71939777  0.50751770  0.89346369  1
  O  O24  1  0.39267759  0.19236799  0.55779559  1
  O  O25  1  0.60806643  0.82413149  0.45143726  1
  O  O26  1  0.26508606  0.47044764  0.11591930  1
  O  O27  1  0.85305020  0.77767412  0.55793998  1
  O  O28  1  0.51398979  0.45381125  0.22240693  1
  O  O29  1  0.79093655  0.45608928  0.43736273  1
  O  O30  1  0.47377868  0.12813776  0.09681880  1
  O  O31  1  0.93160639  0.14223917  0.80308101  1
  O  O32  1  0.83111469  0.87705641  0.09480224  1
  O  O33  1  0.87025914  0.22867983  0.20425525  1
