# generated using pymatgen
data_LiV2P4(HO8)2
_symmetry_space_group_name_H-M   'P 1'
_cell_length_a   13.61815880
_cell_length_b   7.89510860
_cell_length_c   7.74141807
_cell_angle_alpha   90.11304074
_cell_angle_beta   98.66228255
_cell_angle_gamma   89.94903181
_symmetry_Int_Tables_number   1
_chemical_formula_structural   LiV2P4(HO8)2
_chemical_formula_sum   'Li3 V6 P12 H6 O48'
_cell_volume   822.83686393
_cell_formula_units_Z   3
loop_
 _symmetry_equiv_pos_site_id
 _symmetry_equiv_pos_as_xyz
  1  'x, y, z'
loop_
 _atom_site_type_symbol
 _atom_site_label
 _atom_site_symmetry_multiplicity
 _atom_site_fract_x
 _atom_site_fract_y
 _atom_site_fract_z
 _atom_site_occupancy
  Li  Li0  1  0.14778953  0.13010907  0.29071936  1
  Li  Li1  1  0.51798277  0.63383196  0.87180775  1
  Li  Li2  1  0.85263544  0.63079156  0.21035739  1
  V  V3  1  0.16766994  0.50723210  0.16716661  1
  V  V4  1  0.16698903  0.99390298  0.67524129  1
  V  V5  1  0.49670949  0.49229382  0.49051598  1
  V  V6  1  0.50148478  0.00582816  0.99963313  1
  V  V7  1  0.82990253  0.00789589  0.33179145  1
  V  V8  1  0.83492745  0.49680915  0.82580249  1
  P  P9  1  0.04524175  0.84936551  0.27960160  1
  P  P10  1  0.04750760  0.64422904  0.77618443  1
  P  P11  1  0.28908580  0.15801730  0.05183044  1
  P  P12  1  0.37876169  0.65812695  0.11318296  1
  P  P13  1  0.28385718  0.35329896  0.55695370  1
  P  P14  1  0.38158123  0.85337172  0.61053123  1
  P  P15  1  0.61901443  0.14602733  0.38956382  1
  P  P16  1  0.71011090  0.65470647  0.44818725  1
  P  P17  1  0.62173739  0.35033171  0.88658788  1
  P  P18  1  0.71575382  0.85193587  0.94160366  1
  P  P19  1  0.95405680  0.34896754  0.22102239  1
  P  P20  1  0.95318494  0.14509960  0.72147538  1
  H  H21  1  0.00395889  0.50833441  0.50428396  1
  H  H22  1  0.33452794  0.99681518  0.33231628  1
  H  H23  1  0.33177781  0.49416730  0.83146383  1
  H  H24  1  0.66816953  0.50352971  0.17241239  1
  H  H25  1  0.66554860  0.00023845  0.66477748  1
  H  H26  1  0.99594150  0.00881978  0.99319307  1
  O  O27  1  0.06257230  0.95895923  0.12494806  1
  O  O28  1  0.06579919  0.32884225  0.20392013  1
  O  O29  1  0.09118653  0.67281053  0.27289988  1
  O  O30  1  0.09928260  0.94728321  0.44540984  1
  O  O31  1  0.06331164  0.54597000  0.61319758  1
  O  O32  1  0.23975101  0.33143043  0.05731402  1
  O  O33  1  0.06497778  0.16080354  0.70298054  1
  O  O34  1  0.26887984  0.67406777  0.13495990  1
  O  O35  1  0.09401723  0.82612188  0.76696658  1
  O  O36  1  0.27174605  0.05879700  0.21418633  1
  O  O37  1  0.10012714  0.55876746  0.94225133  1
  O  O38  1  0.23347475  0.44785166  0.39278658  1
  O  O39  1  0.23463020  0.17496967  0.55324444  1
  O  O40  1  0.39818360  0.17372097  0.02613220  1
  O  O41  1  0.26899021  0.83982072  0.63437794  1
  O  O42  1  0.27331483  0.44691320  0.72473571  1
  O  O43  1  0.42802281  0.83091230  0.11008509  1
  O  O44  1  0.23467184  0.05855674  0.88524822  1
  O  O45  1  0.43011855  0.55871458  0.28246225  1
  O  O46  1  0.39237645  0.94704350  0.44368039  1
  O  O47  1  0.39670354  0.33796680  0.53513252  1
  O  O48  1  0.42945972  0.67373256  0.61360022  1
  O  O49  1  0.60763010  0.45959680  0.04473180  1
  O  O50  1  0.43482150  0.94552292  0.77534799  1
  O  O51  1  0.56563059  0.05917676  0.22214019  1
  O  O52  1  0.39706985  0.55679005  0.95293033  1
  O  O53  1  0.56811067  0.32697892  0.39784133  1
  O  O54  1  0.59856652  0.66026901  0.46707798  1
  O  O55  1  0.60333849  0.05112132  0.55278851  1
  O  O56  1  0.56579244  0.44790023  0.72484352  1
  O  O57  1  0.76552833  0.94396710  0.11074112  1
  O  O58  1  0.58152491  0.17194337  0.89573247  1
  O  O59  1  0.72778233  0.55282679  0.28546463  1
  O  O60  1  0.72772176  0.17485608  0.36524911  1
  O  O61  1  0.60455187  0.82567265  0.96126834  1
  O  O62  1  0.75488592  0.82959989  0.43993543  1
  O  O63  1  0.76462815  0.55852835  0.61351146  1
  O  O64  1  0.90224123  0.44794245  0.05431780  1
  O  O65  1  0.72930985  0.94648536  0.77736644  1
  O  O66  1  0.90787666  0.17358010  0.22651937  1
  O  O67  1  0.73411883  0.34140756  0.86331379  1
  O  O68  1  0.93413201  0.82882745  0.29960290  1
  O  O69  1  0.76954516  0.67430270  0.94740473  1
  O  O70  1  0.93669853  0.46020016  0.37512206  1
  O  O71  1  0.89817338  0.05999262  0.55625500  1
  O  O72  1  0.90824810  0.32782909  0.73236876  1
  O  O73  1  0.93567897  0.66260448  0.79280779  1
  O  O74  1  0.93774427  0.04699332  0.88460818  1
