# generated using pymatgen
data_Li2MnCr2O6
_symmetry_space_group_name_H-M   'P 1'
_cell_length_a   7.84934805
_cell_length_b   7.84934810
_cell_length_c   5.97567892
_cell_angle_alpha   101.40613519
_cell_angle_beta   101.40613211
_cell_angle_gamma   68.71879952
_symmetry_Int_Tables_number   1
_chemical_formula_structural   Li2MnCr2O6
_chemical_formula_sum   'Li6 Mn3 Cr6 O18'
_cell_volume   333.07951401
_cell_formula_units_Z   3
loop_
 _symmetry_equiv_pos_site_id
 _symmetry_equiv_pos_as_xyz
  1  'x, y, z'
loop_
 _atom_site_type_symbol
 _atom_site_label
 _atom_site_symmetry_multiplicity
 _atom_site_fract_x
 _atom_site_fract_y
 _atom_site_fract_z
 _atom_site_occupancy
  Li  Li0  1  0.33165408  0.99885828  0.83524897  1
  Li  Li1  1  0.99885828  0.33165408  0.83524897  1
  Li  Li2  1  0.33501292  0.66780872  0.49808403  1
  Li  Li3  1  0.66780872  0.33501292  0.49808403  1
  Li  Li4  1  0.00158078  0.66508522  0.16666700  1
  Li  Li5  1  0.66508522  0.00158078  0.16666700  1
  Mn  Mn6  1  0.99862973  0.66803627  0.66666700  1
  Mn  Mn7  1  0.33333300  0.33333300  0.66666700  1
  Mn  Mn8  1  0.66803627  0.99862973  0.66666700  1
  Cr  Cr9  1  0.32961911  0.00114362  0.33316970  1
  Cr  Cr10  1  0.66712659  0.66712659  0.33370554  1
  Cr  Cr11  1  0.00114362  0.32961911  0.33316970  1
  Cr  Cr12  1  0.33704789  0.66552338  0.00016330  1
  Cr  Cr13  1  0.66552338  0.33704789  0.00016330  1
  Cr  Cr14  1  0.99954041  0.99954041  0.99962746  1
  O  O15  1  0.82657218  0.82657218  0.44210913  1
  O  O16  1  0.49040967  0.83362189  0.10620531  1
  O  O17  1  0.83362189  0.49040967  0.10620531  1
  O  O18  1  0.84009482  0.84009482  0.89122387  1
  O  O19  1  0.50721003  0.84938622  0.56905350  1
  O  O20  1  0.84938622  0.50721003  0.56905350  1
  O  O21  1  0.17625733  0.83304511  0.22712769  1
  O  O22  1  0.51046773  0.51046773  0.23733901  1
  O  O23  1  0.83304511  0.17625733  0.22712769  1
  O  O24  1  0.15945697  0.81727978  0.76428050  1
  O  O25  1  0.48522671  0.48522671  0.75443266  1
  O  O26  1  0.81727978  0.15945697  0.76428050  1
  O  O27  1  0.15930517  0.49935777  0.44828687  1
  O  O28  1  0.49935777  0.15930517  0.44828687  1
  O  O29  1  0.15619827  0.15619827  0.09599399  1
  O  O30  1  0.16730823  0.50736083  0.88504613  1
  O  O31  1  0.50736083  0.16730823  0.88504613  1
  O  O32  1  0.18144029  0.18144029  0.57890134  1
