# generated using pymatgen
data_Li2Mn3(BO3)3
_symmetry_space_group_name_H-M   'P 1'
_cell_length_a   9.12187141
_cell_length_b   7.89436547
_cell_length_c   6.10867005
_cell_angle_alpha   80.90869175
_cell_angle_beta   76.98880732
_cell_angle_gamma   114.39641990
_symmetry_Int_Tables_number   1
_chemical_formula_structural   Li2Mn3(BO3)3
_chemical_formula_sum   'Li4 Mn6 B6 O18'
_cell_volume   374.38782444
_cell_formula_units_Z   2
loop_
 _symmetry_equiv_pos_site_id
 _symmetry_equiv_pos_as_xyz
  1  'x, y, z'
loop_
 _atom_site_type_symbol
 _atom_site_label
 _atom_site_symmetry_multiplicity
 _atom_site_fract_x
 _atom_site_fract_y
 _atom_site_fract_z
 _atom_site_occupancy
  Li  Li0  1  0.61949164  0.16549766  0.16497213  1
  Li  Li1  1  0.05524850  0.18002125  0.50958471  1
  Li  Li2  1  0.94475150  0.81997875  0.49041529  1
  Li  Li3  1  0.38050836  0.83450234  0.83502787  1
  Mn  Mn4  1  0.26740807  0.15518304  0.09104581  1
  Mn  Mn5  1  0.41202310  0.21950043  0.53452955  1
  Mn  Mn6  1  0.05979560  0.52674566  0.22198367  1
  Mn  Mn7  1  0.94020440  0.47325434  0.77801633  1
  Mn  Mn8  1  0.58797690  0.78049957  0.46547045  1
  Mn  Mn9  1  0.73259193  0.84481696  0.90895419  1
  B  B10  1  0.92423786  0.12959454  0.13881300  1
  B  B11  1  0.73036231  0.18604229  0.55940850  1
  B  B12  1  0.38914520  0.53468907  0.21280997  1
  B  B13  1  0.61085480  0.46531093  0.78719003  1
  B  B14  1  0.26963769  0.81395771  0.44059150  1
  B  B15  1  0.07576214  0.87040546  0.86118700  1
  O  O16  1  0.00541122  0.04821412  0.24943777  1
  O  O17  1  0.75779688  0.01624016  0.14294977  1
  O  O18  1  0.64754650  0.98833750  0.68236365  1
  O  O19  1  0.29971448  0.33378797  0.32745470  1
  O  O20  1  0.65753367  0.26625175  0.43429412  1
  O  O21  1  0.31745621  0.62897348  0.10622947  1
  O  O22  1  0.90345944  0.30092581  0.54555251  1
  O  O23  1  0.55725234  0.63095629  0.20917241  1
  O  O24  1  0.99858988  0.67196623  0.96976883  1
  O  O25  1  0.00141012  0.32803377  0.03023117  1
  O  O26  1  0.44274766  0.36904371  0.79082759  1
  O  O27  1  0.09654056  0.69907419  0.45444749  1
  O  O28  1  0.68254379  0.37102652  0.89377053  1
  O  O29  1  0.34246633  0.73374825  0.56570588  1
  O  O30  1  0.70028552  0.66621203  0.67254530  1
  O  O31  1  0.35245350  0.01166250  0.31763635  1
  O  O32  1  0.24220312  0.98375984  0.85705023  1
  O  O33  1  0.99458878  0.95178588  0.75056223  1
