# generated using pymatgen
data_Na8SnO6
_symmetry_space_group_name_H-M   'P 1'
_cell_length_a   6.35187127
_cell_length_b   6.77260671
_cell_length_c   6.35187087
_cell_angle_alpha   117.96540588
_cell_angle_beta   59.99999651
_cell_angle_gamma   117.96540772
_symmetry_Int_Tables_number   1
_chemical_formula_structural   Na8SnO6
_chemical_formula_sum   'Na8 Sn1 O6'
_cell_volume   198.94671896
_cell_formula_units_Z   1
loop_
 _symmetry_equiv_pos_site_id
 _symmetry_equiv_pos_as_xyz
  1  'x, y, z'
loop_
 _atom_site_type_symbol
 _atom_site_label
 _atom_site_symmetry_multiplicity
 _atom_site_fract_x
 _atom_site_fract_y
 _atom_site_fract_z
 _atom_site_occupancy
  Na  Na0  1  0.34107399  0.02322197  0.34107399  1
  Na  Na1  1  0.09300515  0.34538445  0.49794658  1
  Na  Na2  1  0.24556628  0.65461555  0.90699485  1
  Na  Na3  1  0.50205342  0.65461555  0.24556628  1
  Na  Na4  1  0.49794658  0.34538445  0.75443372  1
  Na  Na5  1  0.75443372  0.34538445  0.09300515  1
  Na  Na6  1  0.90699485  0.65461555  0.50205342  1
  Na  Na7  1  0.65892601  0.97677803  0.65892601  1
  Sn  Sn8  1  0.00000000  0.00000000  0.00000000  1
  O  O9  1  0.22071503  0.78206534  0.64801421  1
  O  O10  1  0.35198579  0.21793466  0.08666390  1
  O  O11  1  0.08666390  0.21793466  0.77928497  1
  O  O12  1  0.91333610  0.78206534  0.22071503  1
  O  O13  1  0.64801421  0.78206534  0.91333610  1
  O  O14  1  0.77928497  0.21793466  0.35198579  1
