# generated using pymatgen
data_V3FeSn2(PO4)6
_symmetry_space_group_name_H-M   'P 1'
_cell_length_a   9.00172032
_cell_length_b   8.61359465
_cell_length_c   8.61359478
_cell_angle_alpha   59.99999821
_cell_angle_beta   61.41633220
_cell_angle_gamma   61.41632743
_symmetry_Int_Tables_number   1
_chemical_formula_structural   V3FeSn2(PO4)6
_chemical_formula_sum   'V3 Fe1 Sn2 P6 O24'
_cell_volume   482.11679312
_cell_formula_units_Z   1
loop_
 _symmetry_equiv_pos_site_id
 _symmetry_equiv_pos_as_xyz
  1  'x, y, z'
loop_
 _atom_site_type_symbol
 _atom_site_label
 _atom_site_symmetry_multiplicity
 _atom_site_fract_x
 _atom_site_fract_y
 _atom_site_fract_z
 _atom_site_occupancy
  V  V0  1  0.05590437  0.64803154  0.64803154  1
  V  V1  1  0.44124354  0.85291882  0.85291882  1
  V  V2  1  0.94524196  0.35158568  0.35158568  1
  Fe  Fe3  1  0.55132461  0.14955813  0.14955813  1
  Sn  Sn4  1  0.98753308  0.00415564  0.00415564  1
  Sn  Sn5  1  0.49942882  0.50019039  0.50019039  1
  P  P6  1  0.25039257  0.24997585  0.53741235  1
  P  P7  1  0.25039257  0.96221923  0.24997585  1
  P  P8  1  0.25039257  0.53741235  0.96221923  1
  P  P9  1  0.75122896  0.46360118  0.03631633  1
  P  P10  1  0.75122896  0.03631633  0.74885452  1
  P  P11  1  0.75122896  0.74885452  0.46360118  1
  O  O12  1  0.07899185  0.12945334  0.28186891  1
  O  O13  1  0.07899185  0.50968591  0.12945334  1
  O  O14  1  0.07899185  0.28186891  0.50968591  1
  O  O15  1  0.26626336  0.07671508  0.72134443  1
  O  O16  1  0.41980967  0.22228246  0.37223956  1
  O  O17  1  0.22968880  0.42557100  0.56586247  1
  O  O18  1  0.26626336  0.93567713  0.07671508  1
  O  O19  1  0.22968880  0.77887873  0.42557100  1
  O  O20  1  0.58023850  0.62891270  0.00844945  1
  O  O21  1  0.22968880  0.56586247  0.77887873  1
  O  O22  1  0.74046443  0.27982925  0.05731409  1
  O  O23  1  0.58023850  0.00844945  0.78239935  1
  O  O24  1  0.41980967  0.98566931  0.22228246  1
  O  O25  1  0.26626336  0.72134443  0.93567713  1
  O  O26  1  0.76700491  0.43798924  0.22056849  1
  O  O27  1  0.41980967  0.37223956  0.98566931  1
  O  O28  1  0.76700491  0.22056849  0.57443636  1
  O  O29  1  0.74046443  0.05731409  0.92239124  1
  O  O30  1  0.76700491  0.57443636  0.43798924  1
  O  O31  1  0.58023850  0.78239935  0.62891270  1
  O  O32  1  0.74046443  0.92239124  0.27982925  1
  O  O33  1  0.92235816  0.71029621  0.49581025  1
  O  O34  1  0.92235816  0.49581025  0.87153438  1
  O  O35  1  0.92235816  0.87153438  0.71029621  1
