# generated using pymatgen
data_LiFe2(BO3)2
_symmetry_space_group_name_H-M   'P 1'
_cell_length_a   5.24859023
_cell_length_b   9.14136440
_cell_length_c   11.31330947
_cell_angle_alpha   67.27366581
_cell_angle_beta   76.52561729
_cell_angle_gamma   89.94531722
_symmetry_Int_Tables_number   1
_chemical_formula_structural   LiFe2(BO3)2
_chemical_formula_sum   'Li4 Fe8 B8 O24'
_cell_volume   484.47416409
_cell_formula_units_Z   4
loop_
 _symmetry_equiv_pos_site_id
 _symmetry_equiv_pos_as_xyz
  1  'x, y, z'
loop_
 _atom_site_type_symbol
 _atom_site_label
 _atom_site_symmetry_multiplicity
 _atom_site_fract_x
 _atom_site_fract_y
 _atom_site_fract_z
 _atom_site_occupancy
  Li  Li0  1  0.70589154  0.72491413  0.91252045  1
  Li  Li1  1  0.51894327  0.49487317  0.65402097  1
  Li  Li2  1  0.02076472  0.99683328  0.65710444  1
  Li  Li3  1  0.22850104  0.24372835  0.16671497  1
  Fe  Fe4  1  0.97853006  0.64786284  0.37198419  1
  Fe  Fe5  1  0.73146370  0.07367317  0.88168014  1
  Fe  Fe6  1  0.53815361  0.84456020  0.62094490  1
  Fe  Fe7  1  0.74747511  0.44298201  0.14097997  1
  Fe  Fe8  1  0.22395477  0.55949252  0.88049696  1
  Fe  Fe9  1  0.48852603  0.14665934  0.38043467  1
  Fe  Fe10  1  0.03879644  0.34887764  0.62636275  1
  Fe  Fe11  1  0.24892154  0.92901787  0.12930413  1
  B  B12  1  0.98277391  0.31690746  0.37852208  1
  B  B13  1  0.73385922  0.40536442  0.87187363  1
  B  B14  1  0.52523666  0.18130677  0.63163880  1
  B  B15  1  0.76594630  0.10999823  0.12704524  1
  B  B16  1  0.47311793  0.81063268  0.37752532  1
  B  B17  1  0.23380808  0.89369962  0.87641929  1
  B  B18  1  0.02182284  0.68180620  0.63139739  1
  B  B19  1  0.26808088  0.60087942  0.12350926  1
  O  O20  1  0.98030375  0.91527615  0.86160427  1
  O  O21  1  0.87074049  0.29122555  0.83898052  1
  O  O22  1  0.85051405  0.50705440  0.91439816  1
  O  O23  1  0.90241391  0.81219055  0.63802841  1
  O  O24  1  0.91446513  0.57894364  0.58701924  1
  O  O25  1  0.75793454  0.14605272  0.67569997  1
  O  O26  1  0.74177938  0.32049292  0.34683233  1
  O  O27  1  0.48266742  0.42367232  0.85761397  1
  O  O28  1  0.36835125  0.77432957  0.84572272  1
  O  O29  1  0.54354936  0.92704691  0.41912402  1
  O  O30  1  0.62600905  0.68941589  0.38315394  1
  O  O31  1  0.36597446  0.98626757  0.91829055  1
  O  O32  1  0.64995814  0.02172570  0.07271593  1
  O  O33  1  0.40575085  0.31145829  0.63344826  1
  O  O34  1  0.41766688  0.07572146  0.58707257  1
  O  O35  1  0.60181431  0.20866462  0.17552460  1
  O  O36  1  0.53258704  0.62113881  0.10289509  1
  O  O37  1  0.25556762  0.64706464  0.67497991  1
  O  O38  1  0.23998015  0.81873847  0.33806217  1
  O  O39  1  0.05419783  0.42686116  0.42387118  1
  O  O40  1  0.14754454  0.20650145  0.36136277  1
  O  O41  1  0.15795890  0.48901831  0.08416139  1
  O  O42  1  0.09935206  0.69074473  0.17564580  1
  O  O43  1  0.02055224  0.10346884  0.13219068  1
