# generated using pymatgen
data_Li2Mn3(BO3)3
_symmetry_space_group_name_H-M   'P 1'
_cell_length_a   5.85698669
_cell_length_b   5.27852081
_cell_length_c   12.42266866
_cell_angle_alpha   78.08235844
_cell_angle_beta   92.09053775
_cell_angle_gamma   89.65856176
_symmetry_Int_Tables_number   1
_chemical_formula_structural   Li2Mn3(BO3)3
_chemical_formula_sum   'Li4 Mn6 B6 O18'
_cell_volume   375.49788537
_cell_formula_units_Z   2
loop_
 _symmetry_equiv_pos_site_id
 _symmetry_equiv_pos_as_xyz
  1  'x, y, z'
loop_
 _atom_site_type_symbol
 _atom_site_label
 _atom_site_symmetry_multiplicity
 _atom_site_fract_x
 _atom_site_fract_y
 _atom_site_fract_z
 _atom_site_occupancy
  Li  Li0  1  0.14883474  0.57193500  0.18166075  1
  Li  Li1  1  0.18449926  0.09473100  0.48500625  1
  Li  Li2  1  0.46207047  0.23511382  0.84925673  1
  Li  Li3  1  0.87126253  0.43155318  0.81741027  1
  Mn  Mn4  1  0.03269866  0.95551713  0.71532741  1
  Mn  Mn5  1  0.30063434  0.71114987  0.95133959  1
  Mn  Mn6  1  0.37517815  0.62878669  0.38018657  1
  Mn  Mn7  1  0.64165503  0.38031000  0.60654650  1
  Mn  Mn8  1  0.69167797  0.28635600  0.06012050  1
  Mn  Mn9  1  0.95815485  0.03788031  0.28648043  1
  B  B10  1  0.14831208  0.52507479  0.60464671  1
  B  B11  1  0.18502092  0.14159121  0.06202029  1
  B  B12  1  0.46663187  0.18508466  0.27731475  1
  B  B13  1  0.53383265  0.80632977  0.73412864  1
  B  B14  1  0.79950035  0.86033723  0.93253836  1
  B  B15  1  0.86670213  0.48158234  0.38935225  1
  O  O16  1  0.01806416  0.64274554  0.32144215  1
  O  O17  1  0.04464663  0.25885685  0.12767060  1
  O  O18  1  0.14873487  0.78805073  0.59446052  1
  O  O19  1  0.18459813  0.87861627  0.07220648  1
  O  O20  1  0.28868637  0.40781015  0.53899540  1
  O  O21  1  0.31526984  0.02392146  0.34522485  1
  O  O22  1  0.32708671  0.29948623  0.98853361  1
  O  O23  1  0.36380286  0.91809319  0.78930797  1
  O  O24  1  0.44104625  0.44764306  0.25819623  1
  O  O25  1  0.55548248  0.54324811  0.74555730  1
  O  O26  1  0.63319683  0.07641630  0.22246025  1
  O  O27  1  0.64542986  0.68765734  0.98938322  1
  O  O28  1  0.68790314  0.97900866  0.67728378  1
  O  O29  1  0.70013717  0.59024970  0.44420675  1
  O  O30  1  0.77785152  0.12341889  0.92110870  1
  O  O31  1  0.89228675  0.21902294  0.40847077  1
  O  O32  1  0.96953114  0.74857281  0.87735903  1
  O  O33  1  0.00624629  0.36717977  0.67813239  1
