# generated using pymatgen
data_Li2Mn3(BO3)3
_symmetry_space_group_name_H-M   'P 1'
_cell_length_a   5.85756358
_cell_length_b   5.27339185
_cell_length_c   12.45507107
_cell_angle_alpha   78.25348823
_cell_angle_beta   91.82096179
_cell_angle_gamma   89.46925433
_symmetry_Int_Tables_number   1
_chemical_formula_structural   Li2Mn3(BO3)3
_chemical_formula_sum   'Li4 Mn6 B6 O18'
_cell_volume   376.43164100
_cell_formula_units_Z   2
loop_
 _symmetry_equiv_pos_site_id
 _symmetry_equiv_pos_as_xyz
  1  'x, y, z'
loop_
 _atom_site_type_symbol
 _atom_site_label
 _atom_site_symmetry_multiplicity
 _atom_site_fract_x
 _atom_site_fract_y
 _atom_site_fract_z
 _atom_site_occupancy
  Li  Li0  1  0.18057747  0.08784924  0.48146213  1
  Li  Li1  1  0.46105624  0.23175104  0.84710446  1
  Li  Li2  1  0.51335481  0.76302250  0.15193878  1
  Li  Li3  1  0.86684304  0.43322997  0.81322121  1
  Mn  Mn4  1  0.02721102  0.95672464  0.71593150  1
  Mn  Mn5  1  0.28680613  0.70243585  0.95247030  1
  Mn  Mn6  1  0.36134909  0.61509109  0.38294639  1
  Mn  Mn7  1  0.63822857  0.38035279  0.60636835  1
  Mn  Mn8  1  0.70436523  0.29960959  0.05211948  1
  Mn  Mn9  1  0.97116734  0.05089440  0.27687369  1
  B  B10  1  0.14559367  0.52736033  0.60364293  1
  B  B11  1  0.19648329  0.14382737  0.05868274  1
  B  B12  1  0.47561804  0.18600421  0.27325515  1
  B  B13  1  0.52895013  0.80822204  0.73407296  1
  B  B14  1  0.79587735  0.86083063  0.93640613  1
  B  B15  1  0.86384968  0.48144876  0.39448692  1
  O  O16  1  0.02847416  0.65702226  0.34580382  1
  O  O17  1  0.03749807  0.25135617  0.11726818  1
  O  O18  1  0.14935348  0.78812796  0.59526524  1
  O  O19  1  0.22068812  0.88067172  0.07536432  1
  O  O20  1  0.28657372  0.40756498  0.53788308  1
  O  O21  1  0.33436418  0.02473595  0.34425741  1
  O  O22  1  0.33870406  0.30509942  0.98579348  1
  O  O23  1  0.36063225  0.91475939  0.79170116  1
  O  O24  1  0.46536172  0.45135327  0.26108737  1
  O  O25  1  0.55343949  0.54362576  0.74503694  1
  O  O26  1  0.62201624  0.07419667  0.20785904  1
  O  O27  1  0.64903582  0.70315057  0.00670705  1
  O  O28  1  0.68002122  0.98034399  0.67561250  1
  O  O29  1  0.67754106  0.58848943  0.44140163  1
  O  O30  1  0.77948653  0.12589583  0.91795059  1
  O  O31  1  0.89174552  0.22386428  0.40595110  1
  O  O32  1  0.95310297  0.74032342  0.87870576  1
  O  O33  1  0.00184133  0.36858948  0.67518921  1
