# generated using pymatgen
data_Li2Mn5(Si2O5)6
_symmetry_space_group_name_H-M   'P 1'
_cell_length_a   10.40592818
_cell_length_b   10.40590987
_cell_length_c   14.67722066
_cell_angle_alpha   90.00009929
_cell_angle_beta   89.99998767
_cell_angle_gamma   120.00029363
_symmetry_Int_Tables_number   1
_chemical_formula_structural   Li2Mn5(Si2O5)6
_chemical_formula_sum   'Li4 Mn10 Si24 O60'
_cell_volume   1376.36637598
_cell_formula_units_Z   2
loop_
 _symmetry_equiv_pos_site_id
 _symmetry_equiv_pos_as_xyz
  1  'x, y, z'
loop_
 _atom_site_type_symbol
 _atom_site_label
 _atom_site_symmetry_multiplicity
 _atom_site_fract_x
 _atom_site_fract_y
 _atom_site_fract_z
 _atom_site_occupancy
  Li  Li0  1  0.33330000  0.66670622  -0.00000059  1
  Li  Li1  1  0.99999902  0.00000014  0.75000046  1
  Li  Li2  1  0.99999918  0.00000177  0.25000012  1
  Li  Li3  1  0.66670799  0.33340865  0.50000013  1
  Mn  Mn4  1  0.99998687  0.49885708  0.75000102  1
  Mn  Mn5  1  0.99999015  0.49885254  0.25000335  1
  Mn  Mn6  1  0.33333116  0.66666976  0.25385247  1
  Mn  Mn7  1  0.33332553  0.66665483  0.74614923  1
  Mn  Mn8  1  0.50114010  0.50113990  0.24999695  1
  Mn  Mn9  1  0.50114698  0.50114189  0.74999916  1
  Mn  Mn10  1  0.66665853  0.33333679  0.24614094  1
  Mn  Mn11  1  0.66664765  0.33332005  0.75384430  1
  Mn  Mn12  1  0.49885969  0.00000003  0.24999892  1
  Mn  Mn13  1  0.49885504  0.99998973  0.75000056  1
  Si  Si14  1  0.11322568  0.76543706  0.60866601  1
  Si  Si15  1  0.11322557  0.76543836  0.39134429  1
  Si  Si16  1  0.23361851  0.88608130  0.10915500  1
  Si  Si17  1  0.23361812  0.88608010  0.89083543  1
  Si  Si18  1  0.11391857  0.34754147  0.10915794  1
  Si  Si19  1  0.11391649  0.34753928  0.89083931  1
  Si  Si20  1  0.23455828  0.34778618  0.39134279  1
  Si  Si21  1  0.23456273  0.34778724  0.60866261  1
  Si  Si22  1  0.65221263  0.88677338  0.39134518  1
  Si  Si23  1  0.65221262  0.88677012  0.60866380  1
  Si  Si24  1  0.34778664  0.23456280  0.89133581  1
  Si  Si25  1  0.34778557  0.23456242  0.10865522  1
  Si  Si26  1  0.65245448  0.76637791  0.89083814  1
  Si  Si27  1  0.65246021  0.76638177  0.10915679  1
  Si  Si28  1  0.34754071  0.11391834  0.60916238  1
  Si  Si29  1  0.34753878  0.11392090  0.39084216  1
  Si  Si30  1  0.76637582  0.65245776  0.39084304  1
  Si  Si31  1  0.76637922  0.65245875  0.60916294  1
  Si  Si32  1  0.88676942  0.65221040  0.10865642  1
  Si  Si33  1  0.88676664  0.65221149  0.89133613  1
  Si  Si34  1  0.76543897  0.11322655  0.10865747  1
  Si  Si35  1  0.76543600  0.11322478  0.89133736  1
  Si  Si36  1  0.88607717  0.23361977  0.39084359  1
  Si  Si37  1  0.88607997  0.23361860  0.60916253  1
  O  O38  1  0.05692134  0.78520688  0.86475053  1
  O  O39  1  0.05692572  0.78520683  0.13524521  1
  O  O40  1  0.21773836  0.94337037  0.63371303  1
  O  O41  1  0.21773418  0.94337197  0.36629021  1
  O  O42  1  0.12378017  0.74198368  0.49999791  1
  O  O43  1  0.15495001  0.66176270  0.66800241  1
  O  O44  1  0.15495540  0.66176446  0.33200098  1
  O  O45  1  0.25675909  0.86321612  0.00000185  1
  O  O46  1  0.15828617  0.49785797  0.16460356  1
  O  O47  1  0.15828278  0.49785412  0.83539903  1
  O  O48  1  0.05662406  0.27436990  0.36628863  1
  O  O49  1  0.05662618  0.27436751  0.63370859  1
  O  O50  1  0.33956747  0.84171293  0.16459779  1
  O  O51  1  0.33956020  0.84170389  0.83539852  1
  O  O52  1  0.13677009  0.39353479  0.00000420  1
  O  O53  1  0.25801539  0.38179365  0.49999160  1
  O  O54  1  0.50681005  0.84503321  0.66800194  1
  O  O55  1  0.50680694  0.84503993  0.33199891  1
  O  O56  1  0.21479099  0.27172045  0.13524986  1
  O  O57  1  0.21478766  0.27171874  0.86475465  1
  O  O58  1  0.33823507  0.49318755  0.66799633  1
  O  O59  1  0.33823001  0.49319394  0.33199550  1
  O  O60  1  0.27171449  0.21479086  0.36475029  1
  O  O61  1  0.27171723  0.21479049  0.63524728  1
  O  O62  1  0.61820744  0.87621657  0.49999828  1
  O  O63  1  0.50214390  0.66043468  0.83539733  1
  O  O64  1  0.50214734  0.66044038  0.16460598  1
  O  O65  1  0.27436156  0.05662404  0.13370961  1
  O  O66  1  0.27436170  0.05662034  0.86628990  1
  O  O67  1  0.60646551  0.74324351  0.00000534  1
  O  O68  1  0.38179170  0.25801076  0.00000541  1
  O  O69  1  0.72828680  0.94307651  0.13524942  1
  O  O70  1  0.72828002  0.94307560  0.86475140  1
  O  O71  1  0.49319140  0.33823655  0.16799942  1
  O  O72  1  0.49318609  0.33823139  0.83199763  1
  O  O73  1  0.39352609  0.13677299  0.49999607  1
  O  O74  1  0.72563673  0.78225792  0.36629187  1
  O  O75  1  0.72563826  0.78225732  0.63371021  1
  O  O76  1  0.66042655  0.50214211  0.33540034  1
  O  O77  1  0.66043288  0.50213954  0.66459836  1
  O  O78  1  0.78225835  0.72563383  0.13371024  1
  O  O79  1  0.78225742  0.72563641  0.86629050  1
  O  O80  1  0.49784845  0.15828644  0.33539588  1
  O  O81  1  0.49784909  0.15828046  0.66460370  1
  O  O82  1  0.74324123  0.60645389  0.49999689  1
  O  O83  1  0.87621558  0.61820127  0.00000325  1
  O  O84  1  0.66176743  0.15495996  0.16800293  1
  O  O85  1  0.66176547  0.15495659  0.83199828  1
  O  O86  1  0.94307293  0.72827936  0.36475295  1
  O  O87  1  0.94307694  0.72828285  0.63524914  1
  O  O88  1  0.84503737  0.50681123  0.16800482  1
  O  O89  1  0.84502950  0.50680739  0.83199563  1
  O  O90  1  0.74198507  0.12378283  0.00000505  1
  O  O91  1  0.84170647  0.33956578  0.33540075  1
  O  O92  1  0.84170742  0.33956124  0.66460041  1
  O  O93  1  0.86322726  0.25676417  0.49999610  1
  O  O94  1  0.78521232  0.05692681  0.36475276  1
  O  O95  1  0.78521004  0.05692690  0.63524821  1
  O  O96  1  0.94337625  0.21774311  0.13371343  1
  O  O97  1  0.94337369  0.21774026  0.86629033  1
