# generated using pymatgen
data_LiMnPO4
_symmetry_space_group_name_H-M   'P 1'
_cell_length_a   7.81737441
_cell_length_b   13.67815308
_cell_length_c   5.97221001
_cell_angle_alpha   90.00000000
_cell_angle_beta   90.00000000
_cell_angle_gamma   90.00000000
_symmetry_Int_Tables_number   1
_chemical_formula_structural   LiMnPO4
_chemical_formula_sum   'Li8 Mn8 P8 O32'
_cell_volume   638.59195614
_cell_formula_units_Z   8
loop_
 _symmetry_equiv_pos_site_id
 _symmetry_equiv_pos_as_xyz
  1  'x, y, z'
loop_
 _atom_site_type_symbol
 _atom_site_label
 _atom_site_symmetry_multiplicity
 _atom_site_fract_x
 _atom_site_fract_y
 _atom_site_fract_z
 _atom_site_occupancy
  Li  Li0  1  0.19463389  0.22410529  0.15165919  1
  Li  Li1  1  0.19463389  0.27589471  0.65165919  1
  Li  Li2  1  0.30536611  0.77589471  0.65165919  1
  Li  Li3  1  0.30536611  0.72410529  0.15165919  1
  Li  Li4  1  0.69463389  0.22410529  0.34834081  1
  Li  Li5  1  0.69463389  0.27589471  0.84834081  1
  Li  Li6  1  0.80536611  0.72410529  0.34834081  1
  Li  Li7  1  0.80536611  0.77589471  0.84834081  1
  Mn  Mn8  1  0.17891593  0.54053602  0.39723538  1
  Mn  Mn9  1  0.17891593  0.95946398  0.89723538  1
  Mn  Mn10  1  0.32108407  0.04053602  0.39723538  1
  Mn  Mn11  1  0.32108407  0.45946398  0.89723538  1
  Mn  Mn12  1  0.67891593  0.54053602  0.10276462  1
  Mn  Mn13  1  0.67891593  0.95946398  0.60276462  1
  Mn  Mn14  1  0.82108407  0.04053602  0.10276462  1
  Mn  Mn15  1  0.82108407  0.45946398  0.60276462  1
  P  P16  1  0.05106128  0.63285790  0.90006015  1
  P  P17  1  0.05106128  0.86714210  0.40006015  1
  P  P18  1  0.44893872  0.13285790  0.90006015  1
  P  P19  1  0.44893872  0.36714210  0.40006015  1
  P  P20  1  0.55106128  0.63285790  0.59993985  1
  P  P21  1  0.55106128  0.86714210  0.09993985  1
  P  P22  1  0.94893872  0.13285790  0.59993985  1
  P  P23  1  0.94893872  0.36714210  0.09993985  1
  O  O24  1  0.97019722  0.06354570  0.80864846  1
  O  O25  1  0.97019722  0.43645430  0.30864846  1
  O  O26  1  0.11088856  0.76491048  0.33524659  1
  O  O27  1  0.11088856  0.73508952  0.83524659  1
  O  O28  1  0.12162526  0.14038169  0.47376354  1
  O  O29  1  0.12162526  0.35961831  0.97376354  1
  O  O30  1  0.19312319  0.58478869  0.05430837  1
  O  O31  1  0.19312319  0.91521131  0.55430837  1
  O  O32  1  0.30687681  0.08478869  0.05430837  1
  O  O33  1  0.30687681  0.41521131  0.55430837  1
  O  O34  1  0.37837474  0.64038169  0.47376354  1
  O  O35  1  0.37837474  0.85961831  0.97376354  1
  O  O36  1  0.38911144  0.23508952  0.83524659  1
  O  O37  1  0.38911144  0.26491048  0.33524659  1
  O  O38  1  0.52980278  0.56354570  0.80864846  1
  O  O39  1  0.52980278  0.93645430  0.30864846  1
  O  O40  1  0.47019722  0.43645430  0.19135154  1
  O  O41  1  0.47019722  0.06354570  0.69135154  1
  O  O42  1  0.61088856  0.73508952  0.66475341  1
  O  O43  1  0.61088856  0.76491048  0.16475341  1
  O  O44  1  0.62162526  0.14038169  0.02623646  1
  O  O45  1  0.62162526  0.35961831  0.52623646  1
  O  O46  1  0.69312319  0.58478869  0.44569163  1
  O  O47  1  0.69312319  0.91521131  0.94569163  1
  O  O48  1  0.80687681  0.08478869  0.44569163  1
  O  O49  1  0.80687681  0.41521131  0.94569163  1
  O  O50  1  0.87837474  0.64038169  0.02623646  1
  O  O51  1  0.87837474  0.85961831  0.52623646  1
  O  O52  1  0.88911144  0.23508952  0.66475341  1
  O  O53  1  0.88911144  0.26491048  0.16475341  1
  O  O54  1  0.02980278  0.56354570  0.69135154  1
  O  O55  1  0.02980278  0.93645430  0.19135154  1
