# generated using pymatgen
data_V2Sn(PO4)3
_symmetry_space_group_name_H-M   'P 1'
_cell_length_a   8.99633144
_cell_length_b   8.99633105
_cell_length_c   8.99633178
_cell_angle_alpha   57.37077822
_cell_angle_beta   57.37077925
_cell_angle_gamma   57.37077870
_symmetry_Int_Tables_number   1
_chemical_formula_structural   V2Sn(PO4)3
_chemical_formula_sum   'V4 Sn2 P6 O24'
_cell_volume   483.69667698
_cell_formula_units_Z   2
loop_
 _symmetry_equiv_pos_site_id
 _symmetry_equiv_pos_as_xyz
  1  'x, y, z'
loop_
 _atom_site_type_symbol
 _atom_site_label
 _atom_site_symmetry_multiplicity
 _atom_site_fract_x
 _atom_site_fract_y
 _atom_site_fract_z
 _atom_site_occupancy
  V  V0  1  0.14766821  0.14766821  0.14766821  1
  V  V1  1  0.35233179  0.35233179  0.35233179  1
  V  V2  1  0.64766821  0.64766821  0.64766821  1
  V  V3  1  0.85233179  0.85233179  0.85233179  1
  Sn  Sn4  1  0.00000000  0.00000000  0.00000000  1
  Sn  Sn5  1  0.50000000  0.50000000  0.50000000  1
  P  P6  1  0.03641304  0.75000000  0.46358696  1
  P  P7  1  0.46358696  0.03641304  0.75000000  1
  P  P8  1  0.75000000  0.46358696  0.03641304  1
  P  P9  1  0.25000000  0.53641304  0.96358696  1
  P  P10  1  0.53641304  0.96358696  0.25000000  1
  P  P11  1  0.96358696  0.25000000  0.53641304  1
  O  O12  1  0.12763311  0.28639375  0.50770115  1
  O  O13  1  0.28639375  0.50770115  0.12763311  1
  O  O14  1  0.06202638  0.92327099  0.27883722  1
  O  O15  1  0.50770115  0.12763311  0.28639375  1
  O  O16  1  0.00770115  0.78639375  0.62763311  1
  O  O17  1  0.22116278  0.57672901  0.43797362  1
  O  O18  1  0.27883722  0.06202638  0.92327099  1
  O  O19  1  0.43797362  0.22116278  0.57672901  1
  O  O20  1  0.21360625  0.37236689  0.99229885  1
  O  O21  1  0.57672901  0.43797362  0.22116278  1
  O  O22  1  0.07672901  0.72116278  0.93797362  1
  O  O23  1  0.37236689  0.99229885  0.21360625  1
  O  O24  1  0.62763311  0.00770115  0.78639375  1
  O  O25  1  0.92327099  0.27883722  0.06202638  1
  O  O26  1  0.42327099  0.56202638  0.77883722  1
  O  O27  1  0.78639375  0.62763311  0.00770115  1
  O  O28  1  0.56202638  0.77883722  0.42327099  1
  O  O29  1  0.72116278  0.93797362  0.07672901  1
  O  O30  1  0.77883722  0.42327099  0.56202638  1
  O  O31  1  0.99229885  0.21360625  0.37236689  1
  O  O32  1  0.49229885  0.87236689  0.71360625  1
  O  O33  1  0.93797362  0.07672901  0.72116278  1
  O  O34  1  0.71360625  0.49229885  0.87236689  1
  O  O35  1  0.87236689  0.71360625  0.49229885  1
