# generated using pymatgen
data_Li2Si5Ni2O13
_symmetry_space_group_name_H-M   'P 1'
_cell_length_a   7.53701390
_cell_length_b   7.65593693
_cell_length_c   9.77943819
_cell_angle_alpha   83.58276718
_cell_angle_beta   68.15871248
_cell_angle_gamma   71.75091849
_symmetry_Int_Tables_number   1
_chemical_formula_structural   Li2Si5Ni2O13
_chemical_formula_sum   'Li4 Si10 Ni4 O26'
_cell_volume   497.44333255
_cell_formula_units_Z   2
loop_
 _symmetry_equiv_pos_site_id
 _symmetry_equiv_pos_as_xyz
  1  'x, y, z'
loop_
 _atom_site_type_symbol
 _atom_site_label
 _atom_site_symmetry_multiplicity
 _atom_site_fract_x
 _atom_site_fract_y
 _atom_site_fract_z
 _atom_site_occupancy
  Li  Li0  1  0.21105954  0.07132272  0.84938186  1
  Li  Li1  1  0.15512749  0.39988333  0.74043176  1
  Li  Li2  1  0.84487251  0.60011667  0.25956824  1
  Li  Li3  1  0.78894046  0.92867728  0.15061814  1
  Si  Si4  1  0.16487704  0.21651512  0.25704872  1
  Si  Si5  1  0.20827016  0.69274875  0.04752135  1
  Si  Si6  1  0.31115479  0.45374729  0.40574386  1
  Si  Si7  1  0.25047562  0.75706032  0.73138812  1
  Si  Si8  1  0.62043122  0.70800518  0.05187124  1
  Si  Si9  1  0.37956878  0.29199482  0.94812876  1
  Si  Si10  1  0.74952438  0.24293968  0.26861188  1
  Si  Si11  1  0.68884521  0.54625271  0.59425614  1
  Si  Si12  1  0.79172984  0.30725125  0.95247865  1
  Si  Si13  1  0.83512296  0.78348488  0.74295128  1
  Ni  Ni14  1  0.03838717  0.14448555  0.59807377  1
  Ni  Ni15  1  0.41288528  0.83113515  0.40521055  1
  Ni  Ni16  1  0.58711472  0.16886485  0.59478945  1
  Ni  Ni17  1  0.96161283  0.85551445  0.40192623  1
  O  O18  1  0.01404710  0.77571112  0.18931054  1
  O  O19  1  0.16604021  0.04654863  0.37455098  1
  O  O20  1  0.31199886  0.15065493  0.08660676  1
  O  O21  1  0.22081508  0.38892871  0.29620896  1
  O  O22  1  0.06088366  0.68446900  0.74902388  1
  O  O23  1  0.40900235  0.67896478  0.07518827  1
  O  O24  1  0.21807179  0.67659416  0.42881995  1
  O  O25  1  0.28804944  0.31476599  0.54499446  1
  O  O26  1  0.55480502  0.42200382  0.31460958  1
  O  O27  1  0.38337674  0.21498461  0.80002114  1
  O  O28  1  0.20958767  0.49443699  0.99661655  1
  O  O29  1  0.27465664  0.92830450  0.61919521  1
  O  O30  1  0.20912961  0.82726027  0.89925064  1
  O  O31  1  0.79087039  0.17273973  0.10074936  1
  O  O32  1  0.72534336  0.07169550  0.38080479  1
  O  O33  1  0.79041233  0.50556301  0.00338345  1
  O  O34  1  0.61662326  0.78501539  0.19997886  1
  O  O35  1  0.44519498  0.57799618  0.68539042  1
  O  O36  1  0.71195056  0.68523401  0.45500554  1
  O  O37  1  0.78192821  0.32340584  0.57118005  1
  O  O38  1  0.59099765  0.32103522  0.92481173  1
  O  O39  1  0.93911634  0.31553100  0.25097612  1
  O  O40  1  0.77918492  0.61107129  0.70379104  1
  O  O41  1  0.68800114  0.84934507  0.91339324  1
  O  O42  1  0.83395979  0.95345137  0.62544902  1
  O  O43  1  0.98595290  0.22428888  0.81068946  1
