# generated using pymatgen
data_Mg2Al3
_symmetry_space_group_name_H-M   'P 1'
_cell_length_a   6.44470064
_cell_length_b   6.44470064
_cell_length_c   10.63373437
_cell_angle_alpha   107.63973787
_cell_angle_beta   107.63973787
_cell_angle_gamma   90.00000000
_symmetry_Int_Tables_number   1
_chemical_formula_structural   Mg2Al3
_chemical_formula_sum   'Mg8 Al12'
_cell_volume   399.05067538
_cell_formula_units_Z   4
loop_
 _symmetry_equiv_pos_site_id
 _symmetry_equiv_pos_as_xyz
  1  'x, y, z'
loop_
 _atom_site_type_symbol
 _atom_site_label
 _atom_site_symmetry_multiplicity
 _atom_site_fract_x
 _atom_site_fract_y
 _atom_site_fract_z
 _atom_site_occupancy
  Mg  Mg0  1  0.29337191  0.51734509  0.58674382  1
  Mg  Mg1  1  0.29337191  0.06939873  0.58674382  1
  Mg  Mg2  1  0.31939873  0.04337191  0.08674382  1
  Mg  Mg3  1  0.95662809  0.68060127  0.91325618  1
  Mg  Mg4  1  0.95662809  0.23265491  0.91325618  1
  Mg  Mg5  1  0.76734509  0.04337191  0.08674382  1
  Mg  Mg6  1  0.93060127  0.70662809  0.41325618  1
  Mg  Mg7  1  0.48265491  0.70662809  0.41325618  1
  Al  Al8  1  0.80318721  0.09071184  0.60637442  1
  Al  Al9  1  0.80318721  0.51566258  0.60637442  1
  Al  Al10  1  0.76566258  0.55318721  0.10637442  1
  Al  Al11  1  0.44681279  0.23433742  0.89362558  1
  Al  Al12  1  0.44681279  0.65928816  0.89362558  1
  Al  Al13  1  0.34071184  0.55318721  0.10637442  1
  Al  Al14  1  0.48433742  0.19681279  0.39362558  1
  Al  Al15  1  0.90928816  0.19681279  0.39362558  1
  Al  Al16  1  0.12500000  0.37500000  0.25000000  1
  Al  Al17  1  0.12500000  0.87500000  0.25000000  1
  Al  Al18  1  0.12500000  0.87500000  0.75000000  1
  Al  Al19  1  0.62500000  0.87500000  0.75000000  1
