# generated using pymatgen
data_LiNi4(PO4)3
_symmetry_space_group_name_H-M   'P 1'
_cell_length_a   9.00488709
_cell_length_b   6.39909015
_cell_length_c   14.53040973
_cell_angle_alpha   90.00000000
_cell_angle_beta   90.33402204
_cell_angle_gamma   90.00000000
_symmetry_Int_Tables_number   1
_chemical_formula_structural   LiNi4(PO4)3
_chemical_formula_sum   'Li4 Ni16 P12 O48'
_cell_volume   837.27279650
_cell_formula_units_Z   4
loop_
 _symmetry_equiv_pos_site_id
 _symmetry_equiv_pos_as_xyz
  1  'x, y, z'
loop_
 _atom_site_type_symbol
 _atom_site_label
 _atom_site_symmetry_multiplicity
 _atom_site_fract_x
 _atom_site_fract_y
 _atom_site_fract_z
 _atom_site_occupancy
  Li  Li0  1  0.65754248  0.75000000  0.68289302  1
  Li  Li1  1  0.83730565  0.25000000  0.83805303  1
  Li  Li2  1  0.84165720  0.25000000  0.17322511  1
  Li  Li3  1  0.84600090  0.25000000  0.50925989  1
  Ni  Ni4  1  0.99957024  0.50768019  0.66921223  1
  Ni  Ni5  1  0.99108525  0.99909946  0.99885879  1
  Ni  Ni6  1  0.99108525  0.50090054  0.99885879  1
  Ni  Ni7  1  0.00850962  0.00113194  0.33389343  1
  Ni  Ni8  1  0.00850962  0.49886806  0.33389343  1
  Ni  Ni9  1  0.99957024  0.99231981  0.66921223  1
  Ni  Ni10  1  0.14803431  0.75000000  0.14891662  1
  Ni  Ni11  1  0.35488531  0.25000000  0.98834905  1
  Ni  Ni12  1  0.34518760  0.25000000  0.64601048  1
  Ni  Ni13  1  0.50600827  0.00174745  0.16792794  1
  Ni  Ni14  1  0.50600827  0.49825255  0.16792794  1
  Ni  Ni15  1  0.50326579  0.99373470  0.83123278  1
  Ni  Ni16  1  0.50326579  0.50626530  0.83123278  1
  Ni  Ni17  1  0.49245278  0.99649894  0.49804464  1
  Ni  Ni18  1  0.49245278  0.50350106  0.49804464  1
  Ni  Ni19  1  0.64582558  0.75000000  0.35027271  1
  P  P20  1  0.17637510  0.25000000  0.48938023  1
  P  P21  1  0.17970820  0.25000000  0.16230585  1
  P  P22  1  0.17715154  0.25000000  0.82155490  1
  P  P23  1  0.32736800  0.75000000  0.31992480  1
  P  P24  1  0.31503033  0.75000000  0.66547528  1
  P  P25  1  0.31936455  0.75000000  0.99370255  1
  P  P26  1  0.68175444  0.25000000  0.33892947  1
  P  P27  1  0.67568640  0.25000000  0.01006675  1
  P  P28  1  0.68102514  0.25000000  0.67183186  1
  P  P29  1  0.82482747  0.75000000  0.17670396  1
  P  P30  1  0.82107050  0.75000000  0.84071909  1
  P  P31  1  0.82363159  0.75000000  0.50819662  1
  O  O32  1  0.11629676  0.05293624  0.11410712  1
  O  O33  1  0.12331740  0.04905319  0.44538456  1
  O  O34  1  0.11696348  0.04972002  0.78129886  1
  O  O35  1  0.11696348  0.45027998  0.78129886  1
  O  O36  1  0.12331740  0.45094681  0.44538456  1
  O  O37  1  0.11629676  0.44706376  0.11410712  1
  O  O38  1  0.13361058  0.25000000  0.26355037  1
  O  O39  1  0.13118114  0.25000000  0.59664574  1
  O  O40  1  0.14877362  0.25000000  0.93082988  1
  O  O41  1  0.15058914  0.75000000  0.29824706  1
  O  O42  1  0.14454295  0.75000000  0.99284592  1
  O  O43  1  0.14502464  0.75000000  0.65193400  1
  O  O44  1  0.35127653  0.25000000  0.13388892  1
  O  O45  1  0.35411137  0.25000000  0.49416397  1
  O  O46  1  0.35494508  0.25000000  0.80258604  1
  O  O47  1  0.36419137  0.75000000  0.09931487  1
  O  O48  1  0.38062772  0.75000000  0.42310297  1
  O  O49  1  0.37870240  0.75000000  0.76521984  1
  O  O50  1  0.38352838  0.95069966  0.27531388  1
  O  O51  1  0.37827478  0.94686974  0.61621999  1
  O  O52  1  0.37769285  0.94922031  0.94753002  1
  O  O53  1  0.37827478  0.55313026  0.61621999  1
  O  O54  1  0.37769285  0.55077969  0.94753002  1
  O  O55  1  0.38352838  0.54930034  0.27531388  1
  O  O56  1  0.61710325  0.05107932  0.05503490  1
  O  O57  1  0.61845947  0.05198606  0.38490347  1
  O  O58  1  0.61933220  0.05136588  0.71666705  1
  O  O59  1  0.61710325  0.44892068  0.05503490  1
  O  O60  1  0.61845947  0.44801394  0.38490347  1
  O  O61  1  0.61933220  0.44863412  0.71666705  1
  O  O62  1  0.64169000  0.25000000  0.23456221  1
  O  O63  1  0.62716192  0.25000000  0.90510599  1
  O  O64  1  0.63521991  0.25000000  0.56714205  1
  O  O65  1  0.65120706  0.75000000  0.20155570  1
  O  O66  1  0.64682171  0.75000000  0.84846606  1
  O  O67  1  0.64572058  0.75000000  0.51596619  1
  O  O68  1  0.85397557  0.25000000  0.68945366  1
  O  O69  1  0.85157869  0.25000000  0.02477222  1
  O  O70  1  0.85368165  0.25000000  0.35962937  1
  O  O71  1  0.86502572  0.75000000  0.73567875  1
  O  O72  1  0.85997576  0.75000000  0.40089997  1
  O  O73  1  0.87261308  0.75000000  0.07405862  1
  O  O74  1  0.87860695  0.54894020  0.55289255  1
  O  O75  1  0.88470156  0.54850940  0.22138470  1
  O  O76  1  0.87735623  0.54715517  0.88551376  1
  O  O77  1  0.88470156  0.95149060  0.22138470  1
  O  O78  1  0.87860695  0.95105980  0.55289255  1
  O  O79  1  0.87735623  0.95284483  0.88551376  1
