# generated using pymatgen
data_Mg6CdCo
_symmetry_space_group_name_H-M   'P 1'
_cell_length_a   6.13394347
_cell_length_b   6.18055494
_cell_length_c   4.85342354
_cell_angle_alpha   90.00000000
_cell_angle_beta   90.00000000
_cell_angle_gamma   120.25169577
_symmetry_Int_Tables_number   1
_chemical_formula_structural   Mg6CdCo
_chemical_formula_sum   'Mg6 Cd1 Co1'
_cell_volume   158.94211465
_cell_formula_units_Z   1
loop_
 _symmetry_equiv_pos_site_id
 _symmetry_equiv_pos_as_xyz
  1  'x, y, z'
loop_
 _atom_site_type_symbol
 _atom_site_label
 _atom_site_symmetry_multiplicity
 _atom_site_fract_x
 _atom_site_fract_y
 _atom_site_fract_z
 _atom_site_occupancy
  Mg  Mg0  1  0.66730885  0.33230536  0.25000000  1
  Mg  Mg1  1  0.66730885  0.83500249  0.25000000  1
  Mg  Mg2  1  0.32342842  0.17623028  0.75000000  1
  Mg  Mg3  1  0.32342842  0.64719914  0.75000000  1
  Mg  Mg4  1  0.85233552  0.17616826  0.75000000  1
  Mg  Mg5  1  0.83338426  0.66669263  0.75000000  1
  Cd  Cd6  1  0.16681724  0.83340812  0.25000000  1
  Co  Co7  1  0.16598842  0.33299371  0.25000000  1
