# generated using pymatgen
data_Li2Sn(PO3)4
_symmetry_space_group_name_H-M   'P 1'
_cell_length_a   9.16522932
_cell_length_b   9.16522932
_cell_length_c   7.39143712
_cell_angle_alpha   89.09456022
_cell_angle_beta   90.90543978
_cell_angle_gamma   60.60118870
_symmetry_Int_Tables_number   1
_chemical_formula_structural   Li2Sn(PO3)4
_chemical_formula_sum   'Li4 Sn2 P8 O24'
_cell_volume   540.66999587
_cell_formula_units_Z   2
loop_
 _symmetry_equiv_pos_site_id
 _symmetry_equiv_pos_as_xyz
  1  'x, y, z'
loop_
 _atom_site_type_symbol
 _atom_site_label
 _atom_site_symmetry_multiplicity
 _atom_site_fract_x
 _atom_site_fract_y
 _atom_site_fract_z
 _atom_site_occupancy
  Li  Li0  1  0.51369016  0.79861649  0.81776406  1
  Li  Li1  1  0.20138351  0.48630984  0.31776406  1
  Li  Li2  1  0.79861649  0.51369016  0.68223594  1
  Li  Li3  1  0.48630984  0.20138351  0.18223594  1
  Sn  Sn4  1  0.13088657  0.13088657  0.75000000  1
  Sn  Sn5  1  0.86911343  0.86911343  0.25000000  1
  P  P6  1  0.07374796  0.77322427  0.67759502  1
  P  P7  1  0.22677573  0.92625204  0.17759502  1
  P  P8  1  0.21793127  0.45454796  0.88382328  1
  P  P9  1  0.54545204  0.78206873  0.38382328  1
  P  P10  1  0.45454796  0.21793127  0.61617672  1
  P  P11  1  0.78206873  0.54545204  0.11617672  1
  P  P12  1  0.77322427  0.07374796  0.82240498  1
  P  P13  1  0.92625204  0.22677573  0.32240498  1
  O  O14  1  0.15840421  0.87770941  0.65928468  1
  O  O15  1  0.12229059  0.84159579  0.15928468  1
  O  O16  1  0.06584818  0.67941240  0.51482747  1
  O  O17  1  0.32058760  0.93415182  0.01482747  1
  O  O18  1  0.16111907  0.64916868  0.84964979  1
  O  O19  1  0.35083132  0.83888093  0.34964979  1
  O  O20  1  0.08027020  0.41995926  0.82150538  1
  O  O21  1  0.58004074  0.91972980  0.32150538  1
  O  O22  1  0.59108153  0.71056653  0.57374774  1
  O  O23  1  0.88379822  0.88379822  0.75000000  1
  O  O24  1  0.37396070  0.37396070  0.75000000  1
  O  O25  1  0.28943347  0.40891847  0.07374774  1
  O  O26  1  0.71056653  0.59108153  0.92625226  1
  O  O27  1  0.62603930  0.62603930  0.25000000  1
  O  O28  1  0.11620178  0.11620178  0.25000000  1
  O  O29  1  0.40891847  0.28943347  0.42625226  1
  O  O30  1  0.41995926  0.08027020  0.67849462  1
  O  O31  1  0.91972980  0.58004074  0.17849462  1
  O  O32  1  0.64916868  0.16111907  0.65035021  1
  O  O33  1  0.83888093  0.35083132  0.15035021  1
  O  O34  1  0.67941240  0.06584818  0.98517253  1
  O  O35  1  0.93415182  0.32058760  0.48517253  1
  O  O36  1  0.87770941  0.15840421  0.84071532  1
  O  O37  1  0.84159579  0.12229059  0.34071532  1
