# generated using pymatgen
data_Li(BH)5
_symmetry_space_group_name_H-M   'P 1'
_cell_length_a   7.04476413
_cell_length_b   7.04476413
_cell_length_c   14.92533031
_cell_angle_alpha   90.00000000
_cell_angle_beta   90.00000000
_cell_angle_gamma   120.00000084
_symmetry_Int_Tables_number   1
_chemical_formula_structural   Li(BH)5
_chemical_formula_sum   'Li6 B30 H30'
_cell_volume   641.48645806
_cell_formula_units_Z   6
loop_
 _symmetry_equiv_pos_site_id
 _symmetry_equiv_pos_as_xyz
  1  'x, y, z'
loop_
 _atom_site_type_symbol
 _atom_site_label
 _atom_site_symmetry_multiplicity
 _atom_site_fract_x
 _atom_site_fract_y
 _atom_site_fract_z
 _atom_site_occupancy
  Li  Li0  1  0.50000000  0.00000000  0.57423070  1
  Li  Li1  1  0.50000000  0.50000000  0.24089770  1
  Li  Li2  1  0.00000000  0.50000000  0.90756370  1
  Li  Li3  1  0.50000000  0.00000000  0.09244243  1
  Li  Li4  1  0.00000000  0.50000000  0.42577543  1
  Li  Li5  1  0.50000000  0.50000000  0.75910843  1
  B  B6  1  0.30504483  0.65252109  0.66667391  1
  B  B7  1  0.34747626  0.69495517  0.33334091  1
  B  B8  1  0.34747891  0.65252374  0.00000691  1
  B  B9  1  0.69495517  0.34747891  0.66667391  1
  B  B10  1  0.65252109  0.34747626  0.00000691  1
  B  B11  1  0.65252374  0.30504483  0.33334091  1
  B  B12  1  0.12477860  0.73165762  0.63364739  1
  B  B13  1  0.60687903  0.87522140  0.30031439  1
  B  B14  1  0.26834238  0.39312097  0.96698039  1
  B  B15  1  0.87522140  0.26834238  0.63364739  1
  B  B16  1  0.73165762  0.60687903  0.96698039  1
  B  B17  1  0.39312097  0.12477860  0.30031439  1
  B  B18  1  0.39311796  0.26834532  0.03303251  1
  B  B19  1  0.73165468  0.12477264  0.36636551  1
  B  B20  1  0.87522736  0.60688204  0.69969851  1
  B  B21  1  0.60688204  0.73165468  0.03303251  1
  B  B22  1  0.26834532  0.87522736  0.36636551  1
  B  B23  1  0.12477264  0.39311796  0.69969851  1
  B  B24  1  0.12158539  0.49005419  0.58640595  1
  B  B25  1  0.36846880  0.87841461  0.25307295  1
  B  B26  1  0.50994581  0.63153120  0.91973895  1
  B  B27  1  0.87841461  0.50994581  0.58640595  1
  B  B28  1  0.49005419  0.36846880  0.91973895  1
  B  B29  1  0.63153120  0.12158539  0.25307295  1
  B  B30  1  0.63152996  0.50994565  0.08027323  1
  B  B31  1  0.49005435  0.12158431  0.41360623  1
  B  B32  1  0.87841569  0.36847004  0.74693923  1
  B  B33  1  0.36847004  0.49005435  0.08027323  1
  B  B34  1  0.50994565  0.87841569  0.41360623  1
  B  B35  1  0.12158431  0.63152996  0.74693923  1
  H  H36  1  0.50223864  0.75111688  0.66667568  1
  H  H37  1  0.24887825  0.49776136  0.33334268  1
  H  H38  1  0.24888312  0.75112175  0.00000868  1
  H  H39  1  0.49776136  0.24888312  0.66667568  1
  H  H40  1  0.75111688  0.24887825  0.00000868  1
  H  H41  1  0.75112175  0.50223864  0.33334268  1
  H  H42  1  0.18207755  0.91115225  0.60368240  1
  H  H43  1  0.72907471  0.81792245  0.27034940  1
  H  H44  1  0.08884775  0.27092529  0.93701540  1
  H  H45  1  0.81792245  0.08884775  0.60368240  1
  H  H46  1  0.91115225  0.72907471  0.93701540  1
  H  H47  1  0.27092529  0.18207755  0.27034940  1
  H  H48  1  0.27091262  0.08885077  0.06299525  1
  H  H49  1  0.91114923  0.18206185  0.39632825  1
  H  H50  1  0.81793815  0.72908738  0.72966125  1
  H  H51  1  0.72908738  0.91114923  0.06299525  1
  H  H52  1  0.08885077  0.81793815  0.39632825  1
  H  H53  1  0.18206185  0.27091262  0.72966125  1
  H  H54  1  0.19366592  0.46110694  0.51784304  1
  H  H55  1  0.26744102  0.80633408  0.18451004  1
  H  H56  1  0.53889306  0.73255898  0.85117604  1
  H  H57  1  0.80633408  0.53889306  0.51784304  1
  H  H58  1  0.46110694  0.26744102  0.85117604  1
  H  H59  1  0.73255898  0.19366592  0.18451004  1
  H  H60  1  0.73255729  0.53888428  0.14883557  1
  H  H61  1  0.46111572  0.19367301  0.48216857  1
  H  H62  1  0.80632699  0.26744271  0.81550157  1
  H  H63  1  0.26744271  0.46111572  0.14883557  1
  H  H64  1  0.53888428  0.80632699  0.48216857  1
  H  H65  1  0.19367301  0.73255729  0.81550157  1
