# generated using pymatgen
data_MgHg5
_symmetry_space_group_name_H-M   'P 1'
_cell_length_a   3.58069038
_cell_length_b   8.66672723
_cell_length_c   5.07639148
_cell_angle_alpha   90.00000000
_cell_angle_beta   90.00000000
_cell_angle_gamma   78.07818539
_symmetry_Int_Tables_number   1
_chemical_formula_structural   MgHg5
_chemical_formula_sum   'Mg1 Hg5'
_cell_volume   154.13701501
_cell_formula_units_Z   1
loop_
 _symmetry_equiv_pos_site_id
 _symmetry_equiv_pos_as_xyz
  1  'x, y, z'
loop_
 _atom_site_type_symbol
 _atom_site_label
 _atom_site_symmetry_multiplicity
 _atom_site_fract_x
 _atom_site_fract_y
 _atom_site_fract_z
 _atom_site_occupancy
  Mg  Mg0  1  0.77952427  0.44095247  0.49999900  1
  Hg  Hg1  1  0.32557669  0.34884961  0.00000000  1
  Hg  Hg2  1  0.66623858  0.66752383  0.00000000  1
  Hg  Hg3  1  0.00121519  0.99756763  0.00000000  1
  Hg  Hg4  1  0.43979210  0.12041981  0.49999900  1
  Hg  Hg5  1  0.12099118  0.75802165  0.49999900  1
