# generated using pymatgen
data_VCl4
_symmetry_space_group_name_H-M   'P 1'
_cell_length_a   9.48743009
_cell_length_b   6.38220541
_cell_length_c   11.69914701
_cell_angle_alpha   90.00000000
_cell_angle_beta   117.12101711
_cell_angle_gamma   90.00000000
_symmetry_Int_Tables_number   1
_chemical_formula_structural   VCl4
_chemical_formula_sum   'V4 Cl16'
_cell_volume   630.50109261
_cell_formula_units_Z   4
loop_
 _symmetry_equiv_pos_site_id
 _symmetry_equiv_pos_as_xyz
  1  'x, y, z'
loop_
 _atom_site_type_symbol
 _atom_site_label
 _atom_site_symmetry_multiplicity
 _atom_site_fract_x
 _atom_site_fract_y
 _atom_site_fract_z
 _atom_site_occupancy
  V  V0  1  0.80392955  0.83867146  0.61552571  1
  V  V1  1  0.19607145  0.83867146  0.88447429  1
  V  V2  1  0.19626925  0.16146251  0.38502248  1
  V  V3  1  0.80373075  0.16146251  0.11497752  1
  Cl  Cl4  1  0.05104707  0.74124997  0.64650021  1
  Cl  Cl5  1  0.94895293  0.74124997  0.85349979  1
  Cl  Cl6  1  0.05049467  0.25904757  0.14610650  1
  Cl  Cl7  1  0.94950633  0.25904757  0.35389450  1
  Cl  Cl8  1  0.80336521  0.17215835  0.62602980  1
  Cl  Cl9  1  0.19663579  0.17215835  0.87397020  1
  Cl  Cl10  1  0.19663231  0.82782210  0.37408647  1
  Cl  Cl11  1  0.80336869  0.82782210  0.12591453  1
  Cl  Cl12  1  0.70334512  0.77717310  0.40994887  1
  Cl  Cl13  1  0.29665388  0.77717310  0.09005013  1
  Cl  Cl14  1  0.29760526  0.22181481  0.59068814  1
  Cl  Cl15  1  0.70239474  0.22181481  0.90931186  1
  Cl  Cl16  1  0.60323336  0.71213219  0.63670222  1
  Cl  Cl17  1  0.39676664  0.71213219  0.86329778  1
  Cl  Cl18  1  0.39645619  0.28846594  0.36338670  1
  Cl  Cl19  1  0.60354381  0.28846594  0.13661330  1
