# generated using pymatgen
data_Mn4As3
_symmetry_space_group_name_H-M   'P 1'
_cell_length_a   3.53489613
_cell_length_b   6.74080066
_cell_length_c   9.39959332
_cell_angle_alpha   103.35374576
_cell_angle_beta   90.00000000
_cell_angle_gamma   105.20073170
_symmetry_Int_Tables_number   1
_chemical_formula_structural   Mn4As3
_chemical_formula_sum   'Mn8 As6'
_cell_volume   209.85599654
_cell_formula_units_Z   2
loop_
 _symmetry_equiv_pos_site_id
 _symmetry_equiv_pos_as_xyz
  1  'x, y, z'
loop_
 _atom_site_type_symbol
 _atom_site_label
 _atom_site_symmetry_multiplicity
 _atom_site_fract_x
 _atom_site_fract_y
 _atom_site_fract_z
 _atom_site_occupancy
  Mn  Mn0  1  0.21723599  0.43447198  0.16595184  1
  Mn  Mn1  1  0.78276401  0.56552802  0.83404816  1
  Mn  Mn2  1  0.34305777  0.68611554  0.54976668  1
  Mn  Mn3  1  0.65694223  0.31388446  0.45023332  1
  Mn  Mn4  1  0.43216051  0.86432102  0.28763578  1
  Mn  Mn5  1  0.56783949  0.13567898  0.71236422  1
  Mn  Mn6  1  0.00000000  0.00000000  0.50000000  1
  Mn  Mn7  1  0.00000000  0.00000000  0.00000000  1
  As  As8  1  0.06248070  0.12496139  0.27329344  1
  As  As9  1  0.93751930  0.87503861  0.72670656  1
  As  As10  1  0.18652085  0.37304170  0.65341645  1
  As  As11  1  0.81347915  0.62695830  0.34658355  1
  As  As12  1  0.36164714  0.72329428  0.02077011  1
  As  As13  1  0.63835286  0.27670572  0.97922989  1
