# generated using pymatgen
data_NaTlO
_symmetry_space_group_name_H-M   'P 1'
_cell_length_a   3.64919341
_cell_length_b   6.14336691
_cell_length_c   12.80177825
_cell_angle_alpha   90.05316931
_cell_angle_beta   90.00036393
_cell_angle_gamma   90.00110027
_symmetry_Int_Tables_number   1
_chemical_formula_structural   NaTlO
_chemical_formula_sum   'Na4 Tl4 O4'
_cell_volume   286.99441738
_cell_formula_units_Z   4
loop_
 _symmetry_equiv_pos_site_id
 _symmetry_equiv_pos_as_xyz
  1  'x, y, z'
loop_
 _atom_site_type_symbol
 _atom_site_label
 _atom_site_symmetry_multiplicity
 _atom_site_fract_x
 _atom_site_fract_y
 _atom_site_fract_z
 _atom_site_occupancy
  Na  Na0  1  0.99998514  0.66452059  0.59031357  1
  Na  Na1  1  0.99998293  0.67145049  0.91659457  1
  Na  Na2  1  0.50002814  0.83344756  0.07578633  1
  Na  Na3  1  0.50004508  0.16188258  0.91174787  1
  Tl  Tl4  1  -0.00000109  0.33450329  0.38982745  1
  Tl  Tl5  1  0.00002284  0.33347827  0.09557524  1
  Tl  Tl6  1  0.50001463  0.82860868  0.39281272  1
  Tl  Tl7  1  0.50000471  0.16974651  0.62294394  1
  O  O8  1  0.00002716  0.00705399  0.99424177  1
  O  O9  1  0.00003715  0.99671697  0.51088566  1
  O  O10  1  0.49998206  0.50006618  0.98091407  1
  O  O11  1  0.49997226  0.49842488  0.51835782  1
