# generated using pymatgen
data_NaBi3
_symmetry_space_group_name_H-M   'P 1'
_cell_length_a   7.01385300
_cell_length_b   7.01387329
_cell_length_c   5.76035028
_cell_angle_alpha   89.99837249
_cell_angle_beta   90.00138618
_cell_angle_gamma   120.01784265
_symmetry_Int_Tables_number   1
_chemical_formula_structural   NaBi3
_chemical_formula_sum   'Na2 Bi6'
_cell_volume   245.36690693
_cell_formula_units_Z   2
loop_
 _symmetry_equiv_pos_site_id
 _symmetry_equiv_pos_as_xyz
  1  'x, y, z'
loop_
 _atom_site_type_symbol
 _atom_site_label
 _atom_site_symmetry_multiplicity
 _atom_site_fract_x
 _atom_site_fract_y
 _atom_site_fract_z
 _atom_site_occupancy
  Na  Na0  1  0.33333759  0.66666824  0.74999180  1
  Na  Na1  1  0.66666544  0.33333307  0.25000800  1
  Bi  Bi2  1  0.33246356  0.16620690  0.75003494  1
  Bi  Bi3  1  0.83379432  0.66753542  0.75003578  1
  Bi  Bi4  1  0.16625400  0.83374972  0.25004674  1
  Bi  Bi5  1  0.66753245  0.83378863  0.24996392  1
  Bi  Bi6  1  0.16620816  0.33246353  0.24996267  1
  Bi  Bi7  1  0.83374749  0.16625448  0.74995215  1
