# generated using pymatgen
data_LaAl12O19
_symmetry_space_group_name_H-M   'P 1'
_cell_length_a   5.65784311
_cell_length_b   5.65094027
_cell_length_c   22.20266092
_cell_angle_alpha   89.99757606
_cell_angle_beta   90.01327275
_cell_angle_gamma   120.01849092
_symmetry_Int_Tables_number   1
_chemical_formula_structural   LaAl12O19
_chemical_formula_sum   'La2 Al24 O38'
_cell_volume   614.64777205
_cell_formula_units_Z   2
loop_
 _symmetry_equiv_pos_site_id
 _symmetry_equiv_pos_as_xyz
  1  'x, y, z'
loop_
 _atom_site_type_symbol
 _atom_site_label
 _atom_site_symmetry_multiplicity
 _atom_site_fract_x
 _atom_site_fract_y
 _atom_site_fract_z
 _atom_site_occupancy
  La  La0  1  0.34056764  0.67035890  0.74885176  1
  La  La1  1  0.67014171  0.32967921  0.24844941  1
  Al  Al2  1  0.16758106  0.83291928  0.60920279  1
  Al  Al3  1  0.16916841  0.83135011  0.89164065  1
  Al  Al4  1  0.33400683  0.66591120  0.19017415  1
  Al  Al5  1  0.33343303  0.66689858  0.02685808  1
  Al  Al6  1  0.33399878  0.66592323  0.31034758  1
  Al  Al7  1  0.33344614  0.66691288  0.47368509  1
  Al  Al8  1  0.00234645  0.00161082  0.75986575  1
  Al  Al9  1  0.00024527  -0.00000177  0.00021546  1
  Al  Al10  1  0.00117465  0.99851432  0.25992800  1
  Al  Al11  1  0.00022473  0.00003510  0.50018426  1
  Al  Al12  1  0.16760323  0.33482133  0.60921748  1
  Al  Al13  1  0.16917239  0.33794572  0.89159381  1
  Al  Al14  1  0.66263398  0.83137119  0.89179715  1
  Al  Al15  1  0.66567765  0.83289983  0.60897115  1
  Al  Al16  1  0.33440977  0.16689816  0.10914243  1
  Al  Al17  1  0.33778994  0.16863183  0.39176264  1
  Al  Al18  1  0.83128758  0.66214893  0.39174464  1
  Al  Al19  1  0.66800545  0.33405943  0.69060106  1
  Al  Al20  1  0.66796479  0.33404439  0.80997234  1
  Al  Al21  1  0.66658562  0.33310349  0.52681675  1
  Al  Al22  1  0.66664430  0.33314694  0.97372476  1
  Al  Al23  1  0.83302571  0.66548855  0.10914971  1
  Al  Al24  1  0.83299655  0.16695766  0.10889945  1
  Al  Al25  1  0.83130938  0.16859456  0.39194068  1
  O  O26  1  0.15539385  0.84467494  0.05225031  1
  O  O27  1  0.15422473  0.84582711  0.44677072  1
  O  O28  1  0.00932133  0.50466390  0.65058151  1
  O  O29  1  0.00994344  0.50499333  0.84999069  1
  O  O30  1  0.18250209  0.81794189  0.25092399  1
  O  O31  1  0.15431445  0.30850618  0.44680035  1
  O  O32  1  0.00045227  0.00019269  0.84893304  1
  O  O33  1  0.33342172  0.66670126  0.55692618  1
  O  O34  1  0.00015521  0.99994780  0.14824531  1
  O  O35  1  0.00024723  0.99981211  0.34898619  1
  O  O36  1  0.00016612  0.00007878  0.64826046  1
  O  O37  1  0.33344817  0.66675176  0.94364669  1
  O  O38  1  0.49637769  0.99191643  0.65041427  1
  O  O39  1  0.49588479  0.99095378  0.85007338  1
  O  O40  1  0.18002369  0.36159438  0.25096316  1
  O  O41  1  0.15554606  0.31083358  0.05222033  1
  O  O42  1  0.63846919  0.82018549  0.25096612  1
  O  O43  1  0.31060492  0.15537190  0.55232183  1
  O  O44  1  0.30878184  0.15445188  0.94671608  1
  O  O45  1  0.49634399  0.50454286  0.65046412  1
  O  O46  1  0.49588452  0.50499065  0.85004390  1
  O  O47  1  0.50499594  0.49502769  0.35016758  1
  O  O48  1  0.50474164  0.49534114  0.15056717  1
  O  O49  1  0.68940363  0.84455089  0.05222070  1
  O  O50  1  0.69172808  0.84573185  0.44679441  1
  O  O51  1  0.36522593  0.18221324  0.75086098  1
  O  O52  1  0.50502094  0.00895244  0.35026849  1
  O  O53  1  0.66671487  0.33330653  0.44371659  1
  O  O54  1  0.50451703  0.00802130  0.15036380  1
  O  O55  1  0.81803827  0.63757618  0.75088292  1
  O  O56  1  0.66675090  0.33331129  0.05686093  1
  O  O57  1  0.84478441  0.68934699  0.55228387  1
  O  O58  1  0.84571566  0.69121626  0.94674640  1
  O  O59  1  0.81745165  0.18017037  0.75087248  1
  O  O60  1  0.99199806  0.49554289  0.15038066  1
  O  O61  1  0.99101299  0.49499420  0.35024849  1
  O  O62  1  0.84484631  0.15528470  0.55228612  1
  O  O63  1  0.84582734  0.15435542  0.94673977  1
