# generated using pymatgen
data_TlFeSe2
_symmetry_space_group_name_H-M   'P 1'
_cell_length_a   5.49649274
_cell_length_b   6.97611936
_cell_length_c   6.94504738
_cell_angle_alpha   116.08171439
_cell_angle_beta   90.00000000
_cell_angle_gamma   113.20054139
_symmetry_Int_Tables_number   1
_chemical_formula_structural   TlFeSe2
_chemical_formula_sum   'Tl2 Fe2 Se4'
_cell_volume   214.94870821
_cell_formula_units_Z   2
loop_
 _symmetry_equiv_pos_site_id
 _symmetry_equiv_pos_as_xyz
  1  'x, y, z'
loop_
 _atom_site_type_symbol
 _atom_site_label
 _atom_site_symmetry_multiplicity
 _atom_site_fract_x
 _atom_site_fract_y
 _atom_site_fract_z
 _atom_site_occupancy
  Fe  Fe0  1  0.24850667  0.00000000  0.00000000  1
  Fe  Fe1  1  0.75149333  0.00000000  0.00000000  1
  Se  Se2  1  0.53565892  0.07131783  0.29267446  1
  Se  Se3  1  0.46434108  0.92868217  0.70732554  1
  Se  Se4  1  0.16459255  0.32918509  0.08813194  1
  Se  Se5  1  0.83540745  0.67081491  0.91186806  1
  Tl  Tl6  1  0.81338478  0.62676956  0.36147683  1
  Tl  Tl7  1  0.18661522  0.37323044  0.63852317  1
