# generated using pymatgen
data_H8PdC2NCl3
_symmetry_space_group_name_H-M   'P 1'
_cell_length_a   7.23444385
_cell_length_b   7.76366294
_cell_length_c   7.76366294
_cell_angle_alpha   118.42277044
_cell_angle_beta   90.19925004
_cell_angle_gamma   90.19925004
_symmetry_Int_Tables_number   1
_chemical_formula_structural   H8PdC2NCl3
_chemical_formula_sum   'H16 Pd2 C4 N2 Cl6'
_cell_volume   383.48140218
_cell_formula_units_Z   2
loop_
 _symmetry_equiv_pos_site_id
 _symmetry_equiv_pos_as_xyz
  1  'x, y, z'
loop_
 _atom_site_type_symbol
 _atom_site_label
 _atom_site_symmetry_multiplicity
 _atom_site_fract_x
 _atom_site_fract_y
 _atom_site_fract_z
 _atom_site_occupancy
  H  H0  1  0.16711542  0.56121449  0.08876387  1
  H  H1  1  0.00036363  0.50040583  0.22322541  1
  H  H2  1  0.46159556  0.71740183  0.24866890  1
  H  H3  1  0.03840344  0.75133210  0.28259917  1
  H  H4  1  0.31023893  0.49099589  0.33016044  1
  H  H5  1  0.33288358  0.91123513  0.43878451  1
  H  H6  1  0.81023793  0.33016144  0.49099689  1
  H  H7  1  0.50036263  0.22322541  0.50040583  1
  H  H8  1  0.49963737  0.77677459  0.49959417  1
  H  H9  1  0.18976207  0.66983856  0.50900311  1
  H  H10  1  0.66711642  0.08876487  0.56121549  1
  H  H11  1  0.68976207  0.50900411  0.66983956  1
  H  H12  1  0.96159656  0.24866790  0.71740083  1
  H  H13  1  0.53840344  0.28259917  0.75133210  1
  H  H14  1  -0.00036363  0.49959417  0.77677459  1
  H  H15  1  0.83288358  0.43878551  0.91123613  1
  Pd  Pd16  1  0.49999900  0.99999900  0.99999900  1
  Pd  Pd17  1  0.00000000  0.00000000  0.00000000  1
  C  C18  1  0.10302796  0.60844084  0.23136204  1
  C  C19  1  0.39697104  0.76863796  0.39155916  1
  C  C20  1  0.60302896  0.23136304  0.60844184  1
  C  C21  1  0.89697104  0.39155916  0.76863896  1
  N  N22  1  0.25000000  0.62647575  0.37352325  1
  N  N23  1  0.75000100  0.37352425  0.62647675  1
  Cl  Cl24  1  0.75000100  0.89014635  0.10985465  1
  Cl  Cl25  1  0.60492002  0.32277640  0.17934002  1
  Cl  Cl26  1  0.10491902  0.17933902  0.32277540  1
  Cl  Cl27  1  0.89508098  0.82066098  0.67722460  1
  Cl  Cl28  1  0.39507998  0.67722360  0.82065998  1
  Cl  Cl29  1  0.25000000  0.10985365  0.89014535  1
