# generated using pymatgen
data_Pm5Mg
_symmetry_space_group_name_H-M   'P 1'
_cell_length_a   3.70566728
_cell_length_b   9.33546104
_cell_length_c   5.82263277
_cell_angle_alpha   90.00000000
_cell_angle_beta   90.00000000
_cell_angle_gamma   78.55234236
_symmetry_Int_Tables_number   1
_chemical_formula_structural   Pm5Mg
_chemical_formula_sum   'Pm5 Mg1'
_cell_volume   197.42167453
_cell_formula_units_Z   1
loop_
 _symmetry_equiv_pos_site_id
 _symmetry_equiv_pos_as_xyz
  1  'x, y, z'
loop_
 _atom_site_type_symbol
 _atom_site_label
 _atom_site_symmetry_multiplicity
 _atom_site_fract_x
 _atom_site_fract_y
 _atom_site_fract_z
 _atom_site_occupancy
  Pm  Pm0  1  0.99426401  0.01147298  0.00000000  1
  Pm  Pm1  1  0.32531546  0.34936607  0.00000000  1
  Pm  Pm2  1  0.66529595  0.66940810  0.00000000  1
  Pm  Pm3  1  0.44546598  0.10906505  0.50000000  1
  Pm  Pm4  1  0.12142162  0.75715377  0.50000000  1
  Mg  Mg5  1  0.78156699  0.43686603  0.50000000  1
