# generated using pymatgen
data_Ca(CoO2)4
_symmetry_space_group_name_H-M   'P 1'
_cell_length_a   2.90871989
_cell_length_b   6.49868059
_cell_length_c   6.87008482
_cell_angle_alpha   82.52020096
_cell_angle_beta   77.77929544
_cell_angle_gamma   77.06739536
_symmetry_Int_Tables_number   1
_chemical_formula_structural   Ca(CoO2)4
_chemical_formula_sum   'Ca1 Co4 O8'
_cell_volume   123.23359715
_cell_formula_units_Z   1
loop_
 _symmetry_equiv_pos_site_id
 _symmetry_equiv_pos_as_xyz
  1  'x, y, z'
loop_
 _atom_site_type_symbol
 _atom_site_label
 _atom_site_symmetry_multiplicity
 _atom_site_fract_x
 _atom_site_fract_y
 _atom_site_fract_z
 _atom_site_occupancy
  Ca  Ca0  1  0.46801563  0.01273902  0.05137001  1
  Co  Co1  1  0.62789081  0.18240631  0.56194026  1
  Co  Co2  1  0.14958339  0.48815571  0.21278205  1
  Co  Co3  1  0.82117708  0.50642878  0.85131932  1
  Co  Co4  1  0.34307893  0.81210606  0.50195975  1
  O  O5  1  0.84919000  0.67510349  0.62676795  1
  O  O6  1  0.43984777  0.33685141  0.78354652  1
  O  O7  1  0.53190633  0.65632132  0.27997442  1
  O  O8  1  0.12023608  0.32081992  0.43879665  1
  O  O9  1  0.14338079  0.02126496  0.69216272  1
  O  O10  1  0.78592466  0.33067301  0.09757145  1
  O  O11  1  0.82984989  0.97424105  0.36616616  1
  O  O12  1  0.18740065  0.65899495  0.96628875  1
