# generated using pymatgen
data_LiVP2(HO4)2
_symmetry_space_group_name_H-M   'P 1'
_cell_length_a   8.05555631
_cell_length_b   18.56351866
_cell_length_c   8.05609809
_cell_angle_alpha   102.71966847
_cell_angle_beta   60.06070291
_cell_angle_gamma   102.68828292
_symmetry_Int_Tables_number   1
_chemical_formula_structural   LiVP2(HO4)2
_chemical_formula_sum   'Li6 V6 P12 H12 O48'
_cell_volume   1009.70194305
_cell_formula_units_Z   6
loop_
 _symmetry_equiv_pos_site_id
 _symmetry_equiv_pos_as_xyz
  1  'x, y, z'
loop_
 _atom_site_type_symbol
 _atom_site_label
 _atom_site_symmetry_multiplicity
 _atom_site_fract_x
 _atom_site_fract_y
 _atom_site_fract_z
 _atom_site_occupancy
  Li  Li0  1  0.24155236  0.75015107  0.25315703  1
  Li  Li1  1  0.19497797  0.58433286  0.19384823  1
  Li  Li2  1  0.69436017  0.08431922  0.69390598  1
  Li  Li3  1  0.30569955  0.91566948  0.30604263  1
  Li  Li4  1  0.80527010  0.41569058  0.80607882  1
  Li  Li5  1  0.75798590  0.24989820  0.74700912  1
  V  V6  1  0.99984766  0.99997491  0.00002891  1
  V  V7  1  0.08638480  0.26048550  0.08721691  1
  V  V8  1  0.41289805  0.23960252  0.41354346  1
  V  V9  1  0.49991010  0.49999766  0.50004078  1
  V  V10  1  0.58716872  0.76035239  0.58641762  1
  V  V11  1  0.91362461  0.73952524  0.91287135  1
  P  P12  1  0.25589463  0.86062488  0.68371071  1
  P  P13  1  0.24424736  0.63829181  0.57896161  1
  P  P14  1  0.31502361  0.13851089  0.07902605  1
  P  P15  1  0.42116301  0.36112996  0.18444507  1
  P  P16  1  0.07895313  0.13863003  0.74436794  1
  P  P17  1  0.18370413  0.36081080  0.75607899  1
  P  P18  1  0.81631888  0.63915179  0.24382040  1
  P  P19  1  0.92094817  0.86136919  0.25573225  1
  P  P20  1  0.57888827  0.63890413  0.81556143  1
  P  P21  1  0.68486118  0.86142750  0.92103084  1
  P  P22  1  0.75585223  0.36176229  0.42104113  1
  P  P23  1  0.74405542  0.13935670  0.31633456  1
  H  H24  1  0.09608323  0.64016351  0.97636914  1
  H  H25  1  0.97639155  0.63859616  0.56768855  1
  H  H26  1  0.06783991  0.13886063  0.47620555  1
  H  H27  1  0.52301305  0.85920987  0.40388430  1
  H  H28  1  0.56777428  0.64021166  0.09506356  1
  H  H29  1  0.40532935  0.86049211  0.93213328  1
  H  H30  1  0.59470512  0.13948466  0.06772712  1
  H  H31  1  0.47686452  0.14078887  0.59626706  1
  H  H32  1  0.43228928  0.35983843  0.90490272  1
  H  H33  1  0.93228756  0.86109277  0.52377762  1
  H  H34  1  0.02391388  0.36149875  0.43215116  1
  H  H35  1  0.90395831  0.35973801  0.02345097  1
  O  O36  1  0.02489517  0.80379289  0.08246034  1
  O  O37  1  0.03214701  0.86964593  0.38446195  1
  O  O38  1  0.04811031  0.63167573  0.11576408  1
  O  O39  1  0.08270017  0.80265869  0.69576106  1
  O  O40  1  0.11547852  0.62972343  0.46803440  1
  O  O41  1  0.45377357  0.86941073  0.03200856  1
  O  O42  1  0.20514611  0.93707931  0.78738749  1
  O  O43  1  0.20622328  0.33381532  0.24114727  1
  O  O44  1  0.11401867  0.66642556  0.79341488  1
  O  O45  1  0.38376347  0.86787649  0.45188989  1
  O  O46  1  0.46784981  0.63128486  0.04676493  1
  O  O47  1  0.21151287  0.06145543  0.05550863  1
  O  O48  1  0.29332398  0.56146421  0.55766183  1
  O  O49  1  0.41781944  0.69564488  0.47554646  1
  O  O50  1  0.69850669  0.80400238  0.02322111  1
  O  O51  1  0.25881325  0.16603701  0.29384627  1
  O  O52  1  0.38671458  0.83312316  0.74021909  1
  O  O53  1  0.19543107  0.30293318  0.58265836  1
  O  O54  1  0.44532447  0.43812846  0.28783097  1
  O  O55  1  0.05806139  0.06203461  0.79328286  1
  O  O56  1  0.28793703  0.43732677  0.70625214  1
  O  O57  1  0.52338388  0.30354895  0.19777181  1
  O  O58  1  0.70666096  0.83307441  0.38587839  1
  O  O59  1  0.75991390  0.66696762  0.11338448  1
  O  O60  1  0.24015665  0.33298990  0.88648776  1
  O  O61  1  0.29325486  0.16695048  0.61425260  1
  O  O62  1  0.47664011  0.69649440  0.80229857  1
  O  O63  1  0.71200903  0.56266255  0.29380680  1
  O  O64  1  0.94184561  0.93796395  0.20676151  1
  O  O65  1  0.55451721  0.56190940  0.71217506  1
  O  O66  1  0.80465298  0.69703172  0.41713800  1
  O  O67  1  0.61337121  0.16688889  0.25962294  1
  O  O68  1  0.74123724  0.83389950  0.70620164  1
  O  O69  1  0.58240621  0.30433420  0.52439616  1
  O  O70  1  0.30141975  0.19601182  0.97697644  1
  O  O71  1  0.70652019  0.43853543  0.44238405  1
  O  O72  1  0.78824286  0.93852367  0.94458733  1
  O  O73  1  0.53219309  0.36874324  0.95320756  1
  O  O74  1  0.61613974  0.13213519  0.54814916  1
  O  O75  1  0.88613846  0.33361296  0.20656206  1
  O  O76  1  0.79382354  0.66615483  0.75882383  1
  O  O77  1  0.79463055  0.06288541  0.21264453  1
  O  O78  1  0.88481893  0.37041634  0.53182954  1
  O  O79  1  0.54614502  0.13051229  0.96795014  1
  O  O80  1  0.91724874  0.19731857  0.30439916  1
  O  O81  1  0.96785711  0.13036230  0.61555128  1
  O  O82  1  0.95185485  0.36818439  0.88405620  1
  O  O83  1  0.97502540  0.19620452  0.91768463  1
