# generated using pymatgen
data_Fe4OF7
_symmetry_space_group_name_H-M   'P 1'
_cell_length_a   6.53727102
_cell_length_b   6.68309812
_cell_length_c   7.61096280
_cell_angle_alpha   90.00000000
_cell_angle_beta   115.43355724
_cell_angle_gamma   90.00000000
_symmetry_Int_Tables_number   1
_chemical_formula_structural   Fe4OF7
_chemical_formula_sum   'Fe8 O2 F14'
_cell_volume   300.29080557
_cell_formula_units_Z   2
loop_
 _symmetry_equiv_pos_site_id
 _symmetry_equiv_pos_as_xyz
  1  'x, y, z'
loop_
 _atom_site_type_symbol
 _atom_site_label
 _atom_site_symmetry_multiplicity
 _atom_site_fract_x
 _atom_site_fract_y
 _atom_site_fract_z
 _atom_site_occupancy
  Fe  Fe0  1  0.49908202  0.99316980  0.99816405  1
  Fe  Fe1  1  0.00015532  0.02533825  0.00031064  1
  Fe  Fe2  1  0.75874917  0.49156031  0.00004734  1
  Fe  Fe3  1  0.24129816  0.49156031  0.00004734  1
  Fe  Fe4  1  0.49125083  0.99156031  0.49995266  1
  Fe  Fe5  1  0.00870184  0.99156031  0.49995266  1
  Fe  Fe6  1  0.75091798  0.49316980  0.50183595  1
  Fe  Fe7  1  0.24984468  0.52533825  0.49968936  1
  O  O8  1  -0.00043007  0.29882187  -0.00086014  1
  O  O9  1  0.25043007  0.79882187  0.50086014  1
  F  F10  1  0.33693554  0.99851920  0.19280504  1
  F  F11  1  0.85586950  0.99851920  0.19280504  1
  F  F12  1  0.49964413  0.29386807  0.99928727  1
  F  F13  1  0.50043724  0.69248826  0.00087449  1
  F  F14  1  0.74956276  0.19248826  0.49912551  1
  F  F15  1  0.25051966  0.22027122  0.50103833  1
  F  F16  1  0.99948034  0.72027122  0.99896167  1
  F  F17  1  0.66576772  0.99794176  0.80626110  1
  F  F18  1  0.14049338  0.99794176  0.80626110  1
  F  F19  1  0.39413050  0.49851920  0.30719496  1
  F  F20  1  0.91306446  0.49851920  0.30719496  1
  F  F21  1  0.10950662  0.49794176  0.69373890  1
  F  F22  1  0.58423228  0.49794176  0.69373890  1
  F  F23  1  0.75035587  0.79386807  0.50071273  1
