# generated using pymatgen
data_CaCu3P3O13
_symmetry_space_group_name_H-M   'P 1'
_cell_length_a   6.22587158
_cell_length_b   7.57733195
_cell_length_c   10.22152171
_cell_angle_alpha   100.09553711
_cell_angle_beta   90.00000000
_cell_angle_gamma   90.00000000
_symmetry_Int_Tables_number   1
_chemical_formula_structural   CaCu3P3O13
_chemical_formula_sum   'Ca2 Cu6 P6 O26'
_cell_volume   474.73928858
_cell_formula_units_Z   2
loop_
 _symmetry_equiv_pos_site_id
 _symmetry_equiv_pos_as_xyz
  1  'x, y, z'
loop_
 _atom_site_type_symbol
 _atom_site_label
 _atom_site_symmetry_multiplicity
 _atom_site_fract_x
 _atom_site_fract_y
 _atom_site_fract_z
 _atom_site_occupancy
  Ca  Ca0  1  0.75000000  0.66264932  0.19484202  1
  Ca  Ca1  1  0.25000000  0.33735068  0.80515798  1
  Cu  Cu2  1  0.25000000  0.35100535  0.20164050  1
  Cu  Cu3  1  0.75000000  0.64899465  0.79835950  1
  Cu  Cu4  1  0.25000000  0.76513374  0.43543398  1
  Cu  Cu5  1  0.50000000  0.00000000  0.00000000  1
  Cu  Cu6  1  0.75000000  0.23486626  0.56456602  1
  Cu  Cu7  1  0.00000000  0.00000000  0.00000000  1
  P  P8  1  0.25000000  0.20952610  0.48369534  1
  P  P9  1  0.75000000  0.79047390  0.51630466  1
  P  P10  1  0.25000000  0.74298954  0.75979914  1
  P  P11  1  0.75000000  0.25701046  0.24020086  1
  P  P12  1  0.75000000  0.31235872  0.88714841  1
  P  P13  1  0.25000000  0.68764128  0.11285159  1
  O  O14  1  0.75000000  0.36460199  0.74418185  1
  O  O15  1  0.56084454  0.75263085  0.41337344  1
  O  O16  1  0.25000000  0.80309868  0.62575947  1
  O  O17  1  0.54359274  0.20560770  0.90226543  1
  O  O18  1  0.75000000  0.64677216  0.60582909  1
  O  O19  1  0.75000000  0.88051716  0.90816124  1
  O  O20  1  0.25000000  0.35322784  0.39417091  1
  O  O21  1  0.04359274  0.79439230  0.09773457  1
  O  O22  1  0.25000000  0.02469153  0.39791743  1
  O  O23  1  0.75000000  0.97530847  0.60208257  1
  O  O24  1  0.06151500  0.62126779  0.78884700  1
  O  O25  1  0.25000000  0.11948284  0.09183876  1
  O  O26  1  0.56151500  0.37873221  0.21115300  1
  O  O27  1  0.75000000  0.50224637  0.97000646  1
  O  O28  1  0.75000000  0.19690132  0.37424053  1
  O  O29  1  0.45640726  0.79439230  0.09773457  1
  O  O30  1  0.93915546  0.75263085  0.41337344  1
  O  O31  1  0.43915546  0.24736915  0.58662656  1
  O  O32  1  0.43848500  0.62126779  0.78884700  1
  O  O33  1  0.25000000  0.63539801  0.25581815  1
  O  O34  1  0.75000000  0.08055504  0.13348626  1
  O  O35  1  0.25000000  0.91944496  0.86651374  1
  O  O36  1  0.93848500  0.37873221  0.21115300  1
  O  O37  1  0.95640726  0.20560770  0.90226543  1
  O  O38  1  0.06084454  0.24736915  0.58662656  1
  O  O39  1  0.25000000  0.49775363  0.02999354  1
