# generated using pymatgen
data_KCaBr3
_symmetry_space_group_name_H-M   'P 1'
_cell_length_a   5.71630720
_cell_length_b   5.72165695
_cell_length_c   5.72152658
_cell_angle_alpha   89.88657008
_cell_angle_beta   89.81620644
_cell_angle_gamma   89.98026199
_symmetry_Int_Tables_number   1
_chemical_formula_structural   KCaBr3
_chemical_formula_sum   'K1 Ca1 Br3'
_cell_volume   187.13119242
_cell_formula_units_Z   1
loop_
 _symmetry_equiv_pos_site_id
 _symmetry_equiv_pos_as_xyz
  1  'x, y, z'
loop_
 _atom_site_type_symbol
 _atom_site_label
 _atom_site_symmetry_multiplicity
 _atom_site_fract_x
 _atom_site_fract_y
 _atom_site_fract_z
 _atom_site_occupancy
  K  K0  1  0.00008241  0.99854945  0.99753273  1
  Ca  Ca1  1  0.48311869  0.49793591  0.49266832  1
  Br  Br2  1  0.48484100  0.99874787  0.49555575  1
  Br  Br3  1  0.98384102  0.50712437  0.50976640  1
  Br  Br4  1  0.48811788  0.49764140  0.99447881  1
