# generated using pymatgen
data_CaMn4O8
_symmetry_space_group_name_H-M   'P 1'
_cell_length_a   6.60825057
_cell_length_b   6.60825037
_cell_length_c   6.60825125
_cell_angle_alpha   53.90730074
_cell_angle_beta   53.90729650
_cell_angle_gamma   53.90730157
_symmetry_Int_Tables_number   1
_chemical_formula_structural   CaMn4O8
_chemical_formula_sum   'Ca1 Mn4 O8'
_cell_volume   175.00489809
_cell_formula_units_Z   1
loop_
 _symmetry_equiv_pos_site_id
 _symmetry_equiv_pos_as_xyz
  1  'x, y, z'
loop_
 _atom_site_type_symbol
 _atom_site_label
 _atom_site_symmetry_multiplicity
 _atom_site_fract_x
 _atom_site_fract_y
 _atom_site_fract_z
 _atom_site_occupancy
  Ca  Ca0  1  0.50000000  0.50000100  0.49999900  1
  Mn  Mn1  1  0.50000100  0.99999900  0.50000100  1
  Mn  Mn2  1  0.99999900  0.50000000  0.50000100  1
  Mn  Mn3  1  0.50000000  0.50000000  0.00000000  1
  Mn  Mn4  1  0.00000000  0.00000000  0.00000000  1
  O  O5  1  0.75853540  0.30143589  0.75853540  1
  O  O6  1  0.24146360  0.24146460  0.69856411  1
  O  O7  1  0.24146360  0.69856511  0.24146360  1
  O  O8  1  0.69856311  0.24146460  0.24146460  1
  O  O9  1  0.27495916  0.27496016  0.27495916  1
  O  O10  1  0.72504084  0.72504084  0.72504084  1
  O  O11  1  0.30143689  0.75853640  0.75853540  1
  O  O12  1  0.75853640  0.75853640  0.30143589  1
