# generated using pymatgen
data_Zn3Cu2(AsO4)4
_symmetry_space_group_name_H-M   'P 1'
_cell_length_a   10.09459041
_cell_length_b   5.44540435
_cell_length_c   6.97865326
_cell_angle_alpha   68.51444638
_cell_angle_beta   87.91490218
_cell_angle_gamma   67.73489495
_symmetry_Int_Tables_number   1
_chemical_formula_structural   Zn3Cu2(AsO4)4
_chemical_formula_sum   'Zn3 Cu2 As4 O16'
_cell_volume   327.99564739
_cell_formula_units_Z   1
loop_
 _symmetry_equiv_pos_site_id
 _symmetry_equiv_pos_as_xyz
  1  'x, y, z'
loop_
 _atom_site_type_symbol
 _atom_site_label
 _atom_site_symmetry_multiplicity
 _atom_site_fract_x
 _atom_site_fract_y
 _atom_site_fract_z
 _atom_site_occupancy
  Zn  Zn0  1  0.10517962  0.27361404  0.17021999  1
  Zn  Zn1  1  0.61680092  0.25769994  0.18542537  1
  Zn  Zn2  1  0.38611288  0.74802090  0.80969995  1
  Cu  Cu3  1  0.24818731  0.50082465  0.50315996  1
  Cu  Cu4  1  0.75338797  0.50211371  0.50008355  1
  As  As5  1  0.43264239  0.84337202  0.27592288  1
  As  As6  1  0.93331779  0.83409453  0.27787750  1
  As  As7  1  0.06484141  0.15662762  0.73114460  1
  As  As8  1  0.57535124  0.14246163  0.73108692  1
  O  O9  1  0.13709299  0.30112656  0.49571399  1
  O  O10  1  0.63402839  0.30993248  0.49427328  1
  O  O11  1  0.36382794  0.69887600  0.50679282  1
  O  O12  1  0.86327799  0.69766640  0.51023575  1
  O  O13  1  0.18387880  0.80660671  0.84161643  1
  O  O14  1  0.67582110  0.79559358  0.85386045  1
  O  O15  1  0.31699426  0.18866817  0.15336760  1
  O  O16  1  0.81934003  0.18473046  0.15741877  1
  O  O17  1  0.05142638  0.34506599  0.87995146  1
  O  O18  1  0.54471145  0.35427317  0.87654119  1
  O  O19  1  0.09591987  0.85704820  0.34508031  1
  O  O20  1  0.59616568  0.85806380  0.34291710  1
  O  O21  1  0.40451601  0.14902013  0.65477549  1
  O  O22  1  0.90336713  0.15770643  0.64369629  1
  O  O23  1  0.45406250  0.64365356  0.12522310  1
  O  O24  1  0.95329094  0.64910534  0.12288524  1
