# generated using pymatgen
data_ZnAgF5
_symmetry_space_group_name_H-M   'P 1'
_cell_length_a   5.53575924
_cell_length_b   5.50455914
_cell_length_c   8.00070865
_cell_angle_alpha   99.19431792
_cell_angle_beta   105.96769231
_cell_angle_gamma   110.34991762
_symmetry_Int_Tables_number   1
_chemical_formula_structural   ZnAgF5
_chemical_formula_sum   'Zn2 Ag2 F10'
_cell_volume   210.75232536
_cell_formula_units_Z   2
loop_
 _symmetry_equiv_pos_site_id
 _symmetry_equiv_pos_as_xyz
  1  'x, y, z'
loop_
 _atom_site_type_symbol
 _atom_site_label
 _atom_site_symmetry_multiplicity
 _atom_site_fract_x
 _atom_site_fract_y
 _atom_site_fract_z
 _atom_site_occupancy
  Zn  Zn0  1  0.26255388  0.51716869  0.74640979  1
  Zn  Zn1  1  0.74033295  0.48753802  0.25334263  1
  Ag  Ag2  1  0.00190782  0.00381907  -0.00078147  1
  Ag  Ag3  1  0.50086545  0.00016599  0.49984574  1
  F  F4  1  0.43376548  0.18314456  0.25027865  1
  F  F5  1  0.57090900  0.82149958  0.74864274  1
  F  F6  1  0.59316487  0.72889212  0.36822235  1
  F  F7  1  0.86186086  0.22573486  0.13250950  1
  F  F8  1  0.77070833  0.67721435  0.06481857  1
  F  F9  1  0.11263790  0.70104719  0.43984140  1
  F  F10  1  0.23561395  0.33134813  0.93545529  1
  F  F11  1  0.88884573  0.30112434  0.56088580  1
  F  F12  1  0.14190137  0.78084681  0.86612609  1
  F  F13  1  0.40738142  0.27514429  0.63104493  1
