# generated using pymatgen
data_P2H19S6N5O2
_symmetry_space_group_name_H-M   'P 1'
_cell_length_a   7.32153576
_cell_length_b   12.58919618
_cell_length_c   17.90467428
_cell_angle_alpha   90.00000000
_cell_angle_beta   98.11330632
_cell_angle_gamma   90.00000000
_symmetry_Int_Tables_number   1
_chemical_formula_structural   P2H19S6N5O2
_chemical_formula_sum   'P8 H76 S24 N20 O8'
_cell_volume   1633.79596915
_cell_formula_units_Z   4
loop_
 _symmetry_equiv_pos_site_id
 _symmetry_equiv_pos_as_xyz
  1  'x, y, z'
loop_
 _atom_site_type_symbol
 _atom_site_label
 _atom_site_symmetry_multiplicity
 _atom_site_fract_x
 _atom_site_fract_y
 _atom_site_fract_z
 _atom_site_occupancy
  P  P0  1  0.75786939  0.24878123  0.05983625  1
  P  P1  1  0.24213061  0.75121877  0.94016375  1
  P  P2  1  0.24213061  0.74878123  0.44016375  1
  P  P3  1  0.75786939  0.25121877  0.55983625  1
  P  P4  1  0.28883582  0.74298674  0.07053384  1
  P  P5  1  0.71116418  0.25701326  0.92946616  1
  P  P6  1  0.71116418  0.24298674  0.42946616  1
  P  P7  1  0.28883582  0.75701326  0.57053384  1
  H  H8  1  0.04564438  0.57673988  0.73033827  1
  H  H9  1  0.95435562  0.42326012  0.26966173  1
  H  H10  1  0.95435562  0.07673988  0.76966173  1
  H  H11  1  0.04564438  0.92326012  0.23033827  1
  H  H12  1  0.39652903  0.10052002  0.05745510  1
  H  H13  1  0.60347097  0.89947998  0.94254490  1
  H  H14  1  0.60347097  0.60052002  0.44254490  1
  H  H15  1  0.39652903  0.39947998  0.55745510  1
  H  H16  1  0.21510705  0.01819062  0.06648577  1
  H  H17  1  0.78489295  0.98180938  0.93351423  1
  H  H18  1  0.78489295  0.51819062  0.43351423  1
  H  H19  1  0.21510705  0.48180938  0.56648577  1
  H  H20  1  0.28379690  0.44932924  0.24688562  1
  H  H21  1  0.71620310  0.55067076  0.75311438  1
  H  H22  1  0.71620310  0.94932924  0.25311438  1
  H  H23  1  0.28379690  0.05067076  0.74688562  1
  H  H24  1  0.08772784  0.07761751  0.43363475  1
  H  H25  1  0.91227216  0.92238249  0.56636525  1
  H  H26  1  0.91227216  0.57761751  0.06636525  1
  H  H27  1  0.08772784  0.42238249  0.93363475  1
  H  H28  1  0.48781977  0.42567384  0.21596772  1
  H  H29  1  0.51218023  0.57432616  0.78403228  1
  H  H30  1  0.51218023  0.92567384  0.28403228  1
  H  H31  1  0.48781977  0.07432616  0.71596772  1
  H  H32  1  0.12939138  0.66971660  0.29225433  1
  H  H33  1  0.87060862  0.33028340  0.70774567  1
  H  H34  1  0.87060862  0.16971660  0.20774567  1
  H  H35  1  0.12939138  0.83028340  0.79225433  1
  H  H36  1  0.50822615  0.21676635  0.18476562  1
  H  H37  1  0.49177385  0.78323365  0.81523438  1
  H  H38  1  0.49177385  0.71676635  0.31523438  1
  H  H39  1  0.50822615  0.28323365  0.68476562  1
  H  H40  1  0.44243574  0.19922127  0.26485001  1
  H  H41  1  0.55756426  0.80077873  0.73514999  1
  H  H42  1  0.55756426  0.69922127  0.23514999  1
  H  H43  1  0.44243574  0.30077873  0.76485001  1
  H  H44  1  0.18474175  0.15413284  0.06669953  1
  H  H45  1  0.81525825  0.84586716  0.93330047  1
  H  H46  1  0.81525825  0.65413284  0.43330047  1
  H  H47  1  0.18474175  0.34586716  0.56669953  1
  H  H48  1  0.99186930  0.09162117  0.27291068  1
  H  H49  1  0.00813070  0.90837883  0.72708932  1
  H  H50  1  0.00813070  0.59162117  0.22708932  1
  H  H51  1  0.99186930  0.40837883  0.77291068  1
  H  H52  1  0.27690876  0.99991123  0.42135776  1
  H  H53  1  0.72309124  0.00008877  0.57864224  1
  H  H54  1  0.72309124  0.49991123  0.07864224  1
  H  H55  1  0.27690876  0.50008877  0.92135776  1
  H  H56  1  0.30397196  0.13355966  0.43846048  1
  H  H57  1  0.69602804  0.86644034  0.56153952  1
  H  H58  1  0.69602804  0.63355966  0.06153952  1
  H  H59  1  0.30397196  0.36644034  0.93846048  1
  H  H60  1  0.53935498  0.03530254  0.22990807  1
  H  H61  1  0.46064502  0.96469746  0.77009193  1
  H  H62  1  0.46064502  0.53530254  0.27009193  1
  H  H63  1  0.53935498  0.46469746  0.72990807  1
  H  H64  1  0.08216654  0.71382491  0.19930064  1
  H  H65  1  0.91783346  0.28617509  0.80069936  1
  H  H66  1  0.91783346  0.21382491  0.30069936  1
  H  H67  1  0.08216654  0.78617509  0.69930064  1
  H  H68  1  0.46461760  0.40718429  0.30831192  1
  H  H69  1  0.53538240  0.59281571  0.69168808  1
  H  H70  1  0.53538240  0.90718429  0.19168808  1
  H  H71  1  0.46461760  0.09281571  0.80831192  1
  H  H72  1  0.25277927  0.04620955  0.50570869  1
  H  H73  1  0.74722073  0.95379045  0.49429131  1
  H  H74  1  0.74722073  0.54620955  0.99429131  1
  H  H75  1  0.25277927  0.45379045  0.00570869  1
  H  H76  1  0.21787474  0.41003088  0.48752959  1
  H  H77  1  0.78212526  0.58996912  0.51247041  1
  H  H78  1  0.78212526  0.91003088  0.01247041  1
  H  H79  1  0.21787474  0.08996912  0.98752959  1
  H  H80  1  0.00592055  0.90863038  0.31509739  1
  H  H81  1  0.99407945  0.09136962  0.68490261  1
  H  H82  1  0.99407945  0.40863038  0.18490261  1
  H  H83  1  0.00592055  0.59136962  0.81509739  1
  S  S84  1  0.73127716  0.09578129  0.09118213  1
  S  S85  1  0.26872284  0.90421871  0.90881787  1
  S  S86  1  0.26872284  0.59578129  0.40881787  1
  S  S87  1  0.73127716  0.40421871  0.59118213  1
  S  S88  1  0.22661190  0.59182482  0.09632091  1
  S  S89  1  0.77338810  0.40817518  0.90367909  1
  S  S90  1  0.77338810  0.09182482  0.40367909  1
  S  S91  1  0.22661190  0.90817518  0.59632091  1
  S  S92  1  0.44118769  0.28150022  0.39898446  1
  S  S93  1  0.55881231  0.71849978  0.60101554  1
  S  S94  1  0.55881231  0.78150022  0.10101554  1
  S  S95  1  0.44118769  0.21849978  0.89898446  1
  S  S96  1  0.02188631  0.30183380  0.09359428  1
  S  S97  1  0.97811369  0.69816620  0.90640572  1
  S  S98  1  0.97811369  0.80183380  0.40640572  1
  S  S99  1  0.02188631  0.19816620  0.59359428  1
  S  S100  1  0.56478806  0.34584888  0.09552226  1
  S  S101  1  0.43521194  0.65415112  0.90447774  1
  S  S102  1  0.43521194  0.84584888  0.40447774  1
  S  S103  1  0.56478806  0.15415112  0.59552226  1
  S  S104  1  0.11434998  0.85116519  0.10890385  1
  S  S105  1  0.88565002  0.14883481  0.89109615  1
  S  S106  1  0.88565002  0.35116519  0.39109615  1
  S  S107  1  0.11434998  0.64883481  0.60890385  1
  N  N108  1  0.42632199  0.45433145  0.26045582  1
  N  N109  1  0.57367801  0.54566855  0.73954418  1
  N  N110  1  0.57367801  0.95433145  0.23954418  1
  N  N111  1  0.42632199  0.04566855  0.76045582  1
  N  N112  1  0.97088307  0.17293986  0.25658237  1
  N  N113  1  0.02911693  0.82706014  0.74341763  1
  N  N114  1  0.02911693  0.67293986  0.24341763  1
  N  N115  1  0.97088307  0.32706014  0.75658237  1
  N  N116  1  0.22979598  0.06552974  0.44897304  1
  N  N117  1  0.77020402  0.93447026  0.55102696  1
  N  N118  1  0.77020402  0.56552974  0.05102696  1
  N  N119  1  0.22979598  0.43447026  0.94897304  1
  N  N120  1  0.25398485  0.09075353  0.04527442  1
  N  N121  1  0.74601515  0.90924647  0.95472558  1
  N  N122  1  0.74601515  0.59075353  0.45472558  1
  N  N123  1  0.25398485  0.40924647  0.54527442  1
  N  N124  1  0.13481936  0.22086174  0.24182947  1
  N  N125  1  0.86518064  0.77913826  0.75817053  1
  N  N126  1  0.86518064  0.72086174  0.25817053  1
  N  N127  1  0.13481936  0.27913826  0.74182947  1
  O  O128  1  0.01291365  0.45745625  0.22968770  1
  O  O129  1  0.98708635  0.54254375  0.77031230  1
  O  O130  1  0.98708635  0.95745625  0.27031230  1
  O  O131  1  0.01291365  0.04254375  0.72968770  1
  O  O132  1  0.51619373  0.16834625  0.22852848  1
  O  O133  1  0.48380627  0.83165375  0.77147152  1
  O  O134  1  0.48380627  0.66834625  0.27147152  1
  O  O135  1  0.51619373  0.33165375  0.72852848  1
