# generated using pymatgen
data_CaFeF4
_symmetry_space_group_name_H-M   'P 1'
_cell_length_a   5.50640513
_cell_length_b   5.50033944
_cell_length_c   6.64876464
_cell_angle_alpha   114.39837282
_cell_angle_beta   114.49733135
_cell_angle_gamma   89.99017471
_symmetry_Int_Tables_number   1
_chemical_formula_structural   CaFeF4
_chemical_formula_sum   'Ca2 Fe2 F8'
_cell_volume   163.28376882
_cell_formula_units_Z   2
loop_
 _symmetry_equiv_pos_site_id
 _symmetry_equiv_pos_as_xyz
  1  'x, y, z'
loop_
 _atom_site_type_symbol
 _atom_site_label
 _atom_site_symmetry_multiplicity
 _atom_site_fract_x
 _atom_site_fract_y
 _atom_site_fract_z
 _atom_site_occupancy
  Ca  Ca0  1  0.25219061  0.25177715  0.50302249  1
  Ca  Ca1  1  0.75114660  0.75049548  0.50082696  1
  Fe  Fe2  1  0.99828086  0.50395907  0.00105225  1
  Fe  Fe3  1  0.49855644  0.99820776  0.00257081  1
  F  F4  1  0.94307823  0.44300878  0.25986026  1
  F  F5  1  0.68516537  0.18224096  0.74304589  1
  F  F6  1  0.06167906  0.56253040  0.74469889  1
  F  F7  1  0.18492079  0.05935989  0.74366002  1
  F  F8  1  0.31842282  0.81849449  0.25754593  1
  F  F9  1  0.44208088  0.31780848  0.26103285  1
  F  F10  1  0.82061918  0.94326996  0.26079702  1
  F  F11  1  0.56463714  0.68356958  0.74695263  1
