# generated using pymatgen
data_Ca2Bi3O8
_symmetry_space_group_name_H-M   'P 1'
_cell_length_a   5.81278957
_cell_length_b   6.80154118
_cell_length_c   6.82089407
_cell_angle_alpha   119.90618906
_cell_angle_beta   108.39679370
_cell_angle_gamma   89.99999616
_symmetry_Int_Tables_number   1
_chemical_formula_structural   Ca2Bi3O8
_chemical_formula_sum   'Ca2 Bi3 O8'
_cell_volume   217.71867949
_cell_formula_units_Z   1
loop_
 _symmetry_equiv_pos_site_id
 _symmetry_equiv_pos_as_xyz
  1  'x, y, z'
loop_
 _atom_site_type_symbol
 _atom_site_label
 _atom_site_symmetry_multiplicity
 _atom_site_fract_x
 _atom_site_fract_y
 _atom_site_fract_z
 _atom_site_occupancy
  Ca  Ca0  1  0.64437860  0.72077746  0.44155391  1
  Ca  Ca1  1  0.35562040  0.27922354  0.55844609  1
  Bi  Bi2  1  0.50000000  0.99999900  0.00000000  1
  Bi  Bi3  1  0.99999900  0.73744297  0.00000000  1
  Bi  Bi4  1  0.99999900  0.26255703  1.00000000  1
  O  O5  1  0.08629837  0.39586855  0.79173809  1
  O  O6  1  0.91370163  0.60413045  0.20826191  1
  O  O7  1  0.05877938  0.89137638  0.78275276  1
  O  O8  1  0.94122062  0.10862262  0.21724624  1
  O  O9  1  0.38652240  0.35446963  0.24159085  1
  O  O10  1  0.38652240  0.88712123  0.24159085  1
  O  O11  1  0.61347860  0.11287777  0.75840915  1
  O  O12  1  0.61347860  0.64553037  0.75840915  1
