# generated using pymatgen
data_ZnFe2(PO4)2
_symmetry_space_group_name_H-M   'P 1'
_cell_length_a   5.04189746
_cell_length_b   8.61869055
_cell_length_c   15.15196830
_cell_angle_alpha   87.15418230
_cell_angle_beta   80.45135665
_cell_angle_gamma   72.94719948
_symmetry_Int_Tables_number   1
_chemical_formula_structural   ZnFe2(PO4)2
_chemical_formula_sum   'Zn4 Fe8 P8 O32'
_cell_volume   620.75280379
_cell_formula_units_Z   4
loop_
 _symmetry_equiv_pos_site_id
 _symmetry_equiv_pos_as_xyz
  1  'x, y, z'
loop_
 _atom_site_type_symbol
 _atom_site_label
 _atom_site_symmetry_multiplicity
 _atom_site_fract_x
 _atom_site_fract_y
 _atom_site_fract_z
 _atom_site_occupancy
  Zn  Zn0  1  0.45703518  0.82616567  0.85575423  1
  Zn  Zn1  1  0.13788683  0.67351922  0.64381384  1
  Zn  Zn2  1  0.86170743  0.32520356  0.35759347  1
  Zn  Zn3  1  0.54542263  0.17470329  0.14190909  1
  Fe  Fe4  1  0.21202942  0.21961331  0.96664549  1
  Fe  Fe5  1  0.39840366  0.28024630  0.53301739  1
  Fe  Fe6  1  0.78901972  0.78000999  0.03356418  1
  Fe  Fe7  1  0.49573526  0.50457490  0.00197986  1
  Fe  Fe8  1  0.60160689  0.71975968  0.46621349  1
  Fe  Fe9  1  0.55113029  0.74970862  0.25018116  1
  Fe  Fe10  1  0.45007613  0.25013319  0.74981811  1
  Fe  Fe11  1  0.00155569  0.99707887  0.49851543  1
  P  P12  1  0.07145272  0.56602218  0.86007765  1
  P  P13  1  0.77349457  0.43125843  0.61529935  1
  P  P14  1  0.92970180  0.43358706  0.14104142  1
  P  P15  1  0.17997063  0.92996972  0.11598304  1
  P  P16  1  0.50452407  0.06657488  0.35870176  1
  P  P17  1  0.49744451  0.93382225  0.63982268  1
  P  P18  1  0.22531189  0.56979012  0.38388310  1
  P  P19  1  0.82089136  0.06853152  0.88455512  1
  O  O20  1  0.70593980  0.37123262  0.10413766  1
  O  O21  1  0.71890302  0.91677864  0.91889463  1
  O  O22  1  0.82170932  0.87001982  0.60419319  1
  O  O23  1  0.81092276  0.28062347  0.55647904  1
  O  O24  1  0.19697946  0.39463476  0.06687765  1
  O  O25  1  0.66273526  0.41016307  0.71348727  1
  O  O26  1  0.64860457  0.21872225  0.94361226  1
  O  O27  1  0.86497534  0.96477128  0.10310199  1
  O  O28  1  0.18779780  0.72150435  0.44204298  1
  O  O29  1  0.55385268  0.58288285  0.58076368  1
  O  O30  1  0.82832558  0.62372357  0.14606540  1
  O  O31  1  0.57823639  0.14743409  0.27066674  1
  O  O32  1  0.28293800  0.08056298  0.08049299  1
  O  O33  1  0.06682495  0.46585580  0.60286989  1
  O  O34  1  0.29572674  0.62991746  0.89583103  1
  O  O35  1  0.17497844  0.37601072  0.85445604  1
  O  O36  1  0.00018822  0.64766586  0.77242391  1
  O  O37  1  0.35275482  0.77790283  0.05808122  1
  O  O38  1  0.40510145  0.12393254  0.64541701  1
  O  O39  1  0.42024027  0.85201248  0.72737449  1
  O  O40  1  0.93217506  0.53511341  0.39647911  1
  O  O41  1  0.34588851  0.89667287  0.56464917  1
  O  O42  1  0.13655446  0.03368152  0.89695617  1
  O  O43  1  0.21335754  0.90980882  0.21415751  1
  O  O44  1  0.44384026  0.41886229  0.41917706  1
  O  O45  1  0.18131165  0.12955501  0.39569569  1
  O  O46  1  0.99645118  0.35204171  0.22894224  1
  O  O47  1  0.65886396  0.10532844  0.43285343  1
  O  O48  1  0.80708154  0.60353839  0.93511182  1
  O  O49  1  0.78687449  0.09027462  0.78638752  1
  O  O50  1  0.33693041  0.59010271  0.28573534  1
  O  O51  1  0.59756137  0.87635998  0.35396404  1
