# generated using pymatgen
data_ZnMoF5
_symmetry_space_group_name_H-M   'P 1'
_cell_length_a   5.55572614
_cell_length_b   5.54369479
_cell_length_c   7.89881922
_cell_angle_alpha   99.45867834
_cell_angle_beta   110.35732783
_cell_angle_gamma   105.70491570
_symmetry_Int_Tables_number   1
_chemical_formula_structural   ZnMoF5
_chemical_formula_sum   'Zn2 Mo2 F10'
_cell_volume   210.36968690
_cell_formula_units_Z   2
loop_
 _symmetry_equiv_pos_site_id
 _symmetry_equiv_pos_as_xyz
  1  'x, y, z'
loop_
 _atom_site_type_symbol
 _atom_site_label
 _atom_site_symmetry_multiplicity
 _atom_site_fract_x
 _atom_site_fract_y
 _atom_site_fract_z
 _atom_site_occupancy
  Zn  Zn0  1  0.24712030  0.49556679  0.75106861  1
  Zn  Zn1  1  0.75079475  0.49845819  0.24899275  1
  Mo  Mo2  1  0.00241242  0.99935549  -0.00018519  1
  Mo  Mo3  1  0.49909276  -0.00291718  0.50033278  1
  F  F4  1  0.36513925  0.11195663  0.25014194  1
  F  F5  1  0.63955964  0.88577947  0.75037016  1
  F  F6  1  0.58269055  0.69992210  0.35824354  1
  F  F7  1  0.84101902  0.21612549  0.14289401  1
  F  F8  1  0.76573684  0.67500228  0.04658008  1
  F  F9  1  0.13170757  0.70512198  0.45165229  1
  F  F10  1  0.24383051  0.32513165  0.95706651  1
  F  F11  1  0.86546186  0.28738663  0.55035644  1
  F  F12  1  0.16461615  0.78478045  0.85592164  1
  F  F13  1  0.41844539  0.29848703  0.64114545  1
