# generated using pymatgen
data_YTiO3
_symmetry_space_group_name_H-M   'P 1'
_cell_length_a   6.09302946
_cell_length_b   6.09302914
_cell_length_c   12.01893955
_cell_angle_alpha   90.00000000
_cell_angle_beta   90.00000000
_cell_angle_gamma   120.00000173
_symmetry_Int_Tables_number   1
_chemical_formula_structural   YTiO3
_chemical_formula_sum   'Y6 Ti6 O18'
_cell_volume   386.42330281
_cell_formula_units_Z   6
loop_
 _symmetry_equiv_pos_site_id
 _symmetry_equiv_pos_as_xyz
  1  'x, y, z'
loop_
 _atom_site_type_symbol
 _atom_site_label
 _atom_site_symmetry_multiplicity
 _atom_site_fract_x
 _atom_site_fract_y
 _atom_site_fract_z
 _atom_site_occupancy
  Y  Y0  1  0.66666700  0.33333300  0.23165171  1
  Y  Y1  1  0.33333300  0.66666700  0.73165171  1
  Y  Y2  1  0.66666700  0.33333300  0.73165171  1
  Y  Y3  1  0.33333300  0.66666700  0.23165171  1
  Y  Y4  1  0.00000000  0.00000000  0.77943970  1
  Y  Y5  1  0.00000000  0.00000000  0.27943970  1
  Ti  Ti6  1  0.66565153  0.00000000  0.50138359  1
  Ti  Ti7  1  0.66565153  0.66565153  0.00138359  1
  Ti  Ti8  1  1.00000000  0.33434847  0.00138359  1
  Ti  Ti9  1  0.00000000  0.66565153  0.50138359  1
  Ti  Ti10  1  0.33434847  0.33434847  0.50138359  1
  Ti  Ti11  1  0.33434847  0.00000000  0.00138359  1
  O  O12  1  0.66666700  0.33333300  0.02056763  1
  O  O13  1  0.33333300  0.66666700  0.52056763  1
  O  O14  1  0.66666700  0.33333300  0.52056763  1
  O  O15  1  0.33333300  0.66666700  0.02056763  1
  O  O16  1  0.00000000  0.00000000  0.97648842  1
  O  O17  1  0.00000000  0.00000000  0.47648842  1
  O  O18  1  0.36058211  0.00000000  0.83792132  1
  O  O19  1  0.36058211  0.36058211  0.33792132  1
  O  O20  1  0.00000000  0.63941789  0.33792132  1
  O  O21  1  1.00000000  0.36058211  0.83792132  1
  O  O22  1  0.63941789  0.63941789  0.83792132  1
  O  O23  1  0.63941789  0.00000000  0.33792132  1
  O  O24  1  0.30511614  0.00000000  0.16557282  1
  O  O25  1  0.30511614  0.30511614  0.66557282  1
  O  O26  1  1.00000000  0.69488386  0.66557282  1
  O  O27  1  0.00000000  0.30511614  0.16557282  1
  O  O28  1  0.69488386  0.69488386  0.16557282  1
  O  O29  1  0.69488386  0.00000000  0.66557282  1
