# generated using pymatgen
data_Mg6CdGa
_symmetry_space_group_name_H-M   'P 1'
_cell_length_a   6.29390254
_cell_length_b   6.29390205
_cell_length_c   5.08350985
_cell_angle_alpha   90.00000000
_cell_angle_beta   90.00000000
_cell_angle_gamma   120.55713010
_symmetry_Int_Tables_number   1
_chemical_formula_structural   Mg6CdGa
_chemical_formula_sum   'Mg6 Cd1 Ga1'
_cell_volume   173.40782091
_cell_formula_units_Z   1
loop_
 _symmetry_equiv_pos_site_id
 _symmetry_equiv_pos_as_xyz
  1  'x, y, z'
loop_
 _atom_site_type_symbol
 _atom_site_label
 _atom_site_symmetry_multiplicity
 _atom_site_fract_x
 _atom_site_fract_y
 _atom_site_fract_z
 _atom_site_occupancy
  Mg  Mg0  1  0.16743466  0.83983731  0.25000000  1
  Mg  Mg1  1  0.66016269  0.33256534  0.25000000  1
  Mg  Mg2  1  0.66695874  0.83304126  0.25000000  1
  Mg  Mg3  1  0.33408751  0.66435469  0.75000000  1
  Mg  Mg4  1  0.83564531  0.16591249  0.75000000  1
  Mg  Mg5  1  0.83297093  0.66702907  0.75000000  1
  Cd  Cd6  1  0.16313913  0.33686087  0.25000000  1
  Ga  Ga7  1  0.33960103  0.16039897  0.75000000  1
