# generated using pymatgen
data_KThN5O17
_symmetry_space_group_name_H-M   'P 1'
_cell_length_a   10.07443576
_cell_length_b   10.79880136
_cell_length_c   13.18861604
_cell_angle_alpha   90.00000000
_cell_angle_beta   90.00000000
_cell_angle_gamma   100.49500594
_symmetry_Int_Tables_number   1
_chemical_formula_structural   KThN5O17
_chemical_formula_sum   'K4 Th4 N20 O68'
_cell_volume   1410.81037884
_cell_formula_units_Z   4
loop_
 _symmetry_equiv_pos_site_id
 _symmetry_equiv_pos_as_xyz
  1  'x, y, z'
loop_
 _atom_site_type_symbol
 _atom_site_label
 _atom_site_symmetry_multiplicity
 _atom_site_fract_x
 _atom_site_fract_y
 _atom_site_fract_z
 _atom_site_occupancy
  K  K0  1  0.87454583  0.80216723  0.59557833  1
  K  K1  1  0.12545417  0.19783277  0.40442167  1
  K  K2  1  0.62545417  0.69783277  0.09557833  1
  K  K3  1  0.37454583  0.30216723  0.90442167  1
  Th  Th4  1  0.10505238  0.75269578  0.16363640  1
  Th  Th5  1  0.89494762  0.24730422  0.83636360  1
  Th  Th6  1  0.39494762  0.74730422  0.66363640  1
  Th  Th7  1  0.60505238  0.25269578  0.33636360  1
  N  N8  1  0.21119656  0.89939197  0.55009505  1
  N  N9  1  0.78880344  0.10060803  0.44990495  1
  N  N10  1  0.28880344  0.60060803  0.05009505  1
  N  N11  1  0.71119656  0.39939197  0.94990495  1
  N  N12  1  0.55233524  0.98063254  0.26254760  1
  N  N13  1  0.44766476  0.01936746  0.73745240  1
  N  N14  1  0.94766476  0.51936746  0.76254760  1
  N  N15  1  0.05233524  0.48063254  0.23745240  1
  N  N16  1  0.51863242  0.51219779  0.31790181  1
  N  N17  1  0.48136758  0.48780221  0.68209819  1
  N  N18  1  0.98136758  0.98780221  0.81790181  1
  N  N19  1  0.01863242  0.01219779  0.18209819  1
  N  N20  1  0.87816183  0.74000739  0.32181011  1
  N  N21  1  0.12183817  0.25999261  0.67818989  1
  N  N22  1  0.62183817  0.75999261  0.82181011  1
  N  N23  1  0.37816183  0.24000739  0.17818989  1
  N  N24  1  0.27714861  0.94442698  0.02376884  1
  N  N25  1  0.72285139  0.05557302  0.97623116  1
  N  N26  1  0.22285139  0.55557302  0.52376884  1
  N  N27  1  0.77714861  0.44442698  0.47623116  1
  O  O28  1  0.99710860  0.72426879  0.34686687  1
  O  O29  1  0.00289140  0.27573121  0.65313313  1
  O  O30  1  0.50289140  0.77573121  0.84686687  1
  O  O31  1  0.49710860  0.22426879  0.15313313  1
  O  O32  1  0.06671242  0.96005612  0.25866858  1
  O  O33  1  0.93328758  0.03994388  0.74133142  1
  O  O34  1  0.43328758  0.53994388  0.75866858  1
  O  O35  1  0.56671242  0.46005612  0.24133142  1
  O  O36  1  0.16641548  0.55544123  0.25046054  1
  O  O37  1  0.83358452  0.44455877  0.74953946  1
  O  O38  1  0.33358452  0.94455877  0.75046054  1
  O  O39  1  0.66641548  0.05544123  0.24953946  1
  O  O40  1  0.13284478  0.96179848  0.51155298  1
  O  O41  1  0.86715522  0.03820152  0.48844702  1
  O  O42  1  0.36715522  0.53820152  0.01155298  1
  O  O43  1  0.63284478  0.46179848  0.98844702  1
  O  O44  1  0.85603856  0.74759266  0.22555138  1
  O  O45  1  0.14396144  0.25240734  0.77444862  1
  O  O46  1  0.64396144  0.75240734  0.72555138  1
  O  O47  1  0.35603856  0.24759266  0.27444862  1
  O  O48  1  0.26797767  0.81186075  0.30929728  1
  O  O49  1  0.73202233  0.18813925  0.69070272  1
  O  O50  1  0.23202233  0.68813925  0.80929728  1
  O  O51  1  0.76797767  0.31186075  0.19070272  1
  O  O52  1  0.65278883  0.97410816  0.02769262  1
  O  O53  1  0.34721117  0.02589184  0.97230738  1
  O  O54  1  0.84721117  0.52589184  0.52769262  1
  O  O55  1  0.15278883  0.47410816  0.47230738  1
  O  O56  1  0.33418476  0.69654633  0.10693475  1
  O  O57  1  0.66581524  0.30345367  0.89306525  1
  O  O58  1  0.16581524  0.80345367  0.60693475  1
  O  O59  1  0.83418476  0.19654633  0.39306525  1
  O  O60  1  0.79057391  0.74929675  0.38479575  1
  O  O61  1  0.20942609  0.25070325  0.61520425  1
  O  O62  1  0.70942609  0.75070325  0.88479575  1
  O  O63  1  0.29057391  0.24929675  0.11520425  1
  O  O64  1  0.96031346  0.52769657  0.19232464  1
  O  O65  1  0.03968654  0.47230343  0.80767536  1
  O  O66  1  0.53968654  0.97230343  0.69232464  1
  O  O67  1  0.46031346  0.02769657  0.30767536  1
  O  O68  1  0.33854102  0.92527164  0.53728396  1
  O  O69  1  0.66145898  0.07472836  0.46271604  1
  O  O70  1  0.16145898  0.57472836  0.03728396  1
  O  O71  1  0.83854102  0.42527164  0.96271604  1
  O  O72  1  0.94586647  0.70262904  0.03325009  1
  O  O73  1  0.05413353  0.29737096  0.96674991  1
  O  O74  1  0.55413353  0.79737096  0.53325009  1
  O  O75  1  0.44586647  0.20262904  0.46674991  1
  O  O76  1  0.27656298  0.95053305  0.12178033  1
  O  O77  1  0.72343702  0.04946695  0.87821967  1
  O  O78  1  0.22343702  0.54946695  0.62178033  1
  O  O79  1  0.77656298  0.45053305  0.37821967  1
  O  O80  1  0.99398973  0.94427074  0.10176048  1
  O  O81  1  0.00601027  0.05572926  0.89823952  1
  O  O82  1  0.50601027  0.55572926  0.60176048  1
  O  O83  1  0.49398973  0.44427074  0.39823952  1
  O  O84  1  0.29970168  0.65127241  0.48477031  1
  O  O85  1  0.70029832  0.34872759  0.51522969  1
  O  O86  1  0.20029832  0.84872759  0.98477031  1
  O  O87  1  0.79970168  0.15127241  0.01522969  1
  O  O88  1  0.53305047  0.87028374  0.23359747  1
  O  O89  1  0.46694953  0.12971626  0.76640253  1
  O  O90  1  0.96694953  0.62971626  0.73359747  1
  O  O91  1  0.03305047  0.37028374  0.26640253  1
  O  O92  1  0.00046020  0.87909138  0.81397930  1
  O  O93  1  0.99953980  0.12090862  0.18602070  1
  O  O94  1  0.49953980  0.62090862  0.31397930  1
  O  O95  1  0.50046020  0.37909138  0.68602070  1
