# generated using pymatgen
data_Ca3Ti2(Si2O7)2
_symmetry_space_group_name_H-M   'P 1'
_cell_length_a   7.76684197
_cell_length_b   9.47993019
_cell_length_c   9.75767858
_cell_angle_alpha   63.35993244
_cell_angle_beta   66.54765575
_cell_angle_gamma   65.81736275
_symmetry_Int_Tables_number   1
_chemical_formula_structural   Ca3Ti2(Si2O7)2
_chemical_formula_sum   'Ca6 Ti4 Si8 O28'
_cell_volume   565.22907499
_cell_formula_units_Z   2
loop_
 _symmetry_equiv_pos_site_id
 _symmetry_equiv_pos_as_xyz
  1  'x, y, z'
loop_
 _atom_site_type_symbol
 _atom_site_label
 _atom_site_symmetry_multiplicity
 _atom_site_fract_x
 _atom_site_fract_y
 _atom_site_fract_z
 _atom_site_occupancy
  Ca  Ca0  1  0.83631125  0.93573362  0.46439308  1
  Ca  Ca1  1  0.23643795  0.56426638  0.03560692  1
  Ca  Ca2  1  0.76356205  0.43573362  0.96439308  1
  Ca  Ca3  1  0.64981291  0.25000000  0.75000000  1
  Ca  Ca4  1  0.16368875  0.06426638  0.53560692  1
  Ca  Ca5  1  0.35018709  0.75000000  0.25000000  1
  Ti  Ti6  1  0.19728499  0.25000000  0.75000000  1
  Ti  Ti7  1  0.80271501  0.75000000  0.25000000  1
  Ti  Ti8  1  0.00000000  0.00000000  0.00000000  1
  Ti  Ti9  1  0.00000000  0.50000000  0.50000000  1
  Si  Si10  1  0.46694748  0.30108278  0.34459199  1
  Si  Si11  1  0.88737675  0.80108278  0.84459199  1
  Si  Si12  1  0.47017462  0.89300515  0.85444681  1
  Si  Si13  1  0.78237442  0.39300515  0.35444681  1
  Si  Si14  1  0.11262325  0.19891722  0.15540801  1
  Si  Si15  1  0.52982538  0.10699485  0.14555319  1
  Si  Si16  1  0.21762558  0.60699485  0.64555319  1
  Si  Si17  1  0.53305252  0.69891722  0.65540801  1
  O  O18  1  0.12266044  0.67180238  0.49743988  1
  O  O19  1  0.04450618  0.58089109  0.27069675  1
  O  O20  1  0.54014433  0.91905592  0.18769811  1
  O  O21  1  0.10390597  0.08089109  0.77069675  1
  O  O22  1  0.72978642  0.69494508  0.50716100  1
  O  O23  1  0.94805233  0.37153830  0.18506268  1
  O  O24  1  0.35310064  0.41905592  0.68769811  1
  O  O25  1  0.93189251  0.80505492  0.99283900  1
  O  O26  1  0.05194767  0.62846170  0.81493732  1
  O  O27  1  0.34083063  0.74275358  0.59134993  1
  O  O28  1  0.95549382  0.41910891  0.72930325  1
  O  O29  1  0.27021358  0.30505492  0.49283900  1
  O  O30  1  0.50465431  0.12846170  0.31493732  1
  O  O31  1  0.70809631  0.17180238  0.99743988  1
  O  O32  1  0.32506586  0.24275358  0.09134993  1
  O  O33  1  0.06810749  0.19494508  0.00716100  1
  O  O34  1  0.10481046  0.04546881  0.32010770  1
  O  O35  1  0.65916937  0.25724642  0.40865007  1
  O  O36  1  0.47038596  0.45453119  0.17989230  1
  O  O37  1  0.67493414  0.75724642  0.90865007  1
  O  O38  1  0.49534569  0.87153830  0.68506268  1
  O  O39  1  0.89609403  0.91910891  0.22930325  1
  O  O40  1  0.52961404  0.54546881  0.82010770  1
  O  O41  1  0.45985567  0.08094408  0.81230189  1
  O  O42  1  0.89518954  0.95453119  0.67989230  1
  O  O43  1  0.64689936  0.58094408  0.31230189  1
  O  O44  1  0.29190369  0.82819762  0.00256012  1
  O  O45  1  0.87733956  0.32819762  0.50256012  1
