# generated using pymatgen
data_Ca2Cr3O8
_symmetry_space_group_name_H-M   'P 1'
_cell_length_a   5.04584608
_cell_length_b   6.01811471
_cell_length_c   6.32661074
_cell_angle_alpha   118.39967330
_cell_angle_beta   107.62630078
_cell_angle_gamma   89.99999693
_symmetry_Int_Tables_number   1
_chemical_formula_structural   Ca2Cr3O8
_chemical_formula_sum   'Ca2 Cr3 O8'
_cell_volume   158.66740262
_cell_formula_units_Z   1
loop_
 _symmetry_equiv_pos_site_id
 _symmetry_equiv_pos_as_xyz
  1  'x, y, z'
loop_
 _atom_site_type_symbol
 _atom_site_label
 _atom_site_symmetry_multiplicity
 _atom_site_fract_x
 _atom_site_fract_y
 _atom_site_fract_z
 _atom_site_occupancy
  Ca  Ca0  1  0.66943033  0.72513692  0.45027283  1
  Ca  Ca1  1  0.33056867  0.27486408  0.54972717  1
  Cr  Cr2  1  0.50000000  0.99999900  0.00000000  1
  Cr  Cr3  1  0.99999900  0.73908693  0.00000000  1
  Cr  Cr4  1  0.99999900  0.26091307  1.00000000  1
  O  O5  1  0.04143568  0.39598112  0.79196325  1
  O  O6  1  0.95856432  0.60401788  0.20803675  1
  O  O7  1  0.09129359  0.90107938  0.80215876  1
  O  O8  1  0.90870641  0.09891962  0.19784024  1
  O  O9  1  0.39041709  0.31809555  0.20064802  1
  O  O10  1  0.39041709  0.88255247  0.20064802  1
  O  O11  1  0.60958391  0.11744653  0.79935198  1
  O  O12  1  0.60958391  0.68190445  0.79935198  1
