# generated using pymatgen
data_Zn2SiO4
_symmetry_space_group_name_H-M   'P 1'
_cell_length_a   11.03585631
_cell_length_b   9.84028908
_cell_length_c   6.18838888
_cell_angle_alpha   90.00000000
_cell_angle_beta   90.00000000
_cell_angle_gamma   90.00000000
_symmetry_Int_Tables_number   1
_chemical_formula_structural   Zn2SiO4
_chemical_formula_sum   'Zn16 Si8 O32'
_cell_volume   672.03437990
_cell_formula_units_Z   8
loop_
 _symmetry_equiv_pos_site_id
 _symmetry_equiv_pos_as_xyz
  1  'x, y, z'
loop_
 _atom_site_type_symbol
 _atom_site_label
 _atom_site_symmetry_multiplicity
 _atom_site_fract_x
 _atom_site_fract_y
 _atom_site_fract_z
 _atom_site_occupancy
  Zn  Zn0  1  0.06280078  0.58117142  0.15386442  1
  Zn  Zn1  1  0.56280078  0.91882858  0.84613558  1
  Zn  Zn2  1  0.93719922  0.08117142  0.34613558  1
  Zn  Zn3  1  0.43719922  0.41882858  0.65386442  1
  Zn  Zn4  1  0.93719922  0.41882858  0.84613558  1
  Zn  Zn5  1  0.43719922  0.08117142  0.15386442  1
  Zn  Zn6  1  0.06280078  0.91882858  0.65386442  1
  Zn  Zn7  1  0.56280078  0.58117142  0.34613558  1
  Zn  Zn8  1  0.16047824  0.31594780  0.44140947  1
  Zn  Zn9  1  0.66047824  0.18405220  0.55859053  1
  Zn  Zn10  1  0.83952176  0.81594780  0.05859053  1
  Zn  Zn11  1  0.33952176  0.68405220  0.94140947  1
  Zn  Zn12  1  0.83952176  0.68405220  0.55859053  1
  Zn  Zn13  1  0.33952176  0.81594780  0.44140947  1
  Zn  Zn14  1  0.16047824  0.18405220  0.94140947  1
  Zn  Zn15  1  0.66047824  0.31594780  0.05859053  1
  Si  Si16  1  0.87634755  0.11997663  0.86280937  1
  Si  Si17  1  0.37634755  0.38002337  0.13719063  1
  Si  Si18  1  0.12365245  0.61997663  0.63719063  1
  Si  Si19  1  0.62365245  0.88002337  0.36280937  1
  Si  Si20  1  0.12365245  0.88002337  0.13719063  1
  Si  Si21  1  0.62365245  0.61997663  0.86280937  1
  Si  Si22  1  0.87634755  0.38002337  0.36280937  1
  Si  Si23  1  0.37634755  0.11997663  0.63719063  1
  O  O24  1  0.75178427  0.21403502  0.83384132  1
  O  O25  1  0.25178427  0.28596498  0.16615868  1
  O  O26  1  0.24821573  0.71403502  0.66615868  1
  O  O27  1  0.74821573  0.78596498  0.33384132  1
  O  O28  1  0.24821573  0.78596498  0.16615868  1
  O  O29  1  0.74821573  0.71403502  0.83384132  1
  O  O30  1  0.75178427  0.28596498  0.33384132  1
  O  O31  1  0.25178427  0.21403502  0.66615868  1
  O  O32  1  0.90055212  0.02421510  0.64924439  1
  O  O33  1  0.40055212  0.47578490  0.35075561  1
  O  O34  1  0.09944788  0.52421510  0.85075561  1
  O  O35  1  0.59944788  0.97578490  0.14924439  1
  O  O36  1  0.09944788  0.97578490  0.35075561  1
  O  O37  1  0.59944788  0.52421510  0.64924439  1
  O  O38  1  0.90055212  0.47578490  0.14924439  1
  O  O39  1  0.40055212  0.02421510  0.85075561  1
  O  O40  1  0.98746184  0.23014270  0.90171519  1
  O  O41  1  0.48746184  0.26985730  0.09828481  1
  O  O42  1  0.01253816  0.73014270  0.59828481  1
  O  O43  1  0.51253816  0.76985730  0.40171519  1
  O  O44  1  0.01253816  0.76985730  0.09828481  1
  O  O45  1  0.51253816  0.73014270  0.90171519  1
  O  O46  1  0.98746184  0.26985730  0.40171519  1
  O  O47  1  0.48746184  0.23014270  0.59828481  1
  O  O48  1  0.86608655  0.01892604  0.07446455  1
  O  O49  1  0.36608655  0.48107396  0.92553545  1
  O  O50  1  0.13391345  0.51892604  0.42553545  1
  O  O51  1  0.63391345  0.98107396  0.57446455  1
  O  O52  1  0.13391345  0.98107396  0.92553545  1
  O  O53  1  0.63391345  0.51892604  0.07446455  1
  O  O54  1  0.86608655  0.48107396  0.57446455  1
  O  O55  1  0.36608655  0.01892604  0.42553545  1
