# generated using pymatgen
data_Ti2CoSe4
_symmetry_space_group_name_H-M   'P 1'
_cell_length_a   3.58842112
_cell_length_b   6.14362440
_cell_length_c   6.84211417
_cell_angle_alpha   116.35456247
_cell_angle_beta   105.20244940
_cell_angle_gamma   90.00000000
_symmetry_Int_Tables_number   1
_chemical_formula_structural   Ti2CoSe4
_chemical_formula_sum   'Ti2 Co1 Se4'
_cell_volume   129.24552848
_cell_formula_units_Z   1
loop_
 _symmetry_equiv_pos_site_id
 _symmetry_equiv_pos_as_xyz
  1  'x, y, z'
loop_
 _atom_site_type_symbol
 _atom_site_label
 _atom_site_symmetry_multiplicity
 _atom_site_fract_x
 _atom_site_fract_y
 _atom_site_fract_z
 _atom_site_occupancy
  Ti  Ti0  1  0.25218484  0.26472715  0.50436967  1
  Ti  Ti1  1  0.74781516  0.73527285  0.49563033  1
  Co  Co2  1  0.00000000  0.00000000  0.00000000  1
  Se  Se3  1  0.11392967  0.44950348  0.22785935  1
  Se  Se4  1  0.88607033  0.55049652  0.77214065  1
  Se  Se5  1  0.38061723  0.04532248  0.76123445  1
  Se  Se6  1  0.61938277  0.95467752  0.23876555  1
