# generated using pymatgen
data_H4CN4O
_symmetry_space_group_name_H-M   'P 1'
_cell_length_a   4.84472188
_cell_length_b   8.37598084
_cell_length_c   11.27337667
_cell_angle_alpha   104.95600650
_cell_angle_beta   91.32513741
_cell_angle_gamma   110.21534038
_symmetry_Int_Tables_number   1
_chemical_formula_structural   H4CN4O
_chemical_formula_sum   'H16 C4 N16 O4'
_cell_volume   411.54938044
_cell_formula_units_Z   4
loop_
 _symmetry_equiv_pos_site_id
 _symmetry_equiv_pos_as_xyz
  1  'x, y, z'
loop_
 _atom_site_type_symbol
 _atom_site_label
 _atom_site_symmetry_multiplicity
 _atom_site_fract_x
 _atom_site_fract_y
 _atom_site_fract_z
 _atom_site_occupancy
  H  H0  1  0.76132984  0.63990434  0.06625606  1
  H  H1  1  0.23867016  0.36009566  0.93374394  1
  H  H2  1  0.30147352  0.22549063  0.68707092  1
  H  H3  1  0.69852648  0.77450937  0.31292908  1
  H  H4  1  0.57472311  0.15352677  0.08700290  1
  H  H5  1  0.42527689  0.84647323  0.91299710  1
  H  H6  1  0.84195213  0.30669723  0.05996881  1
  H  H7  1  0.15804787  0.69330277  0.94003119  1
  H  H8  1  0.98979301  0.44752798  0.31650356  1
  H  H9  1  0.01020699  0.55247202  0.68349644  1
  H  H10  1  0.54746073  0.76735281  0.07165324  1
  H  H11  1  0.45253927  0.23264719  0.92834676  1
  H  H12  1  0.31240163  0.61991163  0.40487472  1
  H  H13  1  0.68759837  0.38008837  0.59512528  1
  H  H14  1  0.09898221  0.14898796  0.83743813  1
  H  H15  1  0.90101779  0.85101204  0.16256187  1
  C  C16  1  0.30422764  0.56438097  0.21491564  1
  C  C17  1  0.69577236  0.43561903  0.78508436  1
  C  C18  1  0.21662344  0.07075132  0.38690099  1
  C  C19  1  0.78337656  0.92924868  0.61309901  1
  N  N20  1  0.20416211  0.01933541  0.26218848  1
  N  N21  1  0.79583789  0.98066459  0.73781152  1
  N  N22  1  0.40849761  0.31669132  0.77033186  1
  N  N23  1  0.59150239  0.68330868  0.22966814  1
  N  N24  1  0.60606039  0.24821271  0.34223685  1
  N  N25  1  0.39393961  0.75178729  0.65776315  1
  N  N26  1  0.29636793  0.26273163  0.87454839  1
  N  N27  1  0.70363207  0.73726837  0.12545161  1
  N  N28  1  0.46558982  0.21334189  0.43798909  1
  N  N29  1  0.53441018  0.78665811  0.56201091  1
  N  N30  1  0.01232728  0.02485796  0.55882034  1
  N  N31  1  0.98767272  0.97514204  0.44117966  1
  N  N32  1  0.44885963  0.13101922  0.23665557  1
  N  N33  1  0.55114037  0.86898078  0.76334443  1
  N  N34  1  0.19149855  0.54437919  0.32022018  1
  N  N35  1  0.80850145  0.45562081  0.67977982  1
  O  O36  1  0.16931883  0.48199631  0.10767293  1
  O  O37  1  0.83068117  0.51800369  0.89232707  1
  O  O38  1  0.66849719  0.19752950  0.01826764  1
  O  O39  1  0.33150281  0.80247050  0.98173236  1
