# generated using pymatgen
data_Te4Mo2WSe2
_symmetry_space_group_name_H-M   'P 1'
_cell_length_a   3.47787568
_cell_length_b   3.47786724
_cell_length_c   31.97565913
_cell_angle_alpha   89.99977486
_cell_angle_beta   90.00000000
_cell_angle_gamma   120.00008031
_symmetry_Int_Tables_number   1
_chemical_formula_structural   Te4Mo2WSe2
_chemical_formula_sum   'Te4 Mo2 W1 Se2'
_cell_volume   334.94757566
_cell_formula_units_Z   1
loop_
 _symmetry_equiv_pos_site_id
 _symmetry_equiv_pos_as_xyz
  1  'x, y, z'
loop_
 _atom_site_type_symbol
 _atom_site_label
 _atom_site_symmetry_multiplicity
 _atom_site_fract_x
 _atom_site_fract_y
 _atom_site_fract_z
 _atom_site_occupancy
  Te  Te0  1  0.66664108  0.33328116  0.05812218  1
  Te  Te1  1  0.66664341  0.33328583  0.52037380  1
  Te  Te2  1  0.66664941  0.33329782  0.17320353  1
  Te  Te3  1  0.66664678  0.33329257  0.63623629  1
  Mo  Mo4  1  0.33331108  0.66662216  0.11565455  1
  Mo  Mo5  1  0.66668796  0.33337592  0.34697805  1
  W  W6  1  0.33331318  0.66662635  0.57831532  1
  Se  Se7  1  0.33335415  0.66670930  0.39776418  1
  Se  Se8  1  0.33335395  0.66670891  0.29619309  1
