# generated using pymatgen
data_Mg14GaSb
_symmetry_space_group_name_H-M   'P 1'
_cell_length_a   6.35852187
_cell_length_b   6.35852136
_cell_length_c   10.26538534
_cell_angle_alpha   90.00000000
_cell_angle_beta   90.00000000
_cell_angle_gamma   120.00000270
_symmetry_Int_Tables_number   1
_chemical_formula_structural   Mg14GaSb
_chemical_formula_sum   'Mg14 Ga1 Sb1'
_cell_volume   359.43319255
_cell_formula_units_Z   1
loop_
 _symmetry_equiv_pos_site_id
 _symmetry_equiv_pos_as_xyz
  1  'x, y, z'
loop_
 _atom_site_type_symbol
 _atom_site_label
 _atom_site_symmetry_multiplicity
 _atom_site_fract_x
 _atom_site_fract_y
 _atom_site_fract_z
 _atom_site_occupancy
  Mg  Mg0  1  0.16677801  0.83338851  0.12500000  1
  Mg  Mg1  1  0.16549601  0.83274750  0.62500000  1
  Mg  Mg2  1  0.66661149  0.33322199  0.12500000  1
  Mg  Mg3  1  0.66725250  0.33450399  0.62500000  1
  Mg  Mg4  1  0.66661149  0.83338851  0.12500000  1
  Mg  Mg5  1  0.66725250  0.83274750  0.62500000  1
  Mg  Mg6  1  0.33441858  0.16558142  0.37200666  1
  Mg  Mg7  1  0.33441858  0.16558142  0.87799334  1
  Mg  Mg8  1  0.33441858  0.66883816  0.37200666  1
  Mg  Mg9  1  0.33441858  0.66883816  0.87799334  1
  Mg  Mg10  1  0.83116184  0.16558142  0.37200666  1
  Mg  Mg11  1  0.83116184  0.16558142  0.87799334  1
  Mg  Mg12  1  0.83333300  0.66666700  0.37549014  1
  Mg  Mg13  1  0.83333300  0.66666700  0.87450986  1
  Ga  Ga14  1  0.16666700  0.33333300  0.12500000  1
  Sb  Sb15  1  0.16666700  0.33333300  0.62500000  1
