# generated using pymatgen
data_Mg6AlCd
_symmetry_space_group_name_H-M   'P 1'
_cell_length_a   6.27967007
_cell_length_b   6.36538343
_cell_length_c   5.02434897
_cell_angle_alpha   90.00000000
_cell_angle_beta   90.00000000
_cell_angle_gamma   120.45255840
_symmetry_Int_Tables_number   1
_chemical_formula_structural   Mg6AlCd
_chemical_formula_sum   'Mg6 Al1 Cd1'
_cell_volume   173.13034755
_cell_formula_units_Z   1
loop_
 _symmetry_equiv_pos_site_id
 _symmetry_equiv_pos_as_xyz
  1  'x, y, z'
loop_
 _atom_site_type_symbol
 _atom_site_label
 _atom_site_symmetry_multiplicity
 _atom_site_fract_x
 _atom_site_fract_y
 _atom_site_fract_z
 _atom_site_occupancy
  Mg  Mg0  1  0.66748957  0.33342993  0.25000000  1
  Mg  Mg1  1  0.66748957  0.83405865  0.25000000  1
  Mg  Mg2  1  0.33044140  0.16871062  0.75000000  1
  Mg  Mg3  1  0.33044140  0.66173178  0.75000000  1
  Mg  Mg4  1  0.83834360  0.16917230  0.75000000  1
  Mg  Mg5  1  0.83382704  0.66691402  0.75000000  1
  Al  Al6  1  0.16549390  0.33274645  0.25000000  1
  Cd  Cd7  1  0.16647352  0.83323626  0.25000000  1
