# generated using pymatgen
data_H6C2SN3O2
_symmetry_space_group_name_H-M   'P 1'
_cell_length_a   7.23383965
_cell_length_b   9.32592158
_cell_length_c   10.67526624
_cell_angle_alpha   113.07094883
_cell_angle_beta   109.80457696
_cell_angle_gamma   90.00000000
_symmetry_Int_Tables_number   1
_chemical_formula_structural   H6C2SN3O2
_chemical_formula_sum   'H24 C8 S4 N12 O8'
_cell_volume   616.01173108
_cell_formula_units_Z   4
loop_
 _symmetry_equiv_pos_site_id
 _symmetry_equiv_pos_as_xyz
  1  'x, y, z'
loop_
 _atom_site_type_symbol
 _atom_site_label
 _atom_site_symmetry_multiplicity
 _atom_site_fract_x
 _atom_site_fract_y
 _atom_site_fract_z
 _atom_site_occupancy
  H  H0  1  0.67299378  0.04001941  0.69725755  1
  H  H1  1  0.32700622  0.95998059  0.30274245  1
  H  H2  1  0.97573623  0.45998059  0.30274245  1
  H  H3  1  0.02426377  0.54001941  0.69725755  1
  H  H4  1  0.27930377  0.52233554  0.53216249  1
  H  H5  1  0.72069623  0.47766446  0.46783751  1
  H  H6  1  0.74714127  0.97766446  0.46783751  1
  H  H7  1  0.25285873  0.02233554  0.53216249  1
  H  H8  1  0.33192128  0.18434305  0.53314260  1
  H  H9  1  0.66807872  0.81565695  0.46685740  1
  H  H10  1  0.79877868  0.31565695  0.46685740  1
  H  H11  1  0.20122132  0.68434305  0.53314260  1
  H  H12  1  0.56988141  0.39256801  0.57776805  1
  H  H13  1  0.43011859  0.60743199  0.42223195  1
  H  H14  1  0.99211336  0.10743199  0.42223195  1
  H  H15  1  0.00788664  0.89256801  0.57776805  1
  H  H16  1  0.68957712  0.21442449  0.85534805  1
  H  H17  1  0.31042288  0.78557551  0.14465195  1
  H  H18  1  0.83422907  0.28557551  0.14465195  1
  H  H19  1  0.16577093  0.71442449  0.85534805  1
  H  H20  1  0.52051584  0.44153991  0.71811109  1
  H  H21  1  0.47948416  0.55846009  0.28188891  1
  H  H22  1  0.80240474  0.05846009  0.28188891  1
  H  H23  1  0.19759526  0.94153991  0.71811109  1
  C  C24  1  0.70126125  0.00899072  0.88068382  1
  C  C25  1  0.29873875  0.99100928  0.11931618  1
  C  C26  1  0.82057743  0.49100928  0.11931618  1
  C  C27  1  0.17942257  0.50899072  0.88068382  1
  C  C28  1  0.26113083  0.18207788  0.01636903  1
  C  C29  1  0.73886917  0.81792212  0.98363097  1
  C  C30  1  0.24476180  0.31792212  0.98363097  1
  C  C31  1  0.75523820  0.68207788  0.01636903  1
  S  S32  1  0.32636608  0.19730634  0.19399040  1
  S  S33  1  0.67363392  0.80269366  0.80600960  1
  S  S34  1  0.13237568  0.30269366  0.80600960  1
  S  S35  1  0.86762432  0.69730634  0.19399040  1
  N  N36  1  0.66447286  0.09181584  0.79938688  1
  N  N37  1  0.33552714  0.90818416  0.20061312  1
  N  N38  1  0.86508597  0.40818416  0.20061312  1
  N  N39  1  0.13491403  0.59181584  0.79938688  1
  N  N40  1  0.30812080  0.46451216  0.08291862  1
  N  N41  1  0.69187920  0.53548784  0.91708138  1
  N  N42  1  0.22520218  0.03548784  0.91708138  1
  N  N43  1  0.77479782  0.96451216  0.08291862  1
  N  N44  1  0.75601095  0.07286060  0.02657077  1
  N  N45  1  0.24398905  0.92713940  0.97342923  1
  N  N46  1  0.72944018  0.42713940  0.97342923  1
  N  N47  1  0.27055982  0.57286060  0.02657077  1
  O  O48  1  0.45600396  0.38737835  0.60941579  1
  O  O49  1  0.54399604  0.61262165  0.39058421  1
  O  O50  1  0.84658817  0.11262165  0.39058421  1
  O  O51  1  0.15341183  0.88737835  0.60941579  1
  O  O52  1  0.24740489  0.07891865  0.47018179  1
  O  O53  1  0.75259511  0.92108135  0.52981821  1
  O  O54  1  0.77722310  0.42108135  0.52981821  1
  O  O55  1  0.22277690  0.57891865  0.47018179  1
