# generated using pymatgen
data_TeMo2SeS2
_symmetry_space_group_name_H-M   'P 1'
_cell_length_a   3.30930233
_cell_length_b   3.30929705
_cell_length_c   37.58347446
_cell_angle_alpha   89.99964620
_cell_angle_beta   90.00000000
_cell_angle_gamma   120.00005285
_symmetry_Int_Tables_number   1
_chemical_formula_structural   TeMo2SeS2
_chemical_formula_sum   'Te2 Mo4 Se2 S4'
_cell_volume   356.45074325
_cell_formula_units_Z   2
loop_
 _symmetry_equiv_pos_site_id
 _symmetry_equiv_pos_as_xyz
  1  'x, y, z'
loop_
 _atom_site_type_symbol
 _atom_site_label
 _atom_site_symmetry_multiplicity
 _atom_site_fract_x
 _atom_site_fract_y
 _atom_site_fract_z
 _atom_site_occupancy
  Te  Te0  1  0.33335247  0.66670594  0.70843509  1
  Te  Te1  1  0.33336493  0.66673086  0.60665516  1
  Mo  Mo2  1  0.33331370  0.66662740  0.09391508  1
  Mo  Mo3  1  0.33332966  0.66665931  0.46964446  1
  Mo  Mo4  1  0.66668307  0.33336614  0.28180344  1
  Mo  Mo5  1  0.66668763  0.33337525  0.65758589  1
  Se  Se6  1  0.33334987  0.66670074  0.32653814  1
  Se  Se7  1  0.33334925  0.66669951  0.23705704  1
  S  S8  1  0.66664594  0.33329088  0.05329616  1
  S  S9  1  0.66663773  0.33327447  0.42902754  1
  S  S10  1  0.66664764  0.33329429  0.13454066  1
  S  S11  1  0.66663811  0.33327522  0.51024932  1
