# generated using pymatgen
data_TeMo2SeS2
_symmetry_space_group_name_H-M   'P 1'
_cell_length_a   3.30866463
_cell_length_b   3.30838912
_cell_length_c   38.97608436
_cell_angle_alpha   90.00429385
_cell_angle_beta   90.00000000
_cell_angle_gamma   120.00275490
_symmetry_Int_Tables_number   1
_chemical_formula_structural   TeMo2SeS2
_chemical_formula_sum   'Te2 Mo4 Se2 S4'
_cell_volume   369.47589731
_cell_formula_units_Z   2
loop_
 _symmetry_equiv_pos_site_id
 _symmetry_equiv_pos_as_xyz
  1  'x, y, z'
loop_
 _atom_site_type_symbol
 _atom_site_label
 _atom_site_symmetry_multiplicity
 _atom_site_fract_x
 _atom_site_fract_y
 _atom_site_fract_z
 _atom_site_occupancy
  Te  Te0  1  0.66664032  0.33327964  0.42119118  1
  Te  Te1  1  0.66668910  0.33337720  0.51936383  1
  Mo  Mo2  1  0.33329028  0.66658057  0.09382966  1
  Mo  Mo3  1  0.33330676  0.66661352  0.47032783  1
  Mo  Mo4  1  0.66664040  0.33328080  0.28077313  1
  Mo  Mo5  1  0.66678182  0.33356363  0.65801834  1
  Se  Se6  1  0.33329297  0.66658693  0.32392726  1
  Se  Se7  1  0.33328319  0.66656739  0.23763316  1
  S  S8  1  0.33341517  0.66683134  0.69720294  1
  S  S9  1  0.66661519  0.33322938  0.05469409  1
  S  S10  1  0.66666842  0.33333585  0.13296604  1
  S  S11  1  0.33337638  0.66675375  0.61882053  1
