# generated using pymatgen
data_TeMo2SeS2
_symmetry_space_group_name_H-M   'P 1'
_cell_length_a   3.30791639
_cell_length_b   3.30797841
_cell_length_c   37.55734980
_cell_angle_alpha   90.00016184
_cell_angle_beta   90.00000000
_cell_angle_gamma   119.99937989
_symmetry_Int_Tables_number   1
_chemical_formula_structural   TeMo2SeS2
_chemical_formula_sum   'Te2 Mo4 Se2 S4'
_cell_volume   355.91433066
_cell_formula_units_Z   2
loop_
 _symmetry_equiv_pos_site_id
 _symmetry_equiv_pos_as_xyz
  1  'x, y, z'
loop_
 _atom_site_type_symbol
 _atom_site_label
 _atom_site_symmetry_multiplicity
 _atom_site_fract_x
 _atom_site_fract_y
 _atom_site_fract_z
 _atom_site_occupancy
  Te  Te0  1  0.33335007  0.66670115  0.70849685  1
  Te  Te1  1  0.33335398  0.66670897  0.60659039  1
  Mo  Mo2  1  0.33331569  0.66663138  0.09390652  1
  Mo  Mo3  1  0.33333234  0.66666468  0.46964126  1
  Mo  Mo4  1  0.66668942  0.33337883  0.28180081  1
  Mo  Mo5  1  0.66668661  0.33337322  0.65757327  1
  Se  Se6  1  0.66664903  0.33329705  0.04916765  1
  Se  Se7  1  0.66664548  0.33328997  0.13867781  1
  S  S8  1  0.33335285  0.66670670  0.32248532  1
  S  S9  1  0.66663751  0.33327402  0.42903320  1
  S  S10  1  0.66663605  0.33327109  0.51024833  1
  S  S11  1  0.33335097  0.66670293  0.24112659  1
