# generated using pymatgen
data_TeW2Se2S
_symmetry_space_group_name_H-M   'P 1'
_cell_length_a   3.34194561
_cell_length_b   3.34192229
_cell_length_c   38.14508666
_cell_angle_alpha   90.00060919
_cell_angle_beta   90.00000000
_cell_angle_gamma   120.00023089
_symmetry_Int_Tables_number   1
_chemical_formula_structural   TeW2Se2S
_chemical_formula_sum   'Te2 W4 Se4 S2'
_cell_volume   368.94697343
_cell_formula_units_Z   2
loop_
 _symmetry_equiv_pos_site_id
 _symmetry_equiv_pos_as_xyz
  1  'x, y, z'
loop_
 _atom_site_type_symbol
 _atom_site_label
 _atom_site_symmetry_multiplicity
 _atom_site_fract_x
 _atom_site_fract_y
 _atom_site_fract_z
 _atom_site_occupancy
  Te  Te0  1  0.33336216  0.66672533  0.33177332  1
  Te  Te1  1  0.33335241  0.66670582  0.23176682  1
  W  W2  1  0.33331273  0.66662547  0.09390977  1
  W  W3  1  0.33331377  0.66662754  0.46969733  1
  W  W4  1  0.66669216  0.33338432  0.28176855  1
  W  W5  1  0.66669110  0.33338220  0.65753380  1
  Se  Se6  1  0.33335286  0.66670672  0.70142550  1
  Se  Se7  1  0.66665035  0.33329970  0.42580710  1
  Se  Se8  1  0.66662898  0.33325696  0.51358501  1
  Se  Se9  1  0.33335225  0.66670551  0.61364883  1
  S  S10  1  0.66664725  0.33329351  0.05398740  1
  S  S11  1  0.66664397  0.33328694  0.13384457  1
