# generated using pymatgen
data_NaMg14Cd
_symmetry_space_group_name_H-M   'P 1'
_cell_length_a   6.42061686
_cell_length_b   6.42061633
_cell_length_c   10.34416088
_cell_angle_alpha   90.00000000
_cell_angle_beta   90.00000000
_cell_angle_gamma   120.00000272
_symmetry_Int_Tables_number   1
_chemical_formula_structural   NaMg14Cd
_chemical_formula_sum   'Na1 Mg14 Cd1'
_cell_volume   369.30004475
_cell_formula_units_Z   1
loop_
 _symmetry_equiv_pos_site_id
 _symmetry_equiv_pos_as_xyz
  1  'x, y, z'
loop_
 _atom_site_type_symbol
 _atom_site_label
 _atom_site_symmetry_multiplicity
 _atom_site_fract_x
 _atom_site_fract_y
 _atom_site_fract_z
 _atom_site_occupancy
  Na  Na0  1  0.16666700  0.33333300  0.12500000  1
  Mg  Mg1  1  0.16802087  0.83400994  0.12500000  1
  Mg  Mg2  1  0.16513396  0.83256648  0.62500000  1
  Mg  Mg3  1  0.66599006  0.33197913  0.12500000  1
  Mg  Mg4  1  0.66743352  0.33486604  0.62500000  1
  Mg  Mg5  1  0.66599006  0.83400994  0.12500000  1
  Mg  Mg6  1  0.66743352  0.83256648  0.62500000  1
  Mg  Mg7  1  0.33424038  0.16575962  0.37918313  1
  Mg  Mg8  1  0.33424038  0.16575962  0.87081687  1
  Mg  Mg9  1  0.33424038  0.66848175  0.37918313  1
  Mg  Mg10  1  0.33424038  0.66848175  0.87081687  1
  Mg  Mg11  1  0.83151825  0.16575962  0.37918313  1
  Mg  Mg12  1  0.83151825  0.16575962  0.87081687  1
  Mg  Mg13  1  0.83333300  0.66666700  0.37291838  1
  Mg  Mg14  1  0.83333300  0.66666700  0.87708162  1
  Cd  Cd15  1  0.16666700  0.33333300  0.62500000  1
