# generated using pymatgen
data_TeMo2SeS2
_symmetry_space_group_name_H-M   'P 1'
_cell_length_a   3.30806277
_cell_length_b   3.30809338
_cell_length_c   37.56258646
_cell_angle_alpha   89.99970541
_cell_angle_beta   90.00000000
_cell_angle_gamma   119.99969385
_symmetry_Int_Tables_number   1
_chemical_formula_structural   TeMo2SeS2
_chemical_formula_sum   'Te2 Mo4 Se2 S4'
_cell_volume   355.99095354
_cell_formula_units_Z   2
loop_
 _symmetry_equiv_pos_site_id
 _symmetry_equiv_pos_as_xyz
  1  'x, y, z'
loop_
 _atom_site_type_symbol
 _atom_site_label
 _atom_site_symmetry_multiplicity
 _atom_site_fract_x
 _atom_site_fract_y
 _atom_site_fract_z
 _atom_site_occupancy
  Te  Te0  1  0.33335247  0.66670594  0.33267186  1
  Te  Te1  1  0.33335220  0.66670540  0.23092206  1
  Mo  Mo2  1  0.33330624  0.66661248  0.09390547  1
  Mo  Mo3  1  0.33330567  0.66661134  0.46967064  1
  Mo  Mo4  1  0.66668998  0.33337997  0.28179801  1
  Mo  Mo5  1  0.66669196  0.33338392  0.65752726  1
  Se  Se6  1  0.33335313  0.66670726  0.70218400  1
  Se  Se7  1  0.33335816  0.66671731  0.61288183  1
  S  S8  1  0.66664961  0.33329822  0.05326832  1
  S  S9  1  0.66664556  0.33329011  0.42899251  1
  S  S10  1  0.66665087  0.33330073  0.13455959  1
  S  S11  1  0.66664416  0.33328732  0.51036646  1
