# generated using pymatgen
data_TeMo2SeS2
_symmetry_space_group_name_H-M   'P 1'
_cell_length_a   3.30708377
_cell_length_b   3.30713181
_cell_length_c   38.68802007
_cell_angle_alpha   89.99861135
_cell_angle_beta   90.00000000
_cell_angle_gamma   119.99951963
_symmetry_Int_Tables_number   1
_chemical_formula_structural   TeMo2SeS2
_chemical_formula_sum   'Te2 Mo4 Se2 S4'
_cell_volume   366.44258502
_cell_formula_units_Z   2
loop_
 _symmetry_equiv_pos_site_id
 _symmetry_equiv_pos_as_xyz
  1  'x, y, z'
loop_
 _atom_site_type_symbol
 _atom_site_label
 _atom_site_symmetry_multiplicity
 _atom_site_fract_x
 _atom_site_fract_y
 _atom_site_fract_z
 _atom_site_occupancy
  Te  Te0  1  0.66675207  0.33350315  0.41953082  1
  Te  Te1  1  0.66658115  0.33316130  0.51843375  1
  Mo  Mo2  1  0.33335300  0.66670600  0.09390025  1
  Mo  Mo3  1  0.33333379  0.66666758  0.46900086  1
  Mo  Mo4  1  0.66664248  0.33328496  0.28135776  1
  Mo  Mo5  1  0.66663205  0.33326410  0.65867414  1
  Se  Se6  1  0.33327684  0.66655468  0.70207095  1
  Se  Se7  1  0.33333948  0.66667997  0.61524429  1
  S  S8  1  0.33345784  0.66691669  0.32089287  1
  S  S9  1  0.66671564  0.33343028  0.05438987  1
  S  S10  1  0.66666775  0.33333450  0.13341667  1
  S  S11  1  0.33324790  0.66649679  0.24183578  1
