# generated using pymatgen
data_Mg14AlCuO16
_symmetry_space_group_name_H-M   'P 1'
_cell_length_a   8.50552970
_cell_length_b   8.56780555
_cell_length_c   4.22695631
_cell_angle_alpha   90.00000000
_cell_angle_beta   90.00000000
_cell_angle_gamma   90.00000000
_symmetry_Int_Tables_number   1
_chemical_formula_structural   Mg14AlCuO16
_chemical_formula_sum   'Mg14 Al1 Cu1 O16'
_cell_volume   308.03404990
_cell_formula_units_Z   1
loop_
 _symmetry_equiv_pos_site_id
 _symmetry_equiv_pos_as_xyz
  1  'x, y, z'
loop_
 _atom_site_type_symbol
 _atom_site_label
 _atom_site_symmetry_multiplicity
 _atom_site_fract_x
 _atom_site_fract_y
 _atom_site_fract_z
 _atom_site_occupancy
  Mg  Mg0  1  0.50000000  0.00000000  -0.00000000  1
  Mg  Mg1  1  0.50000000  0.50000000  -0.00000000  1
  Mg  Mg2  1  0.00000000  0.25519181  0.50000000  1
  Mg  Mg3  1  -0.00000000  0.74480819  0.50000000  1
  Mg  Mg4  1  0.50000000  0.25239375  0.50000000  1
  Mg  Mg5  1  0.50000000  0.74760625  0.50000000  1
  Mg  Mg6  1  0.24975775  0.00000000  0.50000000  1
  Mg  Mg7  1  0.24731852  0.50000000  0.50000000  1
  Mg  Mg8  1  0.75024225  0.00000000  0.50000000  1
  Mg  Mg9  1  0.75268148  0.50000000  0.50000000  1
  Mg  Mg10  1  0.24787484  0.25482083  -0.00000000  1
  Mg  Mg11  1  0.24787484  0.74517917  -0.00000000  1
  Mg  Mg12  1  0.75212516  0.25482083  0.00000000  1
  Mg  Mg13  1  0.75212516  0.74517917  0.00000000  1
  Al  Al14  1  -0.00000000  0.00000000  -0.00000000  1
  Cu  Cu15  1  -0.00000000  0.50000000  -0.00000000  1
  O  O16  1  0.23699201  0.00000000  0.00000000  1
  O  O17  1  0.26206564  0.50000000  -0.00000000  1
  O  O18  1  0.76300799  0.00000000  -0.00000000  1
  O  O19  1  0.73793436  0.50000000  0.00000000  1
  O  O20  1  0.24885027  0.24933762  0.50000000  1
  O  O21  1  0.24885027  0.75066238  0.50000000  1
  O  O22  1  0.75114973  0.24933762  0.50000000  1
  O  O23  1  0.75114973  0.75066238  0.50000000  1
  O  O24  1  -0.00000000  0.00000000  0.50000000  1
  O  O25  1  -0.00000000  0.50000000  0.50000000  1
  O  O26  1  0.50000000  0.00000000  0.50000000  1
  O  O27  1  0.50000000  0.50000000  0.50000000  1
  O  O28  1  0.00000000  0.21486122  -0.00000000  1
  O  O29  1  -0.00000000  0.78513878  -0.00000000  1
  O  O30  1  0.50000000  0.24417397  -0.00000000  1
  O  O31  1  0.50000000  0.75582603  -0.00000000  1
