# generated using pymatgen
data_GdWO5
_symmetry_space_group_name_H-M   'P 1'
_cell_length_a   5.32577849
_cell_length_b   6.67845313
_cell_length_c   12.89240963
_cell_angle_alpha   90.00000000
_cell_angle_beta   90.00000000
_cell_angle_gamma   109.21230319
_symmetry_Int_Tables_number   1
_chemical_formula_structural   GdWO5
_chemical_formula_sum   'Gd4 W4 O20'
_cell_volume   433.01775351
_cell_formula_units_Z   4
loop_
 _symmetry_equiv_pos_site_id
 _symmetry_equiv_pos_as_xyz
  1  'x, y, z'
loop_
 _atom_site_type_symbol
 _atom_site_label
 _atom_site_symmetry_multiplicity
 _atom_site_fract_x
 _atom_site_fract_y
 _atom_site_fract_z
 _atom_site_occupancy
  Gd  Gd0  1  0.15020777  0.78492255  0.44344649  1
  Gd  Gd1  1  0.84979223  0.21507745  0.55655351  1
  Gd  Gd2  1  0.34979223  0.71507745  0.94344649  1
  Gd  Gd3  1  0.65020777  0.28492255  0.05655351  1
  W  W4  1  0.95608338  0.84591448  0.13927929  1
  W  W5  1  0.04391662  0.15408552  0.86072071  1
  W  W6  1  0.54391662  0.65408552  0.63927929  1
  W  W7  1  0.45608338  0.34591448  0.36072071  1
  O  O8  1  0.04300875  0.56953023  0.09140836  1
  O  O9  1  0.95699125  0.43046977  0.90859164  1
  O  O10  1  0.45699125  0.93046977  0.59140836  1
  O  O11  1  0.54300875  0.06953023  0.40859164  1
  O  O12  1  0.85049684  0.84200956  0.57091213  1
  O  O13  1  0.14950316  0.15799044  0.42908787  1
  O  O14  1  0.64950316  0.65799044  0.07091213  1
  O  O15  1  0.35049684  0.34200956  0.92908787  1
  O  O16  1  0.26970364  0.97329438  0.06545625  1
  O  O17  1  0.73029636  0.02670562  0.93454375  1
  O  O18  1  0.23029636  0.52670562  0.56545625  1
  O  O19  1  0.76970364  0.47329438  0.43454375  1
  O  O20  1  0.99908869  0.79357101  0.27413109  1
  O  O21  1  0.00091131  0.20642899  0.72586891  1
  O  O22  1  0.50091131  0.70642899  0.77413109  1
  O  O23  1  0.49908869  0.29357101  0.22586891  1
  O  O24  1  0.15863495  0.92678570  0.85163615  1
  O  O25  1  0.84136505  0.07321430  0.14836385  1
  O  O26  1  0.34136505  0.57321430  0.35163615  1
  O  O27  1  0.65863495  0.42678570  0.64836385  1
