# generated using pymatgen
data_CaMg14CrO16
_symmetry_space_group_name_H-M   'P 1'
_cell_length_a   8.69542946
_cell_length_b   8.57398732
_cell_length_c   4.32963240
_cell_angle_alpha   90.00000000
_cell_angle_beta   90.00000000
_cell_angle_gamma   90.00000000
_symmetry_Int_Tables_number   1
_chemical_formula_structural   CaMg14CrO16
_chemical_formula_sum   'Ca1 Mg14 Cr1 O16'
_cell_volume   322.79358713
_cell_formula_units_Z   1
loop_
 _symmetry_equiv_pos_site_id
 _symmetry_equiv_pos_as_xyz
  1  'x, y, z'
loop_
 _atom_site_type_symbol
 _atom_site_label
 _atom_site_symmetry_multiplicity
 _atom_site_fract_x
 _atom_site_fract_y
 _atom_site_fract_z
 _atom_site_occupancy
  Ca  Ca0  1  0.00000000  0.00000000  0.00000000  1
  Mg  Mg1  1  0.50000000  0.00000000  0.00000000  1
  Mg  Mg2  1  0.50000000  0.50000000  0.00000000  1
  Mg  Mg3  1  0.00000000  0.25492737  0.50000000  1
  Mg  Mg4  1  0.00000000  0.74507263  0.50000000  1
  Mg  Mg5  1  0.50000000  0.25083524  0.50000000  1
  Mg  Mg6  1  0.50000000  0.74916476  0.50000000  1
  Mg  Mg7  1  0.25635862  0.00000000  0.50000000  1
  Mg  Mg8  1  0.25365081  0.50000000  0.50000000  1
  Mg  Mg9  1  0.74364138  0.00000000  0.50000000  1
  Mg  Mg10  1  0.74634919  0.50000000  0.50000000  1
  Mg  Mg11  1  0.25594411  0.25368856  0.00000000  1
  Mg  Mg12  1  0.25594411  0.74631144  0.00000000  1
  Mg  Mg13  1  0.74405589  0.25368856  0.00000000  1
  Mg  Mg14  1  0.74405589  0.74631144  0.00000000  1
  Cr  Cr15  1  0.00000000  0.50000000  0.00000000  1
  O  O16  1  0.26311781  0.00000000  0.00000000  1
  O  O17  1  0.26476973  0.50000000  -0.00000000  1
  O  O18  1  0.73688219  0.00000000  0.00000000  1
  O  O19  1  0.73523027  0.50000000  0.00000000  1
  O  O20  1  0.24939155  0.25023310  0.50000000  1
  O  O21  1  0.24939155  0.74976690  0.50000000  1
  O  O22  1  0.75060845  0.25023310  0.50000000  1
  O  O23  1  0.75060845  0.74976690  0.50000000  1
  O  O24  1  0.00000000  0.00000000  0.50000000  1
  O  O25  1  0.00000000  0.50000000  0.50000000  1
  O  O26  1  0.50000000  0.00000000  0.50000000  1
  O  O27  1  0.50000000  0.50000000  0.50000000  1
  O  O28  1  0.00000000  0.26200694  0.00000000  1
  O  O29  1  0.00000000  0.73799306  0.00000000  1
  O  O30  1  0.50000000  0.24996429  0.00000000  1
  O  O31  1  0.50000000  0.75003571  -0.00000000  1
