# generated using pymatgen
data_NaLaMg30O32
_symmetry_space_group_name_H-M   'P 1'
_cell_length_a   8.63360692
_cell_length_b   8.63750996
_cell_length_c   8.63750996
_cell_angle_alpha   90.00000000
_cell_angle_beta   90.00000000
_cell_angle_gamma   90.00000000
_symmetry_Int_Tables_number   1
_chemical_formula_structural   NaLaMg30O32
_chemical_formula_sum   'Na1 La1 Mg30 O32'
_cell_volume   644.12387077
_cell_formula_units_Z   1
loop_
 _symmetry_equiv_pos_site_id
 _symmetry_equiv_pos_as_xyz
  1  'x, y, z'
loop_
 _atom_site_type_symbol
 _atom_site_label
 _atom_site_symmetry_multiplicity
 _atom_site_fract_x
 _atom_site_fract_y
 _atom_site_fract_z
 _atom_site_occupancy
  Na  Na0  1  -0.00000000  0.50000000  0.50000000  1
  La  La1  1  -0.00000000  -0.00000000  0.00000000  1
  Mg  Mg2  1  -0.00000000  -0.00000000  0.50000000  1
  Mg  Mg3  1  -0.00000000  0.50000000  0.00000000  1
  Mg  Mg4  1  0.50000000  -0.00000000  0.00000000  1
  Mg  Mg5  1  0.50000000  -0.00000000  0.50000000  1
  Mg  Mg6  1  0.50000000  0.50000000  0.00000000  1
  Mg  Mg7  1  0.50000000  0.50000000  0.50000000  1
  Mg  Mg8  1  -0.00000000  0.26024085  0.26024085  1
  Mg  Mg9  1  -0.00000000  0.26024085  0.73975915  1
  Mg  Mg10  1  -0.00000000  0.73975915  0.26024085  1
  Mg  Mg11  1  -0.00000000  0.73975915  0.73975915  1
  Mg  Mg12  1  0.50000000  0.25154911  0.25154911  1
  Mg  Mg13  1  0.50000000  0.25154911  0.74845089  1
  Mg  Mg14  1  0.50000000  0.74845089  0.25154911  1
  Mg  Mg15  1  0.50000000  0.74845089  0.74845089  1
  Mg  Mg16  1  0.25771334  -0.00000000  0.25915588  1
  Mg  Mg17  1  0.25771334  -0.00000000  0.74084412  1
  Mg  Mg18  1  0.24898049  0.50000000  0.25254528  1
  Mg  Mg19  1  0.24898049  0.50000000  0.74745472  1
  Mg  Mg20  1  0.74228666  -0.00000000  0.25915588  1
  Mg  Mg21  1  0.74228666  -0.00000000  0.74084412  1
  Mg  Mg22  1  0.75101951  0.50000000  0.25254528  1
  Mg  Mg23  1  0.75101951  0.50000000  0.74745472  1
  Mg  Mg24  1  0.25771334  0.25915588  0.00000000  1
  Mg  Mg25  1  0.24898049  0.25254528  0.50000000  1
  Mg  Mg26  1  0.25771334  0.74084412  -0.00000000  1
  Mg  Mg27  1  0.24898049  0.74745472  0.50000000  1
  Mg  Mg28  1  0.74228666  0.25915588  0.00000000  1
  Mg  Mg29  1  0.75101951  0.25254528  0.50000000  1
  Mg  Mg30  1  0.74228666  0.74084412  -0.00000000  1
  Mg  Mg31  1  0.75101951  0.74745472  0.50000000  1
  O  O32  1  0.26839136  -0.00000000  -0.00000000  1
  O  O33  1  0.25470054  -0.00000000  0.50000000  1
  O  O34  1  0.25470054  0.50000000  0.00000000  1
  O  O35  1  0.26321427  0.50000000  0.50000000  1
  O  O36  1  0.73160864  -0.00000000  0.00000000  1
  O  O37  1  0.74529946  -0.00000000  0.50000000  1
  O  O38  1  0.74529946  0.50000000  -0.00000000  1
  O  O39  1  0.73678573  0.50000000  0.50000000  1
  O  O40  1  0.24912653  0.24850067  0.24850067  1
  O  O41  1  0.24912653  0.24850067  0.75149933  1
  O  O42  1  0.24912653  0.75149933  0.24850067  1
  O  O43  1  0.24912653  0.75149933  0.75149933  1
  O  O44  1  0.75087347  0.24850067  0.24850067  1
  O  O45  1  0.75087347  0.24850067  0.75149933  1
  O  O46  1  0.75087347  0.75149933  0.24850067  1
  O  O47  1  0.75087347  0.75149933  0.75149933  1
  O  O48  1  -0.00000000  -0.00000000  0.26647504  1
  O  O49  1  -0.00000000  -0.00000000  0.73352496  1
  O  O50  1  -0.00000000  0.50000000  0.23937597  1
  O  O51  1  -0.00000000  0.50000000  0.76062403  1
  O  O52  1  0.50000000  -0.00000000  0.25182916  1
  O  O53  1  0.50000000  -0.00000000  0.74817084  1
  O  O54  1  0.50000000  0.50000000  0.24778576  1
  O  O55  1  0.50000000  0.50000000  0.75221424  1
  O  O56  1  -0.00000000  0.26647504  -0.00000000  1
  O  O57  1  -0.00000000  0.23937597  0.50000000  1
  O  O58  1  -0.00000000  0.73352496  -0.00000000  1
  O  O59  1  -0.00000000  0.76062403  0.50000000  1
  O  O60  1  0.50000000  0.25182916  0.00000000  1
  O  O61  1  0.50000000  0.24778576  0.50000000  1
  O  O62  1  0.50000000  0.74817084  -0.00000000  1
  O  O63  1  0.50000000  0.75221424  0.50000000  1
