# generated using pymatgen
data_ZnCr2P2O9
_symmetry_space_group_name_H-M   'P 1'
_cell_length_a   6.28838971
_cell_length_b   7.39118073
_cell_length_c   14.11220760
_cell_angle_alpha   90.00000000
_cell_angle_beta   90.00000000
_cell_angle_gamma   90.00000000
_symmetry_Int_Tables_number   1
_chemical_formula_structural   ZnCr2P2O9
_chemical_formula_sum   'Zn4 Cr8 P8 O36'
_cell_volume   655.91600281
_cell_formula_units_Z   4
loop_
 _symmetry_equiv_pos_site_id
 _symmetry_equiv_pos_as_xyz
  1  'x, y, z'
loop_
 _atom_site_type_symbol
 _atom_site_label
 _atom_site_symmetry_multiplicity
 _atom_site_fract_x
 _atom_site_fract_y
 _atom_site_fract_z
 _atom_site_occupancy
  Zn  Zn0  1  0.75000000  0.93356639  0.77620940  1
  Zn  Zn1  1  0.75000000  0.56643361  0.27620940  1
  Zn  Zn2  1  0.25000100  0.43356539  0.72379060  1
  Zn  Zn3  1  0.25000100  0.06643361  0.22379060  1
  Cr  Cr4  1  0.75000000  0.35671306  0.87787821  1
  Cr  Cr5  1  0.25000100  0.64328694  0.12212179  1
  Cr  Cr6  1  0.25000100  0.85671306  0.62212179  1
  Cr  Cr7  1  0.75000000  0.14328694  0.37787821  1
  Cr  Cr8  1  0.50000000  0.00000000  -0.00000000  1
  Cr  Cr9  1  0.50000000  0.50000000  0.50000000  1
  Cr  Cr10  1  -0.00000000  0.50000000  0.50000000  1
  Cr  Cr11  1  -0.00000000  0.00000000  -0.00000000  1
  P  P12  1  0.25000100  0.36349079  0.92808913  1
  P  P13  1  0.75000000  0.63650921  0.07191187  1
  P  P14  1  0.75000000  0.86349079  0.57191087  1
  P  P15  1  0.25000100  0.13651021  0.42808913  1
  P  P16  1  0.75000000  0.38799848  0.69343387  1
  P  P17  1  0.75000000  0.11200152  0.19343387  1
  P  P18  1  0.25000100  0.88799848  0.80656613  1
  P  P19  1  0.25000100  0.61200052  0.30656613  1
  O  O20  1  0.03929609  0.60669610  0.36618210  1
  O  O21  1  0.53929509  0.39330290  0.63381790  1
  O  O22  1  0.96070391  0.10669610  0.13381790  1
  O  O23  1  0.46070391  0.89330390  0.86618210  1
  O  O24  1  0.96070391  0.39330290  0.63381790  1
  O  O25  1  0.46070391  0.60669610  0.36618210  1
  O  O26  1  0.03929609  0.89330390  0.86618210  1
  O  O27  1  0.53929509  0.10669610  0.13381790  1
  O  O28  1  0.25000100  0.32926266  0.47578048  1
  O  O29  1  0.75000000  0.67073834  0.52421952  1
  O  O30  1  0.75000000  0.82926166  0.02421852  1
  O  O31  1  0.25000100  0.17073834  0.97578048  1
  O  O32  1  0.75000000  0.12972577  0.94709350  1
  O  O33  1  0.25000100  0.87027423  0.05290550  1
  O  O34  1  0.25000100  0.62972577  0.55290550  1
  O  O35  1  0.75000000  0.37027523  0.44709450  1
  O  O36  1  0.75000000  0.21031134  0.75457698  1
  O  O37  1  0.25000100  0.78968866  0.24542402  1
  O  O38  1  0.25000100  0.71031134  0.74542302  1
  O  O39  1  0.75000000  0.28968966  0.25457598  1
  O  O40  1  0.43791557  0.12594481  0.35762059  1
  O  O41  1  0.93791557  0.87405519  0.64237941  1
  O  O42  1  0.56208443  0.62594381  0.14237941  1
  O  O43  1  0.06208443  0.37405519  0.85762059  1
  O  O44  1  0.56208443  0.87405519  0.64237941  1
  O  O45  1  0.06208443  0.12594481  0.35762059  1
  O  O46  1  0.43791557  0.37405519  0.85762059  1
  O  O47  1  0.93791557  0.62594381  0.14237941  1
  O  O48  1  0.75000000  0.49266740  0.99698352  1
  O  O49  1  0.25000100  0.04160923  0.73247426  1
  O  O50  1  0.25000100  0.45838977  0.23247426  1
  O  O51  1  0.75000000  0.54160923  0.76752574  1
  O  O52  1  0.75000000  0.00733260  0.49698352  1
  O  O53  1  0.25000100  0.99266740  0.50301648  1
  O  O54  1  0.25000100  0.50733160  0.00301548  1
  O  O55  1  0.75000000  0.95839077  0.26752574  1
