# generated using pymatgen
data_CaSnP2O7
_symmetry_space_group_name_H-M   'P 1'
_cell_length_a   7.60959479
_cell_length_b   9.73415787
_cell_length_c   9.58592098
_cell_angle_alpha   90.00000000
_cell_angle_beta   113.27734046
_cell_angle_gamma   90.00000000
_symmetry_Int_Tables_number   1
_chemical_formula_structural   CaSnP2O7
_chemical_formula_sum   'Ca4 Sn4 P8 O28'
_cell_volume   652.26112986
_cell_formula_units_Z   4
loop_
 _symmetry_equiv_pos_site_id
 _symmetry_equiv_pos_as_xyz
  1  'x, y, z'
loop_
 _atom_site_type_symbol
 _atom_site_label
 _atom_site_symmetry_multiplicity
 _atom_site_fract_x
 _atom_site_fract_y
 _atom_site_fract_z
 _atom_site_occupancy
  Ca  Ca0  1  0.11045485  0.94800303  0.82191089  1
  Ca  Ca1  1  0.38954515  0.44800303  0.67808911  1
  Ca  Ca2  1  0.61045485  0.55199697  0.32191089  1
  Ca  Ca3  1  0.88954515  0.05199697  0.17808911  1
  Sn  Sn4  1  0.37407156  0.08150385  0.60844979  1
  Sn  Sn5  1  0.62592844  0.91849615  0.39155021  1
  Sn  Sn6  1  0.12592844  0.58150385  0.89155021  1
  Sn  Sn7  1  0.87407156  0.41849615  0.10844979  1
  P  P8  1  0.18575219  0.73916784  0.25522719  1
  P  P9  1  0.44196362  0.22307790  0.97331823  1
  P  P10  1  0.68575219  0.76083216  0.75522719  1
  P  P11  1  0.94196362  0.27692210  0.47331823  1
  P  P12  1  0.31424781  0.23916784  0.24477281  1
  P  P13  1  0.05803638  0.72307790  0.52668177  1
  P  P14  1  0.55803638  0.77692210  0.02668177  1
  P  P15  1  0.81424781  0.26083216  0.74477281  1
  O  O16  1  0.35042968  0.19115480  0.09627274  1
  O  O17  1  0.59370807  0.62219080  0.70038721  1
  O  O18  1  0.09370807  0.87780920  0.20038721  1
  O  O19  1  0.38107184  0.36486635  0.90235781  1
  O  O20  1  0.64957032  0.80884520  0.90372726  1
  O  O21  1  0.39024964  0.12028991  0.35785595  1
  O  O22  1  0.61892816  0.63513365  0.09764219  1
  O  O23  1  0.36037772  0.10341288  0.86055412  1
  O  O24  1  0.16148378  0.28501797  0.55704754  1
  O  O25  1  0.60975036  0.87971009  0.64214405  1
  O  O26  1  0.89024964  0.37971009  0.85785595  1
  O  O27  1  0.90846942  0.75694199  0.81320821  1
  O  O28  1  0.59153058  0.25694199  0.68679179  1
  O  O29  1  0.85042968  0.30884520  0.59627274  1
  O  O30  1  0.10975036  0.62028991  0.14214405  1
  O  O31  1  0.90629193  0.12219080  0.79961279  1
  O  O32  1  0.09153058  0.24305801  0.18679179  1
  O  O33  1  0.63962228  0.89658712  0.13944588  1
  O  O34  1  0.66148378  0.21498203  0.05704754  1
  O  O35  1  0.33851622  0.78501797  0.94295246  1
  O  O36  1  0.11892816  0.86486635  0.59764219  1
  O  O37  1  0.86037772  0.39658712  0.36055412  1
  O  O38  1  0.13962228  0.60341288  0.63944588  1
  O  O39  1  0.40629193  0.37780920  0.29961279  1
  O  O40  1  0.40846942  0.74305801  0.31320821  1
  O  O41  1  0.88107184  0.13513365  0.40235781  1
  O  O42  1  0.83851622  0.71498203  0.44295246  1
  O  O43  1  0.14957032  0.69115480  0.40372726  1
