# generated using pymatgen
data_SrCaMg30O32
_symmetry_space_group_name_H-M   'P 1'
_cell_length_a   8.63547492
_cell_length_b   8.64406296
_cell_length_c   8.64406296
_cell_angle_alpha   90.00000000
_cell_angle_beta   90.00000000
_cell_angle_gamma   90.00000000
_symmetry_Int_Tables_number   1
_chemical_formula_structural   SrCaMg30O32
_chemical_formula_sum   'Sr1 Ca1 Mg30 O32'
_cell_volume   645.24117012
_cell_formula_units_Z   1
loop_
 _symmetry_equiv_pos_site_id
 _symmetry_equiv_pos_as_xyz
  1  'x, y, z'
loop_
 _atom_site_type_symbol
 _atom_site_label
 _atom_site_symmetry_multiplicity
 _atom_site_fract_x
 _atom_site_fract_y
 _atom_site_fract_z
 _atom_site_occupancy
  Sr  Sr0  1  -0.00000000  0.50000000  0.50000000  1
  Ca  Ca1  1  -0.00000000  0.00000000  -0.00000000  1
  Mg  Mg2  1  -0.00000000  0.00000000  0.50000000  1
  Mg  Mg3  1  -0.00000000  0.50000000  -0.00000000  1
  Mg  Mg4  1  0.50000000  0.00000000  -0.00000000  1
  Mg  Mg5  1  0.50000000  0.00000000  0.50000000  1
  Mg  Mg6  1  0.50000000  0.50000000  -0.00000000  1
  Mg  Mg7  1  0.50000000  0.50000000  0.50000000  1
  Mg  Mg8  1  -0.00000000  0.24802896  0.24802896  1
  Mg  Mg9  1  -0.00000000  0.24802896  0.75197104  1
  Mg  Mg10  1  -0.00000000  0.75197104  0.24802896  1
  Mg  Mg11  1  -0.00000000  0.75197104  0.75197104  1
  Mg  Mg12  1  0.50000000  0.24981307  0.24981307  1
  Mg  Mg13  1  0.50000000  0.24981307  0.75018693  1
  Mg  Mg14  1  0.50000000  0.75018693  0.24981307  1
  Mg  Mg15  1  0.50000000  0.75018693  0.75018693  1
  Mg  Mg16  1  0.25341926  0.00000000  0.25265353  1
  Mg  Mg17  1  0.25341926  0.00000000  0.74734647  1
  Mg  Mg18  1  0.25526592  0.50000000  0.24508185  1
  Mg  Mg19  1  0.25526592  0.50000000  0.75491815  1
  Mg  Mg20  1  0.74658074  0.00000000  0.25265353  1
  Mg  Mg21  1  0.74658074  0.00000000  0.74734647  1
  Mg  Mg22  1  0.74473408  0.50000000  0.24508185  1
  Mg  Mg23  1  0.74473408  0.50000000  0.75491815  1
  Mg  Mg24  1  0.25341926  0.25265353  -0.00000000  1
  Mg  Mg25  1  0.25526592  0.24508185  0.50000000  1
  Mg  Mg26  1  0.25341926  0.74734647  -0.00000000  1
  Mg  Mg27  1  0.25526592  0.75491815  0.50000000  1
  Mg  Mg28  1  0.74658074  0.25265353  -0.00000000  1
  Mg  Mg29  1  0.74473408  0.24508185  0.50000000  1
  Mg  Mg30  1  0.74658074  0.74734647  -0.00000000  1
  Mg  Mg31  1  0.74473408  0.75491815  0.50000000  1
  O  O32  1  0.26255215  0.00000000  -0.00000000  1
  O  O33  1  0.25592353  0.00000000  0.50000000  1
  O  O34  1  0.25592353  0.50000000  -0.00000000  1
  O  O35  1  0.27025018  0.50000000  0.50000000  1
  O  O36  1  0.73744785  0.00000000  -0.00000000  1
  O  O37  1  0.74407647  0.00000000  0.50000000  1
  O  O38  1  0.74407647  0.50000000  -0.00000000  1
  O  O39  1  0.72974982  0.50000000  0.50000000  1
  O  O40  1  0.24983299  0.25012261  0.25012261  1
  O  O41  1  0.24983299  0.25012261  0.74987739  1
  O  O42  1  0.24983299  0.74987739  0.25012261  1
  O  O43  1  0.24983299  0.74987739  0.74987739  1
  O  O44  1  0.75016701  0.25012261  0.25012261  1
  O  O45  1  0.75016701  0.25012261  0.74987739  1
  O  O46  1  0.75016701  0.74987739  0.25012261  1
  O  O47  1  0.75016701  0.74987739  0.74987739  1
  O  O48  1  -0.00000000  0.00000000  0.25937773  1
  O  O49  1  -0.00000000  0.00000000  0.74062227  1
  O  O50  1  -0.00000000  0.50000000  0.23122666  1
  O  O51  1  -0.00000000  0.50000000  0.76877334  1
  O  O52  1  0.50000000  0.00000000  0.25131529  1
  O  O53  1  0.50000000  0.00000000  0.74868471  1
  O  O54  1  0.50000000  0.50000000  0.24665377  1
  O  O55  1  0.50000000  0.50000000  0.75334623  1
  O  O56  1  -0.00000000  0.25937773  -0.00000000  1
  O  O57  1  -0.00000000  0.23122666  0.50000000  1
  O  O58  1  -0.00000000  0.74062227  -0.00000000  1
  O  O59  1  -0.00000000  0.76877334  0.50000000  1
  O  O60  1  0.50000000  0.25131529  -0.00000000  1
  O  O61  1  0.50000000  0.24665377  0.50000000  1
  O  O62  1  0.50000000  0.74868471  -0.00000000  1
  O  O63  1  0.50000000  0.75334623  0.50000000  1
