# generated using pymatgen
data_MgCd2
_symmetry_space_group_name_H-M   'P 1'
_cell_length_a   3.12077208
_cell_length_b   3.12077172
_cell_length_c   15.95918074
_cell_angle_alpha   90.00000000
_cell_angle_beta   90.00000000
_cell_angle_gamma   119.99999163
_symmetry_Int_Tables_number   1
_chemical_formula_structural   MgCd2
_chemical_formula_sum   'Mg2 Cd4'
_cell_volume   134.60627775
_cell_formula_units_Z   2
loop_
 _symmetry_equiv_pos_site_id
 _symmetry_equiv_pos_as_xyz
  1  'x, y, z'
loop_
 _atom_site_type_symbol
 _atom_site_label
 _atom_site_symmetry_multiplicity
 _atom_site_fract_x
 _atom_site_fract_y
 _atom_site_fract_z
 _atom_site_occupancy
  Mg  Mg0  1  0.33333300  0.66666700  0.16625324  1
  Mg  Mg1  1  0.33333300  0.66666700  0.83374676  1
  Cd  Cd2  1  0.33333300  0.66666700  0.50000000  1
  Cd  Cd3  1  -0.00000000  -0.00000000  0.33083329  1
  Cd  Cd4  1  -0.00000000  -0.00000000  0.00000000  1
  Cd  Cd5  1  -0.00000000  -0.00000000  0.66916671  1
