# generated using pymatgen
data_Mg30AlCrO32
_symmetry_space_group_name_H-M   'P 1'
_cell_length_a   8.53614193
_cell_length_b   8.53431653
_cell_length_c   8.53431653
_cell_angle_alpha   90.00000000
_cell_angle_beta   90.00000000
_cell_angle_gamma   90.00000000
_symmetry_Int_Tables_number   1
_chemical_formula_structural   Mg30AlCrO32
_chemical_formula_sum   'Mg30 Al1 Cr1 O32'
_cell_volume   621.72612991
_cell_formula_units_Z   1
loop_
 _symmetry_equiv_pos_site_id
 _symmetry_equiv_pos_as_xyz
  1  'x, y, z'
loop_
 _atom_site_type_symbol
 _atom_site_label
 _atom_site_symmetry_multiplicity
 _atom_site_fract_x
 _atom_site_fract_y
 _atom_site_fract_z
 _atom_site_occupancy
  Mg  Mg0  1  0.00000000  -0.00000000  0.50000000  1
  Mg  Mg1  1  0.00000000  0.50000000  0.00000000  1
  Mg  Mg2  1  0.50000000  -0.00000000  0.00000000  1
  Mg  Mg3  1  0.50000000  -0.00000000  0.50000000  1
  Mg  Mg4  1  0.50000000  0.50000000  -0.00000000  1
  Mg  Mg5  1  0.50000000  0.50000000  0.50000000  1
  Mg  Mg6  1  0.00000000  0.25237425  0.25237425  1
  Mg  Mg7  1  0.00000000  0.25237425  0.74762575  1
  Mg  Mg8  1  0.00000000  0.74762575  0.25237425  1
  Mg  Mg9  1  0.00000000  0.74762575  0.74762575  1
  Mg  Mg10  1  0.50000000  0.25140377  0.25140377  1
  Mg  Mg11  1  0.50000000  0.25140377  0.74859623  1
  Mg  Mg12  1  0.50000000  0.74859623  0.25140377  1
  Mg  Mg13  1  0.50000000  0.74859623  0.74859623  1
  Mg  Mg14  1  0.25046381  -0.00000000  0.25174127  1
  Mg  Mg15  1  0.25046381  0.00000000  0.74825873  1
  Mg  Mg16  1  0.24968370  0.50000000  0.25191781  1
  Mg  Mg17  1  0.24968370  0.50000000  0.74808219  1
  Mg  Mg18  1  0.74953619  -0.00000000  0.25174127  1
  Mg  Mg19  1  0.74953619  0.00000000  0.74825873  1
  Mg  Mg20  1  0.75031630  0.50000000  0.25191781  1
  Mg  Mg21  1  0.75031630  0.50000000  0.74808219  1
  Mg  Mg22  1  0.25046381  0.25174127  -0.00000000  1
  Mg  Mg23  1  0.24968370  0.25191781  0.50000000  1
  Mg  Mg24  1  0.25046381  0.74825873  -0.00000000  1
  Mg  Mg25  1  0.24968370  0.74808219  0.50000000  1
  Mg  Mg26  1  0.74953619  0.25174127  -0.00000000  1
  Mg  Mg27  1  0.75031630  0.25191781  0.50000000  1
  Mg  Mg28  1  0.74953619  0.74825873  0.00000000  1
  Mg  Mg29  1  0.75031630  0.74808219  0.50000000  1
  Al  Al30  1  0.00000000  0.00000000  -0.00000000  1
  Cr  Cr31  1  0.00000000  0.50000000  0.50000000  1
  O  O32  1  0.23599262  -0.00000000  0.00000000  1
  O  O33  1  0.25049001  0.00000000  0.50000000  1
  O  O34  1  0.25049001  0.50000000  -0.00000000  1
  O  O35  1  0.26600527  0.50000000  0.50000000  1
  O  O36  1  0.76400738  0.00000000  0.00000000  1
  O  O37  1  0.74950999  -0.00000000  0.50000000  1
  O  O38  1  0.74950999  0.50000000  0.00000000  1
  O  O39  1  0.73399473  0.50000000  0.50000000  1
  O  O40  1  0.24975114  0.24969787  0.24969787  1
  O  O41  1  0.24975114  0.24969787  0.75030213  1
  O  O42  1  0.24975114  0.75030213  0.24969787  1
  O  O43  1  0.24975114  0.75030213  0.75030213  1
  O  O44  1  0.75024886  0.24969787  0.24969787  1
  O  O45  1  0.75024886  0.24969787  0.75030213  1
  O  O46  1  0.75024886  0.75030213  0.24969787  1
  O  O47  1  0.75024886  0.75030213  0.75030213  1
  O  O48  1  0.00000000  0.00000000  0.23216958  1
  O  O49  1  0.00000000  0.00000000  0.76783042  1
  O  O50  1  0.00000000  0.50000000  0.23189921  1
  O  O51  1  0.00000000  0.50000000  0.76810079  1
  O  O52  1  0.50000000  0.00000000  0.24698037  1
  O  O53  1  0.50000000  -0.00000000  0.75301963  1
  O  O54  1  0.50000000  0.50000000  0.24666713  1
  O  O55  1  0.50000000  0.50000000  0.75333287  1
  O  O56  1  0.00000000  0.23216958  -0.00000000  1
  O  O57  1  0.00000000  0.23189921  0.50000000  1
  O  O58  1  0.00000000  0.76783042  -0.00000000  1
  O  O59  1  0.00000000  0.76810079  0.50000000  1
  O  O60  1  0.50000000  0.24698037  0.00000000  1
  O  O61  1  0.50000000  0.24666713  0.50000000  1
  O  O62  1  0.50000000  0.75301963  -0.00000000  1
  O  O63  1  0.50000000  0.75333287  0.50000000  1
