# generated using pymatgen
data_MgMnPO5
_symmetry_space_group_name_H-M   'P 1'
_cell_length_a   5.41501562
_cell_length_b   6.90627216
_cell_length_c   8.37657462
_cell_angle_alpha   90.10872632
_cell_angle_beta   140.53845284
_cell_angle_gamma   74.94660159
_symmetry_Int_Tables_number   1
_chemical_formula_structural   MgMnPO5
_chemical_formula_sum   'Mg2 Mn2 P2 O10'
_cell_volume   181.91960702
_cell_formula_units_Z   2
loop_
 _symmetry_equiv_pos_site_id
 _symmetry_equiv_pos_as_xyz
  1  'x, y, z'
loop_
 _atom_site_type_symbol
 _atom_site_label
 _atom_site_symmetry_multiplicity
 _atom_site_fract_x
 _atom_site_fract_y
 _atom_site_fract_z
 _atom_site_occupancy
  Mg  Mg0  1  0.35156453  0.29938739  0.10802995  1
  Mg  Mg1  1  0.37038394  0.79170050  0.74985712  1
  Mn  Mn2  1  0.49047936  0.49294486  0.48471897  1
  Mn  Mn3  1  0.49505129  0.99336718  0.50408005  1
  P  P4  1  0.53736126  0.23363332  0.87529159  1
  P  P5  1  0.52433454  0.73289089  0.15687818  1
  O  O6  1  0.44329251  0.06435295  0.73603858  1
  O  O7  1  0.71021600  0.35327262  0.84367868  1
  O  O8  1  0.70258505  0.85012542  0.36329221  1
  O  O9  1  0.38511392  0.57938795  0.18119373  1
  O  O10  1  0.84696432  0.61383528  0.18263169  1
  O  O11  1  0.14977913  0.88901773  0.86690453  1
  O  O12  1  0.14134960  0.39061255  0.77116322  1
  O  O13  1  0.84563828  0.13267989  0.17253452  1
  O  O14  1  0.50039380  0.73683055  0.58626524  1
  O  O15  1  0.51644149  0.23335492  0.41597573  1
