# generated using pymatgen
data_CaV(Si2O5)2
_symmetry_space_group_name_H-M   'P 1'
_cell_length_a   7.49790352
_cell_length_b   7.49790352
_cell_length_c   15.43300308
_cell_angle_alpha   90.00000000
_cell_angle_beta   90.00000000
_cell_angle_gamma   90.00000000
_symmetry_Int_Tables_number   1
_chemical_formula_structural   CaV(Si2O5)2
_chemical_formula_sum   'Ca4 V4 Si16 O40'
_cell_volume   867.62116635
_cell_formula_units_Z   4
loop_
 _symmetry_equiv_pos_site_id
 _symmetry_equiv_pos_as_xyz
  1  'x, y, z'
loop_
 _atom_site_type_symbol
 _atom_site_label
 _atom_site_symmetry_multiplicity
 _atom_site_fract_x
 _atom_site_fract_y
 _atom_site_fract_z
 _atom_site_occupancy
  Ca  Ca0  1  0.25000000  0.75000000  0.50000000  1
  Ca  Ca1  1  0.75000000  0.25000000  0.50000000  1
  Ca  Ca2  1  0.75000000  0.25000000  -0.00000000  1
  Ca  Ca3  1  0.25000000  0.75000000  -0.00000000  1
  V  V4  1  0.25000000  0.25000000  0.58024845  1
  V  V5  1  0.75000000  0.75000000  0.91975155  1
  V  V6  1  0.75000000  0.75000000  0.41975155  1
  V  V7  1  0.25000000  0.25000000  0.08024845  1
  Si  Si8  1  0.92008269  0.50292336  0.64887843  1
  Si  Si9  1  0.57991731  0.99707664  0.64887843  1
  Si  Si10  1  0.00292336  0.42008269  0.85112157  1
  Si  Si11  1  0.50292336  0.57991731  0.64887843  1
  Si  Si12  1  0.99707664  0.92008269  0.64887843  1
  Si  Si13  1  0.07991731  0.00292336  0.85112157  1
  Si  Si14  1  0.42008269  0.49707664  0.85112157  1
  Si  Si15  1  0.49707664  0.07991731  0.85112157  1
  Si  Si16  1  0.07991731  0.49707664  0.35112157  1
  Si  Si17  1  0.42008269  0.00292336  0.35112157  1
  Si  Si18  1  0.99707664  0.57991731  0.14887843  1
  Si  Si19  1  0.49707664  0.42008269  0.35112157  1
  Si  Si20  1  0.00292336  0.07991731  0.35112157  1
  Si  Si21  1  0.92008269  0.99707664  0.14887843  1
  Si  Si22  1  0.57991731  0.50292336  0.14887843  1
  Si  Si23  1  0.50292336  0.92008269  0.14887843  1
  O  O24  1  0.99718136  0.35658878  0.58261998  1
  O  O25  1  0.50281864  0.14341122  0.58261998  1
  O  O26  1  0.85658878  0.49718136  0.91738002  1
  O  O27  1  0.35658878  0.50281864  0.58261998  1
  O  O28  1  0.14341122  0.99718136  0.58261998  1
  O  O29  1  0.00281864  0.85658878  0.91738002  1
  O  O30  1  0.49718136  0.64341122  0.91738002  1
  O  O31  1  0.64341122  0.00281864  0.91738002  1
  O  O32  1  0.00281864  0.64341122  0.41738002  1
  O  O33  1  0.49718136  0.85658878  0.41738002  1
  O  O34  1  0.14341122  0.50281864  0.08261998  1
  O  O35  1  0.64341122  0.49718136  0.41738002  1
  O  O36  1  0.85658878  0.00281864  0.41738002  1
  O  O37  1  0.99718136  0.14341122  0.08261998  1
  O  O38  1  0.50281864  0.35658878  0.08261998  1
  O  O39  1  0.00216321  0.29618885  0.37070989  1
  O  O40  1  0.35658878  0.99718136  0.08261998  1
  O  O41  1  0.50216321  0.79618885  0.62929011  1
  O  O42  1  0.20381115  0.49783679  0.87070989  1
  O  O43  1  0.70381115  0.50216321  0.62929011  1
  O  O44  1  0.79618885  0.99783679  0.62929011  1
  O  O45  1  0.00216321  0.20381115  0.87070989  1
  O  O46  1  0.49783679  0.29618885  0.87070989  1
  O  O47  1  0.29618885  0.00216321  0.87070989  1
  O  O48  1  0.45761733  0.95761633  0.25000000  1
  O  O49  1  0.54238367  0.45761733  0.25000000  1
  O  O50  1  0.95761633  0.04238367  0.25000000  1
  O  O51  1  0.04238367  0.54238367  0.25000000  1
  O  O52  1  0.54238367  0.04238367  0.75000000  1
  O  O53  1  0.45761733  0.54238367  0.75000000  1
  O  O54  1  0.04238367  0.95761633  0.75000000  1
  O  O55  1  0.95761633  0.45761733  0.75000000  1
  O  O56  1  0.70381115  0.99783679  0.12929011  1
  O  O57  1  0.50216321  0.70381115  0.12929011  1
  O  O58  1  0.99783679  0.79618885  0.12929011  1
  O  O59  1  0.20381115  0.00216321  0.37070989  1
  O  O60  1  0.29618885  0.49783679  0.37070989  1
  O  O61  1  0.79618885  0.50216321  0.12929011  1
  O  O62  1  0.49783679  0.20381115  0.37070989  1
  O  O63  1  0.99783679  0.70381115  0.62929011  1
