# generated using pymatgen
data_Zn(CuO2)2
_symmetry_space_group_name_H-M   'P 1'
_cell_length_a   5.94798170
_cell_length_b   5.94748767
_cell_length_c   17.81412392
_cell_angle_alpha   59.95164055
_cell_angle_beta   59.95286557
_cell_angle_gamma   59.98902300
_symmetry_Int_Tables_number   1
_chemical_formula_structural   Zn(CuO2)2
_chemical_formula_sum   'Zn6 Cu12 O24'
_cell_volume   445.24889464
_cell_formula_units_Z   6
loop_
 _symmetry_equiv_pos_site_id
 _symmetry_equiv_pos_as_xyz
  1  'x, y, z'
loop_
 _atom_site_type_symbol
 _atom_site_label
 _atom_site_symmetry_multiplicity
 _atom_site_fract_x
 _atom_site_fract_y
 _atom_site_fract_z
 _atom_site_occupancy
  Zn  Zn0  1  0.12161334  0.12170579  0.04504580  1
  Zn  Zn1  1  0.12393368  0.12408484  0.37599852  1
  Zn  Zn2  1  0.50012390  0.50000077  0.99983884  1
  Zn  Zn3  1  0.12334563  0.12327304  0.71000749  1
  Zn  Zn4  1  0.87751483  0.87734473  0.28926900  1
  Zn  Zn5  1  0.87479362  0.87483121  0.62519434  1
  Cu  Cu6  1  0.00002729  0.50004651  0.16666082  1
  Cu  Cu7  1  0.50005439  0.50004179  0.16660610  1
  Cu  Cu8  1  0.99981529  0.50010195  0.50001019  1
  Cu  Cu9  1  0.50008223  0.00001992  0.16664050  1
  Cu  Cu10  1  0.49844593  0.49838059  0.33484853  1
  Cu  Cu11  1  0.50005430  0.50010284  0.49998442  1
  Cu  Cu12  1  0.00013342  0.49949333  0.83362139  1
  Cu  Cu13  1  0.50007202  0.99980534  0.50002105  1
  Cu  Cu14  1  0.49949342  0.00015143  0.83360652  1
  Cu  Cu15  1  0.50082849  0.50084088  0.66587912  1
  Cu  Cu16  1  0.49960689  0.49962581  0.83355672  1
  Cu  Cu17  1  0.87673676  0.87663263  0.95658823  1
  O  O18  1  0.25311353  0.25359051  0.09249820  1
  O  O19  1  0.25912284  0.25922881  0.24103447  1
  O  O20  1  0.25294159  0.71576778  0.09266935  1
  O  O21  1  0.71578303  0.25329063  0.09259767  1
  O  O22  1  0.28999853  0.73796601  0.24463439  1
  O  O23  1  0.26100080  0.26100501  0.42029097  1
  O  O24  1  0.73833432  0.28993360  0.24457350  1
  O  O25  1  0.74471750  0.74448961  0.08846646  1
  O  O26  1  0.26135437  0.71724996  0.42009436  1
  O  O27  1  0.26020143  0.26029243  0.57282545  1
  O  O28  1  0.73847729  0.73799216  0.24464435  1
  O  O29  1  0.71717710  0.26138234  0.42010397  1
  O  O30  1  0.28258929  0.73908828  0.57964477  1
  O  O31  1  0.26184388  0.26128182  0.75437788  1
  O  O32  1  0.73913696  0.28263030  0.57960851  1
  O  O33  1  0.74067855  0.74065415  0.42623991  1
  O  O34  1  0.25906584  0.25870548  0.90800087  1
  O  O35  1  0.26141534  0.71393308  0.75422586  1
  O  O36  1  0.73945284  0.73941820  0.57950914  1
  O  O37  1  0.71380403  0.26109545  0.75429170  1
  O  O38  1  0.27763853  0.74953784  0.90820016  1
  O  O39  1  0.73795806  0.73835648  0.76163461  1
  O  O40  1  0.74912709  0.27753077  0.90827365  1
  O  O41  1  0.74839084  0.74909792  0.90818220  1
