# generated using pymatgen
data_Ca(BiO3)2
_symmetry_space_group_name_H-M   'P 1'
_cell_length_a   5.67182693
_cell_length_b   5.91557857
_cell_length_c   8.16907125
_cell_angle_alpha   90.00508561
_cell_angle_beta   89.99998934
_cell_angle_gamma   89.99570066
_symmetry_Int_Tables_number   1
_chemical_formula_structural   Ca(BiO3)2
_chemical_formula_sum   'Ca2 Bi4 O12'
_cell_volume   274.08980295
_cell_formula_units_Z   2
loop_
 _symmetry_equiv_pos_site_id
 _symmetry_equiv_pos_as_xyz
  1  'x, y, z'
loop_
 _atom_site_type_symbol
 _atom_site_label
 _atom_site_symmetry_multiplicity
 _atom_site_fract_x
 _atom_site_fract_y
 _atom_site_fract_z
 _atom_site_occupancy
  Ca  Ca0  1  0.52177489  0.57760330  0.25007560  1
  Ca  Ca1  1  0.02186295  0.92242194  0.74989362  1
  Bi  Bi2  1  0.50415276  0.01305753  0.00014629  1
  Bi  Bi3  1  0.00415076  0.48698275  0.99985322  1
  Bi  Bi4  1  0.00435152  0.48697752  0.50008292  1
  Bi  Bi5  1  0.50436727  0.01306442  0.49988295  1
  O  O6  1  0.67955870  0.31935208  0.43928976  1
  O  O7  1  0.17958040  0.18071351  0.56073435  1
  O  O8  1  0.79641139  0.78896638  0.05319471  1
  O  O9  1  0.29646093  0.71100859  0.94691470  1
  O  O10  1  0.29695935  0.71072293  0.55276021  1
  O  O11  1  0.79694467  0.78929876  0.44712429  1
  O  O12  1  0.17921542  0.18057997  0.93937742  1
  O  O13  1  0.67921064  0.31945266  0.06058482  1
  O  O14  1  0.12675249  0.47141067  0.24995176  1
  O  O15  1  0.62672601  0.02835260  0.75003696  1
  O  O16  1  0.40182498  0.95825505  0.25003447  1
  O  O17  1  0.90187588  0.54183935  0.74995296  1
