# generated using pymatgen
data_MgV3P3O13
_symmetry_space_group_name_H-M   'P 1'
_cell_length_a   6.40128044
_cell_length_b   7.67739217
_cell_length_c   10.10082632
_cell_angle_alpha   100.14931687
_cell_angle_beta   90.00000000
_cell_angle_gamma   90.00000000
_symmetry_Int_Tables_number   1
_chemical_formula_structural   MgV3P3O13
_chemical_formula_sum   'Mg2 V6 P6 O26'
_cell_volume   488.63869277
_cell_formula_units_Z   2
loop_
 _symmetry_equiv_pos_site_id
 _symmetry_equiv_pos_as_xyz
  1  'x, y, z'
loop_
 _atom_site_type_symbol
 _atom_site_label
 _atom_site_symmetry_multiplicity
 _atom_site_fract_x
 _atom_site_fract_y
 _atom_site_fract_z
 _atom_site_occupancy
  Mg  Mg0  1  0.75000000  0.62638957  0.18455278  1
  Mg  Mg1  1  0.25000000  0.37361043  0.81544722  1
  V  V2  1  0.25000000  0.35817327  0.20028024  1
  V  V3  1  0.75000000  0.64182673  0.79971976  1
  V  V4  1  0.25000000  0.78122483  0.43318309  1
  V  V5  1  0.50000000  -0.00000000  -0.00000000  1
  V  V6  1  0.75000000  0.21877517  0.56681691  1
  V  V7  1  0.00000000  -0.00000000  -0.00000000  1
  P  P8  1  0.25000000  0.21557179  0.49826829  1
  P  P9  1  0.75000000  0.78442821  0.50173171  1
  P  P10  1  0.25000000  0.72809343  0.76261530  1
  P  P11  1  0.75000000  0.27190657  0.23738470  1
  P  P12  1  0.75000000  0.32050781  0.89074204  1
  P  P13  1  0.25000000  0.67949219  0.10925796  1
  O  O14  1  0.75000000  0.36868056  0.74649167  1
  O  O15  1  0.56382508  0.74865916  0.40223495  1
  O  O16  1  0.25000000  0.77287229  0.62256625  1
  O  O17  1  0.54522937  0.21709509  0.90374679  1
  O  O18  1  0.75000000  0.65981475  0.60511458  1
  O  O19  1  0.75000000  0.88011025  0.90717811  1
  O  O20  1  0.25000000  0.34018525  0.39488542  1
  O  O21  1  0.04522937  0.78290491  0.09625321  1
  O  O22  1  0.25000000  0.02356492  0.41816130  1
  O  O23  1  0.75000000  0.97643508  0.58183870  1
  O  O24  1  0.06393631  0.60797872  0.78911539  1
  O  O25  1  0.25000000  0.11988975  0.09282189  1
  O  O26  1  0.56393631  0.39202128  0.21088461  1
  O  O27  1  0.75000000  0.51070809  0.97627783  1
  O  O28  1  0.75000000  0.22712771  0.37743375  1
  O  O29  1  0.45477063  0.78290491  0.09625321  1
  O  O30  1  0.93617492  0.74865916  0.40223495  1
  O  O31  1  0.43617492  0.25134084  0.59776505  1
  O  O32  1  0.43606369  0.60797872  0.78911539  1
  O  O33  1  0.25000000  0.63131944  0.25350833  1
  O  O34  1  0.75000000  0.09730780  0.13282407  1
  O  O35  1  0.25000000  0.90269220  0.86717593  1
  O  O36  1  0.93606369  0.39202128  0.21088461  1
  O  O37  1  0.95477063  0.21709509  0.90374679  1
  O  O38  1  0.06382508  0.25134084  0.59776505  1
  O  O39  1  0.25000000  0.48929191  0.02372217  1
