# generated using pymatgen
data_CaF2
_symmetry_space_group_name_H-M   'P 1'
_cell_length_a   3.64279305
_cell_length_b   6.01346156
_cell_length_c   7.08072845
_cell_angle_alpha   90.00000000
_cell_angle_beta   90.00000000
_cell_angle_gamma   90.00000000
_symmetry_Int_Tables_number   1
_chemical_formula_structural   CaF2
_chemical_formula_sum   'Ca4 F8'
_cell_volume   155.10899280
_cell_formula_units_Z   4
loop_
 _symmetry_equiv_pos_site_id
 _symmetry_equiv_pos_as_xyz
  1  'x, y, z'
loop_
 _atom_site_type_symbol
 _atom_site_label
 _atom_site_symmetry_multiplicity
 _atom_site_fract_x
 _atom_site_fract_y
 _atom_site_fract_z
 _atom_site_occupancy
  F  F0  1  0.25000000  0.98465334  0.66059431  1
  F  F1  1  0.75000000  0.01534666  0.33940569  1
  F  F2  1  0.25000000  0.48465334  0.83940569  1
  F  F3  1  0.75000000  0.51534666  0.16059431  1
  F  F4  1  0.75000000  0.14135270  0.92227666  1
  F  F5  1  0.25000000  0.85864730  0.07772334  1
  F  F6  1  0.75000000  0.64135270  0.57772334  1
  F  F7  1  0.25000000  0.35864730  0.42227666  1
  Ca  Ca8  1  0.25000000  0.75148030  0.39445554  1
  Ca  Ca9  1  0.75000000  0.24851970  0.60554446  1
  Ca  Ca10  1  0.25000000  0.25148030  0.10554446  1
  Ca  Ca11  1  0.75000000  0.74851970  0.89445554  1
