# generated using pymatgen
data_MgTiP3WO12
_symmetry_space_group_name_H-M   'P 1'
_cell_length_a   8.67876905
_cell_length_b   8.67876878
_cell_length_c   8.67876914
_cell_angle_alpha   60.67963678
_cell_angle_beta   60.67963943
_cell_angle_gamma   60.67964015
_symmetry_Int_Tables_number   1
_chemical_formula_structural   MgTiP3WO12
_chemical_formula_sum   'Mg2 Ti2 P6 W2 O24'
_cell_volume   469.32272389
_cell_formula_units_Z   2
loop_
 _symmetry_equiv_pos_site_id
 _symmetry_equiv_pos_as_xyz
  1  'x, y, z'
loop_
 _atom_site_type_symbol
 _atom_site_label
 _atom_site_symmetry_multiplicity
 _atom_site_fract_x
 _atom_site_fract_y
 _atom_site_fract_z
 _atom_site_occupancy
  Mg  Mg0  1  0.00170543  0.00170543  0.00170543  1
  Mg  Mg1  1  0.50170543  0.50170543  0.50170543  1
  Ti  Ti2  1  0.14653727  0.14653727  0.14653727  1
  Ti  Ti3  1  0.64653727  0.64653727  0.64653727  1
  P  P4  1  0.04245161  0.44731283  0.75969520  1
  P  P5  1  0.44731283  0.75969520  0.04245161  1
  P  P6  1  0.75969520  0.04245161  0.44731283  1
  P  P7  1  0.25969520  0.94731283  0.54245161  1
  P  P8  1  0.54245161  0.25969520  0.94731283  1
  P  P9  1  0.94731283  0.54245161  0.25969520  1
  W  W10  1  0.35798297  0.35798297  0.35798297  1
  W  W11  1  0.85798297  0.85798297  0.85798297  1
  O  O12  1  0.09311457  0.50198007  0.33275912  1
  O  O13  1  0.33275912  0.09311457  0.50198007  1
  O  O14  1  0.05171440  0.25249637  0.91603097  1
  O  O15  1  0.50198007  0.33275912  0.09311457  1
  O  O16  1  0.00198007  0.59311457  0.83276012  1
  O  O17  1  0.23633200  0.43378236  0.60370929  1
  O  O18  1  0.25249637  0.91603097  0.05171440  1
  O  O19  1  0.43378236  0.60370929  0.23633200  1
  O  O20  1  0.19240332  0.00233070  0.37765853  1
  O  O21  1  0.60370929  0.23633200  0.43378236  1
  O  O22  1  0.10370929  0.93378236  0.73633200  1
  O  O23  1  0.37765853  0.19240332  0.00233070  1
  O  O24  1  0.59311457  0.83276012  0.00198007  1
  O  O25  1  0.91603097  0.05171440  0.25249637  1
  O  O26  1  0.41603097  0.75249637  0.55171440  1
  O  O27  1  0.83276012  0.00198007  0.59311457  1
  O  O28  1  0.55171440  0.41603097  0.75249637  1
  O  O29  1  0.73633200  0.10370929  0.93378236  1
  O  O30  1  0.75249637  0.55171440  0.41603097  1
  O  O31  1  0.00233070  0.37765853  0.19240332  1
  O  O32  1  0.50233070  0.69240332  0.87765853  1
  O  O33  1  0.93378236  0.73633200  0.10370929  1
  O  O34  1  0.69240332  0.87765853  0.50233070  1
  O  O35  1  0.87765853  0.50233070  0.69240332  1
