# generated using pymatgen
data_Sr2YGaFe2O7
_symmetry_space_group_name_H-M   'P 1'
_cell_length_a   5.59828920
_cell_length_b   5.73664412
_cell_length_c   12.03034115
_cell_angle_alpha   103.87821756
_cell_angle_beta   103.49187080
_cell_angle_gamma   89.95207981
_symmetry_Int_Tables_number   1
_chemical_formula_structural   Sr2YGaFe2O7
_chemical_formula_sum   'Sr4 Y2 Ga2 Fe4 O14'
_cell_volume   364.10699263
_cell_formula_units_Z   2
loop_
 _symmetry_equiv_pos_site_id
 _symmetry_equiv_pos_as_xyz
  1  'x, y, z'
loop_
 _atom_site_type_symbol
 _atom_site_label
 _atom_site_symmetry_multiplicity
 _atom_site_fract_x
 _atom_site_fract_y
 _atom_site_fract_z
 _atom_site_occupancy
  Sr  Sr0  1  0.14217270  0.17668624  0.30246587  1
  Sr  Sr1  1  0.83418898  0.82128499  0.69437139  1
  Sr  Sr2  1  0.64049030  0.62597928  0.30269644  1
  Sr  Sr3  1  0.33525851  0.37491593  0.69442968  1
  Y  Y4  1  0.49464573  0.50431442  0.00351140  1
  Y  Y5  1  0.99521683  0.00260858  0.00334225  1
  Ga  Ga6  1  0.20932782  0.82204501  0.49688563  1
  Ga  Ga7  1  0.70954694  0.17553770  0.49698213  1
  Fe  Fe8  1  0.42167975  0.93269672  0.85548097  1
  Fe  Fe9  1  0.07343488  0.58338924  0.15744575  1
  Fe  Fe10  1  0.92150214  0.42487998  0.85524336  1
  Fe  Fe11  1  0.57423191  0.07660375  0.15714387  1
  O  O12  1  0.81070468  0.32884749  0.12539226  1
  O  O13  1  0.86903265  0.87896563  0.49784429  1
  O  O14  1  0.31129163  0.29966669  0.12597890  1
  O  O15  1  0.85313925  0.38006272  0.64088207  1
  O  O16  1  0.68663789  0.17950370  0.86988309  1
  O  O17  1  0.18706439  0.19308238  0.87092644  1
  O  O18  1  0.36911523  0.11930727  0.49782953  1
  O  O19  1  0.17855804  0.69579266  0.87397915  1
  O  O20  1  0.67765773  0.67984375  0.87268689  1
  O  O21  1  0.35304890  0.76185018  0.64068949  1
  O  O22  1  0.20326493  0.62246796  0.35077245  1
  O  O23  1  0.70254481  0.22768155  0.35064310  1
  O  O24  1  0.81095661  0.82776465  0.12773102  1
  O  O25  1  0.31149477  0.80369452  0.12985057  1
