# generated using pymatgen
data_ZnSn(PO3)4
_symmetry_space_group_name_H-M   'P 1'
_cell_length_a   7.60507833
_cell_length_b   7.59253032
_cell_length_c   10.47396317
_cell_angle_alpha   100.73048423
_cell_angle_beta   107.05558079
_cell_angle_gamma   109.74249225
_symmetry_Int_Tables_number   1
_chemical_formula_structural   ZnSn(PO3)4
_chemical_formula_sum   'Zn2 Sn2 P8 O24'
_cell_volume   516.13086609
_cell_formula_units_Z   2
loop_
 _symmetry_equiv_pos_site_id
 _symmetry_equiv_pos_as_xyz
  1  'x, y, z'
loop_
 _atom_site_type_symbol
 _atom_site_label
 _atom_site_symmetry_multiplicity
 _atom_site_fract_x
 _atom_site_fract_y
 _atom_site_fract_z
 _atom_site_occupancy
  Zn  Zn0  1  0.74270180  0.99272453  0.74987514  1
  Zn  Zn1  1  0.25580005  0.00787367  0.24941518  1
  Sn  Sn2  1  0.49967239  0.49976280  0.50045759  1
  Sn  Sn3  1  0.50073424  0.99950864  0.00112606  1
  P  P4  1  0.52038967  0.31556492  0.81684195  1
  P  P5  1  0.00107578  0.70205203  0.68413804  1
  P  P6  1  0.48268973  0.68258481  0.18424616  1
  P  P7  1  0.99947050  0.29829852  0.31576745  1
  P  P8  1  0.76867969  0.72831515  0.01341671  1
  P  P9  1  0.21644947  0.75606732  0.48721008  1
  P  P10  1  0.23289596  0.27017954  0.98687028  1
  P  P11  1  0.78592874  0.24579182  0.51354529  1
  O  O12  1  0.34318507  0.28918084  0.87606911  1
  O  O13  1  0.92015855  0.46570883  0.62577415  1
  O  O14  1  0.66062821  0.70888120  0.12549933  1
  O  O15  1  0.08572849  0.53493026  0.37643185  1
  O  O16  1  0.71460030  0.50140710  0.93765129  1
  O  O17  1  0.06570842  0.77712725  0.56343220  1
  O  O18  1  0.28816769  0.49765681  0.06237219  1
  O  O19  1  0.93513759  0.22272458  0.43641132  1
  O  O20  1  0.45387968  0.35310835  0.68026906  1
  O  O21  1  0.17465052  0.77396181  0.82110336  1
  O  O22  1  0.54837110  0.64295278  0.32010058  1
  O  O23  1  0.82470460  0.23030016  0.17994493  1
  O  O24  1  0.57656881  0.14185294  0.82015994  1
  O  O25  1  0.82230344  0.75211564  0.68016808  1
  O  O26  1  0.42777612  0.85728303  0.18231769  1
  O  O27  1  0.17519374  0.24461502  0.31712545  1
  O  O28  1  0.67107677  0.81432189  0.90871178  1
  O  O29  1  0.40757542  0.76453433  0.59201718  1
  O  O30  1  0.32930560  0.18419233  0.09227452  1
  O  O31  1  0.59612242  0.24113532  0.40972155  1
  O  O32  1  0.99124690  0.82518291  0.09456368  1
  O  O33  1  0.23058774  0.89653291  0.40486366  1
  O  O34  1  0.01064658  0.17330490  0.90444763  1
  O  O35  1  0.76916025  0.10349108  0.59438455  1
