# generated using pymatgen
data_CaBi2P2O9
_symmetry_space_group_name_H-M   'P 1'
_cell_length_a   7.14482684
_cell_length_b   7.24521757
_cell_length_c   16.02804296
_cell_angle_alpha   90.00000000
_cell_angle_beta   90.00000000
_cell_angle_gamma   90.00000000
_symmetry_Int_Tables_number   1
_chemical_formula_structural   CaBi2P2O9
_chemical_formula_sum   'Ca4 Bi8 P8 O36'
_cell_volume   829.70486625
_cell_formula_units_Z   4
loop_
 _symmetry_equiv_pos_site_id
 _symmetry_equiv_pos_as_xyz
  1  'x, y, z'
loop_
 _atom_site_type_symbol
 _atom_site_label
 _atom_site_symmetry_multiplicity
 _atom_site_fract_x
 _atom_site_fract_y
 _atom_site_fract_z
 _atom_site_occupancy
  Ca  Ca0  1  0.75000000  0.91029172  0.77706365  1
  Ca  Ca1  1  0.75000000  0.58970828  0.27706365  1
  Ca  Ca2  1  0.25000100  0.41029072  0.72293635  1
  Ca  Ca3  1  0.25000100  0.08970828  0.22293635  1
  Bi  Bi4  1  0.75000000  0.39712825  0.88177688  1
  Bi  Bi5  1  0.25000100  0.60287175  0.11822312  1
  Bi  Bi6  1  0.25000100  0.89712825  0.61822312  1
  Bi  Bi7  1  0.75000000  0.10287175  0.38177688  1
  Bi  Bi8  1  0.50000000  -0.00000000  0.00000000  1
  Bi  Bi9  1  0.50000000  0.50000000  0.50000000  1
  Bi  Bi10  1  -0.00000000  0.50000000  0.50000000  1
  Bi  Bi11  1  -0.00000000  -0.00000000  0.00000000  1
  P  P12  1  0.25000100  0.39537086  0.91696383  1
  P  P13  1  0.75000000  0.60462914  0.08303717  1
  P  P14  1  0.75000000  0.89537086  0.58303617  1
  P  P15  1  0.25000100  0.10463014  0.41696383  1
  P  P16  1  0.75000000  0.40047868  0.69212546  1
  P  P17  1  0.75000000  0.09952132  0.19212546  1
  P  P18  1  0.25000100  0.90047868  0.80787454  1
  P  P19  1  0.25000100  0.59952032  0.30787454  1
  O  O20  1  0.06683427  0.60897925  0.36084076  1
  O  O21  1  0.56683327  0.39101975  0.63915924  1
  O  O22  1  0.93316573  0.10897925  0.13915924  1
  O  O23  1  0.43316573  0.89102075  0.86084076  1
  O  O24  1  0.93316573  0.39101975  0.63915924  1
  O  O25  1  0.43316573  0.60897925  0.36084076  1
  O  O26  1  0.06683427  0.89102075  0.86084076  1
  O  O27  1  0.56683327  0.10897925  0.13915924  1
  O  O28  1  0.25000100  0.27842525  0.47796838  1
  O  O29  1  0.75000000  0.72157575  0.52203162  1
  O  O30  1  0.75000000  0.77842425  0.02203062  1
  O  O31  1  0.25000100  0.22157575  0.97796838  1
  O  O32  1  0.75000000  0.10878990  0.92043808  1
  O  O33  1  0.25000100  0.89121010  0.07956092  1
  O  O34  1  0.25000100  0.60878990  0.57956092  1
  O  O35  1  0.75000000  0.39121110  0.42043908  1
  O  O36  1  0.75000000  0.23290162  0.75461236  1
  O  O37  1  0.25000100  0.76709838  0.24538864  1
  O  O38  1  0.25000100  0.73290162  0.74538764  1
  O  O39  1  0.75000000  0.26709938  0.25461136  1
  O  O40  1  0.42182063  0.11619522  0.35776764  1
  O  O41  1  0.92182063  0.88380478  0.64223236  1
  O  O42  1  0.57817937  0.61619422  0.14223236  1
  O  O43  1  0.07817937  0.38380478  0.85776764  1
  O  O44  1  0.57817937  0.88380478  0.64223236  1
  O  O45  1  0.07817937  0.11619522  0.35776764  1
  O  O46  1  0.42182063  0.38380478  0.85776764  1
  O  O47  1  0.92182063  0.61619422  0.14223236  1
  O  O48  1  0.75000000  0.43096179  0.02917157  1
  O  O49  1  0.25000100  0.07603302  0.75187396  1
  O  O50  1  0.25000100  0.42396598  0.25187396  1
  O  O51  1  0.75000000  0.57603302  0.74812604  1
  O  O52  1  0.75000000  0.06903821  0.52917157  1
  O  O53  1  0.25000100  0.93096179  0.47082843  1
  O  O54  1  0.25000100  0.56903721  0.97082743  1
  O  O55  1  0.75000000  0.92396698  0.24812604  1
