# generated using pymatgen
data_LiMg6Co
_symmetry_space_group_name_H-M   'P 1'
_cell_length_a   6.07159141
_cell_length_b   6.29152776
_cell_length_c   4.82348150
_cell_angle_alpha   90.00000000
_cell_angle_beta   90.00000000
_cell_angle_gamma   121.20569279
_symmetry_Int_Tables_number   1
_chemical_formula_structural   LiMg6Co
_chemical_formula_sum   'Li1 Mg6 Co1'
_cell_volume   157.59565392
_cell_formula_units_Z   1
loop_
 _symmetry_equiv_pos_site_id
 _symmetry_equiv_pos_as_xyz
  1  'x, y, z'
loop_
 _atom_site_type_symbol
 _atom_site_label
 _atom_site_symmetry_multiplicity
 _atom_site_fract_x
 _atom_site_fract_y
 _atom_site_fract_z
 _atom_site_occupancy
  Li  Li0  1  0.17115563  0.83557732  0.25000000  1
  Mg  Mg1  1  0.67013061  0.33434355  0.25000000  1
  Mg  Mg2  1  0.67013061  0.83578606  0.25000000  1
  Mg  Mg3  1  0.31770301  0.17132983  0.75000000  1
  Mg  Mg4  1  0.31770301  0.64637418  0.75000000  1
  Mg  Mg5  1  0.84722698  0.17361399  0.75000000  1
  Mg  Mg6  1  0.83541858  0.66770979  0.75000000  1
  Co  Co7  1  0.17053157  0.33526528  0.25000000  1
