# generated using pymatgen
data_Sr5Ca3Ti3Mn5O24
_symmetry_space_group_name_H-M   'P 1'
_cell_length_a   7.77890959
_cell_length_b   7.77539850
_cell_length_c   7.73531486
_cell_angle_alpha   90.01015982
_cell_angle_beta   90.00660306
_cell_angle_gamma   90.00926078
_symmetry_Int_Tables_number   1
_chemical_formula_structural   Sr5Ca3Ti3Mn5O24
_chemical_formula_sum   'Sr5 Ca3 Ti3 Mn5 O24'
_cell_volume   467.86371065
_cell_formula_units_Z   1
loop_
 _symmetry_equiv_pos_site_id
 _symmetry_equiv_pos_as_xyz
  1  'x, y, z'
loop_
 _atom_site_type_symbol
 _atom_site_label
 _atom_site_symmetry_multiplicity
 _atom_site_fract_x
 _atom_site_fract_y
 _atom_site_fract_z
 _atom_site_occupancy
  Sr  Sr0  1  0.24868214  0.24859986  0.24607115  1
  Sr  Sr1  1  0.24869552  0.24861534  0.75404103  1
  Sr  Sr2  1  0.75129087  0.24871706  0.24602699  1
  Sr  Sr3  1  0.75125079  0.24863312  0.75399526  1
  Sr  Sr4  1  0.75140451  0.75135672  0.24568589  1
  Ca  Ca5  1  0.24840179  0.75166463  0.24451699  1
  Ca  Ca6  1  0.24828829  0.75162773  0.75561112  1
  Ca  Ca7  1  0.75169554  0.75168787  0.75509691  1
  Ti  Ti8  1  0.00070113  0.50305679  0.50098864  1
  Ti  Ti9  1  0.49902561  0.99792023  0.50098015  1
  Ti  Ti10  1  0.49933058  0.50203595  0.50103584  1
  Mn  Mn11  1  0.00056421  0.99849276  0.99949423  1
  Mn  Mn12  1  0.00045171  0.99867323  0.50063276  1
  Mn  Mn13  1  0.00052567  0.50178700  0.99966142  1
  Mn  Mn14  1  0.49942842  0.99829420  0.99961861  1
  Mn  Mn15  1  0.49942929  0.50164530  0.99967785  1
  O  O16  1  0.25007684  0.99435594  0.99971873  1
  O  O17  1  0.24684232  0.99575837  0.50044372  1
  O  O18  1  0.24979258  0.50561554  0.99978862  1
  O  O19  1  0.24950294  0.50365085  0.50048179  1
  O  O20  1  0.74997561  0.99677751  0.99725396  1
  O  O21  1  0.75310196  0.99720133  0.50193057  1
  O  O22  1  0.75019072  0.50320128  0.99721286  1
  O  O23  1  0.75051913  0.50258632  0.50158433  1
  O  O24  1  0.00022216  0.24999027  0.99972235  1
  O  O25  1  0.00041361  0.24693733  0.50043180  1
  O  O26  1  0.00268101  0.74989377  0.99735703  1
  O  O27  1  0.00185109  0.75323787  0.50182582  1
  O  O28  1  0.49976984  0.24981067  0.99984493  1
  O  O29  1  0.49953021  0.24943722  0.50043532  1
  O  O30  1  0.49732163  0.75017778  0.99724928  1
  O  O31  1  0.49845564  0.75048984  0.50148769  1
  O  O32  1  0.00275277  0.99694217  0.25039009  1
  O  O33  1  0.00014764  0.99439214  0.74953423  1
  O  O34  1  0.00192306  0.50270111  0.24705472  1
  O  O35  1  0.00041185  0.50408753  0.75299669  1
  O  O36  1  0.49809611  0.99727415  0.24706988  1
  O  O37  1  0.49957017  0.99584930  0.75297160  1
  O  O38  1  0.49809484  0.50270738  0.24673502  1
  O  O39  1  0.49959021  0.50411658  0.75334411  1
