# generated using pymatgen
data_Ca2VWO6
_symmetry_space_group_name_H-M   'P 1'
_cell_length_a   5.62518876
_cell_length_b   5.56396765
_cell_length_c   7.93723881
_cell_angle_alpha   89.58091861
_cell_angle_beta   135.36305192
_cell_angle_gamma   120.08818710
_symmetry_Int_Tables_number   1
_chemical_formula_structural   Ca2VWO6
_chemical_formula_sum   'Ca2 V1 W1 O6'
_cell_volume   123.58734834
_cell_formula_units_Z   1
loop_
 _symmetry_equiv_pos_site_id
 _symmetry_equiv_pos_as_xyz
  1  'x, y, z'
loop_
 _atom_site_type_symbol
 _atom_site_label
 _atom_site_symmetry_multiplicity
 _atom_site_fract_x
 _atom_site_fract_y
 _atom_site_fract_z
 _atom_site_occupancy
  Ca  Ca0  1  0.97232646  0.48306993  0.23003561  1
  Ca  Ca1  1  0.02275468  0.48363903  0.77030215  1
  V  V2  1  0.99736295  0.98335035  0.50018429  1
  W  W3  1  0.99730577  0.98333550  0.00017378  1
  O  O4  1  0.88268708  0.88266673  0.18386475  1
  O  O5  1  0.11203292  0.08382680  0.81653332  1
  O  O6  1  0.58069031  0.45696845  0.33668825  1
  O  O7  1  0.63509198  0.10201800  0.81433161  1
  O  O8  1  0.35964401  0.86476347  0.18598981  1
  O  O9  1  0.41357985  0.50975274  0.66365744  1
