# generated using pymatgen
data_ZnCu3(P2O7)2
_symmetry_space_group_name_H-M   'P 1'
_cell_length_a   7.15498066
_cell_length_b   7.93634673
_cell_length_c   9.35064167
_cell_angle_alpha   90.00000000
_cell_angle_beta   106.98043294
_cell_angle_gamma   90.00000000
_symmetry_Int_Tables_number   1
_chemical_formula_structural   ZnCu3(P2O7)2
_chemical_formula_sum   'Zn2 Cu6 P8 O28'
_cell_volume   507.82274063
_cell_formula_units_Z   2
loop_
 _symmetry_equiv_pos_site_id
 _symmetry_equiv_pos_as_xyz
  1  'x, y, z'
loop_
 _atom_site_type_symbol
 _atom_site_label
 _atom_site_symmetry_multiplicity
 _atom_site_fract_x
 _atom_site_fract_y
 _atom_site_fract_z
 _atom_site_occupancy
  Zn  Zn0  1  0.50000000  -0.00000000  -0.00000000  1
  Zn  Zn1  1  0.50000000  0.50000000  0.50000000  1
  Cu  Cu2  1  0.17298861  0.86508072  0.50202485  1
  Cu  Cu3  1  0.82701139  0.36508072  0.99797515  1
  Cu  Cu4  1  0.82701139  0.13491928  0.49797515  1
  Cu  Cu5  1  0.17298861  0.63491928  0.00202485  1
  Cu  Cu6  1  0.00000000  -0.00000000  -0.00000000  1
  Cu  Cu7  1  0.00000000  0.50000000  0.50000000  1
  P  P8  1  0.57248734  0.04219847  0.69839225  1
  P  P9  1  0.42751266  0.54219847  0.80160775  1
  P  P10  1  0.42751266  0.95780153  0.30160775  1
  P  P11  1  0.57248734  0.45780153  0.19839225  1
  P  P12  1  0.88499156  0.78800252  0.69806891  1
  P  P13  1  0.11500844  0.28800252  0.80193109  1
  P  P14  1  0.11500844  0.21199748  0.30193109  1
  P  P15  1  0.88499156  0.71199748  0.19806891  1
  O  O16  1  0.84687863  0.61339042  0.62538152  1
  O  O17  1  0.15312137  0.11339042  0.87461848  1
  O  O18  1  0.15312137  0.38661058  0.37461848  1
  O  O19  1  0.84687863  0.88660958  0.12538152  1
  O  O20  1  0.36097311  0.57381205  0.62928546  1
  O  O21  1  0.63902689  0.07381205  0.87071454  1
  O  O22  1  0.63902689  0.42618795  0.37071454  1
  O  O23  1  0.36097311  0.92618795  0.12928546  1
  O  O24  1  0.65378899  0.18300434  0.62176020  1
  O  O25  1  0.34621101  0.68300434  0.87823980  1
  O  O26  1  0.34621101  0.81699566  0.37823980  1
  O  O27  1  0.65378899  0.31699566  0.12176020  1
  O  O28  1  0.67009132  0.86474526  0.67386108  1
  O  O29  1  0.32990868  0.36474526  0.82613892  1
  O  O30  1  0.32990868  0.13525474  0.32613892  1
  O  O31  1  0.67009132  0.63525474  0.17386108  1
  O  O32  1  0.35551141  0.48731556  0.14285598  1
  O  O33  1  0.64448859  0.98731556  0.35714402  1
  O  O34  1  0.64448859  0.51268444  0.85714402  1
  O  O35  1  0.35551141  0.01268444  0.64285598  1
  O  O36  1  0.02554262  0.21053614  0.12800955  1
  O  O37  1  0.97445738  0.71053614  0.37199045  1
  O  O38  1  0.97445738  0.78946386  0.87199045  1
  O  O39  1  0.02554262  0.28946386  0.62800955  1
  O  O40  1  0.99369168  0.59442807  0.12216824  1
  O  O41  1  0.00630832  0.09442807  0.37783176  1
  O  O42  1  0.00630832  0.40557193  0.87783176  1
  O  O43  1  0.99369168  0.90557193  0.62216824  1
