# generated using pymatgen
data_Co(H3Cl)2
_symmetry_space_group_name_H-M   'P 1'
_cell_length_a   5.11191450
_cell_length_b   5.11191450
_cell_length_c   5.38031181
_cell_angle_alpha   80.72437759
_cell_angle_beta   80.72437759
_cell_angle_gamma   75.95190640
_symmetry_Int_Tables_number   1
_chemical_formula_structural   Co(H3Cl)2
_chemical_formula_sum   'Co1 H6 Cl2'
_cell_volume   133.50981002
_cell_formula_units_Z   1
loop_
 _symmetry_equiv_pos_site_id
 _symmetry_equiv_pos_as_xyz
  1  'x, y, z'
loop_
 _atom_site_type_symbol
 _atom_site_label
 _atom_site_symmetry_multiplicity
 _atom_site_fract_x
 _atom_site_fract_y
 _atom_site_fract_z
 _atom_site_occupancy
  Co  Co0  1  0.00000000  0.00000000  0.00000000  1
  H  H1  1  0.94319593  0.81248696  0.27301677  1
  H  H2  1  0.05680407  0.18751304  0.72698323  1
  H  H3  1  0.18751304  0.05680407  0.72698323  1
  H  H4  1  0.81248696  0.94319593  0.27301677  1
  H  H5  1  0.54707381  0.54707381  0.48106454  1
  H  H6  1  0.45292619  0.45292619  0.51893546  1
  Cl  Cl7  1  0.21406696  0.21406696  0.17823156  1
  Cl  Cl8  1  0.78593304  0.78593304  0.82176844  1
