# generated using pymatgen
data_SnS
_symmetry_space_group_name_H-M   'P 1'
_cell_length_a   4.10919187
_cell_length_b   4.10517976
_cell_length_c   11.04109494
_cell_angle_alpha   89.36322473
_cell_angle_beta   81.98320292
_cell_angle_gamma   90.00752432
_symmetry_Int_Tables_number   1
_chemical_formula_structural   SnS
_chemical_formula_sum   'Sn2 S2'
_cell_volume   184.42005966
_cell_formula_units_Z   2
loop_
 _symmetry_equiv_pos_site_id
 _symmetry_equiv_pos_as_xyz
  1  'x, y, z'
loop_
 _atom_site_type_symbol
 _atom_site_label
 _atom_site_symmetry_multiplicity
 _atom_site_fract_x
 _atom_site_fract_y
 _atom_site_fract_z
 _atom_site_occupancy
  Sn  Sn0  1  0.69580487  0.74223303  0.63519914  1
  Sn  Sn1  1  0.30419513  0.25776697  0.36480086  1
  S  S2  1  0.78755385  0.75299976  0.39957780  1
  S  S3  1  0.21244615  0.24700024  0.60042220  1
