# generated using pymatgen
data_Ba2Sr6Co3Cu5O24
_symmetry_space_group_name_H-M   'P 1'
_cell_length_a   7.88789744
_cell_length_b   7.86579342
_cell_length_c   7.81382847
_cell_angle_alpha   90.00000000
_cell_angle_beta   89.93066842
_cell_angle_gamma   90.00000000
_symmetry_Int_Tables_number   1
_chemical_formula_structural   Ba2Sr6Co3Cu5O24
_chemical_formula_sum   'Ba2 Sr6 Co3 Cu5 O24'
_cell_volume   484.80528673
_cell_formula_units_Z   1
loop_
 _symmetry_equiv_pos_site_id
 _symmetry_equiv_pos_as_xyz
  1  'x, y, z'
loop_
 _atom_site_type_symbol
 _atom_site_label
 _atom_site_symmetry_multiplicity
 _atom_site_fract_x
 _atom_site_fract_y
 _atom_site_fract_z
 _atom_site_occupancy
  Ba  Ba0  1  0.24923330  0.75119710  0.24879229  1
  Ba  Ba1  1  0.75076670  0.75119710  0.75120771  1
  Sr  Sr2  1  0.24801184  0.24879113  0.24693039  1
  Sr  Sr3  1  0.24831829  0.24884598  0.75244377  1
  Sr  Sr4  1  0.24855105  0.75138225  0.75205960  1
  Sr  Sr5  1  0.75168171  0.24884598  0.24755623  1
  Sr  Sr6  1  0.75198816  0.24879113  0.75306961  1
  Sr  Sr7  1  0.75144895  0.75138225  0.24794040  1
  Co  Co8  1  0.00000000  0.49711047  0.50000000  1
  Co  Co9  1  0.50000000  0.00295440  0.50000000  1
  Co  Co10  1  0.50000000  0.49768784  0.50000000  1
  Cu  Cu11  1  0.00000000  0.00007169  -0.00000000  1
  Cu  Cu12  1  0.00000000  -0.00006135  0.50000000  1
  Cu  Cu13  1  0.00000000  0.49938330  -0.00000000  1
  Cu  Cu14  1  0.50000000  0.00082138  0.00000000  1
  Cu  Cu15  1  0.50000000  0.49940342  0.00000000  1
  O  O16  1  0.25057419  0.00777545  0.99520414  1
  O  O17  1  0.25312944  0.00509930  0.50311178  1
  O  O18  1  0.25051912  0.49164804  0.99504911  1
  O  O19  1  0.25156557  0.49383526  0.50161692  1
  O  O20  1  0.74942581  0.00777545  0.00479586  1
  O  O21  1  0.74687056  0.00509930  0.49688822  1
  O  O22  1  0.74948088  0.49164804  0.00495089  1
  O  O23  1  0.74843443  0.49383526  0.49838308  1
  O  O24  1  0.00000000  0.25107715  -0.00000000  1
  O  O25  1  0.00000000  0.24745915  0.50000000  1
  O  O26  1  0.00000000  0.74864398  -0.00000000  1
  O  O27  1  0.00000000  0.75120121  0.50000000  1
  O  O28  1  0.50000000  0.25084352  -0.00000000  1
  O  O29  1  0.50000000  0.24206414  0.50000000  1
  O  O30  1  0.50000000  0.74927000  -0.00000000  1
  O  O31  1  0.50000000  0.75930190  0.50000000  1
  O  O32  1  0.99509045  0.00765582  0.25035803  1
  O  O33  1  0.00490955  0.00765582  0.74964197  1
  O  O34  1  0.99633914  0.49461559  0.26076726  1
  O  O35  1  0.00366086  0.49461559  0.73923274  1
  O  O36  1  0.50281500  0.00504924  0.25345792  1
  O  O37  1  0.49718500  0.00504924  0.74654208  1
  O  O38  1  0.50377751  0.49548874  0.26274953  1
  O  O39  1  0.49622249  0.49548874  0.73725047  1
