# generated using pymatgen
data_SrCaTiMnO6
_symmetry_space_group_name_H-M   'P 1'
_cell_length_a   7.75133745
_cell_length_b   7.74978864
_cell_length_c   7.75133745
_cell_angle_alpha   90.00068993
_cell_angle_beta   89.99710363
_cell_angle_gamma   89.99931007
_symmetry_Int_Tables_number   1
_chemical_formula_structural   SrCaTiMnO6
_chemical_formula_sum   'Sr4 Ca4 Ti4 Mn4 O24'
_cell_volume   465.63235052
_cell_formula_units_Z   4
loop_
 _symmetry_equiv_pos_site_id
 _symmetry_equiv_pos_as_xyz
  1  'x, y, z'
loop_
 _atom_site_type_symbol
 _atom_site_label
 _atom_site_symmetry_multiplicity
 _atom_site_fract_x
 _atom_site_fract_y
 _atom_site_fract_z
 _atom_site_occupancy
  Sr  Sr0  1  0.24642975  0.24655290  0.24678288  1
  Sr  Sr1  1  0.24670100  0.24649154  0.75329900  1
  Sr  Sr2  1  0.75321712  0.24655290  0.75357025  1
  Sr  Sr3  1  0.75360138  0.75356369  0.24639862  1
  Ca  Ca4  1  0.24598872  0.75404610  0.24555282  1
  Ca  Ca5  1  0.24555595  0.75403336  0.75444405  1
  Ca  Ca6  1  0.75407137  0.24609428  0.24592863  1
  Ca  Ca7  1  0.75444718  0.75404610  0.75401128  1
  Ti  Ti8  1  0.99999310  0.50283264  0.49999009  1
  Ti  Ti9  1  0.50006057  0.99826819  0.49993943  1
  Ti  Ti10  1  0.50000991  0.50283264  0.00000690  1
  Ti  Ti11  1  0.50003670  0.50151933  0.49996330  1
  Mn  Mn12  1  0.99990635  0.99893254  0.00009365  1
  Mn  Mn13  1  0.99995917  0.99909374  0.49995131  1
  Mn  Mn14  1  0.99996538  0.50175908  0.00003462  1
  Mn  Mn15  1  0.50004869  0.99909374  0.00004083  1
  O  O16  1  0.25035044  0.99322572  0.00004591  1
  O  O17  1  0.24689554  0.99528024  0.49998806  1
  O  O18  1  0.24686177  0.50460000  0.00003242  1
  O  O19  1  0.24917310  0.50375400  0.49997651  1
  O  O20  1  0.74967883  0.99919683  0.99991793  1
  O  O21  1  0.75308135  0.99879638  0.50006543  1
  O  O22  1  0.75313210  0.50113697  0.99993591  1
  O  O23  1  0.75083561  0.50122723  0.50005644  1
  O  O24  1  0.99702481  0.25033456  0.00297519  1
  O  O25  1  0.99815112  0.24695769  0.49820973  1
  O  O26  1  0.00289932  0.74957096  0.99710068  1
  O  O27  1  0.00166993  0.75316870  0.50164704  1
  O  O28  1  0.50179027  0.24695769  0.00184888  1
  O  O29  1  0.50132847  0.24898778  0.49867153  1
  O  O30  1  0.49835296  0.75316870  0.99833007  1
  O  O31  1  0.49880064  0.75070644  0.50119936  1
  O  O32  1  0.00008207  0.99919683  0.25032117  1
  O  O33  1  0.99995409  0.99322572  0.74964956  1
  O  O34  1  0.00006409  0.50113697  0.24686790  1
  O  O35  1  0.99996758  0.50460000  0.75313823  1
  O  O36  1  0.49993457  0.99879638  0.24691865  1
  O  O37  1  0.50001194  0.99528024  0.75310446  1
  O  O38  1  0.49994356  0.50122723  0.24916439  1
  O  O39  1  0.50002349  0.50375400  0.75082690  1
