# generated using pymatgen
data_Cs2Cu3C3N7
_symmetry_space_group_name_H-M   'P 1'
_cell_length_a   8.03344236
_cell_length_b   8.71413933
_cell_length_c   9.84896878
_cell_angle_alpha   97.32058279
_cell_angle_beta   114.06869500
_cell_angle_gamma   90.00000000
_symmetry_Int_Tables_number   1
_chemical_formula_structural   Cs2Cu3C3N7
_chemical_formula_sum   'Cs4 Cu6 C6 N14'
_cell_volume   623.36749882
_cell_formula_units_Z   2
loop_
 _symmetry_equiv_pos_site_id
 _symmetry_equiv_pos_as_xyz
  1  'x, y, z'
loop_
 _atom_site_type_symbol
 _atom_site_label
 _atom_site_symmetry_multiplicity
 _atom_site_fract_x
 _atom_site_fract_y
 _atom_site_fract_z
 _atom_site_occupancy
  Cs  Cs0  1  0.57031642  0.41657056  0.77223089  1
  Cs  Cs1  1  0.42968358  0.58342944  0.22776911  1
  Cs  Cs2  1  0.79808553  0.08342944  0.22776911  1
  Cs  Cs3  1  0.20191447  0.91657056  0.77223089  1
  Cu  Cu4  1  0.07271184  0.25000000  0.00000000  1
  Cu  Cu5  1  0.92728816  0.75000000  0.00000000  1
  Cu  Cu6  1  0.36180629  0.11604730  0.39157862  1
  Cu  Cu7  1  0.63819371  0.88395270  0.60842138  1
  Cu  Cu8  1  0.97022767  0.38395270  0.60842138  1
  Cu  Cu9  1  0.02977233  0.61604730  0.39157862  1
  C  C10  1  0.30597385  0.25000000  0.00000000  1
  C  C11  1  0.69402615  0.75000000  0.00000000  1
  C  C12  1  0.57852173  0.23268757  0.44583576  1
  C  C13  1  0.42147827  0.76731243  0.55416424  1
  C  C14  1  0.13268597  0.26731243  0.55416424  1
  C  C15  1  0.86731403  0.73268757  0.44583576  1
  N  N16  1  0.71723370  0.30982660  0.49319303  1
  N  N17  1  0.28276630  0.69017340  0.50680697  1
  N  N18  1  0.22404067  0.19017340  0.50680697  1
  N  N19  1  0.77595933  0.80982660  0.49319303  1
  N  N20  1  0.45306604  0.25000000  0.00000000  1
  N  N21  1  0.54693396  0.75000000  0.00000000  1
  N  N22  1  0.87923792  0.12391674  0.85782636  1
  N  N23  1  0.12076208  0.87608326  0.14217364  1
  N  N24  1  0.02141156  0.37608326  0.14217364  1
  N  N25  1  0.97858844  0.62391674  0.85782636  1
  N  N26  1  0.77889628  0.02901539  0.76672161  1
  N  N27  1  0.22110372  0.97098461  0.23327839  1
  N  N28  1  0.01217466  0.47098461  0.23327839  1
  N  N29  1  0.98782534  0.52901539  0.76672161  1
