# generated using pymatgen
data_Li2BiAu
_symmetry_space_group_name_H-M   'P 1'
_cell_length_a   5.74358261
_cell_length_b   5.53362831
_cell_length_c   5.53362831
_cell_angle_alpha   98.18040002
_cell_angle_beta   90.00000000
_cell_angle_gamma   90.00000000
_symmetry_Int_Tables_number   1
_chemical_formula_structural   Li2BiAu
_chemical_formula_sum   'Li4 Bi2 Au2'
_cell_volume   174.08495647
_cell_formula_units_Z   2
loop_
 _symmetry_equiv_pos_site_id
 _symmetry_equiv_pos_as_xyz
  1  'x, y, z'
loop_
 _atom_site_type_symbol
 _atom_site_label
 _atom_site_symmetry_multiplicity
 _atom_site_fract_x
 _atom_site_fract_y
 _atom_site_fract_z
 _atom_site_occupancy
  Li  Li0  1  0.25000000  0.12406356  0.47952778  1
  Li  Li1  1  0.75000000  0.52047222  0.87593644  1
  Li  Li2  1  0.75000000  0.87593644  0.52047222  1
  Li  Li3  1  0.25000000  0.47952778  0.12406356  1
  Bi  Bi4  1  0.25000000  0.66380489  0.66380489  1
  Bi  Bi5  1  0.75000000  0.33619511  0.33619511  1
  Au  Au6  1  0.50000000  -0.00000000  -0.00000000  1
  Au  Au7  1  0.00000000  -0.00000000  -0.00000000  1
