# generated using pymatgen
data_NaFeAs
_symmetry_space_group_name_H-M   'P 1'
_cell_length_a   3.84791183
_cell_length_b   3.97291840
_cell_length_c   7.50001035
_cell_angle_alpha   90.00000000
_cell_angle_beta   104.86409190
_cell_angle_gamma   90.00000000
_symmetry_Int_Tables_number   1
_chemical_formula_structural   NaFeAs
_chemical_formula_sum   'Na2 Fe2 As2'
_cell_volume   110.81922818
_cell_formula_units_Z   2
loop_
 _symmetry_equiv_pos_site_id
 _symmetry_equiv_pos_as_xyz
  1  'x, y, z'
loop_
 _atom_site_type_symbol
 _atom_site_label
 _atom_site_symmetry_multiplicity
 _atom_site_fract_x
 _atom_site_fract_y
 _atom_site_fract_z
 _atom_site_occupancy
  Na  Na0  1  0.08668751  0.75000000  0.17337502  1
  Na  Na1  1  0.91331249  0.25000000  0.82662498  1
  Fe  Fe2  1  0.74916221  0.75000000  0.49832443  1
  Fe  Fe3  1  0.25083779  0.25000000  0.50167557  1
  As  As4  1  0.33826282  0.75000000  0.67652564  1
  As  As5  1  0.66173718  0.25000000  0.32347436  1
