# generated using pymatgen
data_CaNi5H
_symmetry_space_group_name_H-M   'P 1'
_cell_length_a   3.93292241
_cell_length_b   4.84481998
_cell_length_c   5.03680169
_cell_angle_alpha   61.20009051
_cell_angle_beta   89.99817514
_cell_angle_gamma   90.00139537
_symmetry_Int_Tables_number   1
_chemical_formula_structural   CaNi5H
_chemical_formula_sum   'Ca1 Ni5 H1'
_cell_volume   84.10162261
_cell_formula_units_Z   1
loop_
 _symmetry_equiv_pos_site_id
 _symmetry_equiv_pos_as_xyz
  1  'x, y, z'
loop_
 _atom_site_type_symbol
 _atom_site_label
 _atom_site_symmetry_multiplicity
 _atom_site_fract_x
 _atom_site_fract_y
 _atom_site_fract_z
 _atom_site_occupancy
  Ca  Ca0  1  0.00671400  0.99357782  0.99999958  1
  Ni  Ni1  1  0.00238565  0.67295268  0.64102932  1
  Ni  Ni2  1  0.00238608  0.31426487  0.35893732  1
  Ni  Ni3  1  0.50950334  0.49349579  0.00000412  1
  Ni  Ni4  1  0.50534536  0.49350737  0.50002654  1
  Ni  Ni5  1  0.50529956  0.99351162  0.50001180  1
  H  H6  1  0.08536601  0.49358984  0.99999131  1
