# generated using pymatgen
data_Cs2B12H4F9
_symmetry_space_group_name_H-M   'P 1'
_cell_length_a   9.59723254
_cell_length_b   10.70433676
_cell_length_c   15.08781058
_cell_angle_alpha   90.00000000
_cell_angle_beta   90.00000000
_cell_angle_gamma   90.00000000
_symmetry_Int_Tables_number   1
_chemical_formula_structural   Cs2B12H4F9
_chemical_formula_sum   'Cs8 B48 H16 F36'
_cell_volume   1550.00109338
_cell_formula_units_Z   4
loop_
 _symmetry_equiv_pos_site_id
 _symmetry_equiv_pos_as_xyz
  1  'x, y, z'
loop_
 _atom_site_type_symbol
 _atom_site_label
 _atom_site_symmetry_multiplicity
 _atom_site_fract_x
 _atom_site_fract_y
 _atom_site_fract_z
 _atom_site_occupancy
  Cs  Cs0  1  0.06151541  0.50463845  0.11899903  1
  Cs  Cs1  1  0.43848459  0.49536155  0.61899903  1
  Cs  Cs2  1  0.93848459  0.00463845  0.38100097  1
  Cs  Cs3  1  0.56151541  0.99536155  0.88100097  1
  Cs  Cs4  1  0.40273421  0.32368649  0.30190891  1
  Cs  Cs5  1  0.09726579  0.67631351  0.80190891  1
  Cs  Cs6  1  0.59726579  0.82368649  0.19809109  1
  Cs  Cs7  1  0.90273421  0.17631351  0.69809109  1
  B  B8  1  0.07380970  0.51048892  0.45429862  1
  B  B9  1  0.42619030  0.48951108  0.95429862  1
  B  B10  1  0.92619030  0.01048892  0.04570138  1
  B  B11  1  0.57380970  0.98951108  0.54570138  1
  B  B12  1  0.69651530  0.41182395  0.01951146  1
  B  B13  1  0.80348470  0.58817605  0.51951146  1
  B  B14  1  0.30348470  0.91182395  0.48048854  1
  B  B15  1  0.19651530  0.08817605  0.98048854  1
  B  B16  1  0.32760978  0.13097837  0.59439347  1
  B  B17  1  0.17239022  0.86902163  0.09439347  1
  B  B18  1  0.67239022  0.63097837  0.90560653  1
  B  B19  1  0.82760978  0.36902163  0.40560653  1
  B  B20  1  0.30956381  0.08033433  0.48189365  1
  B  B21  1  0.19043619  0.91966567  0.98189365  1
  B  B22  1  0.69043619  0.58033433  0.01810635  1
  B  B23  1  0.80956381  0.41966567  0.51810635  1
  B  B24  1  0.01368754  0.09263862  0.13295087  1
  B  B25  1  0.48631246  0.90736138  0.63295087  1
  B  B26  1  0.98631246  0.59263862  0.36704913  1
  B  B27  1  0.51368754  0.40736138  0.86704913  1
  B  B28  1  0.53907385  0.49260687  0.04752837  1
  B  B29  1  0.96092615  0.50739313  0.54752837  1
  B  B30  1  0.46092615  0.99260687  0.45247163  1
  B  B31  1  0.03907385  0.00739313  0.95247163  1
  B  B32  1  0.49109325  0.07437152  0.63323456  1
  B  B33  1  0.00890675  0.92562848  0.13323456  1
  B  B34  1  0.50890675  0.57437152  0.86676544  1
  B  B35  1  0.99109325  0.42562848  0.36676544  1
  B  B36  1  0.18040332  0.13985014  0.09302784  1
  B  B37  1  0.31959668  0.86014986  0.59302784  1
  B  B38  1  0.81959668  0.63985014  0.40697216  1
  B  B39  1  0.68040332  0.36014986  0.90697216  1
  B  B40  1  0.16574269  0.00505809  0.16208022  1
  B  B41  1  0.33425731  0.99494191  0.66208022  1
  B  B42  1  0.83425731  0.50505809  0.33791978  1
  B  B43  1  0.66574269  0.49494191  0.83791978  1
  B  B44  1  0.27823374  0.00176603  0.06916490  1
  B  B45  1  0.22176626  0.99823397  0.56916490  1
  B  B46  1  0.72176626  0.50176603  0.43083510  1
  B  B47  1  0.77823374  0.49823397  0.93083510  1
  B  B48  1  0.47471504  0.12740342  0.52208708  1
  B  B49  1  0.02528496  0.87259658  0.02208708  1
  B  B50  1  0.52528496  0.62740342  0.97791292  1
  B  B51  1  0.97471504  0.37259658  0.47791292  1
  B  B52  1  0.03318407  0.14344373  0.02071825  1
  B  B53  1  0.46681593  0.85655627  0.52071825  1
  B  B54  1  0.96681593  0.64344373  0.47928175  1
  B  B55  1  0.53318407  0.35655627  0.97928175  1
  H  H56  1  0.98657943  0.24028079  0.99426240  1
  H  H57  1  0.51342057  0.75971921  0.49426240  1
  H  H58  1  0.01342057  0.74028079  0.50573760  1
  H  H59  1  0.48657943  0.25971921  0.00573760  1
  H  H60  1  0.21115213  0.00456469  0.23593814  1
  H  H61  1  0.28884787  0.99543531  0.73593814  1
  H  H62  1  0.78884787  0.50456469  0.26406186  1
  H  H63  1  0.71115213  0.49543531  0.76406186  1
  H  H64  1  0.60614241  0.16964070  0.19313444  1
  H  H65  1  0.89385759  0.83035930  0.69313444  1
  H  H66  1  0.39385759  0.66964070  0.30686556  1
  H  H67  1  0.10614241  0.33035930  0.80686556  1
  H  H68  1  0.03059539  0.27883389  0.50286412  1
  H  H69  1  0.46940461  0.72116611  0.00286412  1
  H  H70  1  0.96940461  0.77883389  0.99713588  1
  H  H71  1  0.53059539  0.22116611  0.49713588  1
  F  F72  1  0.05954557  0.65787743  0.30197121  1
  F  F73  1  0.44045443  0.34212257  0.80197121  1
  F  F74  1  0.94045443  0.15787743  0.19802879  1
  F  F75  1  0.55954557  0.84212257  0.69802879  1
  F  F76  1  0.23408537  0.14836354  0.41778957  1
  F  F77  1  0.26591463  0.85163646  0.91778957  1
  F  F78  1  0.76591463  0.64836354  0.08221043  1
  F  F79  1  0.73408537  0.35163646  0.58221043  1
  F  F80  1  0.26628348  0.24277181  0.62391448  1
  F  F81  1  0.23371652  0.75722819  0.12391448  1
  F  F82  1  0.73371652  0.74277181  0.87608552  1
  F  F83  1  0.76628348  0.25722819  0.37608552  1
  F  F84  1  0.07509924  0.00465868  0.57674299  1
  F  F85  1  0.42490076  0.99534132  0.07674299  1
  F  F86  1  0.92490076  0.50465868  0.92325701  1
  F  F87  1  0.57509924  0.49534132  0.42325701  1
  F  F88  1  0.22027198  0.50965638  0.46057372  1
  F  F89  1  0.27972802  0.49034362  0.96057372  1
  F  F90  1  0.77972802  0.00965638  0.03942628  1
  F  F91  1  0.72027198  0.99034362  0.53942628  1
  F  F92  1  0.77650830  0.35193322  0.08375733  1
  F  F93  1  0.72349170  0.64806678  0.58375733  1
  F  F94  1  0.22349170  0.85193322  0.41624267  1
  F  F95  1  0.27650830  0.14806678  0.91624267  1
  F  F96  1  0.51013332  0.99450270  0.36424472  1
  F  F97  1  0.98986668  0.00549730  0.86424472  1
  F  F98  1  0.48986668  0.49450270  0.13575528  1
  F  F99  1  0.01013332  0.50549730  0.63575528  1
  F  F100  1  0.24427975  0.24990450  0.12466967  1
  F  F101  1  0.25572025  0.75009550  0.62466967  1
  F  F102  1  0.75572025  0.74990450  0.37533033  1
  F  F103  1  0.74427975  0.25009550  0.87533033  1
  F  F104  1  0.07462658  0.36478474  0.30317959  1
  F  F105  1  0.42537342  0.63521526  0.80317959  1
  F  F106  1  0.92537342  0.86478474  0.19682041  1
  F  F107  1  0.57462658  0.13521526  0.69682041  1
