# generated using pymatgen
data_Mg5Zn
_symmetry_space_group_name_H-M   'P 1'
_cell_length_a   5.25803598
_cell_length_b   5.25803588
_cell_length_c   16.21529834
_cell_angle_alpha   90.00000000
_cell_angle_beta   90.00000000
_cell_angle_gamma   120.00000061
_symmetry_Int_Tables_number   1
_chemical_formula_structural   Mg5Zn
_chemical_formula_sum   'Mg15 Zn3'
_cell_volume   388.24213956
_cell_formula_units_Z   3
loop_
 _symmetry_equiv_pos_site_id
 _symmetry_equiv_pos_as_xyz
  1  'x, y, z'
loop_
 _atom_site_type_symbol
 _atom_site_label
 _atom_site_symmetry_multiplicity
 _atom_site_fract_x
 _atom_site_fract_y
 _atom_site_fract_z
 _atom_site_occupancy
  Mg  Mg0  1  0.66666700  0.67176361  0.33333300  1
  Mg  Mg1  1  0.66666700  0.33333300  0.16612655  1
  Mg  Mg2  1  0.32823639  0.99490339  0.33333300  1
  Mg  Mg3  1  0.00509661  0.33333300  0.33333300  1
  Mg  Mg4  1  -0.00000000  -0.00000000  0.16720745  1
  Mg  Mg5  1  0.33333300  0.00509661  0.66666700  1
  Mg  Mg6  1  0.33333300  0.66666700  0.49945955  1
  Mg  Mg7  1  0.99490339  0.32823639  0.66666700  1
  Mg  Mg8  1  0.67176361  0.66666700  0.66666700  1
  Mg  Mg9  1  0.66666700  0.33333300  0.50054045  1
  Mg  Mg10  1  1.00000000  0.33842961  0.00000000  1
  Mg  Mg11  1  -0.00000000  -0.00000000  0.83279255  1
  Mg  Mg12  1  0.66157039  0.66157039  0.00000000  1
  Mg  Mg13  1  0.33842961  -0.00000000  0.00000000  1
  Mg  Mg14  1  0.33333300  0.66666700  0.83387345  1
  Zn  Zn15  1  0.33333300  0.66666700  0.16666700  1
  Zn  Zn16  1  -0.00000000  -0.00000000  0.50000000  1
  Zn  Zn17  1  0.66666700  0.33333300  0.83333300  1
