# generated using pymatgen
data_MgSn3
_symmetry_space_group_name_H-M   'P 1'
_cell_length_a   3.37736502
_cell_length_b   11.28924935
_cell_length_c   5.45638100
_cell_angle_alpha   90.00000000
_cell_angle_beta   90.00000000
_cell_angle_gamma   90.00000000
_symmetry_Int_Tables_number   1
_chemical_formula_structural   MgSn3
_chemical_formula_sum   'Mg2 Sn6'
_cell_volume   208.04043565
_cell_formula_units_Z   2
loop_
 _symmetry_equiv_pos_site_id
 _symmetry_equiv_pos_as_xyz
  1  'x, y, z'
loop_
 _atom_site_type_symbol
 _atom_site_label
 _atom_site_symmetry_multiplicity
 _atom_site_fract_x
 _atom_site_fract_y
 _atom_site_fract_z
 _atom_site_occupancy
  Mg  Mg0  1  0.00000000  0.00000000  0.66867370  1
  Mg  Mg1  1  0.50000000  0.50000000  0.16867370  1
  Sn  Sn2  1  0.50000000  0.00000000  0.16950707  1
  Sn  Sn3  1  -0.00000000  0.25424723  0.99757661  1
  Sn  Sn4  1  0.50000000  0.24575277  0.49757661  1
  Sn  Sn5  1  0.00000000  0.50000000  0.66950707  1
  Sn  Sn6  1  0.50000000  0.75424723  0.49757661  1
  Sn  Sn7  1  0.00000000  0.74575277  0.99757661  1
