# generated using pymatgen
data_CsPb2Cl5
_symmetry_space_group_name_H-M   'P 1'
_cell_length_a   8.15064598
_cell_length_b   5.78328495
_cell_length_c   9.64740036
_cell_angle_alpha   79.26917733
_cell_angle_beta   120.12708151
_cell_angle_gamma   112.56822079
_symmetry_Int_Tables_number   1
_chemical_formula_structural   CsPb2Cl5
_chemical_formula_sum   'Cs1 Pb2 Cl5'
_cell_volume   363.19235220
_cell_formula_units_Z   1
loop_
 _symmetry_equiv_pos_site_id
 _symmetry_equiv_pos_as_xyz
  1  'x, y, z'
loop_
 _atom_site_type_symbol
 _atom_site_label
 _atom_site_symmetry_multiplicity
 _atom_site_fract_x
 _atom_site_fract_y
 _atom_site_fract_z
 _atom_site_occupancy
  Cs  Cs0  1  0.11998488  0.31751097  0.46420037  1
  Pb  Pb1  1  0.37086020  0.49664464  0.04449990  1
  Pb  Pb2  1  0.92467190  0.88405207  0.02208898  1
  Cl  Cl3  1  0.36207760  0.10703174  0.25748735  1
  Cl  Cl4  1  0.99483443  0.43381514  0.05427161  1
  Cl  Cl5  1  0.80553009  0.71485843  0.27235726  1
  Cl  Cl6  1  0.12593780  0.09933750  0.82563100  1
  Cl  Cl7  1  0.51362911  0.66427752  0.80325253  1
