# generated using pymatgen
data_SrCaTiMnO5
_symmetry_space_group_name_H-M   'P 1'
_cell_length_a   11.12430107
_cell_length_b   11.35225960
_cell_length_c   17.51480332
_cell_angle_alpha   108.92019804
_cell_angle_beta   108.63750435
_cell_angle_gamma   90.00655429
_symmetry_Int_Tables_number   1
_chemical_formula_structural   SrCaTiMnO5
_chemical_formula_sum   'Sr16 Ca16 Ti16 Mn16 O80'
_cell_volume   1969.32103175
_cell_formula_units_Z   16
loop_
 _symmetry_equiv_pos_site_id
 _symmetry_equiv_pos_as_xyz
  1  'x, y, z'
loop_
 _atom_site_type_symbol
 _atom_site_label
 _atom_site_symmetry_multiplicity
 _atom_site_fract_x
 _atom_site_fract_y
 _atom_site_fract_z
 _atom_site_occupancy
  Sr  Sr0  1  0.30757658  0.56335157  0.61498978  1
  Sr  Sr1  1  0.80623829  0.06224742  0.61185870  1
  Sr  Sr2  1  0.80860307  0.56335955  0.61481231  1
  Sr  Sr3  1  0.19112110  0.43440028  0.38284111  1
  Sr  Sr4  1  0.19483030  0.43874954  0.88968975  1
  Sr  Sr5  1  0.69132821  0.43418879  0.38259042  1
  Sr  Sr6  1  0.69152369  0.93269594  0.38269546  1
  Sr  Sr7  1  0.69603068  0.93666947  0.88951926  1
  Sr  Sr8  1  0.05868379  0.29813346  0.61303836  1
  Sr  Sr9  1  0.05872211  0.80188044  0.61401166  1
  Sr  Sr10  1  0.55768148  0.30000089  0.61404298  1
  Sr  Sr11  1  0.55739294  0.80007526  0.61313593  1
  Sr  Sr12  1  0.44112552  0.19832203  0.38271376  1
  Sr  Sr13  1  0.44432908  0.19976115  0.88664305  1
  Sr  Sr14  1  0.94176276  0.19828727  0.38268422  1
  Sr  Sr15  1  0.94373815  0.20074425  0.88831931  1
  Ca  Ca16  1  0.30183421  0.06839542  0.11053480  1
  Ca  Ca17  1  0.30299358  0.06504346  0.60882362  1
  Ca  Ca18  1  0.30080496  0.56837439  0.11399729  1
  Ca  Ca19  1  0.80026657  0.06783545  0.11019582  1
  Ca  Ca20  1  0.80183427  0.56866835  0.11404209  1
  Ca  Ca21  1  0.19137202  0.92945034  0.38560933  1
  Ca  Ca22  1  0.19382436  0.93442229  0.89249271  1
  Ca  Ca23  1  0.69298167  0.43608701  0.89280821  1
  Ca  Ca24  1  0.05089236  0.29242004  0.11067499  1
  Ca  Ca25  1  0.05165272  0.79440798  0.11281158  1
  Ca  Ca26  1  0.55010747  0.29196079  0.10934235  1
  Ca  Ca27  1  0.55062602  0.79354825  0.11013984  1
  Ca  Ca28  1  0.43765504  0.70545194  0.38560374  1
  Ca  Ca29  1  0.44065229  0.70735716  0.89137089  1
  Ca  Ca30  1  0.93954326  0.70477733  0.38594058  1
  Ca  Ca31  1  0.94298584  0.70704846  0.89281801  1
  Ti  Ti32  1  0.00382934  0.00060045  0.00439869  1
  Ti  Ti33  1  0.00197205  0.99760188  0.49791568  1
  Ti  Ti34  1  0.99989019  0.50259038  0.00284040  1
  Ti  Ti35  1  0.99798689  0.50014210  0.49756847  1
  Ti  Ti36  1  0.50072158  0.00041465  0.00303442  1
  Ti  Ti37  1  0.49689187  0.99832969  0.49805193  1
  Ti  Ti38  1  0.50232713  0.50265321  0.00287583  1
  Ti  Ti39  1  0.49820281  0.49960056  0.49754462  1
  Ti  Ti40  1  0.25132054  0.25135557  0.00322002  1
  Ti  Ti41  1  0.24876761  0.24734130  0.49719792  1
  Ti  Ti42  1  0.25182164  0.75207740  0.00355811  1
  Ti  Ti43  1  0.24917905  0.74989667  0.49814395  1
  Ti  Ti44  1  0.75181477  0.25432679  0.00470777  1
  Ti  Ti45  1  0.74844427  0.24955415  0.49839273  1
  Ti  Ti46  1  0.75169386  0.74889201  0.00200987  1
  Ti  Ti47  1  0.74849645  0.74741696  0.49688301  1
  Mn  Mn48  1  0.10639480  0.08765213  0.24584973  1
  Mn  Mn49  1  0.11792749  0.09361360  0.75328159  1
  Mn  Mn50  1  0.10568877  0.59734938  0.24691697  1
  Mn  Mn51  1  0.11273868  0.60225466  0.75449303  1
  Mn  Mn52  1  0.60520190  0.08908072  0.24380023  1
  Mn  Mn53  1  0.60818540  0.09965878  0.75058298  1
  Mn  Mn54  1  0.60521155  0.59368288  0.24560985  1
  Mn  Mn55  1  0.61359890  0.59607937  0.75586089  1
  Mn  Mn56  1  0.35543303  0.40825058  0.24574494  1
  Mn  Mn57  1  0.36637205  0.40750843  0.75334269  1
  Mn  Mn58  1  0.35285317  0.89957006  0.24608855  1
  Mn  Mn59  1  0.35996459  0.90413756  0.75181754  1
  Mn  Mn60  1  0.85563896  0.40845764  0.24613963  1
  Mn  Mn61  1  0.86013969  0.41041066  0.75588793  1
  Mn  Mn62  1  0.85945344  0.89949124  0.24449886  1
  Mn  Mn63  1  0.86691843  0.90261381  0.75259514  1
  O  O64  1  0.12790465  0.11752479  0.48708435  1
  O  O65  1  0.13128358  0.12061959  0.98965009  1
  O  O66  1  0.12259037  0.62350983  0.48546167  1
  O  O67  1  0.12643487  0.62609431  0.98829828  1
  O  O68  1  0.62551197  0.12207138  0.48887710  1
  O  O69  1  0.62936059  0.12552365  0.99114924  1
  O  O70  1  0.62423131  0.62148302  0.48744454  1
  O  O71  1  0.62926953  0.62069185  0.98664140  1
  O  O72  1  0.14319444  0.38038962  0.01955075  1
  O  O73  1  0.13546980  0.37554404  0.50793122  1
  O  O74  1  0.14516486  0.88216722  0.01843239  1
  O  O75  1  0.13938885  0.87889304  0.50729287  1
  O  O76  1  0.64474964  0.38379628  0.02000506  1
  O  O77  1  0.63483178  0.37665755  0.50652711  1
  O  O78  1  0.64271891  0.87807931  0.01705756  1
  O  O79  1  0.63397356  0.87337170  0.50487242  1
  O  O80  1  0.37302790  0.11357350  0.48657140  1
  O  O81  1  0.37696179  0.11330750  0.98878218  1
  O  O82  1  0.37708485  0.61916149  0.48758685  1
  O  O83  1  0.38146558  0.61946642  0.98810822  1
  O  O84  1  0.87861526  0.11708977  0.49089407  1
  O  O85  1  0.88051260  0.11681891  0.99106175  1
  O  O86  1  0.87694070  0.61774148  0.48776747  1
  O  O87  1  0.87794296  0.61465916  0.98678165  1
  O  O88  1  0.39275676  0.38861937  0.01739665  1
  O  O89  1  0.38463789  0.38095355  0.50760780  1
  O  O90  1  0.39439706  0.88768602  0.01940111  1
  O  O91  1  0.38549117  0.88360449  0.51014319  1
  O  O92  1  0.89176513  0.38885030  0.01841278  1
  O  O93  1  0.88423306  0.38134359  0.50670543  1
  O  O94  1  0.89563317  0.88643834  0.01875463  1
  O  O95  1  0.88765894  0.87946598  0.50639893  1
  O  O96  1  0.08911814  0.09544053  0.12677929  1
  O  O97  1  0.08494914  0.07938581  0.62509655  1
  O  O98  1  0.08504500  0.59871139  0.12560230  1
  O  O99  1  0.07341081  0.58446067  0.62457799  1
  O  O100  1  0.58658556  0.09637309  0.12512728  1
  O  O101  1  0.57617861  0.08298977  0.62337635  1
  O  O102  1  0.58548326  0.59881975  0.12548136  1
  O  O103  1  0.57416730  0.58127895  0.62592732  1
  O  O104  1  0.44550275  0.41441001  0.37183910  1
  O  O105  1  0.46082490  0.41132553  0.87800967  1
  O  O106  1  0.44714910  0.90867612  0.37224443  1
  O  O107  1  0.45689784  0.90890234  0.87760595  1
  O  O108  1  0.94694264  0.41411020  0.37168358  1
  O  O109  1  0.95714110  0.41145781  0.87863095  1
  O  O110  1  0.95372060  0.90934257  0.37193305  1
  O  O111  1  0.96006116  0.90734553  0.87856563  1
  O  O112  1  0.33844315  0.28106819  0.12638155  1
  O  O113  1  0.32584925  0.28576983  0.62491222  1
  O  O114  1  0.33415965  0.77651730  0.12564828  1
  O  O115  1  0.32213574  0.78773652  0.62448332  1
  O  O116  1  0.83778729  0.28163435  0.12681322  1
  O  O117  1  0.82377583  0.29589639  0.62648331  1
  O  O118  1  0.83811500  0.77512538  0.12423320  1
  O  O119  1  0.82510154  0.79010744  0.62359245  1
  O  O120  1  0.19684352  0.20709027  0.37186590  1
  O  O121  1  0.20531685  0.21613161  0.87831808  1
  O  O122  1  0.20652096  0.71380928  0.37251088  1
  O  O123  1  0.21294307  0.72218776  0.87879353  1
  O  O124  1  0.69712367  0.20360118  0.37194238  1
  O  O125  1  0.70006589  0.22039409  0.87780406  1
  O  O126  1  0.70702276  0.70464857  0.37169085  1
  O  O127  1  0.71565244  0.71620664  0.87809033  1
  O  O128  1  0.41705591  0.06715405  0.24004570  1
  O  O129  1  0.41829682  0.07175363  0.74226084  1
  O  O130  1  0.41854181  0.58370377  0.24938754  1
  O  O131  1  0.42980814  0.58415308  0.75996500  1
  O  O132  1  0.91769124  0.06961067  0.23937434  1
  O  O133  1  0.93300641  0.07078420  0.75040462  1
  O  O134  1  0.91862739  0.58381677  0.24966697  1
  O  O135  1  0.92921726  0.58376140  0.76067921  1
  O  O136  1  0.16633655  0.42196868  0.23985443  1
  O  O137  1  0.18144899  0.43230688  0.75164096  1
  O  O138  1  0.16625934  0.91498643  0.24874435  1
  O  O139  1  0.17919282  0.92395945  0.76051212  1
  O  O140  1  0.66568638  0.41892909  0.23897611  1
  O  O141  1  0.67566456  0.42483025  0.75980487  1
  O  O142  1  0.67110180  0.91760593  0.24009043  1
  O  O143  1  0.68303128  0.93380258  0.75225210  1
