# generated using pymatgen
data_YbAlB4
_symmetry_space_group_name_H-M   'P 1'
_cell_length_a   3.47221212
_cell_length_b   5.99509778
_cell_length_c   5.99509778
_cell_angle_alpha   103.97213080
_cell_angle_beta   90.00000000
_cell_angle_gamma   90.00000000
_symmetry_Int_Tables_number   1
_chemical_formula_structural   YbAlB4
_chemical_formula_sum   'Yb2 Al2 B8'
_cell_volume   121.10317322
_cell_formula_units_Z   2
loop_
 _symmetry_equiv_pos_site_id
 _symmetry_equiv_pos_as_xyz
  1  'x, y, z'
loop_
 _atom_site_type_symbol
 _atom_site_label
 _atom_site_symmetry_multiplicity
 _atom_site_fract_x
 _atom_site_fract_y
 _atom_site_fract_z
 _atom_site_occupancy
  Yb  Yb0  1  -0.00000000  0.30066694  0.69933306  1
  Yb  Yb1  1  0.00000000  0.69933306  0.30066694  1
  Al  Al2  1  -0.00000000  0.81681351  0.81681351  1
  Al  Al3  1  0.00000000  0.18318649  0.18318649  1
  B  B4  1  0.50000000  0.93668546  0.61888811  1
  B  B5  1  0.50000000  0.06331454  0.38111189  1
  B  B6  1  0.50000000  0.61888811  0.93668546  1
  B  B7  1  0.50000000  0.38111189  0.06331454  1
  B  B8  1  0.50000000  0.37846114  0.37846114  1
  B  B9  1  0.50000000  0.62153886  0.62153886  1
  B  B10  1  0.50000000  0.09191826  0.90808174  1
  B  B11  1  0.50000000  0.90808174  0.09191826  1
