# generated using pymatgen
data_Sr5Ca3Ti3Mn5O20
_symmetry_space_group_name_H-M   'P 1'
_cell_length_a   11.10982922
_cell_length_b   11.30036437
_cell_length_c   17.65206749
_cell_angle_alpha   108.57723025
_cell_angle_beta   108.55787532
_cell_angle_gamma   90.08685033
_symmetry_Int_Tables_number   1
_chemical_formula_structural   Sr5Ca3Ti3Mn5O20
_chemical_formula_sum   'Sr20 Ca12 Ti12 Mn20 O80'
_cell_volume   1978.32909272
_cell_formula_units_Z   4
loop_
 _symmetry_equiv_pos_site_id
 _symmetry_equiv_pos_as_xyz
  1  'x, y, z'
loop_
 _atom_site_type_symbol
 _atom_site_label
 _atom_site_symmetry_multiplicity
 _atom_site_fract_x
 _atom_site_fract_y
 _atom_site_fract_z
 _atom_site_occupancy
  Sr  Sr0  1  0.30635766  0.06237117  0.61037012  1
  Sr  Sr1  1  0.30313226  0.55809769  0.61078872  1
  Sr  Sr2  1  0.80945729  0.06271089  0.61011041  1
  Sr  Sr3  1  0.81383519  0.56183030  0.61234912  1
  Sr  Sr4  1  0.19173161  0.43372246  0.38463976  1
  Sr  Sr5  1  0.19569456  0.43923797  0.89196895  1
  Sr  Sr6  1  0.69740130  0.43743261  0.38496703  1
  Sr  Sr7  1  0.69760111  0.93450693  0.38412951  1
  Sr  Sr8  1  0.69555923  0.93770619  0.88892472  1
  Sr  Sr9  1  0.06142597  0.30017837  0.61122337  1
  Sr  Sr10  1  0.05990975  0.80222911  0.61312240  1
  Sr  Sr11  1  0.55854534  0.30029097  0.61217952  1
  Sr  Sr12  1  0.56092576  0.80197827  0.61248285  1
  Sr  Sr13  1  0.44264148  0.19976896  0.38455302  1
  Sr  Sr14  1  0.44305058  0.20210953  0.88959864  1
  Sr  Sr15  1  0.44656460  0.69753567  0.38407365  1
  Sr  Sr16  1  0.44538309  0.70014796  0.88953355  1
  Sr  Sr17  1  0.94765815  0.19807418  0.38519622  1
  Sr  Sr18  1  0.94990051  0.20502211  0.89206253  1
  Sr  Sr19  1  0.94444121  0.69811612  0.38336395  1
  Ca  Ca20  1  0.30026054  0.06918670  0.10969189  1
  Ca  Ca21  1  0.29917340  0.56173227  0.11145770  1
  Ca  Ca22  1  0.80199439  0.06743876  0.10751847  1
  Ca  Ca23  1  0.80540952  0.56695190  0.10936823  1
  Ca  Ca24  1  0.18447339  0.93577599  0.38712637  1
  Ca  Ca25  1  0.19659796  0.93582107  0.89391447  1
  Ca  Ca26  1  0.69764446  0.43996565  0.89277432  1
  Ca  Ca27  1  0.05688950  0.29207455  0.11023257  1
  Ca  Ca28  1  0.04985242  0.79730649  0.11306195  1
  Ca  Ca29  1  0.54806574  0.28957480  0.10839506  1
  Ca  Ca30  1  0.55600689  0.79566065  0.11017080  1
  Ca  Ca31  1  0.94689857  0.70542703  0.89508303  1
  Ti  Ti32  1  0.00414660  0.00010249  0.00026535  1
  Ti  Ti33  1  0.00464959  0.50110420  0.00459543  1
  Ti  Ti34  1  0.50262931  -0.00016122  0.00383231  1
  Ti  Ti35  1  0.49967240  0.99923523  0.49638892  1
  Ti  Ti36  1  0.50646528  0.50624994  0.00710475  1
  Ti  Ti37  1  0.50312528  0.49967203  0.49974501  1
  Ti  Ti38  1  0.25423733  0.75364538  0.00948982  1
  Ti  Ti39  1  0.25202706  0.74983817  0.49814113  1
  Ti  Ti40  1  0.75070503  0.25401528  0.00112840  1
  Ti  Ti41  1  0.75394112  0.24915406  0.49712269  1
  Ti  Ti42  1  0.75618862  0.74990886  0.00180279  1
  Ti  Ti43  1  0.75563509  0.74965612  0.49915216  1
  Mn  Mn44  1  0.00276762  0.99718593  0.49642415  1
  Mn  Mn45  1  0.00148493  0.49957799  0.49709373  1
  Mn  Mn46  1  0.25658316  0.24982865  0.00339496  1
  Mn  Mn47  1  0.25080719  0.24747657  0.49776103  1
  Mn  Mn48  1  0.10468422  0.09026493  0.24443262  1
  Mn  Mn49  1  0.11226649  0.09449120  0.75605921  1
  Mn  Mn50  1  0.10994537  0.59298304  0.24560926  1
  Mn  Mn51  1  0.11133634  0.60396754  0.75835602  1
  Mn  Mn52  1  0.60454255  0.09141908  0.24475390  1
  Mn  Mn53  1  0.61277065  0.10194583  0.75119921  1
  Mn  Mn54  1  0.60877116  0.58943176  0.24433373  1
  Mn  Mn55  1  0.61776561  0.59478476  0.75283687  1
  Mn  Mn56  1  0.35684313  0.40113585  0.24630572  1
  Mn  Mn57  1  0.36917509  0.40534973  0.75406905  1
  Mn  Mn58  1  0.35496100  0.90427096  0.24749755  1
  Mn  Mn59  1  0.36332011  0.90485977  0.75282393  1
  Mn  Mn60  1  0.85349545  0.39904199  0.24045462  1
  Mn  Mn61  1  0.86021836  0.40844656  0.75454047  1
  Mn  Mn62  1  0.85737402  0.90231262  0.24223287  1
  Mn  Mn63  1  0.86700989  0.90331560  0.75242373  1
  O  O64  1  0.12212090  0.11490603  0.49221633  1
  O  O65  1  0.12372530  0.11067243  0.99072948  1
  O  O66  1  0.12532922  0.62267640  0.49137668  1
  O  O67  1  0.12611168  0.62625850  0.98912869  1
  O  O68  1  0.62513779  0.12366565  0.49090186  1
  O  O69  1  0.62849317  0.12646344  0.99162630  1
  O  O70  1  0.62702163  0.62343213  0.49183756  1
  O  O71  1  0.63134140  0.61986639  0.98871971  1
  O  O72  1  0.13545161  0.38716297  0.01810337  1
  O  O73  1  0.12376273  0.38029671  0.50254271  1
  O  O74  1  0.14237294  0.87994773  0.01878584  1
  O  O75  1  0.13451180  0.87568575  0.50583775  1
  O  O76  1  0.64150175  0.38252656  0.01625451  1
  O  O77  1  0.63277165  0.37710013  0.50533874  1
  O  O78  1  0.64161979  0.87855057  0.01676389  1
  O  O79  1  0.63482731  0.87512727  0.50604806  1
  O  O80  1  0.37400463  0.10997698  0.48745695  1
  O  O81  1  0.37714599  0.11062278  0.99062449  1
  O  O82  1  0.37564847  0.62091689  0.49083828  1
  O  O83  1  0.38018084  0.62022978  0.99244932  1
  O  O84  1  0.87452611  0.12133596  0.49297602  1
  O  O85  1  0.87837921  0.11862732  0.99337604  1
  O  O86  1  0.87598431  0.62107754  0.49239266  1
  O  O87  1  0.87766979  0.61817282  0.98850045  1
  O  O88  1  0.39525475  0.39045898  0.01645080  1
  O  O89  1  0.38479417  0.38341666  0.50483711  1
  O  O90  1  0.39060651  0.88411826  0.01718870  1
  O  O91  1  0.38397288  0.87775046  0.50628072  1
  O  O92  1  0.88943076  0.39015077  0.01877630  1
  O  O93  1  0.88045448  0.37919610  0.50501560  1
  O  O94  1  0.89164617  0.88334635  0.01610301  1
  O  O95  1  0.88196024  0.87745666  0.50483188  1
  O  O96  1  0.08227701  0.08929863  0.13008645  1
  O  O97  1  0.07952590  0.08160079  0.64213533  1
  O  O98  1  0.08286016  0.60212380  0.12655662  1
  O  O99  1  0.07521112  0.58988835  0.64414604  1
  O  O100  1  0.58641781  0.09407052  0.12474245  1
  O  O101  1  0.57402284  0.08190807  0.62429214  1
  O  O102  1  0.58947047  0.59819438  0.12560362  1
  O  O103  1  0.57763616  0.58111788  0.62672516  1
  O  O104  1  0.44633051  0.42106134  0.37193014  1
  O  O105  1  0.45402556  0.41776606  0.87430295  1
  O  O106  1  0.45098298  0.91620911  0.37144130  1
  O  O107  1  0.45612663  0.91430459  0.87831028  1
  O  O108  1  0.93019502  0.41717239  0.35550013  1
  O  O109  1  0.95203940  0.41633729  0.87826820  1
  O  O110  1  0.94797576  0.91022130  0.36136006  1
  O  O111  1  0.95517962  0.90560390  0.87803428  1
  O  O112  1  0.32946289  0.28178420  0.12635842  1
  O  O113  1  0.32422822  0.30520016  0.63647977  1
  O  O114  1  0.33100257  0.77768294  0.12693521  1
  O  O115  1  0.32211817  0.79405294  0.62657433  1
  O  O116  1  0.83231874  0.28541828  0.12724938  1
  O  O117  1  0.82269739  0.30117091  0.62826133  1
  O  O118  1  0.83541261  0.77832706  0.12436555  1
  O  O119  1  0.82618023  0.79506876  0.62666350  1
  O  O120  1  0.18169395  0.19312968  0.35947059  1
  O  O121  1  0.19374247  0.20872002  0.87335095  1
  O  O122  1  0.19486821  0.70951967  0.37132643  1
  O  O123  1  0.19966516  0.71567205  0.87497118  1
  O  O124  1  0.69354472  0.20270554  0.37160107  1
  O  O125  1  0.70393245  0.22174506  0.87943112  1
  O  O126  1  0.69505059  0.69937749  0.37002831  1
  O  O127  1  0.70816482  0.71346263  0.87644046  1
  O  O128  1  0.41534720  0.07107174  0.23903369  1
  O  O129  1  0.42996445  0.07407154  0.75239966  1
  O  O130  1  0.42203461  0.56630013  0.23874455  1
  O  O131  1  0.43482758  0.56688232  0.75149842  1
  O  O132  1  0.92340579  0.07233796  0.23753106  1
  O  O133  1  0.93578521  0.07539101  0.75312240  1
  O  O134  1  0.92167807  0.55861709  0.23813628  1
  O  O135  1  0.93631780  0.58492508  0.76206497  1
  O  O136  1  0.16904525  0.41841486  0.23989754  1
  O  O137  1  0.18898553  0.44387974  0.75521813  1
  O  O138  1  0.16863746  0.92496015  0.24811962  1
  O  O139  1  0.18303580  0.93463289  0.76237087  1
  O  O140  1  0.67242541  0.41273014  0.23678890  1
  O  O141  1  0.67759712  0.42452943  0.75958727  1
  O  O142  1  0.67005528  0.91957180  0.23895805  1
  O  O143  1  0.68670886  0.93608120  0.75347176  1
