# generated using pymatgen
data_Y3AlO6
_symmetry_space_group_name_H-M   'P 1'
_cell_length_a   6.45871258
_cell_length_b   6.45871258
_cell_length_c   6.45871247
_cell_angle_alpha   92.33702921
_cell_angle_beta   92.33702921
_cell_angle_gamma   92.33703133
_symmetry_Int_Tables_number   1
_chemical_formula_structural   Y3AlO6
_chemical_formula_sum   'Y6 Al2 O12'
_cell_volume   268.73382684
_cell_formula_units_Z   2
loop_
 _symmetry_equiv_pos_site_id
 _symmetry_equiv_pos_as_xyz
  1  'x, y, z'
loop_
 _atom_site_type_symbol
 _atom_site_label
 _atom_site_symmetry_multiplicity
 _atom_site_fract_x
 _atom_site_fract_y
 _atom_site_fract_z
 _atom_site_occupancy
  Y  Y0  1  0.07081533  0.56461783  0.25513483  1
  Y  Y1  1  0.43538217  0.74486517  0.92918467  1
  Y  Y2  1  0.74486517  0.92918467  0.43538217  1
  Y  Y3  1  0.25513483  0.07081533  0.56461783  1
  Y  Y4  1  0.56461783  0.25513483  0.07081533  1
  Y  Y5  1  0.92918467  0.43538217  0.74486517  1
  Al  Al6  1  0.00000000  0.00000000  -0.00000000  1
  Al  Al7  1  0.50000000  0.50000000  0.50000000  1
  O  O8  1  0.06809995  0.92867596  0.29245554  1
  O  O9  1  0.07132404  0.70754446  0.93190005  1
  O  O10  1  0.45597396  0.79027988  0.58223651  1
  O  O11  1  0.70754446  0.93190005  0.07132404  1
  O  O12  1  0.20972012  0.41776349  0.54402604  1
  O  O13  1  0.41776349  0.54402604  0.20972012  1
  O  O14  1  0.58223651  0.45597396  0.79027988  1
  O  O15  1  0.79027988  0.58223651  0.45597396  1
  O  O16  1  0.29245554  0.06809995  0.92867596  1
  O  O17  1  0.54402604  0.20972012  0.41776349  1
  O  O18  1  0.92867596  0.29245554  0.06809995  1
  O  O19  1  0.93190005  0.07132404  0.70754446  1
