# generated using pymatgen
data_BaMgSi
_symmetry_space_group_name_H-M   'P 1'
_cell_length_a   4.78976192
_cell_length_b   8.18241576
_cell_length_c   8.68870050
_cell_angle_alpha   90.00000000
_cell_angle_beta   90.00000000
_cell_angle_gamma   90.00000000
_symmetry_Int_Tables_number   1
_chemical_formula_structural   BaMgSi
_chemical_formula_sum   'Ba4 Mg4 Si4'
_cell_volume   340.52601575
_cell_formula_units_Z   4
loop_
 _symmetry_equiv_pos_site_id
 _symmetry_equiv_pos_as_xyz
  1  'x, y, z'
loop_
 _atom_site_type_symbol
 _atom_site_label
 _atom_site_symmetry_multiplicity
 _atom_site_fract_x
 _atom_site_fract_y
 _atom_site_fract_z
 _atom_site_occupancy
  Ba  Ba0  1  0.75000000  0.98537707  0.18145780  1
  Ba  Ba1  1  0.75000000  0.48537707  0.31854220  1
  Ba  Ba2  1  0.25000000  0.01462293  0.81854220  1
  Ba  Ba3  1  0.25000000  0.51462293  0.68145780  1
  Mg  Mg4  1  0.75000000  0.86052349  0.56319182  1
  Mg  Mg5  1  0.75000000  0.36052349  0.93680818  1
  Mg  Mg6  1  0.25000000  0.13947651  0.43680818  1
  Mg  Mg7  1  0.25000000  0.63947651  0.06319182  1
  Si  Si8  1  0.75000000  0.20428878  0.60707645  1
  Si  Si9  1  0.75000000  0.70428878  0.89292355  1
  Si  Si10  1  0.25000000  0.79571122  0.39292355  1
  Si  Si11  1  0.25000000  0.29571122  0.10707645  1
