# generated using pymatgen
data_Yb7Bi17O36
_symmetry_space_group_name_H-M   'P 1'
_cell_length_a   5.62818272
_cell_length_b   11.18640554
_cell_length_c   16.65703309
_cell_angle_alpha   93.02767223
_cell_angle_beta   89.89224144
_cell_angle_gamma   87.31886838
_symmetry_Int_Tables_number   1
_chemical_formula_structural   Yb7Bi17O36
_chemical_formula_sum   'Yb7 Bi17 O36'
_cell_volume   1046.09218874
_cell_formula_units_Z   1
loop_
 _symmetry_equiv_pos_site_id
 _symmetry_equiv_pos_as_xyz
  1  'x, y, z'
loop_
 _atom_site_type_symbol
 _atom_site_label
 _atom_site_symmetry_multiplicity
 _atom_site_fract_x
 _atom_site_fract_y
 _atom_site_fract_z
 _atom_site_occupancy
  Yb  Yb0  1  0.98691509  0.99115902  0.98924568  1
  Yb  Yb1  1  0.98712793  0.48294761  0.99461917  1
  Yb  Yb2  1  0.95868894  0.99437866  0.67641388  1
  Yb  Yb3  1  0.96197102  0.47679313  0.33761914  1
  Yb  Yb4  1  0.52034094  0.47351811  0.50262594  1
  Yb  Yb5  1  0.91704306  0.47433778  0.66596478  1
  Yb  Yb6  1  0.95831019  0.00843661  0.34626232  1
  Bi  Bi7  1  0.97620891  0.74029362  0.16059927  1
  Bi  Bi8  1  0.92127317  0.72080783  0.50278744  1
  Bi  Bi9  1  0.93457237  0.74325096  0.84838459  1
  Bi  Bi10  1  0.48385904  0.27893341  0.34174626  1
  Bi  Bi11  1  0.42007845  0.28487734  0.66652599  1
  Bi  Bi12  1  0.48425353  0.25611490  0.98437785  1
  Bi  Bi13  1  0.44353501  0.46873109  0.16440629  1
  Bi  Bi14  1  0.44056165  0.00061521  0.47335073  1
  Bi  Bi15  1  0.52354609  0.00550885  0.82839905  1
  Bi  Bi16  1  0.52183273  0.75329171  0.01282490  1
  Bi  Bi17  1  0.59487326  0.74518104  0.32757602  1
  Bi  Bi18  1  0.56396631  0.75108673  0.67558657  1
  Bi  Bi19  1  0.60271527  0.00748226  0.15855683  1
  Bi  Bi20  1  0.49164237  0.48564142  0.83742828  1
  Bi  Bi21  1  0.96784832  0.24053201  0.50770037  1
  Bi  Bi22  1  0.93990484  0.26809472  0.16368196  1
  Bi  Bi23  1  0.94505885  0.23943420  0.83085174  1
  O  O24  1  0.26248198  0.08507291  0.90754154  1
  O  O25  1  0.30122654  0.89631680  0.05989684  1
  O  O26  1  0.24141430  0.64478531  0.98268706  1
  O  O27  1  0.27270407  0.93213985  0.75159429  1
  O  O28  1  0.18802685  0.37424944  0.56598877  1
  O  O29  1  0.28077822  0.45727759  0.72317856  1
  O  O30  1  0.24849808  0.36666729  0.90127848  1
  O  O31  1  0.33053500  0.92104978  0.36096647  1
  O  O32  1  0.21168482  0.15196199  0.42040004  1
  O  O33  1  0.21918792  0.36534842  0.07756073  1
  O  O34  1  0.21616981  0.34680201  0.24282209  1
  O  O35  1  0.31510264  0.43746528  0.39269711  1
  O  O36  1  0.75642209  0.11284984  0.90542831  1
  O  O37  1  0.74551859  0.36169495  0.91756332  1
  O  O38  1  0.75233871  0.63444439  0.93315709  1
  O  O39  1  0.66516130  0.86839015  0.91451413  1
  O  O40  1  0.79727017  0.12065149  0.07821407  1
  O  O41  1  0.82419575  0.12554623  0.24371528  1
  O  O42  1  0.72914939  0.10984921  0.44758054  1
  O  O43  1  0.68113209  0.11796282  0.74546117  1
  O  O44  1  0.10530613  0.12295812  0.59114267  1
  O  O45  1  0.69862066  0.33544926  0.58808267  1
  O  O46  1  0.71102733  0.38298503  0.08451131  1
  O  O47  1  0.70272002  0.38449899  0.24826915  1
  O  O48  1  0.79120405  0.35398758  0.42496144  1
  O  O49  1  0.72147035  0.36659641  0.75700927  1
  O  O50  1  0.67341458  0.64707946  0.10830144  1
  O  O51  1  0.91898492  0.64812397  0.27062893  1
  O  O52  1  0.70122564  0.61620489  0.42366018  1
  O  O53  1  0.72602937  0.61196223  0.58703606  1
  O  O54  1  0.77206535  0.63167102  0.75613772  1
  O  O55  1  0.78947072  0.87077125  0.07558133  1
  O  O56  1  0.78307800  0.87630624  0.24022913  1
  O  O57  1  0.77681584  0.85517052  0.41828437  1
  O  O58  1  0.77797920  0.85349882  0.59486696  1
  O  O59  1  0.76546216  0.87076224  0.76161641  1
