# generated using pymatgen
data_V3(O2F)2
_symmetry_space_group_name_H-M   'P 1'
_cell_length_a   10.41120616
_cell_length_b   6.56585973
_cell_length_c   3.08018292
_cell_angle_alpha   90.00000000
_cell_angle_beta   90.00000000
_cell_angle_gamma   108.37455860
_symmetry_Int_Tables_number   1
_chemical_formula_structural   V3(O2F)2
_chemical_formula_sum   'V6 O8 F4'
_cell_volume   199.82173477
_cell_formula_units_Z   2
loop_
 _symmetry_equiv_pos_site_id
 _symmetry_equiv_pos_as_xyz
  1  'x, y, z'
loop_
 _atom_site_type_symbol
 _atom_site_label
 _atom_site_symmetry_multiplicity
 _atom_site_fract_x
 _atom_site_fract_y
 _atom_site_fract_z
 _atom_site_occupancy
  V  V0  1  0.01266456  0.00631874  0.00000000  1
  V  V1  1  0.33400269  0.16696949  0.50000000  1
  V  V2  1  0.01415416  0.50706499  0.50000000  1
  V  V3  1  0.33404511  0.66699877  -0.00000000  1
  V  V4  1  0.65456117  0.32733783  -0.00000000  1
  V  V5  1  0.65228491  0.82621118  0.50000000  1
  O  O6  1  0.13968265  0.06981112  0.50000000  1
  O  O7  1  0.99717979  0.30719428  0.00000000  1
  O  O8  1  0.99713433  0.68995975  -0.00000000  1
  O  O9  1  0.66766152  0.02490016  -0.00000000  1
  O  O10  1  0.20249692  0.60128859  0.50000000  1
  O  O11  1  0.52750207  0.26379081  0.50000000  1
  O  O12  1  0.46489876  0.73233212  0.50000000  1
  O  O13  1  0.66773545  0.64287388  -0.00000000  1
  F  F14  1  0.33365483  0.36632977  -0.00000000  1
  F  F15  1  0.79969930  0.39978820  0.50000000  1
  F  F16  1  0.33376459  0.96731669  0.00000000  1
  F  F17  1  0.86687621  0.93351563  0.50000000  1
