# generated using pymatgen
data_GdCoNi3B
_symmetry_space_group_name_H-M   'P 1'
_cell_length_a   4.99461350
_cell_length_b   5.00129118
_cell_length_c   6.93855318
_cell_angle_alpha   90.00000000
_cell_angle_beta   90.00000000
_cell_angle_gamma   119.95583774
_symmetry_Int_Tables_number   1
_chemical_formula_structural   GdCoNi3B
_chemical_formula_sum   'Gd2 Co2 Ni6 B2'
_cell_volume   150.16774962
_cell_formula_units_Z   2
loop_
 _symmetry_equiv_pos_site_id
 _symmetry_equiv_pos_as_xyz
  1  'x, y, z'
loop_
 _atom_site_type_symbol
 _atom_site_label
 _atom_site_symmetry_multiplicity
 _atom_site_fract_x
 _atom_site_fract_y
 _atom_site_fract_z
 _atom_site_occupancy
  Gd  Gd0  1  0.99998898  0.00000000  -0.00000000  1
  Gd  Gd1  1  0.99999293  0.00000000  0.50000000  1
  Co  Co2  1  0.33331915  0.66670520  -0.00000000  1
  Co  Co3  1  0.66661395  0.33329480  -0.00000000  1
  Ni  Ni4  1  0.49999627  0.00000000  0.29285683  1
  Ni  Ni5  1  0.49998879  0.50000635  0.29280783  1
  Ni  Ni6  1  0.99998244  0.49999365  0.29280783  1
  Ni  Ni7  1  0.49999627  0.00000000  0.70714317  1
  Ni  Ni8  1  0.49998879  0.50000635  0.70719217  1
  Ni  Ni9  1  0.99998244  0.49999365  0.70719217  1
  B  B10  1  0.33347187  0.66699373  0.50000000  1
  B  B11  1  0.66647814  0.33300627  0.50000000  1
