# generated using pymatgen
data_Nb6Cr7
_symmetry_space_group_name_H-M   'P 1'
_cell_length_a   4.91691562
_cell_length_b   4.91691516
_cell_length_c   9.67173055
_cell_angle_alpha   75.27440030
_cell_angle_beta   75.27440402
_cell_angle_gamma   59.99999620
_symmetry_Int_Tables_number   1
_chemical_formula_structural   Nb6Cr7
_chemical_formula_sum   'Nb6 Cr7'
_cell_volume   193.57876074
_cell_formula_units_Z   1
loop_
 _symmetry_equiv_pos_site_id
 _symmetry_equiv_pos_as_xyz
  1  'x, y, z'
loop_
 _atom_site_type_symbol
 _atom_site_label
 _atom_site_symmetry_multiplicity
 _atom_site_fract_x
 _atom_site_fract_y
 _atom_site_fract_z
 _atom_site_occupancy
  Nb  Nb0  1  0.83261723  0.83261723  0.50214832  1
  Nb  Nb1  1  0.16738277  0.16738277  0.49785168  1
  Nb  Nb2  1  0.64939552  0.64939552  0.05181344  1
  Nb  Nb3  1  0.35060448  0.35060448  0.94818656  1
  Nb  Nb4  1  0.54742687  0.54742687  0.35771938  1
  Nb  Nb5  1  0.45257313  0.45257313  0.64228062  1
  Cr  Cr6  1  -0.00000000  0.00000000  0.00000000  1
  Cr  Cr7  1  0.90510799  0.40992560  0.77985841  1
  Cr  Cr8  1  0.40992560  0.90510799  0.77985841  1
  Cr  Cr9  1  0.90510799  0.90510799  0.77985841  1
  Cr  Cr10  1  0.09489201  0.59007440  0.22014159  1
  Cr  Cr11  1  0.59007440  0.09489201  0.22014159  1
  Cr  Cr12  1  0.09489201  0.09489201  0.22014159  1
