# generated using pymatgen
data_Nb6Fe7
_symmetry_space_group_name_H-M   'P 1'
_cell_length_a   4.88438614
_cell_length_b   4.88438580
_cell_length_c   9.20306605
_cell_angle_alpha   74.61122010
_cell_angle_beta   74.61121581
_cell_angle_gamma   60.00000186
_symmetry_Int_Tables_number   1
_chemical_formula_structural   Nb6Fe7
_chemical_formula_sum   'Nb6 Fe7'
_cell_volume   180.99761178
_cell_formula_units_Z   1
loop_
 _symmetry_equiv_pos_site_id
 _symmetry_equiv_pos_as_xyz
  1  'x, y, z'
loop_
 _atom_site_type_symbol
 _atom_site_label
 _atom_site_symmetry_multiplicity
 _atom_site_fract_x
 _atom_site_fract_y
 _atom_site_fract_z
 _atom_site_occupancy
  Nb  Nb0  1  0.83297107  0.83297107  0.50108679  1
  Nb  Nb1  1  0.16702893  0.16702893  0.49891321  1
  Nb  Nb2  1  0.65381555  0.65381555  0.03855336  1
  Nb  Nb3  1  0.34618445  0.34618445  0.96144664  1
  Nb  Nb4  1  0.55035722  0.55035722  0.34892834  1
  Nb  Nb5  1  0.44964278  0.44964278  0.65107166  1
  Fe  Fe6  1  0.00000000  -0.00000000  0.00000000  1
  Fe  Fe7  1  0.90957166  0.40484076  0.77601592  1
  Fe  Fe8  1  0.40484076  0.90957166  0.77601592  1
  Fe  Fe9  1  0.90957166  0.90957166  0.77601592  1
  Fe  Fe10  1  0.09042834  0.59515924  0.22398408  1
  Fe  Fe11  1  0.59515924  0.09042834  0.22398408  1
  Fe  Fe12  1  0.09042834  0.09042834  0.22398408  1
