# generated using pymatgen
data_CaB5H4O9
_symmetry_space_group_name_H-M   'P 1'
_cell_length_a   6.61651790
_cell_length_b   6.59088264
_cell_length_c   20.36059107
_cell_angle_alpha   90.00000000
_cell_angle_beta   90.00000000
_cell_angle_gamma   119.16682149
_symmetry_Int_Tables_number   1
_chemical_formula_structural   CaB5H4O9
_chemical_formula_sum   'Ca4 B20 H16 O36'
_cell_volume   775.31714043
_cell_formula_units_Z   4
loop_
 _symmetry_equiv_pos_site_id
 _symmetry_equiv_pos_as_xyz
  1  'x, y, z'
loop_
 _atom_site_type_symbol
 _atom_site_label
 _atom_site_symmetry_multiplicity
 _atom_site_fract_x
 _atom_site_fract_y
 _atom_site_fract_z
 _atom_site_occupancy
  Ca  Ca0  1  0.31640020  0.95087889  0.69807064  1
  Ca  Ca1  1  0.68359980  0.04912111  0.30192936  1
  Ca  Ca2  1  0.68359980  0.54912111  0.19807064  1
  Ca  Ca3  1  0.31640020  0.45087889  0.80192936  1
  B  B4  1  0.41371202  0.94014516  0.84395644  1
  B  B5  1  0.58628798  0.05985484  0.15604356  1
  B  B6  1  0.58628798  0.55985484  0.34395644  1
  B  B7  1  0.41371202  0.44014516  0.65604356  1
  B  B8  1  0.72296890  0.83725789  0.68315259  1
  B  B9  1  0.27703110  0.16274211  0.31684741  1
  B  B10  1  0.27703110  0.66274211  0.18315259  1
  B  B11  1  0.72296890  0.33725789  0.81684741  1
  B  B12  1  0.81871460  0.65123990  0.44557827  1
  B  B13  1  0.18128540  0.34876010  0.55442173  1
  B  B14  1  0.18128540  0.84876010  0.94557827  1
  B  B15  1  0.81871460  0.15123990  0.05442173  1
  B  B16  1  0.98869033  0.75804352  0.83951003  1
  B  B17  1  0.01130967  0.24195648  0.16048997  1
  B  B18  1  0.01130967  0.74195648  0.33951003  1
  B  B19  1  0.98869033  0.25804352  0.66048997  1
  B  B20  1  0.81933730  0.52677335  0.67252210  1
  B  B21  1  0.18066270  0.47322665  0.32747790  1
  B  B22  1  0.18066270  0.97322665  0.17252210  1
  B  B23  1  0.81933730  0.02677335  0.82747790  1
  H  H24  1  0.45402771  0.93986317  0.56245397  1
  H  H25  1  0.54597229  0.06013683  0.43754603  1
  H  H26  1  0.54597229  0.56013683  0.06245397  1
  H  H27  1  0.45402771  0.43986317  0.93754603  1
  H  H28  1  0.13703599  0.88618108  0.55623583  1
  H  H29  1  0.86296401  0.11381892  0.44376417  1
  H  H30  1  0.86296401  0.61381892  0.05623583  1
  H  H31  1  0.13703599  0.38618108  0.94376417  1
  H  H32  1  0.67326148  0.57852777  0.53402472  1
  H  H33  1  0.32673852  0.42147223  0.46597528  1
  H  H34  1  0.32673852  0.92147223  0.03402472  1
  H  H35  1  0.67326148  0.07852777  0.96597528  1
  H  H36  1  0.27667731  0.91532075  0.55822995  1
  H  H37  1  0.72332269  0.08467925  0.44177005  1
  H  H38  1  0.72332269  0.58467925  0.05822995  1
  H  H39  1  0.27667731  0.41532075  0.94177005  1
  O  O40  1  0.79696805  0.73127557  0.31022551  1
  O  O41  1  0.20303195  0.26872443  0.68977449  1
  O  O42  1  0.20303195  0.76872443  0.81022551  1
  O  O43  1  0.79696805  0.23127557  0.18977449  1
  O  O44  1  0.39418779  0.96557705  0.91351957  1
  O  O45  1  0.60581221  0.03442295  0.08648043  1
  O  O46  1  0.60581221  0.53442295  0.41351957  1
  O  O47  1  0.39418779  0.46557705  0.58648043  1
  O  O48  1  0.99679252  0.98246064  0.82123437  1
  O  O49  1  0.00320748  0.01753936  0.17876563  1
  O  O50  1  0.00320748  0.51753936  0.32123437  1
  O  O51  1  0.99679252  0.48246064  0.67876563  1
  O  O52  1  0.49202622  0.67213651  0.69081295  1
  O  O53  1  0.50797378  0.32786349  0.30918705  1
  O  O54  1  0.50797378  0.82786349  0.19081295  1
  O  O55  1  0.49202622  0.17213651  0.80918705  1
  O  O56  1  0.98196774  0.73187341  0.90987416  1
  O  O57  1  0.01803226  0.26812659  0.09012584  1
  O  O58  1  0.01803226  0.76812659  0.40987416  1
  O  O59  1  0.98196774  0.23187341  0.59012584  1
  O  O60  1  0.88720664  0.76643233  0.67262890  1
  O  O61  1  0.11279336  0.23356767  0.32737110  1
  O  O62  1  0.11279336  0.73356767  0.17262890  1
  O  O63  1  0.88720664  0.26643233  0.82737110  1
  O  O64  1  0.82619916  0.65052282  0.51268600  1
  O  O65  1  0.17380084  0.34947718  0.48731400  1
  O  O66  1  0.17380084  0.84947718  0.01268600  1
  O  O67  1  0.82619916  0.15052282  0.98731400  1
  O  O68  1  0.58903139  0.86423500  0.83158862  1
  O  O69  1  0.41096861  0.13576500  0.16841138  1
  O  O70  1  0.41096861  0.63576500  0.33158862  1
  O  O71  1  0.58903139  0.36423500  0.66841138  1
  O  O72  1  0.77695414  0.56261801  0.81081397  1
  O  O73  1  0.22304586  0.43738199  0.18918603  1
  O  O74  1  0.22304586  0.93738199  0.31081397  1
  O  O75  1  0.77695414  0.06261801  0.68918603  1
