# generated using pymatgen
data_Fe2NiB
_symmetry_space_group_name_H-M   'P 1'
_cell_length_a   4.40348840
_cell_length_b   5.33304580
_cell_length_c   6.61849677
_cell_angle_alpha   90.00000000
_cell_angle_beta   90.00000000
_cell_angle_gamma   90.00000000
_symmetry_Int_Tables_number   1
_chemical_formula_structural   Fe2NiB
_chemical_formula_sum   'Fe8 Ni4 B4'
_cell_volume   155.42881334
_cell_formula_units_Z   4
loop_
 _symmetry_equiv_pos_site_id
 _symmetry_equiv_pos_as_xyz
  1  'x, y, z'
loop_
 _atom_site_type_symbol
 _atom_site_label
 _atom_site_symmetry_multiplicity
 _atom_site_fract_x
 _atom_site_fract_y
 _atom_site_fract_z
 _atom_site_occupancy
  Fe  Fe0  1  0.35332596  0.68079547  0.06069552  1
  Fe  Fe1  1  0.14667404  0.18079547  0.43930448  1
  Fe  Fe2  1  0.64667404  0.31920453  0.56069552  1
  Fe  Fe3  1  0.85332596  0.81920453  0.93930448  1
  Fe  Fe4  1  0.64667404  0.31920453  0.93930448  1
  Fe  Fe5  1  0.85332596  0.81920453  0.56069552  1
  Fe  Fe6  1  0.35332596  0.68079547  0.43930448  1
  Fe  Fe7  1  0.14667404  0.18079547  0.06069552  1
  Ni  Ni8  1  0.86660542  0.53020068  0.25000000  1
  Ni  Ni9  1  0.63339458  0.03020068  0.25000000  1
  Ni  Ni10  1  0.13339458  0.46979932  0.75000000  1
  Ni  Ni11  1  0.36660542  0.96979932  0.75000000  1
  B  B12  1  0.05579398  0.87754712  0.25000000  1
  B  B13  1  0.44420602  0.37754712  0.25000000  1
  B  B14  1  0.94420602  0.12245288  0.75000000  1
  B  B15  1  0.55579398  0.62245288  0.75000000  1
