# generated using pymatgen
data_LiMnAsO5
_symmetry_space_group_name_H-M   'P 1'
_cell_length_a   5.34159936
_cell_length_b   5.41832541
_cell_length_c   7.35498840
_cell_angle_alpha   109.55614579
_cell_angle_beta   108.40658677
_cell_angle_gamma   100.11894720
_symmetry_Int_Tables_number   1
_chemical_formula_structural   LiMnAsO5
_chemical_formula_sum   'Li2 Mn2 As2 O10'
_cell_volume   180.65859614
_cell_formula_units_Z   2
loop_
 _symmetry_equiv_pos_site_id
 _symmetry_equiv_pos_as_xyz
  1  'x, y, z'
loop_
 _atom_site_type_symbol
 _atom_site_label
 _atom_site_symmetry_multiplicity
 _atom_site_fract_x
 _atom_site_fract_y
 _atom_site_fract_z
 _atom_site_occupancy
  Li  Li0  1  0.03784076  0.93696263  0.77791508  1
  Li  Li1  1  0.96215924  0.06303737  0.22208492  1
  Mn  Mn2  1  -0.00000000  0.50000000  -0.00000000  1
  Mn  Mn3  1  0.50000000  -0.00000000  0.50000000  1
  As  As4  1  0.43797243  0.61145985  0.75545075  1
  As  As5  1  0.56202757  0.38854015  0.24454925  1
  O  O6  1  0.70080440  0.33510170  0.05815281  1
  O  O7  1  0.29919560  0.66489830  0.94184719  1
  O  O8  1  0.66797499  0.16087791  0.34443164  1
  O  O9  1  0.33202501  0.83912209  0.65556836  1
  O  O10  1  0.67954936  0.71314811  0.44698693  1
  O  O11  1  0.32045064  0.28685189  0.55301307  1
  O  O12  1  0.20504718  0.26934591  0.10279456  1
  O  O13  1  0.79495282  0.73065409  0.89720544  1
  O  O14  1  0.84038612  0.19991628  0.73594234  1
  O  O15  1  0.15961388  0.80008372  0.26405766  1
