# generated using pymatgen
data_Dy(Mo3Se4)2
_symmetry_space_group_name_H-M   'P 1'
_cell_length_a   6.78137670
_cell_length_b   6.78137670
_cell_length_c   6.78137696
_cell_angle_alpha   89.29601195
_cell_angle_beta   89.29601195
_cell_angle_gamma   89.29601682
_symmetry_Int_Tables_number   1
_chemical_formula_structural   Dy(Mo3Se4)2
_chemical_formula_sum   'Dy1 Mo6 Se8'
_cell_volume   311.78561069
_cell_formula_units_Z   1
loop_
 _symmetry_equiv_pos_site_id
 _symmetry_equiv_pos_as_xyz
  1  'x, y, z'
loop_
 _atom_site_type_symbol
 _atom_site_label
 _atom_site_symmetry_multiplicity
 _atom_site_fract_x
 _atom_site_fract_y
 _atom_site_fract_z
 _atom_site_occupancy
  Dy  Dy0  1  0.00000000  0.00000000  -0.00000000  1
  Mo  Mo1  1  0.57695631  0.76615252  0.44123574  1
  Mo  Mo2  1  0.76615252  0.44123574  0.57695631  1
  Mo  Mo3  1  0.44123574  0.57695631  0.76615252  1
  Mo  Mo4  1  0.42304369  0.23384748  0.55876426  1
  Mo  Mo5  1  0.23384748  0.55876426  0.42304369  1
  Mo  Mo6  1  0.55876426  0.42304369  0.23384748  1
  Se  Se7  1  0.76334699  0.76334699  0.76334699  1
  Se  Se8  1  0.23665301  0.23665301  0.23665301  1
  Se  Se9  1  0.63003459  0.24422268  0.87753445  1
  Se  Se10  1  0.24422268  0.87753445  0.63003459  1
  Se  Se11  1  0.87753445  0.63003459  0.24422268  1
  Se  Se12  1  0.36996541  0.75577732  0.12246555  1
  Se  Se13  1  0.75577732  0.12246555  0.36996541  1
  Se  Se14  1  0.12246555  0.36996541  0.75577732  1
