# generated using pymatgen
data_Cs2PrCuCl6
_symmetry_space_group_name_H-M   'P 1'
_cell_length_a   7.57127939
_cell_length_b   7.57127843
_cell_length_c   7.57128092
_cell_angle_alpha   59.99934888
_cell_angle_beta   59.99933405
_cell_angle_gamma   59.99938383
_symmetry_Int_Tables_number   1
_chemical_formula_structural   Cs2PrCuCl6
_chemical_formula_sum   'Cs2 Pr1 Cu1 Cl6'
_cell_volume   306.89266400
_cell_formula_units_Z   1
loop_
 _symmetry_equiv_pos_site_id
 _symmetry_equiv_pos_as_xyz
  1  'x, y, z'
loop_
 _atom_site_type_symbol
 _atom_site_label
 _atom_site_symmetry_multiplicity
 _atom_site_fract_x
 _atom_site_fract_y
 _atom_site_fract_z
 _atom_site_occupancy
  Cs  Cs0  1  0.25000129  0.25000152  0.25000161  1
  Cs  Cs1  1  0.74999876  0.74999860  0.74999872  1
  Pr  Pr2  1  0.50000003  0.49999989  0.50000010  1
  Cu  Cu3  1  0.00000028  0.99999995  0.99999916  1
  Cl  Cl4  1  0.24200323  0.75799479  0.24200355  1
  Cl  Cl5  1  0.75799670  0.75799669  0.24200522  1
  Cl  Cl6  1  0.75799663  0.24200537  0.75799653  1
  Cl  Cl7  1  0.75799473  0.24200347  0.24200348  1
  Cl  Cl8  1  0.24200492  0.75799666  0.75799677  1
  Cl  Cl9  1  0.24200344  0.24200307  0.75799486  1
