# generated using pymatgen
data_RbAuCl3
_symmetry_space_group_name_H-M   'P 1'
_cell_length_a   7.30233894
_cell_length_b   7.30233922
_cell_length_c   7.30233921
_cell_angle_alpha   59.99999903
_cell_angle_beta   59.99999860
_cell_angle_gamma   59.99999862
_symmetry_Int_Tables_number   1
_chemical_formula_structural   RbAuCl3
_chemical_formula_sum   'Rb2 Au2 Cl6'
_cell_volume   275.34106197
_cell_formula_units_Z   2
loop_
 _symmetry_equiv_pos_site_id
 _symmetry_equiv_pos_as_xyz
  1  'x, y, z'
loop_
 _atom_site_type_symbol
 _atom_site_label
 _atom_site_symmetry_multiplicity
 _atom_site_fract_x
 _atom_site_fract_y
 _atom_site_fract_z
 _atom_site_occupancy
  Rb  Rb0  1  0.25000000  0.25000000  0.25000000  1
  Rb  Rb1  1  0.75000000  0.75000000  0.75000000  1
  Au  Au2  1  0.50000000  0.50000000  0.50000000  1
  Au  Au3  1  -0.00000000  -0.00000000  -0.00000000  1
  Cl  Cl4  1  0.24998612  0.75001388  0.24998612  1
  Cl  Cl5  1  0.75001388  0.75001388  0.24998612  1
  Cl  Cl6  1  0.75001388  0.24998612  0.75001388  1
  Cl  Cl7  1  0.75001388  0.24998612  0.24998612  1
  Cl  Cl8  1  0.24998612  0.75001388  0.75001388  1
  Cl  Cl9  1  0.24998612  0.24998612  0.75001388  1
