# generated using pymatgen
data_Cs2NaGaCl6
_symmetry_space_group_name_H-M   'P 1'
_cell_length_a   7.44602126
_cell_length_b   7.44602155
_cell_length_c   7.44602154
_cell_angle_alpha   59.99999906
_cell_angle_beta   59.99999859
_cell_angle_gamma   59.99999862
_symmetry_Int_Tables_number   1
_chemical_formula_structural   Cs2NaGaCl6
_chemical_formula_sum   'Cs2 Na1 Ga1 Cl6'
_cell_volume   291.91595917
_cell_formula_units_Z   1
loop_
 _symmetry_equiv_pos_site_id
 _symmetry_equiv_pos_as_xyz
  1  'x, y, z'
loop_
 _atom_site_type_symbol
 _atom_site_label
 _atom_site_symmetry_multiplicity
 _atom_site_fract_x
 _atom_site_fract_y
 _atom_site_fract_z
 _atom_site_occupancy
  Cs  Cs0  1  0.25000000  0.25000000  0.25000000  1
  Cs  Cs1  1  0.75000000  0.75000000  0.75000000  1
  Na  Na2  1  0.50000000  0.50000000  0.50000000  1
  Ga  Ga3  1  -0.00000000  0.00000000  0.00000000  1
  Cl  Cl4  1  0.22918832  0.77081167  0.22918833  1
  Cl  Cl5  1  0.77081168  0.77081167  0.22918833  1
  Cl  Cl6  1  0.77081168  0.22918833  0.77081167  1
  Cl  Cl7  1  0.77081168  0.22918833  0.22918833  1
  Cl  Cl8  1  0.22918832  0.77081167  0.77081167  1
  Cl  Cl9  1  0.22918832  0.22918833  0.77081167  1
