# generated using pymatgen
data_C8Cl4O3
_symmetry_space_group_name_H-M   'P 1'
_cell_length_a   5.94214951
_cell_length_b   12.88139980
_cell_length_c   13.91907755
_cell_angle_alpha   93.36800837
_cell_angle_beta   90.00000000
_cell_angle_gamma   90.00000000
_symmetry_Int_Tables_number   1
_chemical_formula_structural   C8Cl4O3
_chemical_formula_sum   'C32 Cl16 O12'
_cell_volume   1063.57059325
_cell_formula_units_Z   4
loop_
 _symmetry_equiv_pos_site_id
 _symmetry_equiv_pos_as_xyz
  1  'x, y, z'
loop_
 _atom_site_type_symbol
 _atom_site_label
 _atom_site_symmetry_multiplicity
 _atom_site_fract_x
 _atom_site_fract_y
 _atom_site_fract_z
 _atom_site_occupancy
  C  C0  1  0.35644520  0.92183770  0.72461343  1
  C  C1  1  0.64355480  0.07816230  0.27538657  1
  C  C2  1  0.85644520  0.57816230  0.77538657  1
  C  C3  1  0.14355480  0.42183770  0.22461343  1
  C  C4  1  0.63186679  0.08801550  0.78477490  1
  C  C5  1  0.36813321  0.91198450  0.21522510  1
  C  C6  1  0.13186679  0.41198450  0.71522510  1
  C  C7  1  0.86813321  0.58801550  0.28477490  1
  C  C8  1  0.23794529  0.83441197  0.67303267  1
  C  C9  1  0.76205471  0.16558803  0.32696733  1
  C  C10  1  0.73794529  0.66558803  0.82696733  1
  C  C11  1  0.26205471  0.33441197  0.17303267  1
  C  C12  1  0.44978853  0.05846505  0.84291261  1
  C  C13  1  0.55021147  0.94153495  0.15708739  1
  C  C14  1  0.94978853  0.44153495  0.65708739  1
  C  C15  1  0.05021147  0.55846505  0.34291261  1
  C  C16  1  0.17597531  0.46563929  0.80496459  1
  C  C17  1  0.82402469  0.53436071  0.19503541  1
  C  C18  1  0.67597531  0.03436071  0.69503541  1
  C  C19  1  0.32402469  0.96563929  0.30496459  1
  C  C20  1  0.53376295  0.95218422  0.66644641  1
  C  C21  1  0.46623705  0.04781578  0.33355359  1
  C  C22  1  0.03376295  0.54781578  0.83355359  1
  C  C23  1  0.96623705  0.45218422  0.16644641  1
  C  C24  1  0.31160588  0.97280741  0.81361444  1
  C  C25  1  0.68839412  0.02719259  0.18638556  1
  C  C26  1  0.81160588  0.52719259  0.68638556  1
  C  C27  1  0.18839412  0.47280741  0.31361444  1
  C  C28  1  0.03051702  0.61565480  0.92300029  1
  C  C29  1  0.96948298  0.38434520  0.07699971  1
  C  C30  1  0.53051702  0.88434520  0.57699971  1
  C  C31  1  0.46948298  0.11565480  0.42300029  1
  Cl  Cl32  1  0.09813334  0.93403910  0.88516846  1
  Cl  Cl33  1  0.90186666  0.06596090  0.11483154  1
  Cl  Cl34  1  0.59813334  0.56596090  0.61483154  1
  Cl  Cl35  1  0.40186666  0.43403910  0.38516846  1
  Cl  Cl36  1  0.39545204  0.12771132  0.94847763  1
  Cl  Cl37  1  0.60454796  0.87228868  0.05152237  1
  Cl  Cl38  1  0.89545204  0.37228868  0.55152237  1
  Cl  Cl39  1  0.10454796  0.62771132  0.44847763  1
  Cl  Cl40  1  0.39465480  0.42964152  0.87526108  1
  Cl  Cl41  1  0.60534520  0.57035848  0.12473892  1
  Cl  Cl42  1  0.89465480  0.07035848  0.62473892  1
  Cl  Cl43  1  0.10534520  0.92964152  0.37526108  1
  Cl  Cl44  1  0.29945692  0.31069298  0.67604885  1
  Cl  Cl45  1  0.70054308  0.68930702  0.32395115  1
  Cl  Cl46  1  0.79945692  0.18930702  0.82395115  1
  Cl  Cl47  1  0.20054308  0.81069298  0.17604885  1
  O  O48  1  0.14707277  0.61757075  0.99431169  1
  O  O49  1  0.85292723  0.38242925  0.00568831  1
  O  O50  1  0.64707277  0.88242925  0.50568831  1
  O  O51  1  0.35292723  0.11757075  0.49431169  1
  O  O52  1  0.35045778  0.81421094  0.58495931  1
  O  O53  1  0.64954222  0.18578906  0.41504069  1
  O  O54  1  0.85045778  0.68578906  0.91504069  1
  O  O55  1  0.14954222  0.31421094  0.08495931  1
  O  O56  1  0.07345621  0.78495502  0.69342531  1
  O  O57  1  0.92654379  0.21504498  0.30657469  1
  O  O58  1  0.57345621  0.71504498  0.80657469  1
  O  O59  1  0.42654379  0.28495502  0.19342531  1
