# generated using pymatgen
data_CsAuBr3
_symmetry_space_group_name_H-M   'P 1'
_cell_length_a   7.73933993
_cell_length_b   7.73934027
_cell_length_c   7.73934026
_cell_angle_alpha   59.99999888
_cell_angle_beta   59.99999833
_cell_angle_gamma   59.99999837
_symmetry_Int_Tables_number   1
_chemical_formula_structural   CsAuBr3
_chemical_formula_sum   'Cs2 Au2 Br6'
_cell_volume   327.79082410
_cell_formula_units_Z   2
loop_
 _symmetry_equiv_pos_site_id
 _symmetry_equiv_pos_as_xyz
  1  'x, y, z'
loop_
 _atom_site_type_symbol
 _atom_site_label
 _atom_site_symmetry_multiplicity
 _atom_site_fract_x
 _atom_site_fract_y
 _atom_site_fract_z
 _atom_site_occupancy
  Cs  Cs0  1  0.25000000  0.25000000  0.25000000  1
  Cs  Cs1  1  0.75000000  0.75000000  0.75000000  1
  Au  Au2  1  0.50000000  0.50000000  0.50000000  1
  Au  Au3  1  -0.00000000  0.00000000  -0.00000000  1
  Br  Br4  1  0.24991538  0.75008462  0.24991538  1
  Br  Br5  1  0.75008462  0.75008462  0.24991538  1
  Br  Br6  1  0.75008462  0.24991538  0.75008462  1
  Br  Br7  1  0.75008462  0.24991538  0.24991538  1
  Br  Br8  1  0.24991538  0.75008462  0.75008462  1
  Br  Br9  1  0.24991538  0.24991538  0.75008462  1
