# generated using pymatgen
data_Sr4Fe3ClO8
_symmetry_space_group_name_H-M   'P 1'
_cell_length_a   3.97034940
_cell_length_b   3.97087181
_cell_length_c   15.64303584
_cell_angle_alpha   90.00512279
_cell_angle_beta   90.01371175
_cell_angle_gamma   90.00031854
_symmetry_Int_Tables_number   1
_chemical_formula_structural   Sr4Fe3ClO8
_chemical_formula_sum   'Sr4 Fe3 Cl1 O8'
_cell_volume   246.62416104
_cell_formula_units_Z   1
loop_
 _symmetry_equiv_pos_site_id
 _symmetry_equiv_pos_as_xyz
  1  'x, y, z'
loop_
 _atom_site_type_symbol
 _atom_site_label
 _atom_site_symmetry_multiplicity
 _atom_site_fract_x
 _atom_site_fract_y
 _atom_site_fract_z
 _atom_site_occupancy
  Sr  Sr0  1  0.00113899  0.99903849  0.73260128  1
  Sr  Sr1  1  0.99963710  0.99991189  0.24511578  1
  Sr  Sr2  1  0.00030058  0.99915614  0.50382939  1
  Sr  Sr3  1  0.99995386  0.00041684  0.99293805  1
  Fe  Fe4  1  0.50007441  0.50017341  0.87433613  1
  Fe  Fe5  1  0.49983523  0.49985784  0.36338406  1
  Fe  Fe6  1  0.50030745  0.49972443  0.61855890  1
  Cl  Cl7  1  0.49970700  0.50018362  0.12059815  1
  O  O8  1  0.50004296  0.99994355  0.61862973  1
  O  O9  1  0.49968619  0.50053955  0.75544858  1
  O  O10  1  0.99993109  0.50041651  0.90849708  1
  O  O11  1  0.49992373  0.50021584  0.48217460  1
  O  O12  1  0.49971085  0.99993887  0.32993161  1
  O  O13  1  0.00015742  0.50015741  0.61863677  1
  O  O14  1  0.99975359  0.49998140  0.32988632  1
  O  O15  1  0.49983955  0.00034420  0.90843355  1
