# generated using pymatgen
data_TiZnSnO4
_symmetry_space_group_name_H-M   'P 1'
_cell_length_a   5.28660131
_cell_length_b   8.75810422
_cell_length_c   19.98922623
_cell_angle_alpha   90.00000000
_cell_angle_beta   90.00000000
_cell_angle_gamma   90.00000000
_symmetry_Int_Tables_number   1
_chemical_formula_structural   TiZnSnO4
_chemical_formula_sum   'Ti8 Zn8 Sn8 O32'
_cell_volume   925.51327278
_cell_formula_units_Z   8
loop_
 _symmetry_equiv_pos_site_id
 _symmetry_equiv_pos_as_xyz
  1  'x, y, z'
loop_
 _atom_site_type_symbol
 _atom_site_label
 _atom_site_symmetry_multiplicity
 _atom_site_fract_x
 _atom_site_fract_y
 _atom_site_fract_z
 _atom_site_occupancy
  Ti  Ti0  1  0.72876903  0.69788090  0.32410914  1
  Ti  Ti1  1  0.22876903  0.30211910  0.67589086  1
  Ti  Ti2  1  0.22876903  0.80211910  0.82410914  1
  Ti  Ti3  1  0.72876903  0.19788090  0.17589086  1
  Ti  Ti4  1  0.20634834  0.23181179  0.42738734  1
  Ti  Ti5  1  0.70634834  0.76818821  0.57261266  1
  Ti  Ti6  1  0.70634834  0.26818821  0.92738734  1
  Ti  Ti7  1  0.20634834  0.73181179  0.07261266  1
  Zn  Zn8  1  0.70580627  0.31567009  0.34278933  1
  Zn  Zn9  1  0.20580627  0.68432991  0.65721067  1
  Zn  Zn10  1  0.20580627  0.18432991  0.84278933  1
  Zn  Zn11  1  0.70580627  0.81567009  0.15721067  1
  Zn  Zn12  1  0.71310013  0.00638251  0.44483595  1
  Zn  Zn13  1  0.21310013  0.99361749  0.55516405  1
  Zn  Zn14  1  0.21310013  0.49361749  0.94483595  1
  Zn  Zn15  1  0.71310013  0.50638251  0.05516405  1
  Sn  Sn16  1  0.24048484  0.57375342  0.22809145  1
  Sn  Sn17  1  0.74048484  0.42624658  0.77190855  1
  Sn  Sn18  1  0.74048484  0.92624658  0.72809145  1
  Sn  Sn19  1  0.24048484  0.07375342  0.27190855  1
  Sn  Sn20  1  0.32920223  0.62550404  0.44370218  1
  Sn  Sn21  1  0.82920223  0.37449596  0.55629782  1
  Sn  Sn22  1  0.82920223  0.87449596  0.94370218  1
  Sn  Sn23  1  0.32920223  0.12550404  0.05629782  1
  O  O24  1  0.57268832  0.71925303  0.23994814  1
  O  O25  1  0.07268832  0.28074697  0.76005186  1
  O  O26  1  0.07268832  0.78074697  0.73994814  1
  O  O27  1  0.57268832  0.21925303  0.26005186  1
  O  O28  1  0.65942432  0.85159463  0.37909095  1
  O  O29  1  0.15942432  0.14840537  0.62090905  1
  O  O30  1  0.15942432  0.64840537  0.87909095  1
  O  O31  1  0.65942432  0.35159463  0.12090905  1
  O  O32  1  0.57815907  0.52471027  0.36380593  1
  O  O33  1  0.07815907  0.47528973  0.63619407  1
  O  O34  1  0.07815907  0.97528973  0.86380593  1
  O  O35  1  0.57815907  0.02471027  0.13619407  1
  O  O36  1  0.06339112  0.66322817  0.31355888  1
  O  O37  1  0.56339112  0.33677183  0.68644112  1
  O  O38  1  0.56339112  0.83677183  0.81355888  1
  O  O39  1  0.06339112  0.16322817  0.18644112  1
  O  O40  1  0.06717302  0.24757331  0.34275705  1
  O  O41  1  0.56717302  0.75242669  0.65724295  1
  O  O42  1  0.56717302  0.25242669  0.84275705  1
  O  O43  1  0.06717302  0.74757331  0.15724295  1
  O  O44  1  0.06310884  0.06933997  0.46950606  1
  O  O45  1  0.56310884  0.93066003  0.53049394  1
  O  O46  1  0.56310884  0.43066003  0.96950606  1
  O  O47  1  0.06310884  0.56933997  0.03049394  1
  O  O48  1  0.13500238  0.40727363  0.47555667  1
  O  O49  1  0.63500238  0.59272637  0.52444333  1
  O  O50  1  0.63500238  0.09272637  0.97555667  1
  O  O51  1  0.13500238  0.90727363  0.02444333  1
  O  O52  1  0.54834208  0.20301993  0.42027659  1
  O  O53  1  0.04834208  0.79698007  0.57972341  1
  O  O54  1  0.04834208  0.29698007  0.92027659  1
  O  O55  1  0.54834208  0.70301993  0.07972341  1
