# generated using pymatgen
data_Sr5Cr3F19
_symmetry_space_group_name_H-M   'P 1'
_cell_length_a   8.72720990
_cell_length_b   10.21134403
_cell_length_c   10.19806374
_cell_angle_alpha   83.54028423
_cell_angle_beta   71.70669776
_cell_angle_gamma   71.48603967
_symmetry_Int_Tables_number   1
_chemical_formula_structural   Sr5Cr3F19
_chemical_formula_sum   'Sr10 Cr6 F38'
_cell_volume   818.14586681
_cell_formula_units_Z   2
loop_
 _symmetry_equiv_pos_site_id
 _symmetry_equiv_pos_as_xyz
  1  'x, y, z'
loop_
 _atom_site_type_symbol
 _atom_site_label
 _atom_site_symmetry_multiplicity
 _atom_site_fract_x
 _atom_site_fract_y
 _atom_site_fract_z
 _atom_site_occupancy
  Sr  Sr0  1  0.98927362  0.70868474  0.15103989  1
  Sr  Sr1  1  0.23345711  0.30412942  0.16596279  1
  Sr  Sr2  1  0.32618156  0.47783895  0.51330495  1
  Sr  Sr3  1  0.23788799  0.82867320  0.69779171  1
  Sr  Sr4  1  0.43231375  0.86736671  0.29596116  1
  Sr  Sr5  1  0.51338942  0.14784980  0.72741701  1
  Sr  Sr6  1  0.81334221  0.14106744  0.33116497  1
  Sr  Sr7  1  0.76229882  0.53924504  0.50714836  1
  Sr  Sr8  1  0.70985586  0.73757538  0.83805834  1
  Sr  Sr9  1  0.89653053  0.29963326  0.84368442  1
  Cr  Cr10  1  0.21919561  0.98697086  0.98687591  1
  Cr  Cr11  1  0.15322210  0.18727274  0.52340697  1
  Cr  Cr12  1  0.42844005  0.49410832  0.86980846  1
  Cr  Cr13  1  0.72206467  0.03870905  0.05718075  1
  Cr  Cr14  1  0.64072770  0.53855257  0.15710727  1
  Cr  Cr15  1  0.95329988  0.82413313  0.51174256  1
  F  F16  1  0.09652797  0.14757510  0.36117373  1
  F  F17  1  0.22729916  0.93916504  0.16891139  1
  F  F18  1  0.06977926  0.63392683  0.45974133  1
  F  F19  1  0.99352593  0.49101594  0.27976920  1
  F  F20  1  0.25422838  0.53948798  0.04798099  1
  F  F21  1  0.95863521  0.86991276  0.32386586  1
  F  F22  1  0.24857876  0.03591335  0.79443177  1
  F  F23  1  0.38704125  0.31434317  0.91487431  1
  F  F24  1  0.21636797  0.80411155  0.95463573  1
  F  F25  1  0.26904355  0.30854132  0.39243108  1
  F  F26  1  0.80093289  0.84373167  0.99986537  1
  F  F27  1  0.19742668  0.28018548  0.66597678  1
  F  F28  1  0.41519050  0.57992672  0.28131237  1
  F  F29  1  0.47855063  0.07891558  0.12668245  1
  F  F30  1  0.71001258  0.21457194  0.11665616  1
  F  F31  1  0.35874987  0.02828634  0.49384320  1
  F  F32  1  0.70805516  0.39696849  0.29118026  1
  F  F33  1  0.45648366  0.67033841  0.51898267  1
  F  F34  1  0.55140857  0.25326559  0.50454902  1
  F  F35  1  0.26352097  0.55383788  0.76660390  1
  F  F36  1  0.79835660  0.01279779  0.56027918  1
  F  F37  1  0.49319248  0.65929615  0.79136008  1
  F  F38  1  0.59214403  0.39879892  0.70500992  1
  F  F39  1  0.69844277  0.66190673  0.25908674  1
  F  F40  1  0.46713291  0.95687210  0.90951824  1
  F  F41  1  0.13293155  0.18454918  0.03072554  1
  F  F42  1  0.74224652  0.77433923  0.56735408  1
  F  F43  1  0.59038156  0.45257682  0.98811508  1
  F  F44  1  0.86194429  0.49524510  0.02192436  1
  F  F45  1  0.70473293  0.96308439  0.24269275  1
  F  F46  1  0.03586731  0.08288022  0.66486440  1
  F  F47  1  0.55114768  0.71069969  0.07053749  1
  F  F48  1  0.84598565  0.52164208  0.73301418  1
  F  F49  1  0.93388094  0.32090373  0.56384606  1
  F  F50  1  0.96911975  0.01292286  0.02456825  1
  F  F51  1  0.72468685  0.11467199  0.87350248  1
  F  F52  1  0.97403473  0.78142116  0.69889920  1
  F  F53  1  0.16773061  0.86076409  0.47317994  1
