# generated using pymatgen
data_Li5CoNi9O20
_symmetry_space_group_name_H-M   'P 1'
_cell_length_a   5.72441447
_cell_length_b   11.33448478
_cell_length_c   11.74689393
_cell_angle_alpha   115.37944881
_cell_angle_beta   89.14551333
_cell_angle_gamma   97.17924903
_symmetry_Int_Tables_number   1
_chemical_formula_structural   Li5CoNi9O20
_chemical_formula_sum   'Li10 Co2 Ni18 O40'
_cell_volume   682.58451638
_cell_formula_units_Z   2
loop_
 _symmetry_equiv_pos_site_id
 _symmetry_equiv_pos_as_xyz
  1  'x, y, z'
loop_
 _atom_site_type_symbol
 _atom_site_label
 _atom_site_symmetry_multiplicity
 _atom_site_fract_x
 _atom_site_fract_y
 _atom_site_fract_z
 _atom_site_occupancy
  Li  Li0  1  0.01297465  0.00090877  0.75063226  1
  Li  Li1  1  0.51297465  0.00090877  0.75063226  1
  Li  Li2  1  0.39710099  0.59744949  0.34750926  1
  Li  Li3  1  0.89710099  0.59744949  0.34750926  1
  Li  Li4  1  0.40077361  0.61106877  0.86335633  1
  Li  Li5  1  0.90077361  0.61106877  0.86335633  1
  Li  Li6  1  0.49192468  0.00142402  0.25193074  1
  Li  Li7  1  0.99192468  0.00142402  0.25193074  1
  Li  Li8  1  0.10058437  0.38754536  0.63536710  1
  Li  Li9  1  0.60058437  0.38754536  0.63536710  1
  Co  Co10  1  0.30848010  0.20163967  0.70171930  1
  Co  Co11  1  0.80848010  0.20163967  0.70171930  1
  Ni  Ni12  1  0.50012731  0.00117778  -0.00012968  1
  Ni  Ni13  1  0.00012731  0.00117778  -0.00012968  1
  Ni  Ni14  1  0.09613161  0.39799190  0.90118880  1
  Ni  Ni15  1  0.59613161  0.39799190  0.90118880  1
  Ni  Ni16  1  0.50230396  0.00070673  0.50009905  1
  Ni  Ni17  1  0.00230396  0.00070673  0.50009905  1
  Ni  Ni18  1  0.39812445  0.59944611  0.10131965  1
  Ni  Ni19  1  0.89812445  0.59944611  0.10131965  1
  Ni  Ni20  1  0.28471629  0.20368897  0.19773147  1
  Ni  Ni21  1  0.78471629  0.20368897  0.19773147  1
  Ni  Ni22  1  0.40580045  0.60168521  0.59952360  1
  Ni  Ni23  1  0.90580045  0.60168521  0.59952360  1
  Ni  Ni24  1  0.19930735  0.79908516  0.29997636  1
  Ni  Ni25  1  0.69930735  0.79908516  0.29997636  1
  Ni  Ni26  1  0.08764112  0.39687360  0.40006371  1
  Ni  Ni27  1  0.58764112  0.39687360  0.40006371  1
  Ni  Ni28  1  0.21849846  0.79911727  0.80017029  1
  Ni  Ni29  1  0.71849846  0.79911727  0.80017029  1
  O  O30  1  0.44711807  0.80649929  0.40769310  1
  O  O31  1  0.94711807  0.80649929  0.40769310  1
  O  O32  1  0.45034287  0.79071451  0.19136317  1
  O  O33  1  0.95034287  0.79071451  0.19136317  1
  O  O34  1  0.22920304  0.02024640  0.12317089  1
  O  O35  1  0.72920304  0.02024640  0.12317089  1
  O  O36  1  0.34578068  0.41219877  0.01274544  1
  O  O37  1  0.84578068  0.41219877  0.01274544  1
  O  O38  1  0.46908022  0.79169138  0.69189545  1
  O  O39  1  0.96908022  0.79169138  0.69189545  1
  O  O40  1  0.35138777  0.41317962  0.52141709  1
  O  O41  1  0.85138777  0.41317962  0.52141709  1
  O  O42  1  0.32883516  0.38861854  0.28694932  1
  O  O43  1  0.82883516  0.38861854  0.28694932  1
  O  O44  1  0.46740134  0.80817773  0.90859481  1
  O  O45  1  0.96740134  0.80817773  0.90859481  1
  O  O46  1  0.34793044  0.38708514  0.78159496  1
  O  O47  1  0.84793044  0.38708514  0.78159496  1
  O  O48  1  0.27432625  0.01976565  0.62498935  1
  O  O49  1  0.77432625  0.01976565  0.62498935  1
  O  O50  1  0.16894609  0.61580747  0.22400827  1
  O  O51  1  0.66894609  0.61580747  0.22400827  1
  O  O52  1  0.23150409  0.98379887  0.37708502  1
  O  O53  1  0.73150409  0.98379887  0.37708502  1
  O  O54  1  0.18109512  0.61277903  0.72323261  1
  O  O55  1  0.68109512  0.61277903  0.72323261  1
  O  O56  1  0.03414953  0.19105706  0.08884798  1
  O  O57  1  0.53414953  0.19105706  0.08884798  1
  O  O58  1  0.03455448  0.21037211  0.30685184  1
  O  O59  1  0.53455448  0.21037211  0.30685184  1
  O  O60  1  0.12903984  0.58179511  0.47544051  1
  O  O61  1  0.62903984  0.58179511  0.47544051  1
  O  O62  1  0.26994505  0.98216180  0.87539509  1
  O  O63  1  0.76994505  0.98216180  0.87539509  1
  O  O64  1  0.12523578  0.58146829  0.97625700  1
  O  O65  1  0.62523578  0.58146829  0.97625700  1
  O  O66  1  0.06141387  0.19470817  0.59389076  1
  O  O67  1  0.56141387  0.19470817  0.59389076  1
  O  O68  1  0.05724294  0.21062327  0.81136108  1
  O  O69  1  0.55724294  0.21062327  0.81136108  1
