# generated using pymatgen
data_Sm6MnS10
_symmetry_space_group_name_H-M   'P 1'
_cell_length_a   7.32106152
_cell_length_b   7.30997540
_cell_length_c   36.70499246
_cell_angle_alpha   109.34250458
_cell_angle_beta   110.16245756
_cell_angle_gamma   108.87374907
_symmetry_Int_Tables_number   1
_chemical_formula_structural   Sm6MnS10
_chemical_formula_sum   'Sm24 Mn4 S40'
_cell_volume   1512.64885795
_cell_formula_units_Z   4
loop_
 _symmetry_equiv_pos_site_id
 _symmetry_equiv_pos_as_xyz
  1  'x, y, z'
loop_
 _atom_site_type_symbol
 _atom_site_label
 _atom_site_symmetry_multiplicity
 _atom_site_fract_x
 _atom_site_fract_y
 _atom_site_fract_z
 _atom_site_occupancy
  Sm  Sm0  1  0.12119347  0.74696952  0.97492415  1
  Sm  Sm1  1  0.11970643  0.75028090  0.77560658  1
  Sm  Sm2  1  0.25571211  0.62654310  0.87445409  1
  Sm  Sm3  1  0.36281723  0.23983218  0.92418542  1
  Sm  Sm4  1  0.25777419  0.62485661  0.67409088  1
  Sm  Sm5  1  0.09154742  0.73071741  0.56883306  1
  Sm  Sm6  1  0.38251429  0.25549227  0.72728543  1
  Sm  Sm7  1  0.62736081  0.37143756  0.84951634  1
  Sm  Sm8  1  0.25356136  0.61368089  0.47518285  1
  Sm  Sm9  1  0.13562950  0.76118410  0.37621972  1
  Sm  Sm10  1  0.75544030  0.88599604  0.62546167  1
  Sm  Sm11  1  0.38660040  0.25609345  0.52609867  1
  Sm  Sm12  1  0.62424996  0.37389252  0.65007850  1
  Sm  Sm13  1  0.25625629  0.63004738  0.27566348  1
  Sm  Sm14  1  0.11956376  0.74601373  0.17369154  1
  Sm  Sm15  1  0.38708061  0.25873367  0.32998597  1
  Sm  Sm16  1  0.74767891  0.88749006  0.42977273  1
  Sm  Sm17  1  0.24846324  0.62866939  0.07599053  1
  Sm  Sm18  1  0.73876038  0.85229123  0.22090574  1
  Sm  Sm19  1  0.61517798  0.36842399  0.24650464  1
  Sm  Sm20  1  0.87788009  0.13380594  0.35160375  1
  Sm  Sm21  1  0.76405517  0.88516960  0.02688439  1
  Sm  Sm22  1  0.61153886  0.36920756  0.05119859  1
  Sm  Sm23  1  0.87130835  0.12452610  0.14759870  1
  Mn  Mn24  1  0.74491965  0.88306719  0.82654730  1
  Mn  Mn25  1  0.88139551  0.13250636  0.94963512  1
  Mn  Mn26  1  0.86693269  0.11881497  0.75099215  1
  Mn  Mn27  1  0.86739611  0.10287740  0.54326109  1
  S  S28  1  0.97313929  0.85789232  0.89423742  1
  S  S29  1  0.00850166  0.36906602  0.89997241  1
  S  S30  1  0.48485546  0.99227625  0.97029781  1
  S  S31  1  0.99823903  0.86949244  0.70222583  1
  S  S32  1  0.11971841  0.13552267  0.82397115  1
  S  S33  1  0.01137913  0.36705235  0.69996863  1
  S  S34  1  0.39427913  0.53302755  0.80391419  1
  S  S35  1  0.50018077  0.98314134  0.77398691  1
  S  S36  1  0.00590735  0.88130490  0.50400263  1
  S  S37  1  0.63634595  0.62622605  0.92741888  1
  S  S38  1  0.01176147  0.35263816  0.50118994  1
  S  S39  1  0.14727639  0.14703950  0.62755491  1
  S  S40  1  0.52640154  0.01717983  0.67791380  1
  S  S41  1  0.51565134  0.01595235  0.87624592  1
  S  S42  1  0.37563918  0.51821570  0.60310497  1
  S  S43  1  0.64354104  0.63290973  0.72819242  1
  S  S44  1  0.48212221  0.99703853  0.57300101  1
  S  S45  1  0.86229716  0.46317945  0.79689694  1
  S  S46  1  0.51309685  0.99678341  0.47639563  1
  S  S47  1  0.12729094  0.13293041  0.42827928  1
  S  S48  1  0.34343808  0.50214398  0.39959039  1
  S  S49  1  0.64922369  0.65835870  0.53284480  1
  S  S50  1  0.99448277  0.84023056  0.09884913  1
  S  S51  1  0.50251697  0.99541813  0.36832583  1
  S  S52  1  0.85856209  0.48366219  0.59956169  1
  S  S53  1  0.50172787  0.00801617  0.27162900  1
  S  S54  1  0.14358383  0.14439815  0.22893558  1
  S  S55  1  0.34499893  0.50502178  0.20116507  1
  S  S56  1  0.64740636  0.63633131  0.32725049  1
  S  S57  1  0.49853491  0.99028130  0.17152590  1
  S  S58  1  0.86521392  0.51121988  0.39953396  1
  S  S59  1  0.49420039  0.99300338  0.06821031  1
  S  S60  1  0.11625917  0.13960853  0.01858290  1
  S  S61  1  0.37027946  0.51019185  0.00018753  1
  S  S62  1  0.65287377  0.65739049  0.13024691  1
  S  S63  1  0.99930495  0.85956554  0.30039383  1
  S  S64  1  0.86448580  0.50499316  0.20176013  1
  S  S65  1  0.99689632  0.35556083  0.29862975  1
  S  S66  1  0.85641226  0.47942630  0.99807663  1
  S  S67  1  0.98945909  0.35268769  0.09875638  1
