# generated using pymatgen
data_C8Cl5
_symmetry_space_group_name_H-M   'P 1'
_cell_length_a   8.05651643
_cell_length_b   10.96545381
_cell_length_c   21.80162836
_cell_angle_alpha   92.53523594
_cell_angle_beta   90.00000000
_cell_angle_gamma   90.00000000
_symmetry_Int_Tables_number   1
_chemical_formula_structural   C8Cl5
_chemical_formula_sum   'C64 Cl40'
_cell_volume   1924.14389391
_cell_formula_units_Z   8
loop_
 _symmetry_equiv_pos_site_id
 _symmetry_equiv_pos_as_xyz
  1  'x, y, z'
loop_
 _atom_site_type_symbol
 _atom_site_label
 _atom_site_symmetry_multiplicity
 _atom_site_fract_x
 _atom_site_fract_y
 _atom_site_fract_z
 _atom_site_occupancy
  C  C0  1  0.06838881  0.86143494  0.68856445  1
  C  C1  1  0.93161119  0.13856506  0.31143555  1
  C  C2  1  0.56838881  0.63856506  0.81143555  1
  C  C3  1  0.43161119  0.36143494  0.18856445  1
  C  C4  1  0.03224114  0.96765166  0.79093215  1
  C  C5  1  0.96775886  0.03234834  0.20906785  1
  C  C6  1  0.53224114  0.53234834  0.70906785  1
  C  C7  1  0.46775886  0.46765166  0.29093215  1
  C  C8  1  0.18029623  0.88058080  0.56721180  1
  C  C9  1  0.81970377  0.11941920  0.43278820  1
  C  C10  1  0.68029623  0.61941920  0.93278820  1
  C  C11  1  0.31970377  0.38058080  0.06721180  1
  C  C12  1  0.49263570  0.42197683  0.80336498  1
  C  C13  1  0.50736430  0.57802317  0.19663502  1
  C  C14  1  0.99263570  0.07802317  0.69663502  1
  C  C15  1  0.00736430  0.92197683  0.30336498  1
  C  C16  1  0.54847464  0.86658703  0.75673695  1
  C  C17  1  0.45152536  0.13341297  0.24326305  1
  C  C18  1  0.04847464  0.63341297  0.74326305  1
  C  C19  1  0.95152536  0.36658703  0.25673695  1
  C  C20  1  0.15101195  0.76413269  0.58979317  1
  C  C21  1  0.84898805  0.23586731  0.41020683  1
  C  C22  1  0.65101195  0.73586731  0.91020683  1
  C  C23  1  0.34898805  0.26413269  0.08979317  1
  C  C24  1  0.60231864  0.75663460  0.65321551  1
  C  C25  1  0.39768136  0.24336540  0.34678449  1
  C  C26  1  0.10231864  0.74336540  0.84678449  1
  C  C27  1  0.89768136  0.25663460  0.15321551  1
  C  C28  1  0.13976228  0.98682468  0.60241310  1
  C  C29  1  0.86023772  0.01317532  0.39758690  1
  C  C30  1  0.63976228  0.51317532  0.89758690  1
  C  C31  1  0.36023772  0.48682468  0.10241310  1
  C  C32  1  0.09644970  0.75189933  0.65127389  1
  C  C33  1  0.90355030  0.24810067  0.34872611  1
  C  C34  1  0.59644970  0.74810067  0.84872611  1
  C  C35  1  0.40355030  0.25189933  0.15127389  1
  C  C36  1  0.06903547  0.97816730  0.66146446  1
  C  C37  1  0.93096453  0.02183270  0.33853554  1
  C  C38  1  0.56903547  0.52183270  0.83853554  1
  C  C39  1  0.43096453  0.47816730  0.16146446  1
  C  C40  1  0.06731438  0.96523153  0.85451395  1
  C  C41  1  0.93268562  0.03476847  0.14548605  1
  C  C42  1  0.56731438  0.53476847  0.64548605  1
  C  C43  1  0.43268562  0.46523153  0.35451395  1
  C  C44  1  0.56202541  0.86187861  0.81994762  1
  C  C45  1  0.43797459  0.13812139  0.18005238  1
  C  C46  1  0.06202541  0.63812139  0.68005238  1
  C  C47  1  0.93797459  0.36187861  0.31994762  1
  C  C48  1  0.56853677  0.75828572  0.71720085  1
  C  C49  1  0.43146323  0.24171428  0.28279915  1
  C  C50  1  0.06853677  0.74171428  0.78279915  1
  C  C51  1  0.93146323  0.25828572  0.21720085  1
  C  C52  1  0.47490824  0.42659490  0.74055415  1
  C  C53  1  0.52509176  0.57340510  0.25944585  1
  C  C54  1  0.97490824  0.07340510  0.75944585  1
  C  C55  1  0.02509176  0.92659490  0.24055415  1
  C  C56  1  0.60793962  0.64533307  0.61865735  1
  C  C57  1  0.39206038  0.35466693  0.38134265  1
  C  C58  1  0.10793962  0.85466693  0.88134265  1
  C  C59  1  0.89206038  0.14533307  0.11865735  1
  C  C60  1  0.05182400  0.85650373  0.75415422  1
  C  C61  1  0.94817600  0.14349627  0.24584578  1
  C  C62  1  0.55182400  0.64349627  0.74584578  1
  C  C63  1  0.44817600  0.35650373  0.25415422  1
  Cl  Cl64  1  0.08138529  0.09586781  0.90043310  1
  Cl  Cl65  1  0.91861471  0.90413219  0.09956690  1
  Cl  Cl66  1  0.58138529  0.40413219  0.59956690  1
  Cl  Cl67  1  0.41861471  0.59586781  0.40043310  1
  Cl  Cl68  1  0.48718154  0.00239430  0.72726004  1
  Cl  Cl69  1  0.51281846  0.99760570  0.27273996  1
  Cl  Cl70  1  0.98718154  0.49760570  0.77273996  1
  Cl  Cl71  1  0.01281846  0.50239430  0.22726004  1
  Cl  Cl72  1  0.15607873  0.61498503  0.88460718  1
  Cl  Cl73  1  0.84392127  0.38501497  0.11539282  1
  Cl  Cl74  1  0.65607873  0.88501497  0.61539282  1
  Cl  Cl75  1  0.34392127  0.11498503  0.38460718  1
  Cl  Cl76  1  0.19678593  0.12464303  0.57442442  1
  Cl  Cl77  1  0.80321407  0.87535697  0.42557558  1
  Cl  Cl78  1  0.69678593  0.37535697  0.92557558  1
  Cl  Cl79  1  0.30321407  0.62464303  0.07442442  1
  Cl  Cl80  1  0.36234168  0.31371275  0.70244326  1
  Cl  Cl81  1  0.63765832  0.68628725  0.29755674  1
  Cl  Cl82  1  0.86234168  0.18628725  0.79755674  1
  Cl  Cl83  1  0.13765832  0.81371275  0.20244326  1
  Cl  Cl84  1  0.20037759  0.64231958  0.54101631  1
  Cl  Cl85  1  0.79962241  0.35768042  0.45898369  1
  Cl  Cl86  1  0.70037759  0.85768042  0.95898369  1
  Cl  Cl87  1  0.29962241  0.14231958  0.04101631  1
  Cl  Cl88  1  0.39679215  0.30626818  0.84055408  1
  Cl  Cl89  1  0.60320785  0.69373182  0.15944592  1
  Cl  Cl90  1  0.89679215  0.19373182  0.65944592  1
  Cl  Cl91  1  0.10320785  0.80626818  0.34055408  1
  Cl  Cl92  1  0.23109828  0.39314674  0.99634326  1
  Cl  Cl93  1  0.76890172  0.60685326  0.00365674  1
  Cl  Cl94  1  0.73109828  0.10685326  0.50365674  1
  Cl  Cl95  1  0.26890172  0.89314674  0.49634326  1
  Cl  Cl96  1  0.66929287  0.64402454  0.54341835  1
  Cl  Cl97  1  0.33070713  0.35597546  0.45658165  1
  Cl  Cl98  1  0.16929287  0.85597546  0.95658165  1
  Cl  Cl99  1  0.83070713  0.14402454  0.04341835  1
  Cl  Cl100  1  0.51942817  0.99341390  0.86280562  1
  Cl  Cl101  1  0.48057183  0.00658610  0.13719438  1
  Cl  Cl102  1  0.01942817  0.50658610  0.63719438  1
  Cl  Cl103  1  0.98057183  0.49341390  0.36280562  1
