# generated using pymatgen
data_PbWO4
_symmetry_space_group_name_H-M   'P 1'
_cell_length_a   5.61591105
_cell_length_b   5.57870660
_cell_length_c   7.21995086
_cell_angle_alpha   112.56008139
_cell_angle_beta   112.83771629
_cell_angle_gamma   89.98797932
_symmetry_Int_Tables_number   1
_chemical_formula_structural   PbWO4
_chemical_formula_sum   'Pb2 W2 O8'
_cell_volume   189.55231768
_cell_formula_units_Z   2
loop_
 _symmetry_equiv_pos_site_id
 _symmetry_equiv_pos_as_xyz
  1  'x, y, z'
loop_
 _atom_site_type_symbol
 _atom_site_label
 _atom_site_symmetry_multiplicity
 _atom_site_fract_x
 _atom_site_fract_y
 _atom_site_fract_z
 _atom_site_occupancy
  Pb  Pb0  1  0.50607155  0.50200279  0.99976810  1
  Pb  Pb1  1  0.74392845  0.24799721  0.50023190  1
  W  W2  1  0.24945944  0.75409048  0.49887921  1
  W  W3  1  0.00054056  0.99590952  0.00112079  1
  O  O4  1  0.31599324  0.94048972  0.17123046  1
  O  O5  1  0.39866722  0.52528943  0.33550686  1
  O  O6  1  0.77520275  0.67976438  0.83474105  1
  O  O7  1  0.19389986  0.61004214  0.66951271  1
  O  O8  1  0.05610014  0.13995786  0.83048729  1
  O  O9  1  0.47479725  0.07023562  0.66525895  1
  O  O10  1  0.85133278  0.22471057  0.16449314  1
  O  O11  1  0.93400676  0.80951028  0.32876954  1
