# generated using pymatgen
data_Li7Co5O12
_symmetry_space_group_name_H-M   'P 1'
_cell_length_a   5.02767970
_cell_length_b   8.67168069
_cell_length_c   5.11346557
_cell_angle_alpha   106.69196948
_cell_angle_beta   79.90586069
_cell_angle_gamma   94.79080857
_symmetry_Int_Tables_number   1
_chemical_formula_structural   Li7Co5O12
_chemical_formula_sum   'Li7 Co5 O12'
_cell_volume   210.10946134
_cell_formula_units_Z   1
loop_
 _symmetry_equiv_pos_site_id
 _symmetry_equiv_pos_as_xyz
  1  'x, y, z'
loop_
 _atom_site_type_symbol
 _atom_site_label
 _atom_site_symmetry_multiplicity
 _atom_site_fract_x
 _atom_site_fract_y
 _atom_site_fract_z
 _atom_site_occupancy
  Li  Li0  1  0.25618488  0.91446454  0.42268016  1
  Li  Li1  1  0.75251299  0.08071460  0.58232068  1
  Li  Li2  1  0.25113810  0.24885304  0.75264110  1
  Li  Li3  1  0.24748701  0.58595140  0.08434532  1
  Li  Li4  1  0.74381512  0.75220246  0.24398684  1
  Li  Li5  1  0.74886190  0.41781396  0.91402590  1
  Li  Li6  1  0.50000000  0.83333300  0.83333300  1
  Co  Co7  1  0.00653229  0.99483385  0.99402205  1
  Co  Co8  1  0.99346771  0.67183315  0.67264495  1
  Co  Co9  1  0.49989015  0.15662558  0.15970016  1
  Co  Co10  1  -0.00000000  0.33333300  0.33333300  1
  Co  Co11  1  0.50010985  0.51004142  0.50696684  1
  O  O12  1  0.10326976  0.79923549  0.01646765  1
  O  O13  1  0.64523251  0.97030410  0.19719995  1
  O  O14  1  0.12070419  0.11542082  0.34151913  1
  O  O15  1  0.11873971  0.47217365  0.70010613  1
  O  O16  1  0.65429435  0.62553997  0.85189965  1
  O  O17  1  0.63204793  0.30062942  0.52721664  1
  O  O18  1  0.34570565  0.04112703  0.81476735  1
  O  O19  1  0.88126029  0.19449235  0.96655987  1
  O  O20  1  0.36795207  0.36603758  0.13945036  1
  O  O21  1  0.35476749  0.69636190  0.46946605  1
  O  O22  1  0.89673024  0.86743151  0.65019935  1
  O  O23  1  0.87929581  0.55124618  0.32514787  1
