# generated using pymatgen
data_Li7Mn4CoO12
_symmetry_space_group_name_H-M   'P 1'
_cell_length_a   2.97717296
_cell_length_b   7.81532259
_cell_length_c   10.18593268
_cell_angle_alpha   69.23333483
_cell_angle_beta   91.74240647
_cell_angle_gamma   83.21232771
_symmetry_Int_Tables_number   1
_chemical_formula_structural   Li7Mn4CoO12
_chemical_formula_sum   'Li7 Mn4 Co1 O12'
_cell_volume   219.38273836
_cell_formula_units_Z   1
loop_
 _symmetry_equiv_pos_site_id
 _symmetry_equiv_pos_as_xyz
  1  'x, y, z'
loop_
 _atom_site_type_symbol
 _atom_site_label
 _atom_site_symmetry_multiplicity
 _atom_site_fract_x
 _atom_site_fract_y
 _atom_site_fract_z
 _atom_site_occupancy
  Li  Li0  1  0.79710997  0.35048550  0.08731419  1
  Li  Li1  1  0.15071678  0.67784561  0.40241005  1
  Li  Li2  1  0.49341080  0.00098744  0.74926687  1
  Li  Li3  1  0.18063238  0.65393581  0.93315616  1
  Li  Li4  1  0.53506693  0.98239081  0.24791697  1
  Li  Li5  1  0.84370865  0.33276527  0.58219075  1
  Li  Li6  1  0.66721228  0.66483259  0.16775844  1
  Mn  Mn7  1  0.01706974  0.98721774  0.00673287  1
  Mn  Mn8  1  0.31989953  0.34162507  0.32884388  1
  Mn  Mn9  1  0.66258881  0.67196567  0.66416044  1
  Mn  Mn10  1  0.34664179  0.33154593  0.83259550  1
  Co  Co11  1  0.97961299  0.00477696  0.49961872  1
  O  O12  1  0.46168285  0.14902232  0.03019523  1
  O  O13  1  0.77847380  0.47713006  0.37025004  1
  O  O14  1  0.04620770  0.84033380  0.69502292  1
  O  O15  1  0.72341798  0.50268064  0.86678515  1
  O  O16  1  0.07637984  0.84841954  0.19541820  1
  O  O17  1  0.37732210  0.16448948  0.52938331  1
  O  O18  1  0.25903543  0.48065673  0.13964620  1
  O  O19  1  0.60124696  0.84007349  0.46438700  1
  O  O20  1  0.96037177  0.16396910  0.80337236  1
  O  O21  1  0.55861469  0.85258195  0.96458772  1
  O  O22  1  0.87583032  0.18075105  0.30653692  1
  O  O23  1  0.28774590  0.49951744  0.63245011  1
