# generated using pymatgen
data_Li7Mn4CoO12
_symmetry_space_group_name_H-M   'P 1'
_cell_length_a   2.87701873
_cell_length_b   8.67859930
_cell_length_c   9.75492040
_cell_angle_alpha   64.22510849
_cell_angle_beta   90.00000000
_cell_angle_gamma   90.00000000
_symmetry_Int_Tables_number   1
_chemical_formula_structural   Li7Mn4CoO12
_chemical_formula_sum   'Li7 Mn4 Co1 O12'
_cell_volume   219.33316927
_cell_formula_units_Z   1
loop_
 _symmetry_equiv_pos_site_id
 _symmetry_equiv_pos_as_xyz
  1  'x, y, z'
loop_
 _atom_site_type_symbol
 _atom_site_label
 _atom_site_symmetry_multiplicity
 _atom_site_fract_x
 _atom_site_fract_y
 _atom_site_fract_z
 _atom_site_occupancy
  Li  Li0  1  0.50000000  0.16616558  0.16681121  1
  Li  Li1  1  0.50000000  0.50116504  0.49059632  1
  Li  Li2  1  0.50000000  0.83067959  0.84412893  1
  Li  Li3  1  -0.00000000  0.52266798  0.00337771  1
  Li  Li4  1  -0.00000000  0.81587818  0.33193411  1
  Li  Li5  1  -0.00000000  0.16522391  0.66483530  1
  Li  Li6  1  0.50000000  0.66491927  0.16852138  1
  Mn  Mn7  1  -0.00000000  0.97977718  0.00495491  1
  Mn  Mn8  1  0.00000000  0.34874362  0.32986121  1
  Mn  Mn9  1  -0.00000000  0.67276401  0.66439763  1
  Mn  Mn10  1  0.50000000  0.32670691  0.83656513  1
  Co  Co11  1  0.50000000  0.01031989  0.49526968  1
  O  O12  1  0.50000000  0.92440802  0.15305555  1
  O  O13  1  0.50000000  0.26265108  0.48125029  1
  O  O14  1  0.50000000  0.59664518  0.81956391  1
  O  O15  1  0.00000000  0.23474246  0.99007245  1
  O  O16  1  -0.00000000  0.55812300  0.33381399  1
  O  O17  1  0.00000000  0.93641655  0.64186094  1
  O  O18  1  0.50000000  0.40536600  0.18136291  1
  O  O19  1  0.50000000  0.74465327  0.51054053  1
  O  O20  1  0.50000000  0.06465577  0.85322120  1
  O  O21  1  -0.00000000  0.77072340  0.00060838  1
  O  O22  1  -0.00000000  0.09617723  0.34739999  1
  O  O23  1  -0.00000000  0.40042688  0.68599634  1
