# generated using pymatgen
data_Li3MnCoO5
_symmetry_space_group_name_H-M   'P 1'
_cell_length_a   5.09053061
_cell_length_b   5.86494053
_cell_length_c   6.63663990
_cell_angle_alpha   76.09073020
_cell_angle_beta   81.93858650
_cell_angle_gamma   107.31042115
_symmetry_Int_Tables_number   1
_chemical_formula_structural   Li3MnCoO5
_chemical_formula_sum   'Li6 Mn2 Co2 O10'
_cell_volume   178.76177696
_cell_formula_units_Z   2
loop_
 _symmetry_equiv_pos_site_id
 _symmetry_equiv_pos_as_xyz
  1  'x, y, z'
loop_
 _atom_site_type_symbol
 _atom_site_label
 _atom_site_symmetry_multiplicity
 _atom_site_fract_x
 _atom_site_fract_y
 _atom_site_fract_z
 _atom_site_occupancy
  Li  Li0  1  0.79242660  0.09900855  0.40279522  1
  Li  Li1  1  0.98991364  0.50047828  0.98978642  1
  Li  Li2  1  0.60000000  0.70000000  0.80000000  1
  Li  Li3  1  0.40757340  0.30099145  0.19720478  1
  Li  Li4  1  0.21008636  0.89952172  0.61021358  1
  Li  Li5  1  0.60000000  0.20000000  0.80000000  1
  Mn  Mn6  1  0.00054836  0.99902408  0.99536322  1
  Mn  Mn7  1  0.19945164  0.40097592  0.60463678  1
  Co  Co8  1  0.40402459  0.81002989  0.18891762  1
  Co  Co9  1  0.79597541  0.58997011  0.41108238  1
  O  O10  1  0.70239876  0.12296864  0.10451887  1
  O  O11  1  0.92289829  0.54638289  0.68324118  1
  O  O12  1  0.49130267  0.72916702  0.50397341  1
  O  O13  1  0.27416480  0.33411216  0.88828295  1
  O  O14  1  0.08674694  0.94021310  0.27644277  1
  O  O15  1  0.92583520  0.06588784  0.71171705  1
  O  O16  1  0.11325306  0.45978690  0.32355723  1
  O  O17  1  0.70869733  0.67083298  0.09602659  1
  O  O18  1  0.49760124  0.27703136  0.49548113  1
  O  O19  1  0.27710171  0.85361711  0.91675882  1
