# generated using pymatgen
data_C20Cl18O
_symmetry_space_group_name_H-M   'P 1'
_cell_length_a   7.65539972
_cell_length_b   13.98894387
_cell_length_c   16.81372508
_cell_angle_alpha   74.68776452
_cell_angle_beta   78.91276580
_cell_angle_gamma   81.79622658
_symmetry_Int_Tables_number   1
_chemical_formula_structural   C20Cl18O
_chemical_formula_sum   'C40 Cl36 O2'
_cell_volume   1696.21009759
_cell_formula_units_Z   2
loop_
 _symmetry_equiv_pos_site_id
 _symmetry_equiv_pos_as_xyz
  1  'x, y, z'
loop_
 _atom_site_type_symbol
 _atom_site_label
 _atom_site_symmetry_multiplicity
 _atom_site_fract_x
 _atom_site_fract_y
 _atom_site_fract_z
 _atom_site_occupancy
  C  C0  1  0.12167476  0.20190896  0.29316259  1
  C  C1  1  0.87832524  0.79809104  0.70683741  1
  C  C2  1  0.14287808  0.12854850  0.44185793  1
  C  C3  1  0.85712192  0.87145150  0.55814207  1
  C  C4  1  0.23595957  0.39515067  0.16629182  1
  C  C5  1  0.76404043  0.60484933  0.83370818  1
  C  C6  1  0.41578172  0.93457259  0.13974773  1
  C  C7  1  0.58421828  0.06542741  0.86025227  1
  C  C8  1  0.26400969  0.48201152  0.10653546  1
  C  C9  1  0.73599031  0.51798848  0.89346454  1
  C  C10  1  0.23722281  0.94455377  0.18003788  1
  C  C11  1  0.76277719  0.05544623  0.81996212  1
  C  C12  1  0.21761485  0.14493497  0.35681973  1
  C  C13  1  0.78238515  0.85506503  0.64318027  1
  C  C14  1  0.86908420  0.22755430  0.40329321  1
  C  C15  1  0.13091580  0.77244570  0.59670679  1
  C  C16  1  0.78714444  0.59781320  0.00201264  1
  C  C17  1  0.21285556  0.40218680  0.99798736  1
  C  C18  1  0.26181505  0.49091235  0.01720969  1
  C  C19  1  0.73818495  0.50908765  0.98279031  1
  C  C20  1  0.20106113  0.30516573  0.14549663  1
  C  C21  1  0.79893887  0.69483427  0.85450337  1
  C  C22  1  0.51665773  0.01714068  0.11481538  1
  C  C23  1  0.48334227  0.98285932  0.88518462  1
  C  C24  1  0.16427094  0.03593754  0.19814375  1
  C  C25  1  0.83572906  0.96406246  0.80185625  1
  C  C26  1  0.18089442  0.31657270  0.05838141  1
  C  C27  1  0.81910558  0.68342730  0.94161859  1
  C  C28  1  0.26436943  0.11939685  0.17613357  1
  C  C29  1  0.73563057  0.88060315  0.82386643  1
  C  C30  1  0.27034156  0.36761935  0.62845453  1
  C  C31  1  0.72965844  0.63238065  0.37154547  1
  C  C32  1  0.44162449  0.10895110  0.13188338  1
  C  C33  1  0.55837551  0.89104890  0.86811662  1
  C  C34  1  0.03257221  0.83030448  0.53482324  1
  C  C35  1  0.96742779  0.16969552  0.46517676  1
  C  C36  1  0.05419293  0.75589779  0.68157277  1
  C  C37  1  0.94580707  0.24410221  0.31842723  1
  C  C38  1  0.19452145  0.21244608  0.20318829  1
  C  C39  1  0.80547855  0.78755392  0.79681171  1
  Cl  Cl40  1  0.65582312  0.27678582  0.43269657  1
  Cl  Cl41  1  0.34417688  0.72321418  0.56730343  1
  Cl  Cl42  1  0.31106423  0.23603917  0.64866365  1
  Cl  Cl43  1  0.68893577  0.76396083  0.35133635  1
  Cl  Cl44  1  0.08873201  0.22571979  0.03273153  1
  Cl  Cl45  1  0.91126799  0.77428021  0.96726847  1
  Cl  Cl46  1  0.18709840  0.41586817  0.89682053  1
  Cl  Cl47  1  0.81290160  0.58413183  0.10317947  1
  Cl  Cl48  1  0.12531499  0.84954948  0.43172074  1
  Cl  Cl49  1  0.87468501  0.15045052  0.56827926  1
  Cl  Cl50  1  0.11086868  0.84602848  0.20507787  1
  Cl  Cl51  1  0.88913132  0.15397152  0.79492213  1
  Cl  Cl52  1  0.31296822  0.58611710  0.12923020  1
  Cl  Cl53  1  0.68703178  0.41388290  0.87076980  1
  Cl  Cl54  1  0.43787775  0.10161161  0.33124130  1
  Cl  Cl55  1  0.56212225  0.89838839  0.66875870  1
  Cl  Cl56  1  0.24642222  0.41701203  0.52164896  1
  Cl  Cl57  1  0.75357778  0.58298797  0.47835104  1
  Cl  Cl58  1  0.81833801  0.31325075  0.24574239  1
  Cl  Cl59  1  0.18166199  0.68674925  0.75425761  1
  Cl  Cl60  1  0.06959148  0.40089872  0.69261763  1
  Cl  Cl61  1  0.93040852  0.59910128  0.30738237  1
  Cl  Cl62  1  0.26456136  0.06024215  0.51683978  1
  Cl  Cl63  1  0.73543864  0.93975785  0.48316022  1
  Cl  Cl64  1  0.94226547  0.04786949  0.24126314  1
  Cl  Cl65  1  0.05773453  0.95213051  0.75873686  1
  Cl  Cl66  1  0.54878178  0.58276132  0.34949159  1
  Cl  Cl67  1  0.45121822  0.41723868  0.65050841  1
  Cl  Cl68  1  0.27233312  0.39021378  0.26541162  1
  Cl  Cl69  1  0.72766688  0.60978622  0.73458838  1
  Cl  Cl70  1  0.73299871  0.00406520  0.06474841  1
  Cl  Cl71  1  0.26700129  0.99593480  0.93525159  1
  Cl  Cl72  1  0.57430426  0.20538351  0.10232748  1
  Cl  Cl73  1  0.42569574  0.79461649  0.89767252  1
  Cl  Cl74  1  0.50872855  0.82277521  0.12075735  1
  Cl  Cl75  1  0.49127145  0.17722479  0.87924265  1
  O  O76  1  0.70542369  0.43216850  0.03715181  1
  O  O77  1  0.29457631  0.56783150  0.96284819  1
