# generated using pymatgen
data_Li3Mn2O5
_symmetry_space_group_name_H-M   'P 1'
_cell_length_a   2.89423838
_cell_length_b   5.88058088
_cell_length_c   10.98514646
_cell_angle_alpha   81.69212855
_cell_angle_beta   82.43017085
_cell_angle_gamma   89.99999383
_symmetry_Int_Tables_number   1
_chemical_formula_structural   Li3Mn2O5
_chemical_formula_sum   'Li6 Mn4 O10'
_cell_volume   183.35618101
_cell_formula_units_Z   2
loop_
 _symmetry_equiv_pos_site_id
 _symmetry_equiv_pos_as_xyz
  1  'x, y, z'
loop_
 _atom_site_type_symbol
 _atom_site_label
 _atom_site_symmetry_multiplicity
 _atom_site_fract_x
 _atom_site_fract_y
 _atom_site_fract_z
 _atom_site_occupancy
  Li  Li0  1  0.80914265  0.91071014  0.38171470  1
  Li  Li1  1  0.59649664  0.29790678  0.80700671  1
  Li  Li2  1  0.40000000  0.70000000  0.20000000  1
  Li  Li3  1  0.20350336  0.10209322  0.59299329  1
  Li  Li4  1  0.99085735  0.48928986  0.01828530  1
  Li  Li5  1  0.40000000  0.20000000  0.20000000  1
  Mn  Mn6  1  0.99188561  0.00090853  0.01622878  1
  Mn  Mn7  1  0.80811439  0.39909147  0.38377122  1
  Mn  Mn8  1  0.59708031  0.79842863  0.80583938  1
  Mn  Mn9  1  0.20291969  0.60157137  0.59416062  1
  O  O10  1  0.70518977  0.37265432  0.58962047  1
  O  O11  1  0.49664148  0.77642216  0.00671704  1
  O  O12  1  0.29952516  0.17612987  0.40094967  1
  O  O13  1  0.09755501  0.56961782  0.80488999  1
  O  O14  1  0.90814420  0.95687323  0.18371160  1
  O  O15  1  0.89185580  0.44312677  0.21628840  1
  O  O16  1  0.70244499  0.83038218  0.59511001  1
  O  O17  1  0.50047484  0.22387013  0.99905033  1
  O  O18  1  0.30335852  0.62357784  0.39328296  1
  O  O19  1  0.09481023  0.02734568  0.81037953  1
