# generated using pymatgen
data_Li5Mn2CoO8
_symmetry_space_group_name_H-M   'P 1'
_cell_length_a   4.96124328
_cell_length_b   5.86650064
_cell_length_c   5.85907655
_cell_angle_alpha   59.95808092
_cell_angle_beta   74.04954173
_cell_angle_gamma   90.00000314
_symmetry_Int_Tables_number   1
_chemical_formula_structural   Li5Mn2CoO8
_chemical_formula_sum   'Li5 Mn2 Co1 O8'
_cell_volume   139.98442005
_cell_formula_units_Z   1
loop_
 _symmetry_equiv_pos_site_id
 _symmetry_equiv_pos_as_xyz
  1  'x, y, z'
loop_
 _atom_site_type_symbol
 _atom_site_label
 _atom_site_symmetry_multiplicity
 _atom_site_fract_x
 _atom_site_fract_y
 _atom_site_fract_z
 _atom_site_occupancy
  Li  Li0  1  0.99821346  0.49913205  0.50063148  1
  Li  Li1  1  0.00178654  -0.00023646  0.49936852  1
  Li  Li2  1  0.50380622  0.25293769  0.49523527  1
  Li  Li3  1  0.49619378  0.74817296  0.50476473  1
  Li  Li4  1  0.00000000  0.49886386  1.00000000  1
  Mn  Mn5  1  1.00000000  -0.00051622  0.00000000  1
  Mn  Mn6  1  0.50000000  0.74077357  1.00000000  1
  Co  Co7  1  0.50000000  0.25723551  0.00000000  1
  O  O8  1  0.74938796  0.65466150  0.22296477  1
  O  O9  1  0.74487628  0.12462847  0.21616612  1
  O  O10  1  0.27443008  0.39745609  0.23414628  1
  O  O11  1  0.24531331  0.87403794  0.22879187  1
  O  O12  1  0.25512372  0.34079459  0.78383388  1
  O  O13  1  0.25061204  0.87762628  0.77703523  1
  O  O14  1  0.75468669  0.10282981  0.77120813  1
  O  O15  1  0.72556992  0.63160236  0.76585372  1
