# generated using pymatgen
data_Li2CoO3
_symmetry_space_group_name_H-M   'P 1'
_cell_length_a   4.97919348
_cell_length_b   4.97919307
_cell_length_c   5.20328872
_cell_angle_alpha   78.19851279
_cell_angle_beta   78.19851430
_cell_angle_gamma   117.09285635
_symmetry_Int_Tables_number   1
_chemical_formula_structural   Li2CoO3
_chemical_formula_sum   'Li4 Co2 O6'
_cell_volume   105.65724489
_cell_formula_units_Z   2
loop_
 _symmetry_equiv_pos_site_id
 _symmetry_equiv_pos_as_xyz
  1  'x, y, z'
loop_
 _atom_site_type_symbol
 _atom_site_label
 _atom_site_symmetry_multiplicity
 _atom_site_fract_x
 _atom_site_fract_y
 _atom_site_fract_z
 _atom_site_occupancy
  Li  Li0  1  0.16666700  0.83333300  0.50000000  1
  Li  Li1  1  0.83045136  0.16954864  0.50000000  1
  Li  Li2  1  0.50288164  0.49711836  0.50000000  1
  Li  Li3  1  0.66666700  0.33333300  -0.00000000  1
  Co  Co4  1  0.99397292  0.00602708  0.00000000  1
  Co  Co5  1  0.33936008  0.66063992  1.00000000  1
  O  O6  1  0.95885626  0.62552226  0.22337784  1
  O  O7  1  0.61144793  0.91812360  0.22864966  1
  O  O8  1  0.25145660  0.27811493  0.22864966  1
  O  O9  1  0.37447774  0.04114374  0.77662216  1
  O  O10  1  0.08187640  0.38855207  0.77135034  1
  O  O11  1  0.72188507  0.74854340  0.77135034  1
