# generated using pymatgen
data_Li3Mn2O5
_symmetry_space_group_name_H-M   'P 1'
_cell_length_a   2.95518116
_cell_length_b   9.87612200
_cell_length_c   6.50176162
_cell_angle_alpha   101.44567975
_cell_angle_beta   76.72616337
_cell_angle_gamma   93.02198255
_symmetry_Int_Tables_number   1
_chemical_formula_structural   Li3Mn2O5
_chemical_formula_sum   'Li6 Mn4 O10'
_cell_volume   181.01107697
_cell_formula_units_Z   2
loop_
 _symmetry_equiv_pos_site_id
 _symmetry_equiv_pos_as_xyz
  1  'x, y, z'
loop_
 _atom_site_type_symbol
 _atom_site_label
 _atom_site_symmetry_multiplicity
 _atom_site_fract_x
 _atom_site_fract_y
 _atom_site_fract_z
 _atom_site_occupancy
  Li  Li0  1  0.90043699  0.30249998  0.18524096  1
  Li  Li1  1  0.10000000  0.70000000  0.80000000  1
  Li  Li2  1  0.51041178  0.48952576  0.99367199  1
  Li  Li3  1  0.68958822  0.91047424  0.60632801  1
  Li  Li4  1  0.29956301  0.09750002  0.41475904  1
  Li  Li5  1  0.60000000  0.20000000  0.80000000  1
  Mn  Mn6  1  0.99806893  0.00739197  0.99150612  1
  Mn  Mn7  1  0.20193107  0.39260803  0.60849388  1
  Mn  Mn8  1  0.39255400  0.80367266  0.20447112  1
  Mn  Mn9  1  0.80744600  0.59632734  0.39552888  1
  O  O10  1  0.46724076  0.13123598  0.08904221  1
  O  O11  1  0.68093607  0.53397249  0.68065279  1
  O  O12  1  0.05464728  0.35648813  0.88038495  1
  O  O13  1  0.22205920  0.74213951  0.48919605  1
  O  O14  1  0.82036935  0.94850017  0.28354496  1
  O  O15  1  0.37963065  0.45149983  0.31645504  1
  O  O16  1  0.51906393  0.86602751  0.91934721  1
  O  O17  1  0.97794080  0.65786049  0.11080395  1
  O  O18  1  0.14535272  0.04351187  0.71961505  1
  O  O19  1  0.73275924  0.26876402  0.51095779  1
