# generated using pymatgen
data_Li5Co3O8
_symmetry_space_group_name_H-M   'P 1'
_cell_length_a   5.03907656
_cell_length_b   5.75999506
_cell_length_c   5.77828437
_cell_angle_alpha   119.89534728
_cell_angle_beta   106.72646364
_cell_angle_gamma   89.99999818
_symmetry_Int_Tables_number   1
_chemical_formula_structural   Li5Co3O8
_chemical_formula_sum   'Li5 Co3 O8'
_cell_volume   137.15251202
_cell_formula_units_Z   1
loop_
 _symmetry_equiv_pos_site_id
 _symmetry_equiv_pos_as_xyz
  1  'x, y, z'
loop_
 _atom_site_type_symbol
 _atom_site_label
 _atom_site_symmetry_multiplicity
 _atom_site_fract_x
 _atom_site_fract_y
 _atom_site_fract_z
 _atom_site_occupancy
  Li  Li0  1  0.50000000  0.24487247  0.50000000  1
  Li  Li1  1  0.50049061  0.24926948  0.99853896  1
  Li  Li2  1  0.49950939  0.75073052  0.00146104  1
  Li  Li3  1  0.50000000  0.75512753  0.50000000  1
  Li  Li4  1  -0.00000000  0.00000000  0.50000000  1
  Co  Co5  1  -0.00000000  0.00000000  0.00000000  1
  Co  Co6  1  -0.00000000  0.50000000  0.00000000  1
  Co  Co7  1  -0.00000000  0.50000000  0.50000000  1
  O  O8  1  0.22084888  0.38975474  0.74193167  1
  O  O9  1  0.23207097  0.38017161  0.26034323  1
  O  O10  1  0.22772957  0.86164651  0.22329302  1
  O  O11  1  0.22084888  0.85217692  0.74193167  1
  O  O12  1  0.77915112  0.14782308  0.25806833  1
  O  O13  1  0.77227043  0.13835349  0.77670698  1
  O  O14  1  0.76792903  0.61982839  0.73965677  1
  O  O15  1  0.77915112  0.61024526  0.25806833  1
