# generated using pymatgen
data_Sr12Ru11O36
_symmetry_space_group_name_H-M   'P 1'
_cell_length_a   11.28627515
_cell_length_b   7.97990268
_cell_length_c   23.91065457
_cell_angle_alpha   90.00000000
_cell_angle_beta   90.00000000
_cell_angle_gamma   45.00466275
_symmetry_Int_Tables_number   1
_chemical_formula_structural   Sr12Ru11O36
_chemical_formula_sum   'Sr24 Ru22 O72'
_cell_volume   1522.86019819
_cell_formula_units_Z   2
loop_
 _symmetry_equiv_pos_site_id
 _symmetry_equiv_pos_as_xyz
  1  'x, y, z'
loop_
 _atom_site_type_symbol
 _atom_site_label
 _atom_site_symmetry_multiplicity
 _atom_site_fract_x
 _atom_site_fract_y
 _atom_site_fract_z
 _atom_site_occupancy
  Sr  Sr0  1  0.98342996  0.50059491  0.08955734  1
  Sr  Sr1  1  0.99915205  0.50158270  0.41669730  1
  Sr  Sr2  1  0.01651605  0.49986622  0.74371391  1
  Sr  Sr3  1  0.49998669  0.99988192  0.41667706  1
  Sr  Sr4  1  0.51598495  0.96752335  0.08914287  1
  Sr  Sr5  1  0.48504146  0.03105290  0.74342830  1
  Sr  Sr6  1  0.98401505  0.03247665  0.24419013  1
  Sr  Sr7  1  0.01495854  0.96894710  0.58990470  1
  Sr  Sr8  1  0.00001331  0.00011808  0.91665694  1
  Sr  Sr9  1  0.49915205  0.50158270  0.41663670  1
  Sr  Sr10  1  0.48342996  0.50059491  0.74377566  1
  Sr  Sr11  1  0.51651605  0.49986622  0.08961909  1
  Sr  Sr12  1  0.48348395  0.50013378  0.58961909  1
  Sr  Sr13  1  0.51657004  0.49940509  0.24377566  1
  Sr  Sr14  1  0.50084795  0.49841730  0.91663670  1
  Sr  Sr15  1  0.98504146  0.03105290  0.08990470  1
  Sr  Sr16  1  -0.00001331  0.99988192  0.41665694  1
  Sr  Sr17  1  0.01598495  0.96752335  0.74419013  1
  Sr  Sr18  1  0.51495854  0.96894710  0.24342830  1
  Sr  Sr19  1  0.48401505  0.03247665  0.58914287  1
  Sr  Sr20  1  0.50001331  0.00011808  0.91667706  1
  Sr  Sr21  1  0.01657004  0.49940509  0.58955734  1
  Sr  Sr22  1  0.98348395  0.50013378  0.24371391  1
  Sr  Sr23  1  0.00084795  0.49841730  0.91669730  1
  Ru  Ru24  1  0.25000000  0.00000000  0.16666700  1
  Ru  Ru25  1  0.24982676  0.00042742  0.49995935  1
  Ru  Ru26  1  0.25017324  0.99957258  0.83337365  1
  Ru  Ru27  1  0.25036215  0.99933804  0.00002021  1
  Ru  Ru28  1  0.24963785  0.00066196  0.33331279  1
  Ru  Ru29  1  0.25000000  0.00000000  0.66666700  1
  Ru  Ru30  1  0.25000000  0.50000000  0.16666700  1
  Ru  Ru31  1  0.25012543  0.49973116  0.00263650  1
  Ru  Ru32  1  0.24987457  0.50026884  0.33069650  1
  Ru  Ru33  1  0.25052132  0.49906031  0.83422048  1
  Ru  Ru34  1  0.24947868  0.50093969  0.49911252  1
  Ru  Ru35  1  0.75036215  0.99933804  0.83331279  1
  Ru  Ru36  1  0.75000000  0.00000000  0.16666700  1
  Ru  Ru37  1  0.74963785  0.00066196  0.50002021  1
  Ru  Ru38  1  0.75017324  0.99957258  -0.00004065  1
  Ru  Ru39  1  0.74982676  0.00042742  0.33337365  1
  Ru  Ru40  1  0.75000000  0.00000000  0.66666700  1
  Ru  Ru41  1  0.74987457  0.50026884  0.50263650  1
  Ru  Ru42  1  0.75012543  0.49973116  0.83069650  1
  Ru  Ru43  1  0.75052132  0.49906031  0.99911252  1
  Ru  Ru44  1  0.74947868  0.50093969  0.33422048  1
  Ru  Ru45  1  0.75000000  0.50000000  0.66666700  1
  O  O46  1  0.24619221  0.00469466  0.08270991  1
  O  O47  1  0.24705803  0.00532446  0.41660842  1
  O  O48  1  0.24601008  0.00681330  0.75068132  1
  O  O49  1  0.99936329  0.74761116  0.16536442  1
  O  O50  1  0.99980356  0.74525752  0.33551531  1
  O  O51  1  0.99983867  0.74548335  0.49715196  1
  O  O52  1  0.98980494  0.75840641  0.66732325  1
  O  O53  1  0.00010754  0.74409913  0.99972729  1
  O  O54  1  0.00030568  0.74454549  0.83385928  1
  O  O55  1  0.25291704  0.24647665  0.16737130  1
  O  O56  1  0.25512292  0.24516459  0.33340458  1
  O  O57  1  0.25531904  0.24455430  0.83607628  1
  O  O58  1  0.25475860  0.24546579  0.49946007  1
  O  O59  1  0.25583370  0.24381707  0.99856473  1
  O  O60  1  0.25202441  0.23783261  0.66614070  1
  O  O61  1  0.25216772  0.49553247  0.08464972  1
  O  O62  1  0.25207672  0.49605644  0.41322034  1
  O  O63  1  0.25191052  0.49649496  0.75565721  1
  O  O64  1  0.24808948  0.50350504  0.57767579  1
  O  O65  1  0.24783228  0.50446753  0.24868328  1
  O  O66  1  0.24792328  0.50394356  0.92011366  1
  O  O67  1  0.24708296  0.75352335  0.16596170  1
  O  O68  1  0.24416630  0.75618293  0.33476827  1
  O  O69  1  0.24797559  0.76216739  0.66719230  1
  O  O70  1  0.24487708  0.75483541  0.99992942  1
  O  O71  1  0.24468096  0.75544570  0.49725672  1
  O  O72  1  0.24524140  0.75453421  0.83387393  1
  O  O73  1  0.50063671  0.25238884  0.16796858  1
  O  O74  1  0.50019644  0.25474248  0.99781769  1
  O  O75  1  0.49989246  0.25590087  0.33360671  1
  O  O76  1  0.49969432  0.25545451  0.49947472  1
  O  O77  1  0.51019506  0.24159359  0.66600975  1
  O  O78  1  0.50016133  0.25451665  0.83618104  1
  O  O79  1  0.74705803  0.00532446  0.41672558  1
  O  O80  1  0.74619221  0.00469466  0.75062309  1
  O  O81  1  0.74601008  0.00681330  0.08265168  1
  O  O82  1  0.25380779  0.99530534  0.25062309  1
  O  O83  1  0.25398992  0.99318670  0.58265168  1
  O  O84  1  0.25294197  0.99467554  0.91672558  1
  O  O85  1  0.48980494  0.75840641  0.16600975  1
  O  O86  1  0.49983867  0.74548335  0.33618104  1
  O  O87  1  0.49936329  0.74761116  0.66796858  1
  O  O88  1  0.50030568  0.74454549  0.99947472  1
  O  O89  1  0.49980356  0.74525752  0.49781769  1
  O  O90  1  0.50010754  0.74409913  0.83360671  1
  O  O91  1  0.75531904  0.24455430  0.99725672  1
  O  O92  1  0.75202441  0.23783261  0.16719230  1
  O  O93  1  0.75475860  0.24546579  0.33387393  1
  O  O94  1  0.75291704  0.24647665  0.66596170  1
  O  O95  1  0.75583370  0.24381707  0.83476827  1
  O  O96  1  0.75512292  0.24516459  0.49992942  1
  O  O97  1  0.75191052  0.49649496  0.07767579  1
  O  O98  1  0.75207672  0.49605644  0.42011366  1
  O  O99  1  0.75216772  0.49553247  0.74868328  1
  O  O100  1  0.74783228  0.50446753  0.58464972  1
  O  O101  1  0.74808948  0.50350504  0.25565721  1
  O  O102  1  0.74792328  0.50394356  0.91322034  1
  O  O103  1  0.74468096  0.75544570  0.33607628  1
  O  O104  1  0.74797559  0.76216739  0.16614070  1
  O  O105  1  0.74416630  0.75618293  0.49856473  1
  O  O106  1  0.74708296  0.75352335  0.66737130  1
  O  O107  1  0.74487708  0.75483541  0.83340458  1
  O  O108  1  0.74524140  0.75453421  0.99946007  1
  O  O109  1  0.00016133  0.25451665  0.99715196  1
  O  O110  1  0.01019506  0.24159359  0.16732325  1
  O  O111  1  0.99989246  0.25590087  0.49972729  1
  O  O112  1  -0.00030568  0.25545451  0.33385928  1
  O  O113  1  0.00063671  0.25238884  0.66536442  1
  O  O114  1  0.00019644  0.25474248  0.83551531  1
  O  O115  1  0.75398992  0.99318670  0.25068132  1
  O  O116  1  0.75380779  0.99530534  0.58270991  1
  O  O117  1  0.75294197  0.99467554  0.91660842  1
