# generated using pymatgen
data_Mg6CoB
_symmetry_space_group_name_H-M   'P 1'
_cell_length_a   6.91483426
_cell_length_b   6.91483345
_cell_length_c   3.17936179
_cell_angle_alpha   90.00000000
_cell_angle_beta   90.00000000
_cell_angle_gamma   94.54003771
_symmetry_Int_Tables_number   1
_chemical_formula_structural   Mg6CoB
_chemical_formula_sum   'Mg6 Co1 B1'
_cell_volume   151.54395106
_cell_formula_units_Z   1
loop_
 _symmetry_equiv_pos_site_id
 _symmetry_equiv_pos_as_xyz
  1  'x, y, z'
loop_
 _atom_site_type_symbol
 _atom_site_label
 _atom_site_symmetry_multiplicity
 _atom_site_fract_x
 _atom_site_fract_y
 _atom_site_fract_z
 _atom_site_occupancy
  Mg  Mg0  1  0.20950040  0.95271501  0.25000000  1
  Mg  Mg1  1  0.54728499  0.29049960  0.25000000  1
  Mg  Mg2  1  0.65363842  0.84636158  0.25000000  1
  Mg  Mg3  1  0.34974380  0.59964327  0.75000000  1
  Mg  Mg4  1  0.90035673  0.15025620  0.75000000  1
  Mg  Mg5  1  0.91826149  0.58173851  0.75000000  1
  Co  Co6  1  0.16127870  0.33872130  0.25000000  1
  B  B7  1  0.25993548  0.24006453  0.75000000  1
