# generated using pymatgen
data_Li9Co7O16
_symmetry_space_group_name_H-M   'P 1'
_cell_length_a   5.01559642
_cell_length_b   6.46155413
_cell_length_c   8.59418577
_cell_angle_alpha   82.84815951
_cell_angle_beta   94.98378671
_cell_angle_gamma   83.12956023
_symmetry_Int_Tables_number   1
_chemical_formula_structural   Li9Co7O16
_chemical_formula_sum   'Li9 Co7 O16'
_cell_volume   272.90557061
_cell_formula_units_Z   1
loop_
 _symmetry_equiv_pos_site_id
 _symmetry_equiv_pos_as_xyz
  1  'x, y, z'
loop_
 _atom_site_type_symbol
 _atom_site_label
 _atom_site_symmetry_multiplicity
 _atom_site_fract_x
 _atom_site_fract_y
 _atom_site_fract_z
 _atom_site_occupancy
  Li  Li0  1  0.24753434  0.56902788  0.05797224  1
  Li  Li1  1  0.74950187  0.93854176  0.43750825  1
  Li  Li2  1  0.25131686  0.30251896  0.81488696  1
  Li  Li3  1  0.74868314  0.44748104  0.93511304  1
  Li  Li4  1  0.25049813  0.81145824  0.31249175  1
  Li  Li5  1  0.75246566  0.18097212  0.69202776  1
  Li  Li6  1  0.75165766  0.69278362  0.17845881  1
  Li  Li7  1  0.24834234  0.05721638  0.57154119  1
  Li  Li8  1  0.50000000  0.87500000  0.87500000  1
  Co  Co9  1  0.00023497  0.99899501  -0.00011438  1
  Co  Co10  1  -0.00023497  0.75100499  0.75011438  1
  Co  Co11  1  0.50000000  0.37500000  0.37500000  1
  Co  Co12  1  0.49989396  0.11912733  0.12008435  1
  Co  Co13  1  0.99937068  0.50053725  0.50072118  1
  Co  Co14  1  0.00062932  0.24946275  0.24927882  1
  Co  Co15  1  0.50010604  0.63087267  0.62991565  1
  O  O16  1  0.89381025  0.73372513  0.95910976  1
  O  O17  1  0.38063631  0.10902053  0.32974662  1
  O  O18  1  0.85711528  0.48988255  0.71167127  1
  O  O19  1  0.35909758  0.60237356  0.82010067  1
  O  O20  1  0.85665159  0.98241905  0.20597252  1
  O  O21  1  0.38354845  0.36323495  0.58324986  1
  O  O22  1  0.36162765  0.87406471  0.09264826  1
  O  O23  1  0.88152472  0.22309373  0.46517821  1
  O  O24  1  0.61645155  0.38676505  0.16675014  1
  O  O25  1  0.14334841  0.76758095  0.54402748  1
  O  O26  1  0.64090242  0.14762644  0.92989933  1
  O  O27  1  0.14288472  0.26011745  0.03832873  1
  O  O28  1  0.61936369  0.64097947  0.42025338  1
  O  O29  1  0.10618975  0.01627487  0.79089024  1
  O  O30  1  0.11847528  0.52690627  0.28482179  1
  O  O31  1  0.63837235  0.87593529  0.65735174  1
