# generated using pymatgen
data_LiFePCO7
_symmetry_space_group_name_H-M   'P 1'
_cell_length_a   5.14612423
_cell_length_b   6.32039648
_cell_length_c   8.87415362
_cell_angle_alpha   93.01406889
_cell_angle_beta   92.60529100
_cell_angle_gamma   87.01845880
_symmetry_Int_Tables_number   1
_chemical_formula_structural   LiFePCO7
_chemical_formula_sum   'Li2 Fe2 P2 C2 O14'
_cell_volume   287.58300089
_cell_formula_units_Z   2
loop_
 _symmetry_equiv_pos_site_id
 _symmetry_equiv_pos_as_xyz
  1  'x, y, z'
loop_
 _atom_site_type_symbol
 _atom_site_label
 _atom_site_symmetry_multiplicity
 _atom_site_fract_x
 _atom_site_fract_y
 _atom_site_fract_z
 _atom_site_occupancy
  Li  Li0  1  0.60307980  0.34281271  0.73607851  1
  Li  Li1  1  0.20578706  0.40600207  0.18917901  1
  Fe  Fe2  1  0.11308657  0.11952380  0.60910627  1
  Fe  Fe3  1  0.69592882  0.62895054  0.31606714  1
  P  P4  1  0.21436482  0.61594758  0.53561027  1
  P  P5  1  0.59460135  0.13254028  0.38951580  1
  C  C6  1  0.17487373  0.14591798  0.89837683  1
  C  C7  1  0.63345278  0.60299020  0.02698073  1
  O  O8  1  0.37569251  0.11008353  0.81641433  1
  O  O9  1  0.95418595  0.16670994  0.82263616  1
  O  O10  1  0.61985647  0.59010968  0.88471347  1
  O  O11  1  0.22792636  0.42602991  0.63978164  1
  O  O12  1  0.08988521  0.81272507  0.61770150  1
  O  O13  1  0.75541789  0.19295068  0.53867071  1
  O  O14  1  0.49711424  0.65700033  0.49421781  1
  O  O15  1  0.31187305  0.09140681  0.43090551  1
  O  O16  1  0.05360162  0.55562389  0.38643108  1
  O  O17  1  0.58111791  0.32238762  0.28526994  1
  O  O18  1  0.71911550  0.93572839  0.30748747  1
  O  O19  1  0.18797569  0.15892940  0.04061121  1
  O  O20  1  0.43290681  0.63877707  0.10913550  1
  O  O21  1  0.85440086  0.58206453  0.10240312  1
