# generated using pymatgen
data_LiMn2(PO4)2
_symmetry_space_group_name_H-M   'P 1'
_cell_length_a   5.09357143
_cell_length_b   9.86370419
_cell_length_c   7.08357785
_cell_angle_alpha   90.00000000
_cell_angle_beta   90.46775199
_cell_angle_gamma   90.00000000
_symmetry_Int_Tables_number   1
_chemical_formula_structural   LiMn2(PO4)2
_chemical_formula_sum   'Li2 Mn4 P4 O16'
_cell_volume   355.87758863
_cell_formula_units_Z   2
loop_
 _symmetry_equiv_pos_site_id
 _symmetry_equiv_pos_as_xyz
  1  'x, y, z'
loop_
 _atom_site_type_symbol
 _atom_site_label
 _atom_site_symmetry_multiplicity
 _atom_site_fract_x
 _atom_site_fract_y
 _atom_site_fract_z
 _atom_site_occupancy
  Li  Li0  1  0.70639886  0.34447126  0.50654254  1
  Li  Li1  1  0.79360114  0.84447126  -0.00654254  1
  Mn  Mn2  1  0.22306804  0.12473013  0.46066076  1
  Mn  Mn3  1  0.27693196  0.62473013  0.03933924  1
  Mn  Mn4  1  0.68680118  0.33306895  0.00645069  1
  Mn  Mn5  1  0.81319882  0.83306895  0.49354931  1
  P  P6  1  0.18546455  0.41633984  0.26787401  1
  P  P7  1  0.31453545  0.91633984  0.23212599  1
  P  P8  1  0.69293991  0.08790824  0.73302096  1
  P  P9  1  0.80706009  0.58790824  0.76697904  1
  O  O10  1  0.10596323  0.62457176  0.79470864  1
  O  O11  1  0.16397676  0.81849465  0.09839084  1
  O  O12  1  0.19487898  0.91448758  0.44006556  1
  O  O13  1  0.27162735  0.06898594  0.18759312  1
  O  O14  1  0.22837265  0.56898594  0.31240688  1
  O  O15  1  0.30512102  0.41448758  0.05993444  1
  O  O16  1  0.33602324  0.31849465  0.40160916  1
  O  O17  1  0.39403677  0.12457176  0.70529136  1
  O  O18  1  0.60509545  0.87453609  0.24061077  1
  O  O19  1  0.71662071  0.64783222  0.57857448  1
  O  O20  1  0.66528306  0.64738774  0.94446925  1
  O  O21  1  0.76413309  0.43279158  0.75726905  1
  O  O22  1  0.73586691  0.93279158  0.74273095  1
  O  O23  1  0.83471694  0.14738774  0.55553075  1
  O  O24  1  0.78337929  0.14783222  0.92142552  1
  O  O25  1  0.89490455  0.37453609  0.25938923  1
