# generated using pymatgen
data_LiVO2
_symmetry_space_group_name_H-M   'P 1'
_cell_length_a   2.97594503
_cell_length_b   2.96869218
_cell_length_c   10.07714436
_cell_angle_alpha   89.98979952
_cell_angle_beta   90.00507542
_cell_angle_gamma   119.91941192
_symmetry_Int_Tables_number   1
_chemical_formula_structural   LiVO2
_chemical_formula_sum   'Li2 V2 O4'
_cell_volume   77.16320867
_cell_formula_units_Z   2
loop_
 _symmetry_equiv_pos_site_id
 _symmetry_equiv_pos_as_xyz
  1  'x, y, z'
loop_
 _atom_site_type_symbol
 _atom_site_label
 _atom_site_symmetry_multiplicity
 _atom_site_fract_x
 _atom_site_fract_y
 _atom_site_fract_z
 _atom_site_occupancy
  Li  Li0  1  0.33289715  0.66485999  0.23981975  1
  Li  Li1  1  0.66710285  0.33196284  0.73981975  1
  V  V2  1  0.33304492  0.66714757  0.50022892  1
  V  V3  1  0.66695508  0.33410265  0.00022892  1
  O  O4  1  0.33523652  0.66802067  0.88721525  1
  O  O5  1  0.99901781  0.00002046  0.11379608  1
  O  O6  1  0.00098220  0.00100266  0.61379608  1
  O  O7  1  0.66476347  0.33278415  0.38721525  1
