# generated using pymatgen
data_LiMnF4
_symmetry_space_group_name_H-M   'P 1'
_cell_length_a   3.93157203
_cell_length_b   6.97464278
_cell_length_c   6.43034421
_cell_angle_alpha   72.48241233
_cell_angle_beta   89.99999996
_cell_angle_gamma   73.62949310
_symmetry_Int_Tables_number   1
_chemical_formula_structural   LiMnF4
_chemical_formula_sum   'Li2 Mn2 F8'
_cell_volume   160.63918048
_cell_formula_units_Z   2
loop_
 _symmetry_equiv_pos_site_id
 _symmetry_equiv_pos_as_xyz
  1  'x, y, z'
loop_
 _atom_site_type_symbol
 _atom_site_label
 _atom_site_symmetry_multiplicity
 _atom_site_fract_x
 _atom_site_fract_y
 _atom_site_fract_z
 _atom_site_occupancy
  Li  Li0  1  0.19903635  0.60192631  0.80885511  1
  Li  Li1  1  0.80096365  0.39807369  0.19114489  1
  Mn  Mn2  1  0.10895068  0.78209864  0.19869922  1
  Mn  Mn3  1  0.89104932  0.21790136  0.80130078  1
  F  F4  1  0.06014643  0.87970714  0.88383813  1
  F  F5  1  0.13912432  0.72175137  0.49286556  1
  F  F6  1  0.74641609  0.50716783  0.84121762  1
  F  F7  1  0.61749595  0.76500810  0.19491886  1
  F  F8  1  0.38250405  0.23499190  0.80508114  1
  F  F9  1  0.25358391  0.49283217  0.15878238  1
  F  F10  1  0.86087568  0.27824863  0.50713444  1
  F  F11  1  0.93985357  0.12029286  0.11616187  1
