# generated using pymatgen
data_LiCo2(PO4)2
_symmetry_space_group_name_H-M   'P 1'
_cell_length_a   5.26569447
_cell_length_b   7.92341264
_cell_length_c   8.77483663
_cell_angle_alpha   92.37168128
_cell_angle_beta   93.01206578
_cell_angle_gamma   79.51873216
_symmetry_Int_Tables_number   1
_chemical_formula_structural   LiCo2(PO4)2
_chemical_formula_sum   'Li2 Co4 P4 O16'
_cell_volume   359.31124367
_cell_formula_units_Z   2
loop_
 _symmetry_equiv_pos_site_id
 _symmetry_equiv_pos_as_xyz
  1  'x, y, z'
loop_
 _atom_site_type_symbol
 _atom_site_label
 _atom_site_symmetry_multiplicity
 _atom_site_fract_x
 _atom_site_fract_y
 _atom_site_fract_z
 _atom_site_occupancy
  Li  Li0  1  0.11703545  0.97388606  0.35567573  1
  Li  Li1  1  0.82380897  0.55166346  0.77226967  1
  Co  Co2  1  0.24326355  0.18937853  0.90236186  1
  Co  Co3  1  0.31817737  0.67761925  0.55719246  1
  Co  Co4  1  0.69419966  0.31813151  0.44062412  1
  Co  Co5  1  0.75874251  0.79708378  0.08951243  1
  P  P6  1  0.23752862  0.28710743  0.57029291  1
  P  P7  1  0.23593623  0.78665089  0.89690938  1
  P  P8  1  0.76336481  0.20411674  0.10208886  1
  P  P9  1  0.76226266  0.71720274  0.43560255  1
  O  O10  1  0.05806526  0.19471203  0.46606126  1
  O  O11  1  0.01086802  0.26579631  0.05150362  1
  O  O12  1  0.12159401  0.33248236  0.73109077  1
  O  O13  1  0.25333293  0.46246610  0.49472212  1
  O  O14  1  0.17646703  0.97329199  0.83857194  1
  O  O15  1  0.51534935  0.18870652  0.57962223  1
  O  O16  1  0.40035556  0.67285145  0.77165993  1
  O  O17  1  0.39618724  0.77617158  0.04816963  1
  O  O18  1  0.58473635  0.19599999  0.95473953  1
  O  O19  1  0.62854969  0.33034891  0.22098126  1
  O  O20  1  0.47741834  0.82553984  0.43871370  1
  O  O21  1  0.84743116  0.02131406  0.16712736  1
  O  O22  1  0.72533310  0.56095295  0.53429465  1
  O  O23  1  0.84392825  0.66601012  0.27453035  1
  O  O24  1  0.97884842  0.71914328  0.91034223  1
  O  O25  1  0.96401546  0.81215312  0.52096046  1
