# generated using pymatgen
data_LiVF6
_symmetry_space_group_name_H-M   'P 1'
_cell_length_a   5.24267156
_cell_length_b   5.24277352
_cell_length_c   9.33026594
_cell_angle_alpha   90.00047779
_cell_angle_beta   89.99957222
_cell_angle_gamma   119.99866853
_symmetry_Int_Tables_number   1
_chemical_formula_structural   LiVF6
_chemical_formula_sum   'Li2 V2 F12'
_cell_volume   222.09778599
_cell_formula_units_Z   2
loop_
 _symmetry_equiv_pos_site_id
 _symmetry_equiv_pos_as_xyz
  1  'x, y, z'
loop_
 _atom_site_type_symbol
 _atom_site_label
 _atom_site_symmetry_multiplicity
 _atom_site_fract_x
 _atom_site_fract_y
 _atom_site_fract_z
 _atom_site_occupancy
  Li  Li0  1  0.00001298  0.00000547  0.25000321  1
  Li  Li1  1  0.00000793  0.00000040  0.75000446  1
  V  V2  1  0.33335303  0.66667061  0.24999795  1
  V  V3  1  0.66668243  0.33333876  0.74999417  1
  F  F4  1  0.05875175  0.68873472  0.14002848  1
  F  F5  1  0.31128001  0.94122780  0.35998485  1
  F  F6  1  0.05878211  0.37002433  0.35997210  1
  F  F7  1  0.31128473  0.37002001  0.14002033  1
  F  F8  1  0.62998601  0.94128222  0.14002562  1
  F  F9  1  0.37005648  0.31128599  0.64001009  1
  F  F10  1  0.62998672  0.68873100  0.35997996  1
  F  F11  1  0.37007929  0.05878113  0.85997723  1
  F  F12  1  0.68873794  0.62992736  0.85998784  1
  F  F13  1  0.94120630  0.62993070  0.64000360  1
  F  F14  1  0.68867596  0.05875864  0.64001632  1
  F  F15  1  0.94121733  0.31128087  0.85999179  1
