# generated using pymatgen
data_Li7Mn5O12
_symmetry_space_group_name_H-M   'P 1'
_cell_length_a   2.98487357
_cell_length_b   7.75472750
_cell_length_c   10.19052761
_cell_angle_alpha   73.16311461
_cell_angle_beta   90.00000006
_cell_angle_gamma   101.09609044
_symmetry_Int_Tables_number   1
_chemical_formula_structural   Li7Mn5O12
_chemical_formula_sum   'Li7 Mn5 O12'
_cell_volume   221.15647935
_cell_formula_units_Z   1
loop_
 _symmetry_equiv_pos_site_id
 _symmetry_equiv_pos_as_xyz
  1  'x, y, z'
loop_
 _atom_site_type_symbol
 _atom_site_label
 _atom_site_symmetry_multiplicity
 _atom_site_fract_x
 _atom_site_fract_y
 _atom_site_fract_z
 _atom_site_occupancy
  Li  Li0  1  0.83730827  0.67461753  0.75974027  1
  Li  Li1  1  0.17344079  0.34688059  0.24275724  1
  Li  Li2  1  0.49322621  0.98645241  0.75724276  1
  Li  Li3  1  0.82935773  0.65871647  0.24025973  1
  Li  Li4  1  0.16666749  0.33333399  0.74701078  1
  Li  Li5  1  0.49999951  -0.00000099  0.25298922  1
  Li  Li6  1  0.33333300  0.66666700  -0.00000000  1
  Mn  Mn7  1  0.99635213  0.99270427  0.99600080  1
  Mn  Mn8  1  0.67031487  0.34062873  0.00399920  1
  Mn  Mn9  1  0.33333300  0.66666700  0.50000000  1
  Mn  Mn10  1  0.00005195  0.00010390  0.50134362  1
  Mn  Mn11  1  0.66661505  0.33322910  0.49865638  1
  O  O12  1  0.74307749  0.48615397  0.11749421  1
  O  O13  1  0.08107150  0.16214300  0.61531499  1
  O  O14  1  0.43141476  0.86283052  0.10772293  1
  O  O15  1  0.74555807  0.49111514  0.61644191  1
  O  O16  1  0.09033905  0.18067810  0.10556174  1
  O  O17  1  0.41127082  0.82254265  0.61902907  1
  O  O18  1  0.92110893  0.84221786  0.38355809  1
  O  O19  1  0.23525124  0.47050348  0.89227707  1
  O  O20  1  0.58559550  0.17119000  0.38468501  1
  O  O21  1  0.92358951  0.84717903  0.88250579  1
  O  O22  1  0.25539518  0.51079135  0.38097093  1
  O  O23  1  0.57632795  0.15265490  0.89443826  1
