# generated using pymatgen
data_LiSn(PO3)4
_symmetry_space_group_name_H-M   'P 1'
_cell_length_a   7.47093006
_cell_length_b   7.47093006
_cell_length_c   10.03663597
_cell_angle_alpha   80.56560985
_cell_angle_beta   70.50085347
_cell_angle_gamma   109.35150071
_symmetry_Int_Tables_number   1
_chemical_formula_structural   LiSn(PO3)4
_chemical_formula_sum   'Li2 Sn2 P8 O24'
_cell_volume   473.90165790
_cell_formula_units_Z   2
loop_
 _symmetry_equiv_pos_site_id
 _symmetry_equiv_pos_as_xyz
  1  'x, y, z'
loop_
 _atom_site_type_symbol
 _atom_site_label
 _atom_site_symmetry_multiplicity
 _atom_site_fract_x
 _atom_site_fract_y
 _atom_site_fract_z
 _atom_site_occupancy
  Li  Li0  1  -0.00000000  0.50000000  -0.00000000  1
  Li  Li1  1  -0.00000000  -0.00000000  0.50000000  1
  Sn  Sn2  1  0.20002956  0.95002956  0.75000000  1
  Sn  Sn3  1  0.79997044  0.04997044  0.25000000  1
  P  P4  1  0.99673000  0.68824440  0.30168854  1
  P  P5  1  0.25649769  0.71859121  0.47851102  1
  P  P6  1  0.69710223  0.73500971  0.02148898  1
  P  P7  1  0.51006706  0.70158046  0.80168854  1
  P  P8  1  0.48993294  0.29841954  0.19831146  1
  P  P9  1  0.30289777  0.26499029  0.97851102  1
  P  P10  1  0.74350231  0.28140879  0.52148898  1
  P  P11  1  0.00327000  0.31175560  0.69831146  1
  O  O12  1  0.03612374  0.65230967  0.15707514  1
  O  O13  1  0.12469038  0.80175223  0.57846472  1
  O  O14  1  0.18743818  0.69045469  0.34581090  1
  O  O15  1  0.48924178  0.82874071  0.41398380  1
  O  O16  1  0.30114655  0.71226254  0.82558520  1
  O  O17  1  0.20486406  0.49525502  0.56365926  1
  O  O18  1  0.11978305  0.29684490  0.07846472  1
  O  O19  1  0.74272450  0.90322558  0.08601620  1
  O  O20  1  0.55891429  0.76852332  0.93634074  1
  O  O21  1  0.69061519  0.80680112  0.65707514  1
  O  O22  1  0.53626559  0.53324808  0.15418910  1
  O  O23  1  0.03784774  0.12673175  0.67441480  1
  O  O24  1  0.96215226  0.87326825  0.32558520  1
  O  O25  1  0.46373441  0.46675192  0.84581090  1
  O  O26  1  0.30938481  0.19319888  0.34292486  1
  O  O27  1  0.44108571  0.23147668  0.06365926  1
  O  O28  1  0.25727550  0.09677442  0.91398380  1
  O  O29  1  0.88021695  0.70315510  0.92153528  1
  O  O30  1  0.79513594  0.50474498  0.43634074  1
  O  O31  1  0.69885345  0.28773746  0.17441480  1
  O  O32  1  0.51075822  0.17125929  0.58601620  1
  O  O33  1  0.81256182  0.30954531  0.65418910  1
  O  O34  1  0.87530962  0.19824777  0.42153528  1
  O  O35  1  0.96387626  0.34769033  0.84292486  1
