# generated using pymatgen
data_Li8Zr7Fe(PO4)12
_symmetry_space_group_name_H-M   'P 1'
_cell_length_a   8.91737169
_cell_length_b   9.06723549
_cell_length_c   12.60207664
_cell_angle_alpha   89.59035239
_cell_angle_beta   89.90976385
_cell_angle_gamma   89.87812566
_symmetry_Int_Tables_number   1
_chemical_formula_structural   Li8Zr7Fe(PO4)12
_chemical_formula_sum   'Li8 Zr7 Fe1 P12 O48'
_cell_volume   1018.92277522
_cell_formula_units_Z   1
loop_
 _symmetry_equiv_pos_site_id
 _symmetry_equiv_pos_as_xyz
  1  'x, y, z'
loop_
 _atom_site_type_symbol
 _atom_site_label
 _atom_site_symmetry_multiplicity
 _atom_site_fract_x
 _atom_site_fract_y
 _atom_site_fract_z
 _atom_site_occupancy
  Li  Li0  1  0.21598317  0.72266301  0.17938789  1
  Li  Li1  1  0.21466804  0.77642355  0.82035421  1
  Li  Li2  1  0.28501626  0.22185679  0.32196100  1
  Li  Li3  1  0.28525127  0.27937123  0.67674654  1
  Li  Li4  1  0.71756151  0.71693165  0.32435281  1
  Li  Li5  1  0.71676800  0.76666733  0.67782252  1
  Li  Li6  1  0.78159886  0.22278159  0.17966852  1
  Li  Li7  1  0.78037041  0.28186167  0.81260764  1
  Zr  Zr8  1  0.24760995  0.54001638  0.38966385  1
  Zr  Zr9  1  0.24739597  0.95767663  0.61193218  1
  Zr  Zr10  1  0.25205003  0.04315677  0.11251751  1
  Zr  Zr11  1  0.25175064  0.45761581  0.88615773  1
  Zr  Zr12  1  0.74785343  0.54254247  0.11258230  1
  Zr  Zr13  1  0.74790956  0.95683044  0.88488370  1
  Zr  Zr14  1  0.75358313  0.04435673  0.38979349  1
  Fe  Fe15  1  0.75216536  0.45904456  0.61280400  1
  P  P16  1  0.04180386  0.25389938  0.50283823  1
  P  P17  1  0.10477398  0.39658624  0.14966161  1
  P  P18  1  0.10416468  0.10376008  0.85030139  1
  P  P19  1  0.39866869  0.60472852  0.64915628  1
  P  P20  1  0.39688934  0.89462502  0.35125507  1
  P  P21  1  0.45358892  0.75024305  0.99962413  1
  P  P22  1  0.54722441  0.24954638  0.99944706  1
  P  P23  1  0.60565931  0.10659832  0.64976364  1
  P  P24  1  0.60488313  0.39609093  0.35423847  1
  P  P25  1  0.89512005  0.60215932  0.85080638  1
  P  P26  1  0.89385900  0.89632383  0.14935511  1
  P  P27  1  0.95310866  0.74934907  0.50084092  1
  O  O28  1  0.05267746  0.64537022  0.43376476  1
  O  O29  1  0.05410429  0.85969629  0.56080556  1
  O  O30  1  0.06716745  0.89227813  0.15857181  1
  O  O31  1  0.06961241  0.60872890  0.84395424  1
  O  O32  1  0.15120913  0.16442402  0.57656249  1
  O  O33  1  0.14921535  0.33295207  0.42140525  1
  O  O34  1  0.15173672  0.43404613  0.03504896  1
  O  O35  1  0.15063006  0.06508851  0.96482700  1
  O  O36  1  0.16811464  0.24260954  0.18309192  1
  O  O37  1  0.16807605  0.25741756  0.81748972  1
  O  O38  1  0.16937779  0.51706545  0.22413925  1
  O  O39  1  0.17034731  0.98339655  0.77587706  1
  O  O40  1  0.33025513  0.01643964  0.27793111  1
  O  O41  1  0.32888155  0.48354482  0.72263308  1
  O  O42  1  0.32958622  0.75790636  0.68114100  1
  O  O43  1  0.33521849  0.74086851  0.31808987  1
  O  O44  1  0.34635477  0.56967103  0.53422833  1
  O  O45  1  0.34995930  0.92891955  0.46633081  1
  O  O46  1  0.34922251  0.83241063  0.07860400  1
  O  O47  1  0.35034674  0.66742769  0.92097220  1
  O  O48  1  0.43061037  0.10309949  0.65536336  1
  O  O49  1  0.43007702  0.39305627  0.34083456  1
  O  O50  1  0.45168178  0.14085889  0.06480717  1
  O  O51  1  0.45004425  0.35844665  0.93573957  1
  O  O52  1  0.54922206  0.64128306  0.06419562  1
  O  O53  1  0.54899238  0.85966894  0.93546968  1
  O  O54  1  0.56824307  0.60988236  0.65796942  1
  O  O55  1  0.57024447  0.89325606  0.34266014  1
  O  O56  1  0.65131099  0.33202375  0.07784985  1
  O  O57  1  0.65052025  0.16658576  0.92067180  1
  O  O58  1  0.65304478  0.06964494  0.53340614  1
  O  O59  1  0.65043175  0.43224204  0.46559323  1
  O  O60  1  0.66516190  0.23991568  0.31810295  1
  O  O61  1  0.66361067  0.25658486  0.68386262  1
  O  O62  1  0.66873189  0.51395452  0.27432511  1
  O  O63  1  0.66886840  0.97938440  0.72146878  1
  O  O64  1  0.82882197  0.01683013  0.22431958  1
  O  O65  1  0.83003925  0.48296586  0.78014569  1
  O  O66  1  0.83147626  0.74251625  0.18320210  1
  O  O67  1  0.83471616  0.75894383  0.81922647  1
  O  O68  1  0.85071373  0.57159490  0.96830924  1
  O  O69  1  0.84716766  0.93420716  0.03487181  1
  O  O70  1  0.85171923  0.66997776  0.57878149  1
  O  O71  1  0.85277786  0.83692994  0.41954755  1
  O  O72  1  0.93153849  0.10774293  0.84076566  1
  O  O73  1  0.93177165  0.39117358  0.15863535  1
  O  O74  1  0.94822161  0.14430223  0.43581540  1
  O  O75  1  0.95086311  0.35895638  0.56806608  1
