# generated using pymatgen
data_Li4V3P8O29
_symmetry_space_group_name_H-M   'P 1'
_cell_length_a   9.85396101
_cell_length_b   9.78940786
_cell_length_c   14.22464718
_cell_angle_alpha   89.72040763
_cell_angle_beta   90.07079194
_cell_angle_gamma   59.66398433
_symmetry_Int_Tables_number   1
_chemical_formula_structural   Li4V3P8O29
_chemical_formula_sum   'Li8 V6 P16 O58'
_cell_volume   1184.26738780
_cell_formula_units_Z   2
loop_
 _symmetry_equiv_pos_site_id
 _symmetry_equiv_pos_as_xyz
  1  'x, y, z'
loop_
 _atom_site_type_symbol
 _atom_site_label
 _atom_site_symmetry_multiplicity
 _atom_site_fract_x
 _atom_site_fract_y
 _atom_site_fract_z
 _atom_site_occupancy
  Li  Li0  1  0.90532191  0.76486649  0.05883829  1
  Li  Li1  1  0.90649535  0.31692017  0.55805144  1
  Li  Li2  1  0.33205486  0.90203265  0.05324840  1
  Li  Li3  1  0.68130813  0.22312968  0.44466874  1
  Li  Li4  1  0.31358799  0.76987235  0.56446010  1
  Li  Li5  1  0.22277511  0.08657381  0.44322018  1
  Li  Li6  1  0.09469362  0.23464504  0.94137707  1
  Li  Li7  1  0.94593570  0.02294369  0.99476313  1
  V  V8  1  0.56720756  0.43652955  0.24419600  1
  V  V9  1  0.43185427  0.56520224  0.75661299  1
  V  V10  1  0.56825614  0.00307927  0.74855760  1
  V  V11  1  0.44006530  0.99942046  0.25036252  1
  V  V12  1  0.00060416  0.56883142  0.25138497  1
  V  V13  1  0.00054478  0.43911422  0.74976431  1
  P  P14  1  0.91223083  0.77675989  0.84093487  1
  P  P15  1  0.77300998  0.91205059  0.34380465  1
  P  P16  1  0.91065331  0.31862872  0.33816551  1
  P  P17  1  0.66430152  0.67054454  0.13071563  1
  P  P18  1  0.66264386  0.66858661  0.63281315  1
  P  P19  1  0.78174986  0.30676652  0.84079816  1
  P  P20  1  0.68183158  0.23313777  0.66046282  1
  P  P21  1  0.31721938  0.91439931  0.83918037  1
  P  P22  1  0.69274766  0.08393080  0.16041995  1
  P  P23  1  0.32117016  0.76857391  0.34427275  1
  P  P24  1  0.22321418  0.69519618  0.16201276  1
  P  P25  1  0.33865225  0.33322935  0.36657241  1
  P  P26  1  0.33026149  0.32893295  0.86877389  1
  P  P27  1  0.08490087  0.68973701  0.65864377  1
  P  P28  1  0.23037890  0.09059764  0.65826396  1
  P  P29  1  0.08985636  0.22730257  0.15864346  1
  O  O30  1  0.99349604  0.76535750  0.57340375  1
  O  O31  1  0.91313172  0.74201849  0.33563074  1
  O  O32  1  0.78911923  0.99811936  0.07704685  1
  O  O33  1  0.74100167  0.91569612  0.82937004  1
  O  O34  1  0.91274349  0.61816908  0.82691895  1
  O  O35  1  0.81159627  0.67636413  0.16473706  1
  O  O36  1  0.89570228  0.47951734  0.32044464  1
  O  O37  1  0.01995058  0.21328901  0.06880936  1
  O  O38  1  0.92130162  0.34117187  0.83333461  1
  O  O39  1  0.65823746  0.81845970  0.67742398  1
  O  O40  1  0.62016099  0.90481148  0.32171190  1
  O  O41  1  0.81628325  0.51847813  0.67581073  1
  O  O42  1  0.64447390  0.67798583  0.02692721  1
  O  O43  1  0.67128146  0.66270390  0.52859971  1
  O  O44  1  0.66941959  0.51866082  0.17602823  1
  O  O45  1  0.47213515  0.91372075  0.82580775  1
  O  O46  1  0.51158089  0.81610075  0.17521386  1
  O  O47  1  0.74544907  0.33387134  0.33530815  1
  O  O48  1  0.80052649  0.20903812  0.74423036  1
  O  O49  1  0.75398127  0.24338483  0.56965520  1
  O  O50  1  0.81195423  0.20059803  0.92227941  1
  O  O51  1  0.62348389  0.46013585  0.83390124  1
  O  O52  1  0.51474369  0.66851494  0.67160412  1
  O  O53  1  0.65450140  0.25797153  0.16564561  1
  O  O54  1  0.47902530  0.61616593  0.32031363  1
  O  O55  1  0.34145628  0.91711607  0.33566124  1
  O  O56  1  0.79358220  0.00110389  0.25320892  1
  O  O57  1  0.75782783  0.00379146  0.42879741  1
  O  O58  1  0.23913110  0.00178961  0.57051832  1
  O  O59  1  0.65687049  0.08935631  0.66636407  1
  O  O60  1  0.52347891  0.38457701  0.67988995  1
  O  O61  1  0.34531200  0.74487437  0.83509805  1
  O  O62  1  0.48837720  0.33258730  0.32587107  1
  O  O63  1  0.38254025  0.53418231  0.17334994  1
  O  O64  1  0.22084925  0.79359395  0.08141305  1
  O  O65  1  0.25667999  0.76283546  0.43678339  1
  O  O66  1  0.20409924  0.78742828  0.25989306  1
  O  O67  1  0.25360778  0.66325783  0.66372304  1
  O  O68  1  0.47849308  0.18319170  0.82260346  1
  O  O69  1  0.53696224  0.08108662  0.17143223  1
  O  O70  1  0.32499791  0.47865698  0.83000650  1
  O  O71  1  0.32110839  0.31222969  0.97211973  1
  O  O72  1  0.34653337  0.31350541  0.47027352  1
  O  O73  1  0.19311678  0.47766132  0.32304293  1
  O  O74  1  0.38036933  0.09834838  0.67531763  1
  O  O75  1  0.34078533  0.18098367  0.32154345  1
  O  O76  1  0.08404008  0.66500450  0.16040691  1
  O  O77  1  0.00583328  0.79197088  0.75440285  1
  O  O78  1  0.97866582  0.78676041  0.93316653  1
  O  O79  1  0.09371100  0.52667010  0.68174479  1
  O  O80  1  0.18178740  0.32399049  0.82449110  1
  O  O81  1  0.08548750  0.38566541  0.17258453  1
  O  O82  1  0.26240661  0.08435510  0.16623872  1
  O  O83  1  0.23036607  0.99907013  0.92675991  1
  O  O84  1  0.20814392  0.00322399  0.74831111  1
  O  O85  1  0.08199122  0.25856701  0.65756287  1
  O  O86  1  0.99667167  0.23877897  0.42770006  1
  O  O87  1  0.00302947  0.20576715  0.24947171  1
