# generated using pymatgen
data_Li5SbS
_symmetry_space_group_name_H-M   'P 1'
_cell_length_a   4.30626381
_cell_length_b   8.61542599
_cell_length_c   12.82165322
_cell_angle_alpha   90.00000000
_cell_angle_beta   90.00000000
_cell_angle_gamma   90.00000000
_symmetry_Int_Tables_number   1
_chemical_formula_structural   Li5SbS
_chemical_formula_sum   'Li20 Sb4 S4'
_cell_volume   475.68714440
_cell_formula_units_Z   4
loop_
 _symmetry_equiv_pos_site_id
 _symmetry_equiv_pos_as_xyz
  1  'x, y, z'
loop_
 _atom_site_type_symbol
 _atom_site_label
 _atom_site_symmetry_multiplicity
 _atom_site_fract_x
 _atom_site_fract_y
 _atom_site_fract_z
 _atom_site_occupancy
  Li  Li0  1  0.00063386  0.24326747  0.25000000  1
  Li  Li1  1  0.00063386  0.25673253  0.75000000  1
  Li  Li2  1  0.99892098  0.99529896  0.10651305  1
  Li  Li3  1  0.99892098  0.50470104  0.60651305  1
  Li  Li4  1  0.99892098  0.50470104  0.89348695  1
  Li  Li5  1  0.99892098  0.99529896  0.39348695  1
  Li  Li6  1  0.49957055  0.75498512  0.89359857  1
  Li  Li7  1  0.49957055  0.74501488  0.10640143  1
  Li  Li8  1  0.49957055  0.75498512  0.60640143  1
  Li  Li9  1  0.49957055  0.74501488  0.39359857  1
  Li  Li10  1  0.50042945  0.24501488  0.10640143  1
  Li  Li11  1  0.50042945  0.24501488  0.39359857  1
  Li  Li12  1  0.50042945  0.25498512  0.60640143  1
  Li  Li13  1  0.50042945  0.25498512  0.89359857  1
  Li  Li14  1  0.00107902  0.49529896  0.39348695  1
  Li  Li15  1  0.00107902  0.49529896  0.10651305  1
  Li  Li16  1  0.00107902  0.00470104  0.60651305  1
  Li  Li17  1  0.00107902  0.00470104  0.89348695  1
  Li  Li18  1  0.99936614  0.74326747  0.25000000  1
  Li  Li19  1  0.99936614  0.75673253  0.75000000  1
  Sb  Sb20  1  0.49903963  0.99514914  0.25000000  1
  Sb  Sb21  1  0.49903963  0.50485086  0.75000000  1
  Sb  Sb22  1  0.50096037  0.49514914  0.25000000  1
  Sb  Sb23  1  0.50096037  0.00485086  0.75000000  1
  S  S24  1  0.00034707  0.25000000  -0.00000000  1
  S  S25  1  0.00034707  0.25000000  0.50000000  1
  S  S26  1  0.99965293  0.75000000  0.50000000  1
  S  S27  1  0.99965293  0.75000000  -0.00000000  1
