# generated using pymatgen
data_Li5Mn4(P2O7)4
_symmetry_space_group_name_H-M   'P 1'
_cell_length_a   9.76990299
_cell_length_b   9.76485821
_cell_length_c   11.32834844
_cell_angle_alpha   90.43702267
_cell_angle_beta   102.88254808
_cell_angle_gamma   90.64704083
_symmetry_Int_Tables_number   1
_chemical_formula_structural   Li5Mn4(P2O7)4
_chemical_formula_sum   'Li10 Mn8 P16 O56'
_cell_volume   1053.41641623
_cell_formula_units_Z   2
loop_
 _symmetry_equiv_pos_site_id
 _symmetry_equiv_pos_as_xyz
  1  'x, y, z'
loop_
 _atom_site_type_symbol
 _atom_site_label
 _atom_site_symmetry_multiplicity
 _atom_site_fract_x
 _atom_site_fract_y
 _atom_site_fract_z
 _atom_site_occupancy
  Li  Li0  1  0.15782210  0.42994858  0.53651088  1
  Li  Li1  1  0.08878550  0.10757225  0.02301510  1
  Li  Li2  1  0.42206455  0.59572547  0.98065187  1
  Li  Li3  1  0.38054604  0.96545324  0.49919436  1
  Li  Li4  1  0.61578323  0.79224925  0.45475454  1
  Li  Li5  1  0.84863657  0.58707944  0.96117376  1
  Li  Li6  1  0.64670267  0.10131665  0.03677156  1
  Li  Li7  1  0.90638608  0.89252830  0.96810700  1
  Li  Li8  1  0.83473691  0.58117695  0.45708113  1
  Li  Li9  1  0.87097644  0.27531388  0.54788377  1
  Mn  Mn10  1  0.20139349  0.92718215  0.67793150  1
  Mn  Mn11  1  0.27740890  0.22615492  0.83534662  1
  Mn  Mn12  1  0.24316845  0.70951791  0.17574856  1
  Mn  Mn13  1  0.30284062  0.42366870  0.32764186  1
  Mn  Mn14  1  0.70224122  0.57828178  0.67642371  1
  Mn  Mn15  1  0.76010768  0.28596569  0.82755924  1
  Mn  Mn16  1  0.73851662  0.77748537  0.17071197  1
  Mn  Mn17  1  0.79318139  0.06928525  0.32670880  1
  P  P18  1  0.02709744  0.44133687  0.76026907  1
  P  P19  1  0.12146456  0.70774214  0.88939196  1
  P  P20  1  0.05917109  0.92975519  0.23830625  1
  P  P21  1  0.11990293  0.14576162  0.42717092  1
  P  P22  1  0.37720189  0.65078991  0.56892378  1
  P  P23  1  0.43297789  0.42764711  0.75450371  1
  P  P24  1  0.52249494  0.04731033  0.74856821  1
  P  P25  1  0.38241696  0.21186630  0.11496983  1
  P  P26  1  0.61206860  0.79181816  0.88917637  1
  P  P27  1  0.46753423  0.94949098  0.24447660  1
  P  P28  1  0.56941801  0.57881295  0.24783419  1
  P  P29  1  0.62184257  0.34741653  0.41069279  1
  P  P30  1  0.88105811  0.85187957  0.57917156  1
  P  P31  1  0.93606900  0.07391974  0.75924724  1
  P  P32  1  0.88648936  0.28795744  0.10790017  1
  P  P33  1  0.98168389  0.54871883  0.24462540  1
  O  O34  1  0.01322681  0.41383671  0.62649118  1
  O  O35  1  0.03793420  0.84799784  0.57646412  1
  O  O36  1  0.08269387  0.08834782  0.73225089  1
  O  O37  1  0.11420515  0.34059265  0.84722161  1
  O  O38  1  0.10102064  0.58811640  0.78495439  1
  O  O39  1  0.17851179  0.82823819  0.82972773  1
  O  O40  1  0.22903687  0.65146765  0.00105308  1
  O  O41  1  0.02832297  0.26283236  0.08540492  1
  O  O42  1  0.12385170  0.07156788  0.30051971  1
  O  O43  1  0.05505447  0.94111696  0.10519257  1
  O  O44  1  0.13806550  0.53902914  0.22255954  1
  O  O45  1  0.17479639  0.29021464  0.41602736  1
  O  O46  1  0.16093385  0.81481420  0.29314470  1
  O  O47  1  0.20822345  0.05966414  0.52672431  1
  O  O48  1  0.28634227  0.55496457  0.47237881  1
  O  O49  1  0.32318482  0.31578029  0.69168680  1
  O  O50  1  0.31707479  0.79118921  0.58483832  1
  O  O51  1  0.37084931  0.04405943  0.78159921  1
  O  O52  1  0.37733426  0.57176912  0.69629484  1
  O  O53  1  0.42090516  0.42513213  0.88567951  1
  O  O54  1  0.47203101  0.75886464  0.91323572  1
  O  O55  1  0.27237305  0.16016128  0.99920422  1
  O  O56  1  0.32136895  0.33040471  0.17558761  1
  O  O57  1  0.38884830  0.09121869  0.21541082  1
  O  O58  1  0.41758025  0.58973808  0.26620022  1
  O  O59  1  0.38294593  0.84527676  0.15210120  1
  O  O60  1  0.51594465  0.07211562  0.61837479  1
  O  O61  1  0.46892155  0.34002905  0.42447219  1
  O  O62  1  0.52903908  0.66313690  0.55563934  1
  O  O63  1  0.47132713  0.91583505  0.37418198  1
  O  O64  1  0.61450312  0.14644191  0.84483482  1
  O  O65  1  0.58117674  0.40929128  0.73140083  1
  O  O66  1  0.58950683  0.89972179  0.77732574  1
  O  O67  1  0.68999362  0.67322159  0.84405510  1
  O  O68  1  0.71448168  0.86809082  0.99662722  1
  O  O69  1  0.52266021  0.22827134  0.08559500  1
  O  O70  1  0.58322985  0.60109032  0.11904335  1
  O  O71  1  0.62074454  0.42580859  0.28561289  1
  O  O72  1  0.62078163  0.96461729  0.22007944  1
  O  O73  1  0.68416819  0.20640475  0.39767869  1
  O  O74  1  0.67326040  0.67688003  0.33140415  1
  O  O75  1  0.72026407  0.42806428  0.51270178  1
  O  O76  1  0.78806601  0.92308711  0.47273607  1
  O  O77  1  0.83654799  0.18954376  0.69819965  1
  O  O78  1  0.82563922  0.70681352  0.59189147  1
  O  O79  1  0.87715020  0.45152851  0.79360278  1
  O  O80  1  0.92890478  0.06833199  0.89087462  1
  O  O81  1  0.86872652  0.93111289  0.70157819  1
  O  O82  1  0.97992340  0.72635069  0.91918643  1
  O  O83  1  0.78500899  0.35503497  0.99479869  1
  O  O84  1  0.81219437  0.16870113  0.15626917  1
  O  O85  1  0.90569583  0.40205648  0.21541265  1
  O  O86  1  0.90276322  0.64564126  0.14716555  1
  O  O87  1  0.91151976  0.91578317  0.26983680  1
  O  O88  1  0.96170391  0.15282894  0.43358488  1
  O  O89  1  0.98058080  0.57602704  0.37437609  1
