# generated using pymatgen
data_Li5Cr2P2(CO7)2
_symmetry_space_group_name_H-M   'P 1'
_cell_length_a   5.07210303
_cell_length_b   6.43711734
_cell_length_c   8.59262122
_cell_angle_alpha   87.30396724
_cell_angle_beta   94.29912262
_cell_angle_gamma   87.68915378
_symmetry_Int_Tables_number   1
_chemical_formula_structural   Li5Cr2P2(CO7)2
_chemical_formula_sum   'Li5 Cr2 P2 C2 O14'
_cell_volume   279.17678784
_cell_formula_units_Z   1
loop_
 _symmetry_equiv_pos_site_id
 _symmetry_equiv_pos_as_xyz
  1  'x, y, z'
loop_
 _atom_site_type_symbol
 _atom_site_label
 _atom_site_symmetry_multiplicity
 _atom_site_fract_x
 _atom_site_fract_y
 _atom_site_fract_z
 _atom_site_occupancy
  Li  Li0  1  0.21631064  0.48237345  0.77658875  1
  Li  Li1  1  0.36720999  0.96796681  0.74299562  1
  Li  Li2  1  0.75794850  0.05055598  0.27483074  1
  Li  Li3  1  0.77398922  0.53311300  0.21069952  1
  Li  Li4  1  0.23741543  0.24684051  0.10800787  1
  Cr  Cr5  1  0.79886442  0.23902956  0.65628546  1
  Cr  Cr6  1  0.20918803  0.75043274  0.33423523  1
  P  P7  1  0.73043072  0.74489500  0.57614288  1
  P  P8  1  0.28479993  0.24048131  0.41577939  1
  C  C9  1  0.71178159  0.26523391  0.96429564  1
  C  C10  1  0.27753706  0.74308976  0.05260698  1
  O  O11  1  0.31524789  0.73299236  0.90968516  1
  O  O12  1  0.96018947  0.27205958  0.94330326  1
  O  O13  1  0.53833697  0.25136789  0.84470113  1
  O  O14  1  0.78210593  0.92744491  0.68133569  1
  O  O15  1  0.85156419  0.54766773  0.66444447  1
  O  O16  1  0.19288500  0.21731931  0.58211968  1
  O  O17  1  0.42168157  0.73628081  0.54332550  1
  O  O18  1  0.58765977  0.23283311  0.41993008  1
  O  O19  1  0.84592067  0.77262534  0.41247398  1
  O  O20  1  0.17343293  0.06621426  0.30767978  1
  O  O21  1  0.16606181  0.44047681  0.32006485  1
  O  O22  1  0.47301014  0.74927511  0.16465442  1
  O  O23  1  0.04357022  0.74811489  0.10911893  1
  O  O24  1  0.62781492  0.27304485  0.10369101  1
