# generated using pymatgen
data_Li5Co5(SbO6)2
_symmetry_space_group_name_H-M   'P 1'
_cell_length_a   5.31099681
_cell_length_b   5.31099585
_cell_length_c   10.05055159
_cell_angle_alpha   84.22365007
_cell_angle_beta   95.77634881
_cell_angle_gamma   59.54644152
_symmetry_Int_Tables_number   1
_chemical_formula_structural   Li5Co5(SbO6)2
_chemical_formula_sum   'Li5 Co5 Sb2 O12'
_cell_volume   239.30987123
_cell_formula_units_Z   1
loop_
 _symmetry_equiv_pos_site_id
 _symmetry_equiv_pos_as_xyz
  1  'x, y, z'
loop_
 _atom_site_type_symbol
 _atom_site_label
 _atom_site_symmetry_multiplicity
 _atom_site_fract_x
 _atom_site_fract_y
 _atom_site_fract_z
 _atom_site_occupancy
  Li  Li0  1  0.16924686  0.67248609  0.50415668  1
  Li  Li1  1  0.33426490  0.82991618  0.99247047  1
  Li  Li2  1  0.67248609  0.16924686  0.99584332  1
  Li  Li3  1  0.82991618  0.33426490  0.50752953  1
  Li  Li4  1  0.91839571  0.91839571  0.75000000  1
  Co  Co5  1  0.07654171  0.07654171  0.25000000  1
  Co  Co6  1  0.00879148  0.50351525  0.99945087  1
  Co  Co7  1  0.50351525  0.00879148  0.50054913  1
  Co  Co8  1  0.41057838  0.41057838  0.25000000  1
  Co  Co9  1  0.58724389  0.58724389  0.75000000  1
  Sb  Sb10  1  0.25535323  0.25535323  0.75000000  1
  Sb  Sb11  1  0.74300853  0.74300853  0.25000000  1
  O  O12  1  0.98292158  0.21901323  0.86948367  1
  O  O13  1  0.21901323  0.98292158  0.63051633  1
  O  O14  1  0.10006189  0.37934594  0.36681342  1
  O  O15  1  0.37934594  0.10006189  0.13318658  1
  O  O16  1  0.29986765  0.52085235  0.86913687  1
  O  O17  1  0.52085235  0.29986765  0.63086313  1
  O  O18  1  0.47330810  0.70977977  0.37144017  1
  O  O19  1  0.70977977  0.47330810  0.12855983  1
  O  O20  1  0.61236462  0.89050354  0.86783725  1
  O  O21  1  0.89050354  0.61236462  0.63216275  1
  O  O22  1  0.79443908  0.00820104  0.36870711  1
  O  O23  1  0.00820104  0.79443908  0.13129289  1
