# generated using pymatgen
data_Li5Fe4(P2O7)4
_symmetry_space_group_name_H-M   'P 1'
_cell_length_a   9.76434942
_cell_length_b   9.80606069
_cell_length_c   11.09501462
_cell_angle_alpha   89.96229216
_cell_angle_beta   101.58109231
_cell_angle_gamma   90.01872686
_symmetry_Int_Tables_number   1
_chemical_formula_structural   Li5Fe4(P2O7)4
_chemical_formula_sum   'Li10 Fe8 P16 O56'
_cell_volume   1040.71751331
_cell_formula_units_Z   2
loop_
 _symmetry_equiv_pos_site_id
 _symmetry_equiv_pos_as_xyz
  1  'x, y, z'
loop_
 _atom_site_type_symbol
 _atom_site_label
 _atom_site_symmetry_multiplicity
 _atom_site_fract_x
 _atom_site_fract_y
 _atom_site_fract_z
 _atom_site_occupancy
  Li  Li0  1  0.12170232  0.71345746  0.45143230  1
  Li  Li1  1  0.08946327  0.10910124  0.02612367  1
  Li  Li2  1  0.40856067  0.60848581  0.97248916  1
  Li  Li3  1  0.38596872  0.20615867  0.54557132  1
  Li  Li4  1  0.58785052  0.39507076  0.03176777  1
  Li  Li5  1  0.85552314  0.58791460  0.95352755  1
  Li  Li6  1  0.64497198  0.08905062  0.04758097  1
  Li  Li7  1  0.91073325  0.89399657  0.96917597  1
  Li  Li8  1  0.82018858  0.58727414  0.45018103  1
  Li  Li9  1  0.88625504  0.28315611  0.54550577  1
  Fe  Fe10  1  0.20950351  0.92132427  0.66993834  1
  Fe  Fe11  1  0.24959915  0.20638671  0.82258808  1
  Fe  Fe12  1  0.25545688  0.71056330  0.17807213  1
  Fe  Fe13  1  0.29282126  0.42278786  0.33010325  1
  Fe  Fe14  1  0.70305592  0.58028883  0.67434968  1
  Fe  Fe15  1  0.75277585  0.28475824  0.82576425  1
  Fe  Fe16  1  0.74290980  0.78639606  0.17441783  1
  Fe  Fe17  1  0.79083895  0.06953035  0.33210556  1
  P  P18  1  0.02317310  0.45059965  0.74970281  1
  P  P19  1  0.11963814  0.71097585  0.88352729  1
  P  P20  1  0.06006455  0.92633354  0.23772883  1
  P  P21  1  0.12357675  0.14674337  0.42509132  1
  P  P22  1  0.37759573  0.64580259  0.57493030  1
  P  P23  1  0.43880458  0.42636457  0.76120420  1
  P  P24  1  0.52604971  0.05327086  0.75744770  1
  P  P25  1  0.38032306  0.21032781  0.11743063  1
  P  P26  1  0.61549847  0.79434721  0.88281245  1
  P  P27  1  0.47373106  0.94852394  0.25552703  1
  P  P28  1  0.56225162  0.57358511  0.24205675  1
  P  P29  1  0.62145555  0.35031810  0.42445817  1
  P  P30  1  0.87789544  0.85303325  0.57195710  1
  P  P31  1  0.93923599  0.07374794  0.75754965  1
  P  P32  1  0.88199896  0.29096098  0.11883982  1
  P  P33  1  0.97661212  0.55101469  0.24052428  1
  O  O34  1  0.01180754  0.42667324  0.61528009  1
  O  O35  1  0.03350201  0.84114486  0.56225767  1
  O  O36  1  0.09289636  0.08224936  0.73368744  1
  O  O37  1  0.11143364  0.58888600  0.78523155  1
  O  O38  1  0.10614237  0.34144499  0.83555791  1
  O  O39  1  0.17963940  0.82906925  0.82106276  1
  O  O40  1  0.22353439  0.66258986  0.00258782  1
  O  O41  1  0.02082212  0.26028183  0.08972246  1
  O  O42  1  0.12816349  0.06258446  0.30174438  1
  O  O43  1  0.06447080  0.93666790  0.10328378  1
  O  O44  1  0.13306811  0.53616930  0.22363370  1
  O  O45  1  0.19243994  0.28351005  0.40674054  1
  O  O46  1  0.15390804  0.80529950  0.29396929  1
  O  O47  1  0.21343409  0.07147556  0.53337882  1
  O  O48  1  0.28728743  0.57136061  0.46593582  1
  O  O49  1  0.34619870  0.30453768  0.70517263  1
  O  O50  1  0.30873679  0.78269254  0.59205492  1
  O  O51  1  0.36826213  0.03617356  0.77638346  1
  O  O52  1  0.36691731  0.56139524  0.69808122  1
  O  O53  1  0.43671126  0.43586583  0.89603179  1
  O  O54  1  0.47697028  0.76113331  0.91056394  1
  O  O55  1  0.27515420  0.16401036  0.99779737  1
  O  O56  1  0.32158341  0.33001777  0.17973503  1
  O  O57  1  0.38679230  0.08871608  0.21407830  1
  O  O58  1  0.41007796  0.58564769  0.26802450  1
  O  O59  1  0.39513100  0.84230816  0.16111913  1
  O  O60  1  0.46922536  0.34119057  0.44013301  1
  O  O61  1  0.53459078  0.10336963  0.63276041  1
  O  O62  1  0.47316622  0.92303283  0.38615468  1
  O  O63  1  0.53305376  0.65331214  0.57269900  1
  O  O64  1  0.60825461  0.13618724  0.86632480  1
  O  O65  1  0.58842621  0.41946025  0.73223403  1
  O  O66  1  0.59443192  0.90240011  0.77096570  1
  O  O67  1  0.69199063  0.67391083  0.83159171  1
  O  O68  1  0.71930555  0.85914040  0.99439654  1
  O  O69  1  0.52270529  0.23180159  0.08887382  1
  O  O70  1  0.56274828  0.56959692  0.10659777  1
  O  O71  1  0.61625285  0.42592988  0.29456956  1
  O  O72  1  0.62277782  0.97169816  0.21978916  1
  O  O73  1  0.69221519  0.21458538  0.41049967  1
  O  O74  1  0.66764964  0.67714517  0.30906899  1
  O  O75  1  0.71654005  0.43865601  0.52250945  1
  O  O76  1  0.79203551  0.93465423  0.46787409  1
  O  O77  1  0.84829716  0.19055027  0.69475098  1
  O  O78  1  0.81888913  0.71046843  0.59124368  1
  O  O79  1  0.87549543  0.47464309  0.78554103  1
  O  O80  1  0.93466679  0.06557477  0.89198701  1
  O  O81  1  0.87761168  0.93156979  0.69933253  1
  O  O82  1  0.97646621  0.73212654  0.91043375  1
  O  O83  1  0.77877089  0.35834238  0.00820786  1
  O  O84  1  0.80793407  0.17173745  0.17244737  1
  O  O85  1  0.89305192  0.63678918  0.13562795  1
  O  O86  1  0.90641582  0.40173475  0.23082165  1
  O  O87  1  0.91120608  0.91659351  0.26619831  1
  O  O88  1  0.96842232  0.16022039  0.43172825  1
  O  O89  1  0.97045211  0.59887612  0.36855098  1
