# generated using pymatgen
data_Li4Mn7(PO4)6
_symmetry_space_group_name_H-M   'P 1'
_cell_length_a   9.07241342
_cell_length_b   9.07241342
_cell_length_c   6.70955181
_cell_angle_alpha   80.90333506
_cell_angle_beta   99.09666494
_cell_angle_gamma   76.45134490
_symmetry_Int_Tables_number   1
_chemical_formula_structural   Li4Mn7(PO4)6
_chemical_formula_sum   'Li4 Mn7 P6 O24'
_cell_volume   519.06446071
_cell_formula_units_Z   1
loop_
 _symmetry_equiv_pos_site_id
 _symmetry_equiv_pos_as_xyz
  1  'x, y, z'
loop_
 _atom_site_type_symbol
 _atom_site_label
 _atom_site_symmetry_multiplicity
 _atom_site_fract_x
 _atom_site_fract_y
 _atom_site_fract_z
 _atom_site_occupancy
  Li  Li0  1  0.21214013  0.78785987  0.43941647  1
  Li  Li1  1  0.41375410  0.35597784  0.52069925  1
  Li  Li2  1  0.64402216  0.58624590  0.52069925  1
  Li  Li3  1  0.88431343  0.11568657  0.61426675  1
  Mn  Mn4  1  0.00470270  0.35743060  0.18646314  1
  Mn  Mn5  1  0.64256940  0.99529730  0.18646314  1
  Mn  Mn6  1  0.35708768  0.34248117  0.01739923  1
  Mn  Mn7  1  0.65751883  0.64291232  0.01739923  1
  Mn  Mn8  1  0.01088162  0.98911838  0.01466964  1
  Mn  Mn9  1  0.36435843  0.99687566  0.80526949  1
  Mn  Mn10  1  0.00312434  0.63564157  0.80526949  1
  P  P11  1  0.10770244  0.27790996  0.71119885  1
  P  P12  1  0.72209004  0.89229756  0.71119885  1
  P  P13  1  0.33019496  0.66980504  0.07770445  1
  P  P14  1  0.68797954  0.31202046  0.90239411  1
  P  P15  1  0.29161447  0.08432380  0.29379480  1
  P  P16  1  0.91567620  0.70838553  0.29379480  1
  O  O17  1  0.42068790  0.75391716  0.93607787  1
  O  O18  1  0.24608284  0.57931210  0.93607787  1
  O  O19  1  0.21023748  0.78976252  0.14832191  1
  O  O20  1  0.05501502  0.37934887  0.86845130  1
  O  O21  1  0.62065113  0.94498498  0.86845130  1
  O  O22  1  0.11083327  0.10240313  0.77494811  1
  O  O23  1  0.89759687  0.88916673  0.77494811  1
  O  O24  1  0.28373803  0.27448036  0.72208772  1
  O  O25  1  0.72551964  0.71626197  0.72208772  1
  O  O26  1  0.44691249  0.55308751  0.25848471  1
  O  O27  1  0.58104984  0.41895016  0.70543721  1
  O  O28  1  0.88549032  0.88613427  0.21168666  1
  O  O29  1  0.11386573  0.11450968  0.21168666  1
  O  O30  1  0.31524511  0.24828561  0.31291589  1
  O  O31  1  0.75171439  0.68475489  0.31291589  1
  O  O32  1  0.33347213  0.96098600  0.49533177  1
  O  O33  1  0.03901400  0.66652787  0.49533177  1
  O  O34  1  0.81386152  0.18613848  0.85390559  1
  O  O35  1  0.39015232  0.03089304  0.13386597  1
  O  O36  1  0.96910696  0.60984768  0.13386597  1
  O  O37  1  0.58974585  0.23498428  0.03932268  1
  O  O38  1  0.76501572  0.41025415  0.03932268  1
  O  O39  1  0.66179202  0.00152805  0.50034887  1
  O  O40  1  -0.00152805  0.33820798  0.50034887  1
