# generated using pymatgen
data_Li4V3P8O29
_symmetry_space_group_name_H-M   'P 1'
_cell_length_a   9.82163974
_cell_length_b   9.80098778
_cell_length_c   14.07767652
_cell_angle_alpha   90.19904387
_cell_angle_beta   90.01935359
_cell_angle_gamma   59.99148443
_symmetry_Int_Tables_number   1
_chemical_formula_structural   Li4V3P8O29
_chemical_formula_sum   'Li8 V6 P16 O58'
_cell_volume   1173.47813111
_cell_formula_units_Z   2
loop_
 _symmetry_equiv_pos_site_id
 _symmetry_equiv_pos_as_xyz
  1  'x, y, z'
loop_
 _atom_site_type_symbol
 _atom_site_label
 _atom_site_symmetry_multiplicity
 _atom_site_fract_x
 _atom_site_fract_y
 _atom_site_fract_z
 _atom_site_occupancy
  Li  Li0  1  0.91317675  0.31207252  0.55889283  1
  Li  Li1  1  0.77568556  0.31015477  0.05859692  1
  Li  Li2  1  0.32498930  0.90477811  0.06108679  1
  Li  Li3  1  0.68019984  0.22618823  0.44383844  1
  Li  Li4  1  0.32019138  0.77503047  0.55856469  1
  Li  Li5  1  0.22334451  0.67987883  0.94143488  1
  Li  Li6  1  0.08844816  0.68273249  0.43824037  1
  Li  Li7  1  0.09204416  0.22745490  0.94210484  1
  V  V8  1  0.56783073  0.43310088  0.24780180  1
  V  V9  1  0.43321329  0.56751202  0.75178408  1
  V  V10  1  0.56990462  0.99954813  0.74888689  1
  V  V11  1  0.43458069  0.00424502  0.25322436  1
  V  V12  1  0.99686235  0.57052183  0.24831828  1
  V  V13  1  0.00037231  0.43703165  0.74988738  1
  P  P14  1  0.91217159  0.77420081  0.83964014  1
  P  P15  1  0.76963738  0.91662254  0.34182587  1
  P  P16  1  0.91187702  0.31992820  0.34173189  1
  P  P17  1  0.66352423  0.66964790  0.12875180  1
  P  P18  1  0.66635804  0.66723438  0.62902897  1
  P  P19  1  0.76968289  0.32089127  0.84190230  1
  P  P20  1  0.67971745  0.23153193  0.66077658  1
  P  P21  1  0.31951455  0.91452040  0.84281488  1
  P  P22  1  0.68636532  0.08227367  0.15503967  1
  P  P23  1  0.31979533  0.77105264  0.33974116  1
  P  P24  1  0.22914180  0.68110410  0.15944250  1
  P  P25  1  0.33459174  0.33666860  0.37100614  1
  P  P26  1  0.33274939  0.33155879  0.87075717  1
  P  P27  1  0.08825608  0.68287625  0.65648430  1
  P  P28  1  0.23105736  0.08571233  0.65922367  1
  P  P29  1  0.08956353  0.23047675  0.16014460  1
  O  O30  1  0.01033526  0.74794372  0.56424451  1
  O  O31  1  0.91465850  0.74959849  0.34046387  1
  O  O32  1  0.76282840  0.00332964  0.06600824  1
  O  O33  1  0.74291669  0.91398443  0.83451660  1
  O  O34  1  0.90604056  0.61849419  0.82156361  1
  O  O35  1  0.80656577  0.67099839  0.17252898  1
  O  O36  1  0.90512774  0.47843512  0.32317195  1
  O  O37  1  0.00295544  0.23603121  0.07059608  1
  O  O38  1  0.91884404  0.33990886  0.83538934  1
  O  O39  1  0.66643658  0.81446393  0.67492115  1
  O  O40  1  0.61742549  0.90569950  0.32243896  1
  O  O41  1  0.81850858  0.51463524  0.67102070  1
  O  O42  1  0.65637596  0.65899842  0.02349727  1
  O  O43  1  0.67313835  0.66176244  0.52347613  1
  O  O44  1  0.66544098  0.51429996  0.17158543  1
  O  O45  1  0.47853522  0.90445336  0.82314005  1
  O  O46  1  0.50983601  0.81759917  0.16925274  1
  O  O47  1  0.74255270  0.34135124  0.33571458  1
  O  O48  1  0.79068121  0.21128382  0.75074997  1
  O  O49  1  0.75925892  0.23840859  0.57130432  1
  O  O50  1  0.76762326  0.24606990  0.93269022  1
  O  O51  1  0.62007905  0.48104793  0.82307989  1
  O  O52  1  0.51496565  0.67139218  0.66809478  1
  O  O53  1  0.65930318  0.25516316  0.16319650  1
  O  O54  1  0.47864679  0.61777383  0.32107370  1
  O  O55  1  0.34395107  0.91400939  0.33486716  1
  O  O56  1  0.79035114  -0.00004692  0.24868952  1
  O  O57  1  0.75521560  0.00974476  0.42819758  1
  O  O58  1  0.23510435  0.99415364  0.57418219  1
  O  O59  1  0.65964197  0.08485577  0.66659888  1
  O  O60  1  0.51987422  0.38077165  0.67659743  1
  O  O61  1  0.33633137  0.74878465  0.84145703  1
  O  O62  1  0.48749362  0.33230046  0.32799940  1
  O  O63  1  0.38191264  0.52132562  0.17806019  1
  O  O64  1  0.24407242  0.75512685  0.06993305  1
  O  O65  1  0.24501821  0.75826447  0.42948319  1
  O  O66  1  0.20891494  0.79191132  0.24983065  1
  O  O67  1  0.25510727  0.66234805  0.66274035  1
  O  O68  1  0.47745982  0.18466498  0.82397076  1
  O  O69  1  0.52515927  0.09114374  0.17723194  1
  O  O70  1  0.32720502  0.48522073  0.83397534  1
  O  O71  1  0.32596143  0.32635515  0.97617944  1
  O  O72  1  0.34667424  0.32762499  0.47634423  1
  O  O73  1  0.18630082  0.48743807  0.33412725  1
  O  O74  1  0.38366772  0.09209236  0.67578597  1
  O  O75  1  0.33597305  0.18668718  0.32466803  1
  O  O76  1  0.08678131  0.65747978  0.16399673  1
  O  O77  1  0.99468256  0.79439485  0.74484118  1
  O  O78  1  0.00464877  0.76243853  0.92517348  1
  O  O79  1  0.09813554  0.52151818  0.67938863  1
  O  O80  1  0.18076608  0.33059718  0.82828474  1
  O  O81  1  0.10329916  0.37671355  0.17692467  1
  O  O82  1  0.25539405  0.07995701  0.16272400  1
  O  O83  1  0.24458263  0.00083069  0.93370435  1
  O  O84  1  0.20662014  0.00717068  0.75491789  1
  O  O85  1  0.08536975  0.25553270  0.66102049  1
  O  O86  1  0.98776669  0.24480157  0.43284972  1
  O  O87  1  0.99937044  0.20964826  0.25055779  1
