# generated using pymatgen
data_Li6Mn2OF11
_symmetry_space_group_name_H-M   'P 1'
_cell_length_a   5.10698437
_cell_length_b   5.54054502
_cell_length_c   8.86631922
_cell_angle_alpha   85.94373677
_cell_angle_beta   73.26179861
_cell_angle_gamma   117.44350311
_symmetry_Int_Tables_number   1
_chemical_formula_structural   Li6Mn2OF11
_chemical_formula_sum   'Li6 Mn2 O1 F11'
_cell_volume   207.01063836
_cell_formula_units_Z   1
loop_
 _symmetry_equiv_pos_site_id
 _symmetry_equiv_pos_as_xyz
  1  'x, y, z'
loop_
 _atom_site_type_symbol
 _atom_site_label
 _atom_site_symmetry_multiplicity
 _atom_site_fract_x
 _atom_site_fract_y
 _atom_site_fract_z
 _atom_site_occupancy
  Li  Li0  1  0.14462035  0.34327824  0.06028681  1
  Li  Li1  1  0.36162893  0.40672176  0.68971319  1
  Li  Li2  1  0.63301030  0.60246283  0.33755734  1
  Li  Li3  1  0.86810481  0.14753717  0.41244266  1
  Li  Li4  1  0.81879063  0.61553325  0.93047829  1
  Li  Li5  1  0.63373567  0.13446675  0.81952171  1
  Mn  Mn6  1  0.16432573  0.89458688  0.56863840  1
  Mn  Mn7  1  0.33837725  0.85541312  0.18136160  1
  O  O8  1  0.41627705  0.87500000  0.37500000  1
  F  F9  1  0.08003164  0.02683323  0.21979624  1
  F  F10  1  0.07322098  0.54976252  0.70652901  1
  F  F11  1  0.55501735  0.64416955  0.13587028  1
  F  F12  1  0.24476790  0.26604322  0.47068591  1
  F  F13  1  0.26007834  0.78843739  0.98370232  1
  F  F14  1  0.77299364  0.72316677  0.53020376  1
  F  F15  1  0.72998846  0.20023748  0.04347099  1
  F  F16  1  0.45355901  0.37500000  0.87500000  1
  F  F17  1  0.54671808  0.10583045  0.61412972  1
  F  F18  1  0.94940959  0.48395678  0.27931409  1
  F  F19  1  0.95534327  0.96156261  0.76629768  1
