# generated using pymatgen
data_Li6MnV3(PO4)6
_symmetry_space_group_name_H-M   'P 1'
_cell_length_a   9.87114059
_cell_length_b   9.87431249
_cell_length_c   9.83602510
_cell_angle_alpha   85.99129163
_cell_angle_beta   92.85322536
_cell_angle_gamma   93.33568238
_symmetry_Int_Tables_number   1
_chemical_formula_structural   Li6MnV3(PO4)6
_chemical_formula_sum   'Li12 Mn2 V6 P12 O48'
_cell_volume   953.75234282
_cell_formula_units_Z   2
loop_
 _symmetry_equiv_pos_site_id
 _symmetry_equiv_pos_as_xyz
  1  'x, y, z'
loop_
 _atom_site_type_symbol
 _atom_site_label
 _atom_site_symmetry_multiplicity
 _atom_site_fract_x
 _atom_site_fract_y
 _atom_site_fract_z
 _atom_site_occupancy
  Li  Li0  1  0.00764322  0.50904131  0.26589811  1
  Li  Li1  1  0.95361933  0.24168500  0.38410288  1
  Li  Li2  1  0.22956273  0.56438471  0.47072195  1
  Li  Li3  1  0.20365204  0.72031856  0.16225882  1
  Li  Li4  1  0.23829894  0.94462393  0.61879195  1
  Li  Li5  1  0.37217309  0.74618878  0.84004607  1
  Li  Li6  1  0.51172835  0.01909902  0.72054093  1
  Li  Li7  1  0.57234057  0.23913374  0.52828876  1
  Li  Li8  1  0.67121639  0.90793663  0.97897566  1
  Li  Li9  1  0.73445935  0.21882974  0.82186729  1
  Li  Li10  1  0.75513342  0.37914380  0.16470361  1
  Li  Li11  1  0.90457047  0.67643983  0.01893819  1
  Mn  Mn12  1  0.53078316  0.53346165  0.49346468  1
  Mn  Mn13  1  0.97314852  0.75722159  0.72885692  1
  V  V14  1  0.03094616  0.25431116  0.77653616  1
  V  V15  1  0.25323587  0.24932659  0.99539293  1
  V  V16  1  0.25497468  0.02882989  0.21809767  1
  V  V17  1  0.46979325  0.46723817  0.00130658  1
  V  V18  1  0.75393132  0.96298620  0.28169564  1
  V  V19  1  0.75212384  0.75041651  0.50779676  1
  P  P20  1  0.05193027  0.81727079  0.39754743  1
  P  P21  1  0.16750693  0.95119778  0.90705254  1
  P  P22  1  0.15418629  0.54979718  0.93270733  1
  P  P23  1  0.32576385  0.33902449  0.29953272  1
  P  P24  1  0.34872429  0.32667447  0.69665993  1
  P  P25  1  0.45126986  0.84665518  0.43220438  1
  P  P26  1  0.55605437  0.15274091  0.06949500  1
  P  P27  1  0.64439288  0.68603778  0.80470742  1
  P  P28  1  0.67720253  0.64901049  0.20444287  1
  P  P29  1  0.83848857  0.44855954  0.57187336  1
  P  P30  1  0.82271766  0.05504665  0.59109280  1
  P  P31  1  0.95190123  0.16913214  0.09623721  1
  O  O32  1  0.02523345  0.88608482  0.88805575  1
  O  O33  1  0.09032232  0.82523064  0.54971775  1
  O  O34  1  0.11087371  0.61632333  0.79510174  1
  O  O35  1  0.11098900  0.94964809  0.32065796  1
  O  O36  1  0.10223948  0.69036319  0.33789391  1
  O  O37  1  0.12485569  0.39035553  0.92664968  1
  O  O38  1  0.08194438  0.59666563  0.05567094  1
  O  O39  1  0.11280399  0.15817189  0.12096174  1
  O  O40  1  0.16862646  0.11081372  0.87308056  1
  O  O41  1  0.19202731  0.31324916  0.67389825  1
  O  O42  1  0.21407928  0.91853733  0.06364736  1
  O  O43  1  0.20803391  0.41104332  0.34921099  1
  O  O44  1  0.27203679  0.90239439  0.81479636  1
  O  O45  1  0.31110839  0.58718886  0.95759838  1
  O  O46  1  0.29967730  0.17702772  0.31945184  1
  O  O47  1  0.33254359  0.37164266  0.13953725  1
  O  O48  1  0.38270317  0.90290107  0.29439799  1
  O  O49  1  0.41026294  0.91671640  0.55466462  1
  O  O50  1  0.38221503  0.33420765  0.85703921  1
  O  O51  1  0.39014880  0.46690188  0.62176543  1
  O  O52  1  0.41205718  0.69003734  0.43952996  1
  O  O53  1  0.42270135  0.20824789  0.65103015  1
  O  O54  1  0.39610246  0.12250286  0.07550267  1
  O  O55  1  0.46496676  0.36934929  0.36974031  1
  O  O56  1  0.56378140  0.80451050  0.84673166  1
  O  O57  1  0.54239926  0.59269563  0.14421106  1
  O  O58  1  0.58286618  0.54641469  0.86084959  1
  O  O59  1  0.61018571  0.87616125  0.41914081  1
  O  O60  1  0.62282589  0.68144075  0.64489587  1
  O  O61  1  0.60653421  0.09555061  0.94147294  1
  O  O62  1  0.59064277  0.31029659  0.06766445  1
  O  O63  1  0.61746450  0.08638202  0.20259313  1
  O  O64  1  0.66835064  0.62509588  0.36689976  1
  O  O65  1  0.69787121  0.80469295  0.16263299  1
  O  O66  1  0.67983574  0.41506930  0.55942314  1
  O  O67  1  0.69727490  0.11230545  0.64844921  1
  O  O68  1  0.79487802  0.70230464  0.85193233  1
  O  O69  1  0.82224220  0.89828575  0.62708141  1
  O  O70  1  0.80104755  0.57468219  0.16563213  1
  O  O71  1  0.82448501  0.08550945  0.43156054  1
  O  O72  1  0.87176475  0.60610837  0.58216666  1
  O  O73  1  0.89207175  0.82223614  0.37027712  1
  O  O74  1  0.88186838  0.37512858  0.71076032  1
  O  O75  1  0.91698814  0.20391743  0.94177064  1
  O  O76  1  0.91005711  0.40646389  0.44919800  1
  O  O77  1  0.88216239  0.03052815  0.13702490  1
  O  O78  1  0.91490421  0.28171012  0.18553308  1
  O  O79  1  0.95827291  0.11793576  0.65066492  1
