# generated using pymatgen
data_Li4Mn2Fe3Sb3O16
_symmetry_space_group_name_H-M   'P 1'
_cell_length_a   6.15670689
_cell_length_b   6.16928469
_cell_length_c   9.92492307
_cell_angle_alpha   90.08431941
_cell_angle_beta   89.97885098
_cell_angle_gamma   120.10700557
_symmetry_Int_Tables_number   1
_chemical_formula_structural   Li4Mn2Fe3Sb3O16
_chemical_formula_sum   'Li4 Mn2 Fe3 Sb3 O16'
_cell_volume   326.11537051
_cell_formula_units_Z   1
loop_
 _symmetry_equiv_pos_site_id
 _symmetry_equiv_pos_as_xyz
  1  'x, y, z'
loop_
 _atom_site_type_symbol
 _atom_site_label
 _atom_site_symmetry_multiplicity
 _atom_site_fract_x
 _atom_site_fract_y
 _atom_site_fract_z
 _atom_site_occupancy
  Li  Li0  1  0.32292934  0.66150538  0.88122913  1
  Li  Li1  1  0.98078167  0.99018701  0.99454604  1
  Li  Li2  1  0.98869256  0.99422914  0.50192150  1
  Li  Li3  1  0.65069547  0.32540235  0.39622810  1
  Mn  Mn4  1  0.34913215  0.67464069  0.50193674  1
  Mn  Mn5  1  0.69171369  0.34585433  0.98291745  1
  Fe  Fe6  1  0.66710026  0.83353543  0.21631979  1
  Fe  Fe7  1  0.82902650  0.66462296  0.71386092  1
  Fe  Fe8  1  0.82936864  0.16471104  0.71368398  1
  Sb  Sb9  1  0.17391394  0.83296872  0.21453950  1
  Sb  Sb10  1  0.17382741  0.34071783  0.21456078  1
  Sb  Sb11  1  0.33751212  0.16902635  0.71639681  1
  O  O12  1  0.16161881  0.84892627  0.60609544  1
  O  O13  1  0.02842906  0.51435954  0.33184977  1
  O  O14  1  0.31678987  0.65823431  0.09896154  1
  O  O15  1  0.02232136  0.01101894  0.31861185  1
  O  O16  1  0.00493020  0.00265881  0.81489616  1
  O  O17  1  0.16141497  0.31249404  0.60603496  1
  O  O18  1  0.47278944  0.97036104  0.33001303  1
  O  O19  1  0.47272205  0.50264040  0.33003098  1
  O  O20  1  0.32092977  0.16018889  0.09835487  1
  O  O21  1  0.68746259  0.84374691  0.60688605  1
  O  O22  1  0.51024336  0.47834139  0.83413558  1
  O  O23  1  0.51080636  0.03345424  0.83468041  1
  O  O24  1  0.65928798  0.32948925  0.60482321  1
  O  O25  1  0.86161136  0.68829752  0.10313703  1
  O  O26  1  0.95177857  0.47613326  0.83776932  1
  O  O27  1  0.86216949  0.17255598  0.10341904  1
