# generated using pymatgen
data_Li3CoPCO7
_symmetry_space_group_name_H-M   'P 1'
_cell_length_a   8.45538833
_cell_length_b   9.96561309
_cell_length_c   6.44942849
_cell_angle_alpha   89.67568142
_cell_angle_beta   90.33637702
_cell_angle_gamma   84.83414140
_symmetry_Int_Tables_number   1
_chemical_formula_structural   Li3CoPCO7
_chemical_formula_sum   'Li12 Co4 P4 C4 O28'
_cell_volume   541.22187772
_cell_formula_units_Z   4
loop_
 _symmetry_equiv_pos_site_id
 _symmetry_equiv_pos_as_xyz
  1  'x, y, z'
loop_
 _atom_site_type_symbol
 _atom_site_label
 _atom_site_symmetry_multiplicity
 _atom_site_fract_x
 _atom_site_fract_y
 _atom_site_fract_z
 _atom_site_occupancy
  Li  Li0  1  0.09141421  0.38394672  0.25570959  1
  Li  Li1  1  0.09895047  0.88194102  0.25593529  1
  Li  Li2  1  0.28144964  0.12416129  0.47796479  1
  Li  Li3  1  0.27441131  0.62681707  0.01841085  1
  Li  Li4  1  0.27694125  0.62493261  0.47444406  1
  Li  Li5  1  0.65904281  0.10672443  0.25027800  1
  Li  Li6  1  0.72400299  0.36525951  0.51356250  1
  Li  Li7  1  0.72197615  0.36476995  0.98633370  1
  Li  Li8  1  0.72408463  0.88702110  0.51163788  1
  Li  Li9  1  0.72592003  0.88511170  0.99364040  1
  Li  Li10  1  0.89110774  0.10906672  0.74946280  1
  Li  Li11  1  0.89841062  0.61544932  0.74903293  1
  Co  Co12  1  0.26797073  0.12840302  0.01360005  1
  Co  Co13  1  0.33607529  0.39673957  0.74964279  1
  Co  Co14  1  0.33824402  0.89143940  0.74427044  1
  Co  Co15  1  0.66785207  0.60508572  0.24913720  1
  P  P16  1  0.41008198  0.36167289  0.24692842  1
  P  P17  1  0.41756614  0.86117636  0.25034908  1
  P  P18  1  0.59025355  0.13919315  0.75352457  1
  P  P19  1  0.58747774  0.63774120  0.74882248  1
  C  C20  1  0.03943375  0.34684878  0.75638221  1
  C  C21  1  0.03844736  0.85072997  0.75281127  1
  C  C22  1  0.96229009  0.14903535  0.24753564  1
  C  C23  1  0.96141574  0.65151869  0.24945888  1
  O  O24  1  0.07184838  0.47036636  0.74868513  1
  O  O25  1  0.11435057  0.18113001  0.23998742  1
  O  O26  1  0.07360405  0.97521398  0.75120595  1
  O  O27  1  0.16219110  0.25352548  0.76272101  1
  O  O28  1  0.10781772  0.68168191  0.25143093  1
  O  O29  1  0.15567394  0.75572187  0.75787447  1
  O  O30  1  0.30628779  0.41979618  0.06138306  1
  O  O31  1  0.30698994  0.41030005  0.43662505  1
  O  O32  1  0.31265945  0.91837931  0.06029326  1
  O  O33  1  0.30894819  0.91283043  0.43417578  1
  O  O34  1  0.41930228  0.08700739  0.75667638  1
  O  O35  1  0.42532858  0.20435232  0.23545765  1
  O  O36  1  0.42011816  0.58683419  0.74584940  1
  O  O37  1  0.43086938  0.70408759  0.24457132  1
  O  O38  1  0.56508703  0.29711867  0.75344217  1
  O  O39  1  0.57777426  0.41076191  0.25213666  1
  O  O40  1  0.56654432  0.79512483  0.75035389  1
  O  O41  1  0.58107086  0.91319131  0.25314609  1
  O  O42  1  0.69209589  0.08871884  0.94155405  1
  O  O43  1  0.68398046  0.08992411  0.56045929  1
  O  O44  1  0.69159701  0.58594775  0.56219995  1
  O  O45  1  0.69113669  0.58382033  0.93700220  1
  O  O46  1  0.85447334  0.24782185  0.25523325  1
  O  O47  1  0.89689672  0.31107080  0.75379475  1
  O  O48  1  0.84513386  0.74651640  0.24510868  1
  O  O49  1  0.93466782  0.02573931  0.24924833  1
  O  O50  1  0.89295042  0.82023998  0.74818879  1
  O  O51  1  0.92578247  0.52799027  0.25231927  1
