# generated using pymatgen
data_Li2FeO2
_symmetry_space_group_name_H-M   'P 1'
_cell_length_a   3.15210554
_cell_length_b   3.21522096
_cell_length_c   10.50154854
_cell_angle_alpha   87.83488252
_cell_angle_beta   90.00000000
_cell_angle_gamma   119.35273531
_symmetry_Int_Tables_number   1
_chemical_formula_structural   Li2FeO2
_chemical_formula_sum   'Li4 Fe2 O4'
_cell_volume   92.67935583
_cell_formula_units_Z   2
loop_
 _symmetry_equiv_pos_site_id
 _symmetry_equiv_pos_as_xyz
  1  'x, y, z'
loop_
 _atom_site_type_symbol
 _atom_site_label
 _atom_site_symmetry_multiplicity
 _atom_site_fract_x
 _atom_site_fract_y
 _atom_site_fract_z
 _atom_site_occupancy
  Li  Li0  1  0.33138906  0.66285493  0.31796201  1
  Li  Li1  1  0.33138906  0.66285493  0.81796201  1
  Li  Li2  1  0.66853413  0.33714507  0.18203799  1
  Li  Li3  1  0.66853413  0.33714507  0.68203799  1
  Fe  Fe4  1  0.99995960  -0.00000000  -0.00000000  1
  Fe  Fe5  1  0.99995960  -0.00000000  0.50000000  1
  O  O6  1  0.34522748  0.69053775  0.12072636  1
  O  O7  1  0.34522748  0.69053775  0.62072636  1
  O  O8  1  0.65468973  0.30946225  0.37927364  1
  O  O9  1  0.65468973  0.30946225  0.87927364  1
