# generated using pymatgen
data_Li12Mn3NiP4(CO7)4
_symmetry_space_group_name_H-M   'P 1'
_cell_length_a   8.51523380
_cell_length_b   9.99107484
_cell_length_c   6.58180631
_cell_angle_alpha   90.00000000
_cell_angle_beta   90.00000000
_cell_angle_gamma   85.51169953
_symmetry_Int_Tables_number   1
_chemical_formula_structural   Li12Mn3NiP4(CO7)4
_chemical_formula_sum   'Li12 Mn3 Ni1 P4 C4 O28'
_cell_volume   558.23878180
_cell_formula_units_Z   1
loop_
 _symmetry_equiv_pos_site_id
 _symmetry_equiv_pos_as_xyz
  1  'x, y, z'
loop_
 _atom_site_type_symbol
 _atom_site_label
 _atom_site_symmetry_multiplicity
 _atom_site_fract_x
 _atom_site_fract_y
 _atom_site_fract_z
 _atom_site_occupancy
  Li  Li0  1  0.09223508  0.38056194  0.25000000  1
  Li  Li1  1  0.09602813  0.88114012  0.25000000  1
  Li  Li2  1  0.27306665  0.12310366  0.02583527  1
  Li  Li3  1  0.27306665  0.12310366  0.47416473  1
  Li  Li4  1  0.27436267  0.62374952  0.02582938  1
  Li  Li5  1  0.27436267  0.62374952  0.47417062  1
  Li  Li6  1  0.72709851  0.37811904  0.52525818  1
  Li  Li7  1  0.72709851  0.37811904  0.97474182  1
  Li  Li8  1  0.72624763  0.87538101  0.52486222  1
  Li  Li9  1  0.72624763  0.87538101  0.97513778  1
  Li  Li10  1  0.90660683  0.11962448  0.75000000  1
  Li  Li11  1  0.90698541  0.62011621  0.75000000  1
  Mn  Mn12  1  0.34029607  0.38877187  0.75000000  1
  Mn  Mn13  1  0.34049241  0.88842826  0.75000000  1
  Mn  Mn14  1  0.66018056  0.11113208  0.25000000  1
  Ni  Ni15  1  0.66683609  0.60342632  0.25000000  1
  P  P16  1  0.40989259  0.36372509  0.25000000  1
  P  P17  1  0.41362331  0.85813750  0.25000000  1
  P  P18  1  0.59090741  0.13944838  0.75000000  1
  P  P19  1  0.59032214  0.64008610  0.75000000  1
  C  C20  1  0.03264060  0.35129962  0.75000000  1
  C  C21  1  0.03283652  0.85128084  0.75000000  1
  C  C22  1  0.96730453  0.14837862  0.25000000  1
  C  C23  1  0.96061403  0.64842317  0.25000000  1
  O  O24  1  0.06997636  0.47421994  0.75000000  1
  O  O25  1  0.11379349  0.17803310  0.25000000  1
  O  O26  1  0.07052442  0.97418583  0.75000000  1
  O  O27  1  0.14420999  0.25384533  0.75000000  1
  O  O28  1  0.10664635  0.67842393  0.25000000  1
  O  O29  1  0.14419450  0.75371840  0.75000000  1
  O  O30  1  0.30897375  0.41631303  0.06598470  1
  O  O31  1  0.30897375  0.41631303  0.43401530  1
  O  O32  1  0.31091599  0.91113129  0.06678679  1
  O  O33  1  0.31091599  0.91113129  0.43321321  1
  O  O34  1  0.42030448  0.09469053  0.75000000  1
  O  O35  1  0.42520474  0.20667609  0.25000000  1
  O  O36  1  0.41988258  0.59513892  0.75000000  1
  O  O37  1  0.43350023  0.70069615  0.25000000  1
  O  O38  1  0.57738281  0.29665039  0.75000000  1
  O  O39  1  0.57932424  0.41136976  0.25000000  1
  O  O40  1  0.57743044  0.79714055  0.75000000  1
  O  O41  1  0.58032311  0.90882798  0.25000000  1
  O  O42  1  0.69050624  0.08521061  0.93391499  1
  O  O43  1  0.69050624  0.08521061  0.56608501  1
  O  O44  1  0.68903120  0.58630992  0.56355376  1
  O  O45  1  0.68903120  0.58630992  0.93644624  1
  O  O46  1  0.85605540  0.24592885  0.25000000  1
  O  O47  1  0.88660985  0.32198895  0.75000000  1
  O  O48  1  0.84626743  0.74311035  0.25000000  1
  O  O49  1  0.93051377  0.02552494  0.25000000  1
  O  O50  1  0.88681198  0.82205580  0.75000000  1
  O  O51  1  0.92283688  0.52515844  0.25000000  1
