# generated using pymatgen
data_Li3MnV(PO4)3
_symmetry_space_group_name_H-M   'P 1'
_cell_length_a   8.68140068
_cell_length_b   8.65611174
_cell_length_c   15.13305375
_cell_angle_alpha   105.30834794
_cell_angle_beta   90.46886845
_cell_angle_gamma   61.14214160
_symmetry_Int_Tables_number   1
_chemical_formula_structural   Li3MnV(PO4)3
_chemical_formula_sum   'Li12 Mn4 V4 P12 O48'
_cell_volume   951.03051985
_cell_formula_units_Z   4
loop_
 _symmetry_equiv_pos_site_id
 _symmetry_equiv_pos_as_xyz
  1  'x, y, z'
loop_
 _atom_site_type_symbol
 _atom_site_label
 _atom_site_symmetry_multiplicity
 _atom_site_fract_x
 _atom_site_fract_y
 _atom_site_fract_z
 _atom_site_occupancy
  Li  Li0  1  0.30204046  0.75299300  0.31750886  1
  Li  Li1  1  0.18459737  0.71572396  0.54925051  1
  Li  Li2  1  0.68569760  0.71556117  0.05415949  1
  Li  Li3  1  0.17242698  0.25669591  0.18934585  1
  Li  Li4  1  0.21327927  0.67775279  0.83002225  1
  Li  Li5  1  0.71228162  0.68024040  0.33120115  1
  Li  Li6  1  0.27058566  0.22204773  0.63624930  1
  Li  Li7  1  0.76476263  0.22532565  0.13439519  1
  Li  Li8  1  0.81638136  0.74317654  0.81375552  1
  Li  Li9  1  0.67918070  0.24422190  0.68808908  1
  Li  Li10  1  0.36268899  0.18129417  0.97814100  1
  Li  Li11  1  0.85721550  0.17968158  0.47903716  1
  Mn  Mn12  1  0.28192303  0.86308882  0.07392673  1
  Mn  Mn13  1  0.03411082  0.34827159  0.81804414  1
  Mn  Mn14  1  0.78199874  0.85443536  0.57166797  1
  Mn  Mn15  1  0.72314297  0.13745667  0.92363326  1
  V  V16  1  0.47333612  0.63698251  0.68052282  1
  V  V17  1  0.53141842  0.35728407  0.31967344  1
  V  V18  1  0.21507847  0.13856158  0.42425077  1
  V  V19  1  0.97153414  0.64603735  0.18103430  1
  P  P20  1  0.01150764  0.94305314  0.73207768  1
  P  P21  1  0.51074684  0.95513344  0.23516847  1
  P  P22  1  0.02225341  0.25737886  0.02294297  1
  P  P23  1  0.10206236  0.53800782  0.37459567  1
  P  P24  1  0.40021293  0.46082508  0.12379665  1
  P  P25  1  0.48021108  0.74823272  0.47676884  1
  P  P26  1  0.52091312  0.25096407  0.52407084  1
  P  P27  1  0.60761242  0.53052443  0.87560722  1
  P  P28  1  0.90343652  0.45207380  0.62449646  1
  P  P29  1  0.97657809  0.76391158  0.97863492  1
  P  P30  1  0.48309480  0.04123695  0.76597287  1
  P  P31  1  0.98406559  0.04615691  0.26491895  1
  O  O32  1  0.02313390  0.84493512  0.24115932  1
  O  O33  1  0.45887372  0.91650243  0.13533273  1
  O  O34  1  0.39837337  0.93972360  0.30806539  1
  O  O35  1  0.01613258  0.67717411  0.47019308  1
  O  O36  1  0.29928376  0.91001215  0.46834178  1
  O  O37  1  0.34955865  0.65709350  0.12372205  1
  O  O38  1  0.23200633  0.45113262  0.14887477  1
  O  O39  1  0.26963434  0.54868688  0.34886880  1
  O  O40  1  0.20625888  0.78604489  0.72455942  1
  O  O41  1  0.70411241  0.79640415  0.22761595  1
  O  O42  1  0.20605113  0.10226519  0.03807960  1
  O  O43  1  0.15685411  0.33782869  0.36965664  1
  O  O44  1  0.09658552  0.06793102  0.19623420  1
  O  O45  1  0.00869607  0.29436680  0.53439487  1
  O  O46  1  0.12553396  0.81486282  0.99425480  1
  O  O47  1  0.43639885  0.68658963  0.55508847  1
  O  O48  1  0.49937181  0.30628018  0.03284884  1
  O  O49  1  0.02774856  0.41752993  0.70140946  1
  O  O50  1  0.04219156  0.61768771  0.88239128  1
  O  O51  1  0.62686815  0.80289639  0.49143624  1
  O  O52  1  0.93039530  0.70204599  0.05637316  1
  O  O53  1  0.02706839  0.08849713  0.36614487  1
  O  O54  1  0.52598515  0.42206543  0.19946620  1
  O  O55  1  0.55363482  0.59567576  0.38077066  1
  O  O56  1  0.51725175  0.84152737  0.73956366  1
  O  O57  1  0.48771981  0.14815303  0.25872221  1
  O  O58  1  0.44490605  0.41078602  0.61647848  1
  O  O59  1  0.94389586  0.42093259  0.11367969  1
  O  O60  1  0.95860203  0.90520245  0.63208757  1
  O  O61  1  0.47555264  0.58056056  0.80371534  1
  O  O62  1  0.07529537  0.30456167  0.94059781  1
  O  O63  1  0.38050585  0.18935875  0.50877982  1
  O  O64  1  0.97087014  0.58327741  0.30189830  1
  O  O65  1  0.56791955  0.30492349  0.44313025  1
  O  O66  1  0.88000415  0.19859647  0.00824791  1
  O  O67  1  0.90061689  0.92428091  0.80365524  1
  O  O68  1  0.52589170  0.66916908  0.97157894  1
  O  O69  1  0.79221421  0.93385653  0.97616231  1
  O  O70  1  0.85161861  0.64653427  0.62225178  1
  O  O71  1  0.28666935  0.18564829  0.76371245  1
  O  O72  1  0.78895078  0.18548182  0.26199718  1
  O  O73  1  0.73687786  0.43884267  0.64716530  1
  O  O74  1  0.77856588  0.53618211  0.84860759  1
  O  O75  1  0.70625685  0.09481461  0.53663708  1
  O  O76  1  0.65624548  0.32961154  0.86751242  1
  O  O77  1  0.59165159  0.06206024  0.69421305  1
  O  O78  1  0.53168772  0.07891157  0.86531323  1
  O  O79  1  0.98609992  0.13599088  0.75504847  1
