# generated using pymatgen
data_AsPbO4
_symmetry_space_group_name_H-M   'P 1'
_cell_length_a   4.98530144
_cell_length_b   6.07059082
_cell_length_c   6.00888604
_cell_angle_alpha   90.00000000
_cell_angle_beta   90.00000000
_cell_angle_gamma   93.68758023
_symmetry_Int_Tables_number   1
_chemical_formula_structural   AsPbO4
_chemical_formula_sum   'As2 Pb2 O8'
_cell_volume   181.47476768
_cell_formula_units_Z   2
loop_
 _symmetry_equiv_pos_site_id
 _symmetry_equiv_pos_as_xyz
  1  'x, y, z'
loop_
 _atom_site_type_symbol
 _atom_site_label
 _atom_site_symmetry_multiplicity
 _atom_site_fract_x
 _atom_site_fract_y
 _atom_site_fract_z
 _atom_site_occupancy
  As  As0  1  -0.00000000  0.75000000  0.74369429  1
  As  As1  1  -0.00000000  0.25000000  0.25630571  1
  Pb  Pb2  1  0.50000000  0.75000000  0.27056488  1
  Pb  Pb3  1  0.50000000  0.25000000  0.72943512  1
  O  O4  1  0.81949812  0.92484859  0.91044292  1
  O  O5  1  0.18050188  0.07515141  0.08955708  1
  O  O6  1  0.18050188  0.57515141  0.91044292  1
  O  O7  1  0.81949812  0.42484859  0.08955708  1
  O  O8  1  0.75864581  0.60476111  0.59029371  1
  O  O9  1  0.24135419  0.39523889  0.40970629  1
  O  O10  1  0.24135419  0.89523889  0.59029371  1
  O  O11  1  0.75864581  0.10476111  0.40970629  1
