# generated using pymatgen
data_Li3MnV(PO4)3
_symmetry_space_group_name_H-M   'P 1'
_cell_length_a   8.70105155
_cell_length_b   8.57711535
_cell_length_c   8.69378902
_cell_angle_alpha   89.42556876
_cell_angle_beta   60.95457161
_cell_angle_gamma   61.17233861
_symmetry_Int_Tables_number   1
_chemical_formula_structural   Li3MnV(PO4)3
_chemical_formula_sum   'Li6 Mn2 V2 P6 O24'
_cell_volume   475.18288584
_cell_formula_units_Z   2
loop_
 _symmetry_equiv_pos_site_id
 _symmetry_equiv_pos_as_xyz
  1  'x, y, z'
loop_
 _atom_site_type_symbol
 _atom_site_label
 _atom_site_symmetry_multiplicity
 _atom_site_fract_x
 _atom_site_fract_y
 _atom_site_fract_z
 _atom_site_occupancy
  Li  Li0  1  0.62886739  0.71306315  0.10857369  1
  Li  Li1  1  0.38292643  0.67760822  0.65600681  1
  Li  Li2  1  0.62605963  0.21998256  0.26776692  1
  Li  Li3  1  0.98228680  0.75422088  0.63368831  1
  Li  Li4  1  0.98242392  0.25269695  0.37880844  1
  Li  Li5  1  0.38667846  0.17600435  0.95895948  1
  Mn  Mn6  1  0.20818906  0.85993366  0.14605861  1
  Mn  Mn7  1  0.80127359  0.13639872  0.84582525  1
  V  V8  1  0.21172259  0.35649009  0.64053418  1
  V  V9  1  0.79297861  0.64260433  0.36078915  1
  P  P10  1  0.28066003  0.94971701  0.46692350  1
  P  P11  1  0.27802323  0.45753727  0.24738226  1
  P  P12  1  0.99590570  0.25372429  0.04938523  1
  P  P13  1  0.72812383  0.53517437  0.75072720  1
  P  P14  1  0.00072657  0.75452984  0.95353785  1
  P  P15  1  0.72042658  0.04527366  0.53097912  1
  O  O16  1  0.32383597  0.91694130  0.26916895  1
  O  O17  1  0.10443925  0.92564523  0.60893714  1
  O  O18  1  0.22931365  0.65531744  0.24494911  1
  O  O19  1  0.08716596  0.44766993  0.29266403  1
  O  O20  1  0.48508724  0.79204765  0.44830554  1
  O  O21  1  0.16824433  0.09509833  0.07450760  1
  O  O22  1  0.46966174  0.30087901  0.06934316  1
  O  O23  1  0.13286452  0.80652052  0.98478884  1
  O  O24  1  0.87432354  0.69652225  0.10963164  1
  O  O25  1  0.32338120  0.42253613  0.40186135  1
  O  O26  1  0.16512911  0.60156362  0.76329744  1
  O  O27  1  0.78520339  0.84162633  0.47891641  1
  O  O28  1  0.23002151  0.14594557  0.51948284  1
  O  O29  1  0.83114182  0.41414686  0.23179750  1
  O  O30  1  0.67055323  0.58077026  0.60450327  1
  O  O31  1  0.12392739  0.30599833  0.88741241  1
  O  O32  1  0.86766979  0.19407761  0.02074910  1
  O  O33  1  0.55008184  0.67177446  0.94136229  1
  O  O34  1  0.82720540  0.92061873  0.93675825  1
  O  O35  1  0.52609918  0.18579395  0.52770982  1
  O  O36  1  0.92192413  0.54424563  0.69706247  1
  O  O37  1  0.78903956  0.33074252  0.73579690  1
  O  O38  1  0.89960861  0.06681498  0.39302440  1
  O  O39  1  0.66880423  0.08065804  0.73102154  1
