# generated using pymatgen
data_Li3V5P7O29
_symmetry_space_group_name_H-M   'P 1'
_cell_length_a   6.36032066
_cell_length_b   10.41595513
_cell_length_c   19.27307561
_cell_angle_alpha   89.28212927
_cell_angle_beta   84.76948731
_cell_angle_gamma   72.67397825
_symmetry_Int_Tables_number   1
_chemical_formula_structural   Li3V5P7O29
_chemical_formula_sum   'Li6 V10 P14 O58'
_cell_volume   1213.66460521
_cell_formula_units_Z   2
loop_
 _symmetry_equiv_pos_site_id
 _symmetry_equiv_pos_as_xyz
  1  'x, y, z'
loop_
 _atom_site_type_symbol
 _atom_site_label
 _atom_site_symmetry_multiplicity
 _atom_site_fract_x
 _atom_site_fract_y
 _atom_site_fract_z
 _atom_site_occupancy
  Li  Li0  1  0.31369567  0.09465316  0.49638204  1
  Li  Li1  1  0.34741262  0.38714993  0.75129065  1
  Li  Li2  1  0.18148998  0.66927051  0.84513732  1
  Li  Li3  1  0.89685003  0.88422879  0.07023054  1
  Li  Li4  1  0.86118849  0.32745549  0.13673429  1
  Li  Li5  1  0.65649211  0.60539416  0.24800070  1
  V  V6  1  0.07849153  0.04298541  0.65268300  1
  V  V7  1  0.32933334  0.31224510  0.01708975  1
  V  V8  1  0.40426717  0.14101561  0.16405531  1
  V  V9  1  0.08720106  0.75349431  0.19984041  1
  V  V10  1  0.20920689  0.36433386  0.39330522  1
  V  V11  1  0.79807018  0.64111505  0.60333622  1
  V  V12  1  0.91445246  0.24511319  0.80585047  1
  V  V13  1  0.60508371  0.85960425  0.83134933  1
  V  V14  1  0.65742034  0.69262366  0.98345295  1
  V  V15  1  0.92479927  0.96038247  0.35013782  1
  P  P16  1  0.14351781  0.43396100  0.22723308  1
  P  P17  1  0.04429817  0.68348626  0.45263808  1
  P  P18  1  0.17298798  0.64351673  0.02693666  1
  P  P19  1  0.38793530  0.04609673  0.33716723  1
  P  P20  1  0.25880096  0.72201837  0.57560012  1
  P  P21  1  0.42473751  0.20222074  0.84880691  1
  P  P22  1  0.08455297  0.91866934  0.80658048  1
  P  P23  1  0.91715759  0.08166526  0.19263559  1
  P  P24  1  0.57560687  0.79568238  0.15332453  1
  P  P25  1  0.75153196  0.28182258  0.42129838  1
  P  P26  1  0.61935469  0.95490474  0.65991780  1
  P  P27  1  0.82207880  0.36274643  0.97517030  1
  P  P28  1  0.96344152  0.31794299  0.54455803  1
  P  P29  1  0.86538861  0.56365289  0.76958659  1
  O  O30  1  0.01230328  0.30097153  0.02212374  1
  O  O31  1  0.08593628  0.15581982  0.16556203  1
  O  O32  1  0.00532989  0.06110633  0.83699209  1
  O  O33  1  0.06667380  0.17307404  0.56867064  1
  O  O34  1  0.17950396  0.49560701  0.04081765  1
  O  O35  1  0.14315224  0.34502312  0.49022292  1
  O  O36  1  0.38686202  0.10219949  0.26260929  1
  O  O37  1  0.30124880  0.33458290  0.17270314  1
  O  O38  1  0.41049441  0.16654653  0.06654936  1
  O  O39  1  0.15406482  0.71840381  0.09673815  1
  O  O40  1  0.01269999  0.81816668  0.28366569  1
  O  O41  1  0.31694802  0.15837953  0.39414340  1
  O  O42  1  0.12844289  0.56844912  0.39943820  1
  O  O43  1  0.20519902  0.56559843  0.22052763  1
  O  O44  1  0.22776213  0.37721494  0.29924009  1
  O  O45  1  0.21881615  0.25788537  0.80725218  1
  O  O46  1  0.10362840  0.65176641  0.61362818  1
  O  O47  1  0.10845175  0.55147023  0.77605658  1
  O  O48  1  0.38826534  0.04579292  0.64618138  1
  O  O49  1  0.25014873  0.69381827  0.49249763  1
  O  O50  1  0.49308346  0.05091808  0.85845937  1
  O  O51  1  0.37768570  0.27417841  0.92094845  1
  O  O52  1  0.11336070  0.91332124  0.72670041  1
  O  O53  1  0.19416367  0.87574740  0.58510391  1
  O  O54  1  0.60936633  0.35559763  0.01877326  1
  O  O55  1  0.69845212  0.16939047  0.16458022  1
  O  O56  1  0.22655539  0.95986687  0.35042274  1
  O  O57  1  0.51378635  0.35451203  0.40678179  1
  O  O58  1  0.39995360  0.75809122  0.20295316  1
  O  O59  1  0.59679959  0.25317634  0.80267711  1
  O  O60  1  0.49648875  0.64361544  0.58842836  1
  O  O61  1  0.77593818  0.04112359  0.64570250  1
  O  O62  1  0.30656507  0.83407749  0.83367683  1
  O  O63  1  0.37644566  0.64887683  0.97848600  1
  O  O64  1  0.82149381  0.12752930  0.41352911  1
  O  O65  1  0.88585688  0.08437694  0.27245565  1
  O  O66  1  0.60119523  0.72686263  0.08128850  1
  O  O67  1  0.53873532  0.94679063  0.13997047  1
  O  O68  1  0.75526459  0.31363977  0.50372301  1
  O  O69  1  0.62107983  0.95478642  0.34934921  1
  O  O70  1  0.90152764  0.44600207  0.22051971  1
  O  O71  1  0.90524686  0.35219381  0.38256383  1
  O  O72  1  0.78815778  0.73305089  0.19055461  1
  O  O73  1  0.78328245  0.61696004  0.69736515  1
  O  O74  1  0.81247784  0.42882054  0.77739747  1
  O  O75  1  0.88717442  0.42787825  0.59899149  1
  O  O76  1  0.68875810  0.83365154  0.60995046  1
  O  O77  1  0.98868134  0.17637086  0.71519130  1
  O  O78  1  0.85541400  0.29169269  0.90438352  1
  O  O79  1  0.58957697  0.83119071  0.93186236  1
  O  O80  1  0.70349813  0.66336971  0.82298555  1
  O  O81  1  0.61634865  0.90202120  0.73694429  1
  O  O82  1  0.87061072  0.65099220  0.50609927  1
  O  O83  1  0.81367434  0.51194729  0.96107040  1
  O  O84  1  0.94923971  0.82368484  0.42310158  1
  O  O85  1  0.98464021  0.94062599  0.15884138  1
  O  O86  1  0.92447880  0.83823263  0.83423150  1
  O  O87  1  0.96232931  0.72103918  0.99151331  1
