# generated using pymatgen
data_Li4Co5O12
_symmetry_space_group_name_H-M   'P 1'
_cell_length_a   4.91285617
_cell_length_b   8.42634665
_cell_length_c   9.96707924
_cell_angle_alpha   90.00000000
_cell_angle_beta   99.46404529
_cell_angle_gamma   90.00000000
_symmetry_Int_Tables_number   1
_chemical_formula_structural   Li4Co5O12
_chemical_formula_sum   'Li8 Co10 O24'
_cell_volume   406.99539378
_cell_formula_units_Z   2
loop_
 _symmetry_equiv_pos_site_id
 _symmetry_equiv_pos_as_xyz
  1  'x, y, z'
loop_
 _atom_site_type_symbol
 _atom_site_label
 _atom_site_symmetry_multiplicity
 _atom_site_fract_x
 _atom_site_fract_y
 _atom_site_fract_z
 _atom_site_occupancy
  Li  Li0  1  0.99055418  0.75316995  0.24915766  1
  Li  Li1  1  0.23813620  0.60494821  0.48475054  1
  Li  Li2  1  0.25470414  0.25363092  0.48372729  1
  Li  Li3  1  0.24529586  0.75363092  0.01627271  1
  Li  Li4  1  0.26186380  0.10494821  0.01524946  1
  Li  Li5  1  0.50944582  0.25316995  0.25084234  1
  Li  Li6  1  0.74303455  0.07849034  0.48573368  1
  Li  Li7  1  0.75696545  0.57849034  0.01426632  1
  Co  Co8  1  0.00156696  0.58424810  0.74693117  1
  Co  Co9  1  0.99844063  0.91795358  0.74832278  1
  Co  Co10  1  -0.00148651  0.25286652  0.75062079  1
  Co  Co11  1  0.00545979  0.07646447  0.24717125  1
  Co  Co12  1  0.99630183  0.41541740  0.24915728  1
  Co  Co13  1  0.49843304  0.08424810  0.75306883  1
  Co  Co14  1  0.50155937  0.41795358  0.75167722  1
  Co  Co15  1  0.50148651  0.75286652  0.74937921  1
  Co  Co16  1  0.49454021  0.57646447  0.25282875  1
  Co  Co17  1  0.50369817  0.91541740  0.25084272  1
  O  O18  1  0.13034002  0.09017389  0.65025144  1
  O  O19  1  0.14041846  0.74890239  0.64975659  1
  O  O20  1  0.14048387  0.41818735  0.64959178  1
  O  O21  1  0.10015192  0.24046422  0.14869854  1
  O  O22  1  0.35951613  0.91818735  0.85040822  1
  O  O23  1  0.35958154  0.24890239  0.85024341  1
  O  O24  1  0.36965998  0.59017389  0.84974856  1
  O  O25  1  0.15200298  0.92886017  0.13947995  1
  O  O26  1  0.14084478  0.56382163  0.14301457  1
  O  O27  1  0.35915522  0.06382163  0.35698543  1
  O  O28  1  0.34799702  0.42886017  0.36052005  1
  O  O29  1  0.39984808  0.74046422  0.35130146  1
  O  O30  1  0.63385286  0.58599641  0.65195236  1
  O  O31  1  0.62841734  0.24556036  0.64965064  1
  O  O32  1  0.63230175  0.92018352  0.65330378  1
  O  O33  1  0.60255054  0.74239854  0.14357035  1
  O  O34  1  0.86769825  0.42018352  0.84669622  1
  O  O35  1  0.87158266  0.74556036  0.85034936  1
  O  O36  1  0.86614714  0.08599641  0.84804764  1
  O  O37  1  0.63780884  0.43312617  0.14729666  1
  O  O38  1  0.63796656  0.06156985  0.14813364  1
  O  O39  1  0.86203344  0.56156985  0.35186636  1
  O  O40  1  0.86219116  0.93312617  0.35270334  1
  O  O41  1  0.89744946  0.24239854  0.35642965  1
