# generated using pymatgen
data_Li3V8O16
_symmetry_space_group_name_H-M   'P 1'
_cell_length_a   8.52123281
_cell_length_b   10.28455051
_cell_length_c   8.49242613
_cell_angle_alpha   65.70737661
_cell_angle_beta   90.62782152
_cell_angle_gamma   114.18266596
_symmetry_Int_Tables_number   1
_chemical_formula_structural   Li3V8O16
_chemical_formula_sum   'Li6 V16 O32'
_cell_volume   607.60937831
_cell_formula_units_Z   2
loop_
 _symmetry_equiv_pos_site_id
 _symmetry_equiv_pos_as_xyz
  1  'x, y, z'
loop_
 _atom_site_type_symbol
 _atom_site_label
 _atom_site_symmetry_multiplicity
 _atom_site_fract_x
 _atom_site_fract_y
 _atom_site_fract_z
 _atom_site_occupancy
  Li  Li0  1  0.86092302  0.24028166  0.40006632  1
  Li  Li1  1  0.87432278  0.76099125  0.87614664  1
  Li  Li2  1  0.56741265  0.38316291  0.68367989  1
  Li  Li3  1  0.44317222  0.62765134  0.30447816  1
  Li  Li4  1  0.19141441  0.12446307  0.06014467  1
  Li  Li5  1  0.31196983  0.87661014  0.43897756  1
  V  V6  1  0.74914771  0.00328968  0.24450419  1
  V  V7  1  0.00763084  0.50425142  0.50152947  1
  V  V8  1  0.87246197  0.24690639  0.86403613  1
  V  V9  1  0.74714958  0.49825227  0.26024073  1
  V  V10  1  0.63076561  0.26266269  0.11002149  1
  V  V11  1  0.88040839  0.75519400  0.36711689  1
  V  V12  1  0.50353425  0.00771592  0.99227552  1
  V  V13  1  0.62861237  0.76686818  0.61857555  1
  V  V14  1  0.26061318  0.00288699  0.74464943  1
  V  V15  1  0.49578508  0.50376241  0.99384555  1
  V  V16  1  0.37841197  0.25275696  0.37144453  1
  V  V17  1  0.25502629  0.50136826  0.74325188  1
  V  V18  1  0.13375132  0.24999090  0.62999869  1
  V  V19  1  0.37287088  0.74787492  0.87516265  1
  V  V20  1  0.00764593  0.99924612  0.49365468  1
  V  V21  1  0.13052794  0.74068880  0.12941191  1
  O  O22  1  0.90721320  0.26189635  0.62446362  1
  O  O23  1  0.72441402  0.00965602  0.00550848  1
  O  O24  1  0.98114307  0.49319212  0.28450975  1
  O  O25  1  0.84508318  0.23001873  0.11516347  1
  O  O26  1  0.88227527  0.71960117  0.13580990  1
  O  O27  1  0.52024288  0.02348036  0.22343991  1
  O  O28  1  0.76925796  0.51606686  0.48024412  1
  O  O29  1  0.62650442  0.24165838  0.89017287  1
  O  O30  1  0.87749067  0.78156642  0.60350599  1
  O  O31  1  0.98418166  0.99572212  0.26174109  1
  O  O32  1  0.72083382  0.48681566  0.01524130  1
  O  O33  1  0.63583634  0.27449570  0.33943738  1
  O  O34  1  0.51139769  0.49139388  0.23842200  1
  O  O35  1  0.39762287  0.26392456  0.12792827  1
  O  O36  1  0.77225368  0.00400087  0.47411883  1
  O  O37  1  0.65026430  0.77749984  0.36674848  1
  O  O38  1  0.50138984  0.52127585  0.75241304  1
  O  O39  1  0.36290083  0.24071696  0.61550071  1
  O  O40  1  0.60573360  0.73610623  0.86961187  1
  O  O41  1  0.24854208  0.01378402  0.50322469  1
  O  O42  1  0.28212958  0.51500361  0.97797099  1
  O  O43  1  0.11993603  0.22689063  0.41346956  1
  O  O44  1  0.38007953  0.74553868  0.64986068  1
  O  O45  1  0.03866671  0.00502220  0.73533731  1
  O  O46  1  0.47455129  0.98701894  0.76927314  1
  O  O47  1  0.23447050  0.48759876  0.51129768  1
  O  O48  1  0.12677770  0.25638225  0.84646218  1
  O  O49  1  0.37691120  0.76326329  0.09670177  1
  O  O50  1  0.15202025  0.76603675  0.88169666  1
  O  O51  1  0.00796642  0.48310477  0.73094134  1
  O  O52  1  0.27117680  0.99173144  0.99013201  1
  O  O53  1  0.10992539  0.74010832  0.36589137  1
