# generated using pymatgen
data_La24Ni12O49
_symmetry_space_group_name_H-M   'P 1'
_cell_length_a   12.36736419
_cell_length_b   7.82218212
_cell_length_c   13.79091843
_cell_angle_alpha   73.50238732
_cell_angle_beta   68.96844370
_cell_angle_gamma   71.51855898
_symmetry_Int_Tables_number   1
_chemical_formula_structural   La24Ni12O49
_chemical_formula_sum   'La24 Ni12 O49'
_cell_volume   1158.99535577
_cell_formula_units_Z   1
loop_
 _symmetry_equiv_pos_site_id
 _symmetry_equiv_pos_as_xyz
  1  'x, y, z'
loop_
 _atom_site_type_symbol
 _atom_site_label
 _atom_site_symmetry_multiplicity
 _atom_site_fract_x
 _atom_site_fract_y
 _atom_site_fract_z
 _atom_site_occupancy
  La  La0  1  0.12382097  0.12116383  0.13711594  1
  La  La1  1  0.21402556  0.21858529  0.36205060  1
  La  La2  1  0.11937111  0.61994809  0.13757720  1
  La  La3  1  0.11765300  0.11963635  0.63789866  1
  La  La4  1  0.12216924  0.62372140  0.63737300  1
  La  La5  1  0.45599618  0.45587268  0.13617048  1
  La  La6  1  0.54707976  0.04085501  0.36321343  1
  La  La7  1  0.20997257  0.21105317  0.86053227  1
  La  La8  1  0.21291623  0.71079407  0.36157752  1
  La  La9  1  0.54123837  0.55149034  0.36224162  1
  La  La10  1  0.21051995  0.71808032  0.86086750  1
  La  La11  1  0.55012964  0.04571974  0.85662530  1
  La  La12  1  0.45270415  0.95716473  0.13611948  1
  La  La13  1  0.78505474  0.28358805  0.13788458  1
  La  La14  1  0.45942561  0.45104601  0.63895637  1
  La  La15  1  0.78925538  0.79076520  0.13791509  1
  La  La16  1  0.45291994  0.95531372  0.64325525  1
  La  La17  1  0.78157760  0.28977952  0.63914157  1
  La  La18  1  0.88278915  0.37218440  0.36275562  1
  La  La19  1  0.54594885  0.54817817  0.85696635  1
  La  La20  1  0.88232561  0.38460332  0.86096885  1
  La  La21  1  0.87743905  0.88290854  0.36306913  1
  La  La22  1  0.78068367  0.78317731  0.64290128  1
  La  La23  1  0.88091554  0.87636582  0.86076726  1
  Ni  Ni24  1  0.99866494  0.99964733  0.00163553  1
  Ni  Ni25  1  0.99959883  0.49838041  0.00285645  1
  Ni  Ni26  1  0.99971994  0.99917564  0.50173722  1
  Ni  Ni27  1  0.99919864  0.50005404  0.50203670  1
  Ni  Ni28  1  0.33479967  0.33511925  0.99671314  1
  Ni  Ni29  1  0.66678891  0.16740992  0.99789577  1
  Ni  Ni30  1  0.33147724  0.83606271  0.99804332  1
  Ni  Ni31  1  0.33242927  0.33323332  0.50213589  1
  Ni  Ni32  1  0.66704709  0.16932116  0.49851925  1
  Ni  Ni33  1  0.33247588  0.83391217  0.50127822  1
  Ni  Ni34  1  0.66913724  0.66527862  0.99963119  1
  Ni  Ni35  1  0.66714896  0.66479051  0.49754523  1
  O  O36  1  0.05217932  0.06089450  0.32111352  1
  O  O37  1  0.00286404  0.25130224  0.49506966  1
  O  O38  1  0.16640044  0.41559416  0.00227203  1
  O  O39  1  0.27404233  0.26509397  0.17808795  1
  O  O40  1  0.06057456  0.06403817  0.82331472  1
  O  O41  1  0.06921514  0.55658222  0.32149511  1
  O  O42  1  0.16474099  0.41607833  0.50516460  1
  O  O43  1  0.32997824  0.08640581  0.49840883  1
  O  O44  1  0.49801065  0.24968952  0.00551007  1
  O  O45  1  0.33336840  0.58333308  0.00221867  1
  O  O46  1  0.00411155  0.74876238  0.49896139  1
  O  O47  1  0.16008114  0.91205491  0.01535096  1
  O  O48  1  0.05552382  0.55345233  0.82273251  1
  O  O49  1  0.38341543  0.39758373  0.32167560  1
  O  O50  1  0.28105316  0.78170457  0.17713680  1
  O  O51  1  0.27747163  0.27974885  0.67591475  1
  O  O52  1  0.60592861  0.11716878  0.17826323  1
  O  O53  1  0.50084807  0.24941758  0.49500580  1
  O  O54  1  0.33307481  0.58614252  0.49581389  1
  O  O55  1  0.16832308  0.91972713  0.49446914  1
  O  O56  1  0.83128604  0.08361734  0.00349193  1
  O  O57  1  0.50306401  0.75267335  0.99133299  1
  O  O58  1  0.00049613  0.75135117  0.99595447  1
  O  O59  1  0.33696318  0.08419618  0.99503178  1
  O  O60  1  0.60731817  0.17084852  0.66972795  1
  O  O61  1  0.26561686  0.77539514  0.67555361  1
  O  O62  1  0.60179370  0.59717370  0.17805519  1
  O  O63  1  0.39042340  0.40162744  0.82444249  1
  O  O64  1  0.73431755  0.20367622  0.32116783  1
  O  O65  1  0.39994884  0.88936534  0.32139051  1
  O  O66  1  0.66437573  0.91525889  0.00372635  1
  O  O67  1  0.99916582  0.24823904  0.00387355  1
  O  O68  1  0.49767781  0.75226653  0.50400957  1
  O  O69  1  0.67494128  0.42474379  0.47429282  1
  O  O70  1  0.83249801  0.07737324  0.50452735  1
  O  O71  1  0.82978391  0.57634575  0.01495550  1
  O  O72  1  0.34085867  0.91365196  0.82615975  1
  O  O73  1  0.72683274  0.21407692  0.82488756  1
  O  O74  1  0.71797866  0.74690446  0.32116650  1
  O  O75  1  0.94459654  0.44779363  0.17957178  1
  O  O76  1  0.61453167  0.54931488  0.66955383  1
  O  O77  1  0.66271013  0.91320180  0.50986786  1
  O  O78  1  0.57990850  0.83299332  0.75371435  1
  O  O79  1  0.66699070  0.41956737  0.99440723  1
  O  O80  1  0.83558875  0.58751317  0.49482784  1
  O  O81  1  0.93821992  0.43669286  0.67620695  1
  O  O82  1  0.93705767  0.92948771  0.17884653  1
  O  O83  1  0.77160740  0.70688779  0.82581038  1
  O  O84  1  0.95298133  0.94291057  0.67554606  1
