# generated using pymatgen
data_U
_symmetry_space_group_name_H-M   'P 1'
_cell_length_a   6.60766963
_cell_length_b   5.09781397
_cell_length_c   4.89063790
_cell_angle_alpha   90.00000000
_cell_angle_beta   90.00000000
_cell_angle_gamma   90.00000000
_symmetry_Int_Tables_number   1
_chemical_formula_structural   U
_chemical_formula_sum   U8
_cell_volume   164.73952644
_cell_formula_units_Z   8
loop_
 _symmetry_equiv_pos_site_id
 _symmetry_equiv_pos_as_xyz
  1  'x, y, z'
loop_
 _atom_site_type_symbol
 _atom_site_label
 _atom_site_symmetry_multiplicity
 _atom_site_fract_x
 _atom_site_fract_y
 _atom_site_fract_z
 _atom_site_occupancy
  U  U0  1  0.79282056  0.31421899  0.25000000  1
  U  U1  1  0.29282056  0.18578101  0.25000000  1
  U  U2  1  0.20717944  0.68578101  0.75000000  1
  U  U3  1  0.70717944  0.81421899  0.75000000  1
  U  U4  1  0.54551714  0.70020288  0.25000000  1
  U  U5  1  0.04551714  0.79979712  0.25000000  1
  U  U6  1  0.45448286  0.29979712  0.75000000  1
  U  U7  1  0.95448286  0.20020288  0.75000000  1
