# generated using pymatgen
data_CoH8(SO6)2
_symmetry_space_group_name_H-M   'P 1'
_cell_length_a   11.57436232
_cell_length_b   8.29683839
_cell_length_c   5.70543784
_cell_angle_alpha   90.00000000
_cell_angle_beta   103.17479856
_cell_angle_gamma   90.00000000
_symmetry_Int_Tables_number   1
_chemical_formula_structural   CoH8(SO6)2
_chemical_formula_sum   'Co2 H16 S4 O24'
_cell_volume   533.47564453
_cell_formula_units_Z   2
loop_
 _symmetry_equiv_pos_site_id
 _symmetry_equiv_pos_as_xyz
  1  'x, y, z'
loop_
 _atom_site_type_symbol
 _atom_site_label
 _atom_site_symmetry_multiplicity
 _atom_site_fract_x
 _atom_site_fract_y
 _atom_site_fract_z
 _atom_site_occupancy
  Co  Co0  1  0.00000000  -0.00000000  0.00000000  1
  Co  Co1  1  0.50000000  0.50000000  0.00000000  1
  H  H2  1  0.02195920  0.71547342  0.21711883  1
  H  H3  1  0.15132856  0.13127277  0.78012375  1
  H  H4  1  0.18073321  0.94125323  0.79319531  1
  H  H5  1  0.14028441  0.80976349  0.32161186  1
  H  H6  1  0.35971559  0.30976349  0.67838814  1
  H  H7  1  0.31926679  0.44125323  0.20680469  1
  H  H8  1  0.34867144  0.63127277  0.21987625  1
  H  H9  1  0.47804080  0.21547342  0.78288117  1
  H  H10  1  0.52195920  0.78452658  0.21711883  1
  H  H11  1  0.65132856  0.36872723  0.78012375  1
  H  H12  1  0.68073321  0.55874677  0.79319531  1
  H  H13  1  0.64028441  0.69023651  0.32161186  1
  H  H14  1  0.85971559  0.19023651  0.67838814  1
  H  H15  1  0.81926679  0.05874677  0.20680469  1
  H  H16  1  0.84867144  0.86872723  0.21987625  1
  H  H17  1  0.97804080  0.28452658  0.78288117  1
  S  S18  1  0.13327874  0.28521748  0.36504306  1
  S  S19  1  0.36672126  0.78521748  0.63495694  1
  S  S20  1  0.63327874  0.21478252  0.36504306  1
  S  S21  1  0.86672126  0.71478252  0.63495694  1
  O  O22  1  0.07242479  0.12556453  0.28601106  1
  O  O23  1  0.07662636  0.41651359  0.20851397  1
  O  O24  1  0.07466131  0.79835972  0.17777279  1
  O  O25  1  0.12645814  0.30903159  0.61930294  1
  O  O26  1  0.14873379  0.03063111  0.87389878  1
  O  O27  1  0.23949932  0.77436592  0.64569419  1
  O  O28  1  0.26050068  0.27436592  0.35430581  1
  O  O29  1  0.35126621  0.53063111  0.12610122  1
  O  O30  1  0.37354186  0.80903159  0.38069706  1
  O  O31  1  0.42533869  0.29835972  0.82222721  1
  O  O32  1  0.42337364  0.91651359  0.79148603  1
  O  O33  1  0.42757521  0.62556453  0.71398894  1
  O  O34  1  0.57242479  0.37443547  0.28601106  1
  O  O35  1  0.57662636  0.08348641  0.20851397  1
  O  O36  1  0.57466131  0.70164028  0.17777279  1
  O  O37  1  0.62645814  0.19096841  0.61930294  1
  O  O38  1  0.64873379  0.46936889  0.87389878  1
  O  O39  1  0.73949932  0.72563408  0.64569419  1
  O  O40  1  0.76050068  0.22563408  0.35430581  1
  O  O41  1  0.85126621  0.96936889  0.12610122  1
  O  O42  1  0.87354186  0.69096841  0.38069706  1
  O  O43  1  0.92533869  0.20164028  0.82222721  1
  O  O44  1  0.92337364  0.58348641  0.79148603  1
  O  O45  1  0.92757521  0.87443547  0.71398894  1
