# generated using pymatgen
data_Fe4OF7
_symmetry_space_group_name_H-M   'P 1'
_cell_length_a   5.79409151
_cell_length_b   10.15029698
_cell_length_c   5.80612256
_cell_angle_alpha   79.69669288
_cell_angle_beta   68.33712989
_cell_angle_gamma   100.32255318
_symmetry_Int_Tables_number   1
_chemical_formula_structural   Fe4OF7
_chemical_formula_sum   'Fe8 O2 F14'
_cell_volume   300.79667680
_cell_formula_units_Z   2
loop_
 _symmetry_equiv_pos_site_id
 _symmetry_equiv_pos_as_xyz
  1  'x, y, z'
loop_
 _atom_site_type_symbol
 _atom_site_label
 _atom_site_symmetry_multiplicity
 _atom_site_fract_x
 _atom_site_fract_y
 _atom_site_fract_z
 _atom_site_occupancy
  Fe  Fe0  1  0.63478183  0.25552834  0.83976216  1
  Fe  Fe1  1  0.86886309  0.75070393  0.62489626  1
  Fe  Fe2  1  0.24506893  0.50214963  0.74996948  1
  Fe  Fe3  1  0.75431815  0.49448613  0.26181284  1
  Fe  Fe4  1  0.50479241  0.99467605  0.47075502  1
  Fe  Fe5  1  0.38572652  0.75487585  0.13164192  1
  Fe  Fe6  1  0.11681134  0.25774085  0.37586803  1
  Fe  Fe7  1  0.98259930  0.99147029  0.00973739  1
  O  O8  1  0.80542918  0.34131038  0.49534687  1
  O  O9  1  0.58948639  0.90492047  0.21800082  1
  F  F10  1  0.84333295  0.39199604  0.95120722  1
  F  F11  1  0.91002552  0.15054450  0.79348062  1
  F  F12  1  0.57231611  0.85857407  0.72098004  1
  F  F13  1  0.33848528  0.34452971  0.95983254  1
  F  F14  1  0.89199376  0.09664267  0.31831101  1
  F  F15  1  0.64183132  0.60430517  0.55178370  1
  F  F16  1  0.39947327  0.09578378  0.78953974  1
  F  F17  1  0.11659468  0.90909006  0.67838534  1
  F  F18  1  0.34456475  0.40274377  0.44889118  1
  F  F19  1  0.68299667  0.64726087  0.02334778  1
  F  F20  1  0.16567319  0.65002858  0.53275635  1
  F  F21  1  0.43817544  0.15531931  0.25550033  1
  F  F22  1  0.07284524  0.84941901  0.22632616  1
  F  F23  1  0.15950571  0.60123253  0.05077019  1
