# generated using pymatgen
data_V3(H3O5)2
_symmetry_space_group_name_H-M   'P 1'
_cell_length_a   8.92729722
_cell_length_b   9.01332881
_cell_length_c   6.11250471
_cell_angle_alpha   94.89935572
_cell_angle_beta   79.97093373
_cell_angle_gamma   91.46628958
_symmetry_Int_Tables_number   1
_chemical_formula_structural   V3(H3O5)2
_chemical_formula_sum   'V6 H12 O20'
_cell_volume   482.52670944
_cell_formula_units_Z   2
loop_
 _symmetry_equiv_pos_site_id
 _symmetry_equiv_pos_as_xyz
  1  'x, y, z'
loop_
 _atom_site_type_symbol
 _atom_site_label
 _atom_site_symmetry_multiplicity
 _atom_site_fract_x
 _atom_site_fract_y
 _atom_site_fract_z
 _atom_site_occupancy
  V  V0  1  0.50270722  0.50026232  0.26473424  1
  V  V1  1  0.01811544  0.00095162  0.25200534  1
  V  V2  1  0.37728645  0.13424382  0.23136500  1
  V  V3  1  0.63960150  0.87433864  0.26517877  1
  V  V4  1  0.15105511  0.65222416  0.29372086  1
  V  V5  1  0.86473327  0.36794851  0.31458051  1
  H  H6  1  0.33999039  0.45689366  0.64192029  1
  H  H7  1  0.86321736  0.05749930  0.67389820  1
  H  H8  1  0.45160362  0.86448018  0.67734389  1
  H  H9  1  0.82496339  0.46570778  0.70105786  1
  H  H10  1  0.30250176  0.90740601  0.88633299  1
  H  H11  1  0.26970751  0.77858418  0.68662321  1
  H  H12  1  0.67853513  0.03269784  0.68056121  1
  H  H13  1  0.75717484  0.20602160  0.71442869  1
  H  H14  1  0.19018663  0.39544778  0.89527529  1
  H  H15  1  0.24006133  0.27796847  0.68382785  1
  H  H16  1  0.95781967  0.65655604  0.75692920  1
  H  H17  1  0.80761237  0.64803026  0.94417769  1
  O  O18  1  0.44458057  0.50491106  0.54710187  1
  O  O19  1  0.00098423  0.01090248  0.52772913  1
  O  O20  1  0.44025740  0.31005109  0.14490385  1
  O  O21  1  0.60802452  0.68721630  0.18758036  1
  O  O22  1  0.10505146  0.80211124  0.16033062  1
  O  O23  1  0.93074439  0.19708274  0.20640316  1
  O  O24  1  0.32772025  0.58241336  0.16906118  1
  O  O25  1  0.71028729  0.41658221  0.20528566  1
  O  O26  1  0.82797200  0.91634526  0.17578540  1
  O  O27  1  0.21764950  0.07349000  0.11180858  1
  O  O28  1  0.33292062  0.14437679  0.50593856  1
  O  O29  1  0.59339332  0.91112418  0.54922341  1
  O  O30  1  0.15114241  0.70280340  0.56521623  1
  O  O31  1  0.81161794  0.36284575  0.60916951  1
  O  O32  1  0.52157578  0.99170369  0.14416783  1
  O  O33  1  0.01139853  0.50335028  0.25965873  1
  O  O34  1  0.35001892  0.82766609  0.77635095  1
  O  O35  1  0.75582743  0.09853537  0.75341180  1
  O  O36  1  0.21193036  0.38399740  0.73267067  1
  O  O37  1  0.85290107  0.61763913  0.78941839  1
