# generated using pymatgen
data_BaSr2I6
_symmetry_space_group_name_H-M   'P 1'
_cell_length_a   7.90668817
_cell_length_b   13.73000334
_cell_length_c   8.97478948
_cell_angle_alpha   95.20022729
_cell_angle_beta   90.00000000
_cell_angle_gamma   73.26565147
_symmetry_Int_Tables_number   1
_chemical_formula_structural   BaSr2I6
_chemical_formula_sum   'Ba2 Sr4 I12'
_cell_volume   928.84334308
_cell_formula_units_Z   2
loop_
 _symmetry_equiv_pos_site_id
 _symmetry_equiv_pos_as_xyz
  1  'x, y, z'
loop_
 _atom_site_type_symbol
 _atom_site_label
 _atom_site_symmetry_multiplicity
 _atom_site_fract_x
 _atom_site_fract_y
 _atom_site_fract_z
 _atom_site_occupancy
  Ba  Ba0  1  0.73377940  -0.00000000  0.75000000  1
  Ba  Ba1  1  0.26622060  -0.00000000  0.25000000  1
  Sr  Sr2  1  0.39697117  0.65688303  0.86539885  1
  Sr  Sr3  1  0.94614580  0.65688303  0.36539885  1
  Sr  Sr4  1  0.05385420  0.34311697  0.63460115  1
  Sr  Sr5  1  0.60302883  0.34311697  0.13460115  1
  I  I6  1  0.50278744  0.86495890  0.92306503  1
  I  I7  1  0.63225366  0.86495890  0.42306503  1
  I  I8  1  0.11959362  0.78867950  0.62369472  1
  I  I9  1  0.09172688  0.78867950  0.12369472  1
  I  I10  1  0.76009420  0.56733622  0.64087980  1
  I  I11  1  0.67256958  0.56733622  0.14087980  1
  I  I12  1  0.32743042  0.43266378  0.85912020  1
  I  I13  1  0.23990580  0.43266378  0.35912020  1
  I  I14  1  0.90827312  0.21132050  0.87630528  1
  I  I15  1  0.88040638  0.21132050  0.37630528  1
  I  I16  1  0.36774634  0.13504110  0.57693497  1
  I  I17  1  0.49721256  0.13504110  0.07693497  1
