# generated using pymatgen
data_Co3BiO8
_symmetry_space_group_name_H-M   'P 1'
_cell_length_a   8.36578258
_cell_length_b   8.34112244
_cell_length_c   8.30835387
_cell_angle_alpha   90.00757249
_cell_angle_beta   90.18606085
_cell_angle_gamma   90.13737587
_symmetry_Int_Tables_number   1
_chemical_formula_structural   Co3BiO8
_chemical_formula_sum   'Co12 Bi4 O32'
_cell_volume   579.75234400
_cell_formula_units_Z   4
loop_
 _symmetry_equiv_pos_site_id
 _symmetry_equiv_pos_as_xyz
  1  'x, y, z'
loop_
 _atom_site_type_symbol
 _atom_site_label
 _atom_site_symmetry_multiplicity
 _atom_site_fract_x
 _atom_site_fract_y
 _atom_site_fract_z
 _atom_site_occupancy
  Co  Co0  1  0.10416298  0.14882507  0.62453247  1
  Co  Co1  1  0.12580765  0.39691058  0.85218313  1
  Co  Co2  1  0.14775057  0.62326032  0.10216547  1
  Co  Co3  1  0.35265143  0.37569028  0.60326480  1
  Co  Co4  1  0.37291161  0.60183725  0.35331531  1
  Co  Co5  1  0.39562408  0.85547816  0.12649242  1
  Co  Co6  1  0.60170816  0.35465346  0.37589405  1
  Co  Co7  1  0.62530697  0.09933005  0.14670948  1
  Co  Co8  1  0.64680817  0.87688599  0.89492596  1
  Co  Co9  1  0.85304625  0.12483900  0.39711004  1
  Co  Co10  1  0.87557854  0.89672336  0.65034063  1
  Co  Co11  1  0.89707055  0.64623333  0.87388718  1
  Bi  Bi12  1  0.12387283  0.87339692  0.37381219  1
  Bi  Bi13  1  0.37611736  0.12347290  0.87601708  1
  Bi  Bi14  1  0.62344019  0.62781298  0.62762701  1
  Bi  Bi15  1  0.87472344  0.37439303  0.12293421  1
  O  O16  1  0.07873998  0.13642376  0.39673733  1
  O  O17  1  0.10298743  0.92239679  0.63600314  1
  O  O18  1  0.12435905  0.61832026  0.87958858  1
  O  O19  1  0.11298750  0.17039952  0.85073160  1
  O  O20  1  0.13742278  0.39536375  0.07971066  1
  O  O21  1  0.12694263  0.37069193  0.62839786  1
  O  O22  1  0.14566453  0.61079466  0.32952374  1
  O  O23  1  0.16926227  0.84911596  0.11353544  1
  O  O24  1  0.32679289  0.14909764  0.61227895  1
  O  O25  1  0.34989260  0.38467044  0.82918966  1
  O  O26  1  0.36845063  0.62629894  0.13051840  1
  O  O27  1  0.36269872  0.60195153  0.57915955  1
  O  O28  1  0.38294733  0.82798138  0.35450865  1
  O  O29  1  0.37777994  0.37994043  0.37439874  1
  O  O30  1  0.40043698  0.08058492  0.13962372  1
  O  O31  1  0.42035765  0.86518855  0.90098257  1
  O  O32  1  0.57839145  0.36515129  0.59961283  1
  O  O33  1  0.59958117  0.57955479  0.36317869  1
  O  O34  1  0.62047195  0.88318896  0.12405474  1
  O  O35  1  0.61541899  0.32872059  0.14995074  1
  O  O36  1  0.63763597  0.10376738  0.92203796  1
  O  O37  1  0.63124610  0.12709730  0.37369990  1
  O  O38  1  0.65056521  0.88912743  0.66843112  1
  O  O39  1  0.67165767  0.65127401  0.88626729  1
  O  O40  1  0.82998815  0.35066393  0.38621064  1
  O  O41  1  0.85445678  0.11259681  0.17073846  1
  O  O42  1  0.87112351  0.87289074  0.86689604  1
  O  O43  1  0.86480801  0.89835250  0.42036985  1
  O  O44  1  0.88750092  0.67219965  0.64707509  1
  O  O45  1  0.87988258  0.12202083  0.62076264  1
  O  O46  1  0.90079296  0.41969433  0.86293190  1
  O  O47  1  0.92217691  0.63487630  0.10182309  1
