# generated using pymatgen
data_Ba2H14C12S4N4O15
_symmetry_space_group_name_H-M   'P 1'
_cell_length_a   8.13777004
_cell_length_b   8.13777004
_cell_length_c   22.49299166
_cell_angle_alpha   81.69932651
_cell_angle_beta   81.69932651
_cell_angle_gamma   58.29988680
_symmetry_Int_Tables_number   1
_chemical_formula_structural   Ba2H14C12S4N4O15
_chemical_formula_sum   'Ba4 H28 C24 S8 N8 O30'
_cell_volume   1249.89767974
_cell_formula_units_Z   2
loop_
 _symmetry_equiv_pos_site_id
 _symmetry_equiv_pos_as_xyz
  1  'x, y, z'
loop_
 _atom_site_type_symbol
 _atom_site_label
 _atom_site_symmetry_multiplicity
 _atom_site_fract_x
 _atom_site_fract_y
 _atom_site_fract_z
 _atom_site_occupancy
  Ba  Ba0  1  0.70698733  0.96842395  0.73435322  1
  Ba  Ba1  1  0.29301267  0.03157605  0.26564678  1
  Ba  Ba2  1  0.03157605  0.29301267  0.76564678  1
  Ba  Ba3  1  0.96842395  0.70698733  0.23435322  1
  H  H4  1  0.66913526  0.21614265  0.85588397  1
  H  H5  1  0.33086474  0.78385735  0.14411603  1
  H  H6  1  0.78385735  0.33086474  0.64411603  1
  H  H7  1  0.21614265  0.66913526  0.35588397  1
  H  H8  1  0.57112572  0.62108655  0.72479981  1
  H  H9  1  0.42887428  0.37891345  0.27520019  1
  H  H10  1  0.37891345  0.42887428  0.77520019  1
  H  H11  1  0.62108655  0.57112572  0.22479981  1
  H  H12  1  0.39846417  0.43778525  0.70478794  1
  H  H13  1  0.60153583  0.56221475  0.29521206  1
  H  H14  1  0.56221475  0.60153583  0.79521206  1
  H  H15  1  0.43778525  0.39846417  0.20478794  1
  H  H16  1  0.19912140  0.83997696  0.71565903  1
  H  H17  1  0.80087860  0.16002304  0.28434097  1
  H  H18  1  0.16002304  0.80087860  0.78434097  1
  H  H19  1  0.83997696  0.19912140  0.21565903  1
  H  H20  1  0.29582343  0.21992061  0.64888428  1
  H  H21  1  0.70417657  0.78007939  0.35111572  1
  H  H22  1  0.78007939  0.70417657  0.85111572  1
  H  H23  1  0.21992061  0.29582343  0.14888428  1
  H  H24  1  0.35254539  0.99784190  0.65979426  1
  H  H25  1  0.64745461  0.00215810  0.34020574  1
  H  H26  1  0.00215810  0.64745461  0.84020574  1
  H  H27  1  0.99784190  0.35254539  0.15979426  1
  H  H28  1  0.86966718  0.01737263  0.85538905  1
  H  H29  1  0.13033282  0.98262737  0.14461095  1
  H  H30  1  0.98262737  0.13033282  0.64461095  1
  H  H31  1  0.01737263  0.86966718  0.35538905  1
  C  C32  1  0.24979230  0.07059534  0.91799130  1
  C  C33  1  0.75020770  0.92940466  0.08200870  1
  C  C34  1  0.92940466  0.75020770  0.58200870  1
  C  C35  1  0.07059534  0.24979230  0.41799130  1
  C  C36  1  0.16195777  0.07452979  0.51511340  1
  C  C37  1  0.83804223  0.92547021  0.48488660  1
  C  C38  1  0.92547021  0.83804223  0.98488660  1
  C  C39  1  0.07452979  0.16195777  0.01511340  1
  C  C40  1  0.48296508  0.66378651  0.61282532  1
  C  C41  1  0.51703492  0.33621349  0.38717468  1
  C  C42  1  0.33621349  0.51703492  0.88717468  1
  C  C43  1  0.66378651  0.48296508  0.11282532  1
  C  C44  1  0.37457191  0.80894707  0.56269726  1
  C  C45  1  0.62542809  0.19105293  0.43730274  1
  C  C46  1  0.19105293  0.62542809  0.93730274  1
  C  C47  1  0.80894707  0.37457191  0.06269726  1
  C  C48  1  0.28069798  0.97961996  0.46433347  1
  C  C49  1  0.71930202  0.02038004  0.53566653  1
  C  C50  1  0.02038004  0.71930202  0.03566653  1
  C  C51  1  0.97961996  0.28069798  0.96433347  1
  C  C52  1  0.40816082  0.96966165  0.86975684  1
  C  C53  1  0.59183918  0.03033835  0.13024316  1
  C  C54  1  0.03033835  0.59183918  0.63024316  1
  C  C55  1  0.96966165  0.40816082  0.36975684  1
  S  S56  1  0.75655962  0.46962986  0.98860694  1
  S  S57  1  0.24344038  0.53037014  0.01139306  1
  S  S58  1  0.53037014  0.24344038  0.51139306  1
  S  S59  1  0.46962986  0.75655962  0.48860694  1
  S  S60  1  0.29999269  0.97630923  0.99197496  1
  S  S61  1  0.70000731  0.02369077  0.00802504  1
  S  S62  1  0.02369077  0.70000731  0.50802504  1
  S  S63  1  0.97630923  0.29999269  0.49197496  1
  N  N64  1  0.22816953  0.07819495  0.40945817  1
  N  N65  1  0.77183047  0.92180505  0.59054183  1
  N  N66  1  0.92180505  0.77183047  0.09054183  1
  N  N67  1  0.07819495  0.22816953  0.90945817  1
  N  N68  1  0.21365893  0.97899497  0.57018911  1
  N  N69  1  0.78634107  0.02100503  0.42981089  1
  N  N70  1  0.02100503  0.78634107  0.92981089  1
  N  N71  1  0.97899497  0.21365893  0.07018911  1
  O  O72  1  0.78244109  0.12734416  0.82866297  1
  O  O73  1  0.21755891  0.87265584  0.17133703  1
  O  O74  1  0.87265584  0.21755891  0.67133703  1
  O  O75  1  0.12734416  0.78244109  0.32866297  1
  O  O76  1  0.10244187  0.89755813  0.75000000  1
  O  O77  1  0.89755813  0.10244187  0.25000000  1
  O  O78  1  0.41512060  0.70909400  0.66708795  1
  O  O79  1  0.58487940  0.29090600  0.33291205  1
  O  O80  1  0.29090600  0.58487940  0.83291205  1
  O  O81  1  0.70909400  0.41512060  0.16708795  1
  O  O82  1  0.48997321  0.36556170  0.90266580  1
  O  O83  1  0.51002679  0.63443830  0.09733420  1
  O  O84  1  0.63443830  0.51002679  0.59733420  1
  O  O85  1  0.36556170  0.48997321  0.40266580  1
  O  O86  1  0.56164153  0.82191635  0.88838891  1
  O  O87  1  0.43835847  0.17808365  0.11161109  1
  O  O88  1  0.17808365  0.43835847  0.61161109  1
  O  O89  1  0.82191635  0.56164153  0.38838891  1
  O  O90  1  0.40162785  0.35335656  0.74070171  1
  O  O91  1  0.59837215  0.64664344  0.25929829  1
  O  O92  1  0.64664344  0.59837215  0.75929829  1
  O  O93  1  0.35335656  0.40162785  0.24070171  1
  O  O94  1  0.35220593  0.10051104  0.67774794  1
  O  O95  1  0.64779407  0.89948896  0.32225206  1
  O  O96  1  0.89948896  0.64779407  0.82225206  1
  O  O97  1  0.10051104  0.35220593  0.17774794  1
  O  O98  1  0.37742556  0.04084216  0.81549315  1
  O  O99  1  0.62257444  0.95915784  0.18450685  1
  O  O100  1  0.95915784  0.62257444  0.68450685  1
  O  O101  1  0.04084216  0.37742556  0.31549315  1
