# generated using pymatgen
data_Pb2CCl2O3
_symmetry_space_group_name_H-M   'P 1'
_cell_length_a   8.71043162
_cell_length_b   9.07831332
_cell_length_c   8.99547468
_cell_angle_alpha   88.05475883
_cell_angle_beta   93.13777200
_cell_angle_gamma   90.86520844
_symmetry_Int_Tables_number   1
_chemical_formula_structural   Pb2CCl2O3
_chemical_formula_sum   'Pb8 C4 Cl8 O12'
_cell_volume   709.78817831
_cell_formula_units_Z   4
loop_
 _symmetry_equiv_pos_site_id
 _symmetry_equiv_pos_as_xyz
  1  'x, y, z'
loop_
 _atom_site_type_symbol
 _atom_site_label
 _atom_site_symmetry_multiplicity
 _atom_site_fract_x
 _atom_site_fract_y
 _atom_site_fract_z
 _atom_site_occupancy
  Pb  Pb0  1  0.86168615  0.65118293  0.68545644  1
  Pb  Pb1  1  0.78927520  0.66474061  0.17796639  1
  Pb  Pb2  1  0.30410551  0.88646940  0.77962136  1
  Pb  Pb3  1  0.57072871  0.26169103  0.71980356  1
  Pb  Pb4  1  0.11060428  0.31312078  0.80529048  1
  Pb  Pb5  1  0.19426286  0.40769234  0.32123270  1
  Pb  Pb6  1  0.36090804  0.82943108  0.23254896  1
  Pb  Pb7  1  0.75196001  0.12314253  0.24458031  1
  C  C8  1  0.68588304  0.81942034  0.47110428  1
  C  C9  1  0.32187581  0.16691978  0.50125081  1
  C  C10  1  0.15615783  0.67113961  0.51226867  1
  C  C11  1  0.82851373  0.28451554  0.51482083  1
  Cl  Cl12  1  0.48700894  0.54178499  0.20354890  1
  Cl  Cl13  1  0.97530955  0.91421502  0.24968640  1
  Cl  Cl14  1  0.91095307  0.33799908  0.04071004  1
  Cl  Cl15  1  0.62077015  0.87087820  0.00915312  1
  Cl  Cl16  1  0.36102095  0.17283648  0.97325406  1
  Cl  Cl17  1  0.15187142  0.67603397  0.99852098  1
  Cl  Cl18  1  0.55407669  0.55545686  0.76688359  1
  Cl  Cl19  1  0.02593949  0.03085909  0.78978073  1
  O  O20  1  0.27050006  0.14673822  0.36827226  1
  O  O21  1  0.71275355  0.86517756  0.60245217  1
  O  O22  1  0.93190499  0.25062174  0.42470923  1
  O  O23  1  0.27740507  0.67277231  0.43519275  1
  O  O24  1  0.12826396  0.77139748  0.60551014  1
  O  O25  1  0.38380828  0.06520614  0.58810345  1
  O  O26  1  0.68360375  0.25883457  0.47555562  1
  O  O27  1  0.85990684  0.34027257  0.64477479  1
  O  O28  1  0.61081709  0.89495121  0.36584630  1
  O  O29  1  0.05796572  0.56196537  0.49789629  1
  O  O30  1  0.31928369  0.30333419  0.55493396  1
  O  O31  1  0.74087557  0.68919597  0.43927045  1
