# generated using pymatgen
data_Ge7H18O23
_symmetry_space_group_name_H-M   'P 1'
_cell_length_a   7.88709596
_cell_length_b   7.79257286
_cell_length_c   7.82524862
_cell_angle_alpha   87.28827032
_cell_angle_beta   90.29370166
_cell_angle_gamma   90.35736761
_symmetry_Int_Tables_number   1
_chemical_formula_structural   Ge7H18O23
_chemical_formula_sum   'Ge7 H18 O23'
_cell_volume   480.39228391
_cell_formula_units_Z   1
loop_
 _symmetry_equiv_pos_site_id
 _symmetry_equiv_pos_as_xyz
  1  'x, y, z'
loop_
 _atom_site_type_symbol
 _atom_site_label
 _atom_site_symmetry_multiplicity
 _atom_site_fract_x
 _atom_site_fract_y
 _atom_site_fract_z
 _atom_site_occupancy
  Ge  Ge0  1  0.86040692  0.83648642  0.11887998  1
  Ge  Ge1  1  0.87935659  0.12218509  0.85955246  1
  Ge  Ge2  1  0.14025749  0.83612957  0.86809014  1
  Ge  Ge3  1  0.14214582  0.10407061  0.13843414  1
  Ge  Ge4  1  0.00326709  0.96773877  0.50947316  1
  Ge  Ge5  1  0.99469949  0.47484467  0.01055106  1
  Ge  Ge6  1  0.49204278  0.98625643  0.99254997  1
  H  H7  1  0.58870393  0.10694815  0.71428331  1
  H  H8  1  0.55785668  0.19596172  0.45535143  1
  H  H9  1  0.48213014  0.00408734  0.50230915  1
  H  H10  1  0.07085281  0.38352537  0.35475215  1
  H  H11  1  0.96789528  0.31485333  0.52342689  1
  H  H12  1  0.33227691  0.56216568  0.99238163  1
  H  H13  1  0.52282755  0.65294461  0.06036314  1
  H  H14  1  0.47148046  0.46202108  0.14347430  1
  H  H15  1  0.33079088  0.79604412  0.43172507  1
  H  H16  1  0.49811188  0.81224574  0.31714817  1
  H  H17  1  0.59160206  0.64738798  0.57321722  1
  H  H18  1  0.81673030  0.73191602  0.44310443  1
  H  H19  1  0.73524389  0.53050132  0.66965301  1
  H  H20  1  0.64153579  0.45052283  0.40182488  1
  H  H21  1  0.69616400  0.34156231  0.24786435  1
  H  H22  1  0.16305201  0.38361454  0.56208136  1
  H  H23  1  0.22463840  0.26299425  0.75910851  1
  H  H24  1  0.35563134  0.24836455  0.60914793  1
  O  O25  1  0.11418189  0.85894282  0.11703672  1
  O  O26  1  0.89056355  0.86260883  0.87534580  1
  O  O27  1  0.87079531  0.08275359  0.10905352  1
  O  O28  1  0.12003794  0.10812623  0.88608521  1
  O  O29  1  0.85849037  0.83955755  0.37902748  1
  O  O30  1  0.85978043  0.60068190  0.13357158  1
  O  O31  1  0.61632649  0.83300295  0.11615331  1
  O  O32  1  0.88898413  0.12518184  0.61800660  1
  O  O33  1  0.87167674  0.36129711  0.86209044  1
  O  O34  1  0.63243954  0.10664521  0.84458230  1
  O  O35  1  0.12282314  0.82271233  0.63455312  1
  O  O36  1  0.16081437  0.59827896  0.91107097  1
  O  O37  1  0.37146315  0.86109486  0.85807003  1
  O  O38  1  0.14286947  0.07610649  0.37153573  1
  O  O39  1  0.10886722  0.33929777  0.15876236  1
  O  O40  1  0.37824415  0.11970147  0.12240059  1
  O  O41  1  0.50968669  0.11937809  0.54935493  1
  O  O42  1  0.04326651  0.41137003  0.47789394  1
  O  O43  1  0.45766974  0.54145998  0.04004275  1
  O  O44  1  0.45443430  0.80348575  0.43597132  1
  O  O45  1  0.69777967  0.58323044  0.55919895  1
  O  O46  1  0.59815760  0.36706100  0.31786431  1
  O  O47  1  0.28159914  0.33365731  0.66489220  1
