# generated using pymatgen
data_AcSm3
_symmetry_space_group_name_H-M   'P 1'
_cell_length_a   7.45685050
_cell_length_b   7.45685061
_cell_length_c   6.09229143
_cell_angle_alpha   90.00000000
_cell_angle_beta   90.00000000
_cell_angle_gamma   119.99999952
_symmetry_Int_Tables_number   1
_chemical_formula_structural   AcSm3
_chemical_formula_sum   'Ac2 Sm6'
_cell_volume   293.37437838
_cell_formula_units_Z   2
loop_
 _symmetry_equiv_pos_site_id
 _symmetry_equiv_pos_as_xyz
  1  'x, y, z'
loop_
 _atom_site_type_symbol
 _atom_site_label
 _atom_site_symmetry_multiplicity
 _atom_site_fract_x
 _atom_site_fract_y
 _atom_site_fract_z
 _atom_site_occupancy
  Ac  Ac0  1  0.33333300  0.66666600  0.75000000  1
  Ac  Ac1  1  0.66666700  0.33333200  0.25000000  1
  Sm  Sm2  1  0.16240883  0.32481766  0.25000000  1
  Sm  Sm3  1  0.67518334  0.83759217  0.25000000  1
  Sm  Sm4  1  0.16240883  0.83759217  0.25000000  1
  Sm  Sm5  1  0.83759217  0.67518434  0.75000000  1
  Sm  Sm6  1  0.32481666  0.16240783  0.75000000  1
  Sm  Sm7  1  0.83759217  0.16240783  0.75000000  1
