# generated using pymatgen
data_Ba11Cu5Bi8O29
_symmetry_space_group_name_H-M   'P 1'
_cell_length_a   5.28831623
_cell_length_b   12.68547973
_cell_length_c   14.27276321
_cell_angle_alpha   90.04356718
_cell_angle_beta   100.67623418
_cell_angle_gamma   90.00000000
_symmetry_Int_Tables_number   1
_chemical_formula_structural   Ba11Cu5Bi8O29
_chemical_formula_sum   'Ba11 Cu5 Bi8 O29'
_cell_volume   940.91124484
_cell_formula_units_Z   1
loop_
 _symmetry_equiv_pos_site_id
 _symmetry_equiv_pos_as_xyz
  1  'x, y, z'
loop_
 _atom_site_type_symbol
 _atom_site_label
 _atom_site_symmetry_multiplicity
 _atom_site_fract_x
 _atom_site_fract_y
 _atom_site_fract_z
 _atom_site_occupancy
  Ba  Ba0  1  0.02956382  0.23221497  0.05912765  1
  Ba  Ba1  1  0.97043618  0.76778503  0.94087235  1
  Ba  Ba2  1  0.43456675  0.54733319  0.86913351  1
  Ba  Ba3  1  0.56543325  0.45266681  0.13086649  1
  Ba  Ba4  1  0.36380033  0.14865041  0.72760067  1
  Ba  Ba5  1  0.63619967  0.85134959  0.27239933  1
  Ba  Ba6  1  0.10123574  0.65640042  0.20247147  1
  Ba  Ba7  1  0.89876426  0.34359958  0.79752853  1
  Ba  Ba8  1  0.19933918  0.05005164  0.39867836  1
  Ba  Ba9  1  0.80066082  0.94994836  0.60132164  1
  Ba  Ba10  1  0.50000000  -0.00000000  -0.00000000  1
  Cu  Cu11  1  0.46988055  0.28610449  0.93976111  1
  Cu  Cu12  1  0.53011945  0.71389551  0.06023889  1
  Cu  Cu13  1  -0.00000000  0.50000000  -0.00000000  1
  Cu  Cu14  1  0.93302798  0.07998697  0.86605596  1
  Cu  Cu15  1  0.06697202  0.92001303  0.13394404  1
  Bi  Bi16  1  0.16471909  0.36846965  0.32943818  1
  Bi  Bi17  1  0.83528091  0.63153035  0.67056182  1
  Bi  Bi18  1  0.25151128  0.73464571  0.50302256  1
  Bi  Bi19  1  0.74848872  0.26535429  0.49697744  1
  Bi  Bi20  1  0.62241853  0.17813452  0.24483705  1
  Bi  Bi21  1  0.37758147  0.82186548  0.75516295  1
  Bi  Bi22  1  0.29647592  0.42517361  0.59295185  1
  Bi  Bi23  1  0.70352408  0.57482639  0.40704815  1
  O  O24  1  0.26065271  0.26369379  0.52130543  1
  O  O25  1  0.73934729  0.73630621  0.47869457  1
  O  O26  1  0.68575382  0.18740837  0.89453212  1
  O  O27  1  0.31424618  0.81259163  0.10546788  1
  O  O28  1  0.79122170  0.81259163  0.10546788  1
  O  O29  1  0.20877830  0.18740837  0.89453212  1
  O  O30  1  0.36665294  0.37221276  0.73330589  1
  O  O31  1  0.63334706  0.62778724  0.26669411  1
  O  O32  1  0.72348843  0.09526778  0.44697686  1
  O  O33  1  0.27651157  0.90473222  0.55302314  1
  O  O34  1  0.26437329  0.60336449  0.03628232  1
  O  O35  1  0.73562671  0.39663551  0.96371768  1
  O  O36  1  0.22809096  0.39663551  0.96371768  1
  O  O37  1  0.77190904  0.60336449  0.03628232  1
  O  O38  1  0.55311532  0.24088665  0.10623064  1
  O  O39  1  0.44688468  0.75911335  0.89376936  1
  O  O40  1  0.31787223  0.63524532  0.63574446  1
  O  O41  1  0.68212777  0.36475468  0.36425554  1
  O  O42  1  0.13461128  0.20900038  0.26922256  1
  O  O43  1  0.86538872  0.79099962  0.73077744  1
  O  O44  1  0.20113393  0.57992351  0.40226785  1
  O  O45  1  0.79886607  0.42007649  0.59773215  1
  O  O46  1  0.40401568  0.97089099  0.80803135  1
  O  O47  1  0.59598432  0.02910901  0.19196865  1
  O  O48  1  0.09656267  0.43329687  0.19312534  1
  O  O49  1  0.90343733  0.56670313  0.80687466  1
  O  O50  1  0.86444274  0.10182530  0.72888548  1
  O  O51  1  0.13555726  0.89817470  0.27111452  1
  O  O52  1  -0.00000000  -0.00000000  -0.00000000  1
