# generated using pymatgen
data_Co3BO5
_symmetry_space_group_name_H-M   'P 1'
_cell_length_a   2.99255430
_cell_length_b   9.36787402
_cell_length_c   12.04375229
_cell_angle_alpha   90.00000000
_cell_angle_beta   90.00000000
_cell_angle_gamma   90.00000000
_symmetry_Int_Tables_number   1
_chemical_formula_structural   Co3BO5
_chemical_formula_sum   'Co12 B4 O20'
_cell_volume   337.63300625
_cell_formula_units_Z   4
loop_
 _symmetry_equiv_pos_site_id
 _symmetry_equiv_pos_as_xyz
  1  'x, y, z'
loop_
 _atom_site_type_symbol
 _atom_site_label
 _atom_site_symmetry_multiplicity
 _atom_site_fract_x
 _atom_site_fract_y
 _atom_site_fract_z
 _atom_site_occupancy
  Co  Co0  1  0.50000000  0.75762034  0.38772838  1
  Co  Co1  1  0.50000000  0.24237966  0.61227162  1
  Co  Co2  1  0.50000000  0.25762034  0.11227162  1
  Co  Co3  1  0.50000000  0.74237966  0.88772838  1
  Co  Co4  1  0.00000000  0.00359569  0.22294866  1
  Co  Co5  1  -0.00000000  0.99640431  0.77705134  1
  Co  Co6  1  0.00000000  0.50359569  0.27705134  1
  Co  Co7  1  -0.00000000  0.49640431  0.72294866  1
  Co  Co8  1  0.00000000  0.00000000  0.50000000  1
  Co  Co9  1  0.00000000  0.50000000  -0.00000000  1
  Co  Co10  1  0.50000000  0.50000000  0.50000000  1
  Co  Co11  1  0.50000000  -0.00000000  -0.00000000  1
  B  B12  1  0.50000000  0.73558037  0.13889817  1
  B  B13  1  0.50000000  0.26441963  0.86110183  1
  B  B14  1  0.50000000  0.23558037  0.36110183  1
  B  B15  1  0.50000000  0.76441963  0.63889817  1
  O  O16  1  0.50000000  0.88167560  0.14111172  1
  O  O17  1  0.50000000  0.11832440  0.85888828  1
  O  O18  1  0.50000000  0.38167560  0.35888828  1
  O  O19  1  0.50000000  0.61832440  0.64111172  1
  O  O20  1  0.50000000  0.84228871  0.53976551  1
  O  O21  1  0.50000000  0.15771129  0.46023449  1
  O  O22  1  0.50000000  0.34228871  0.96023449  1
  O  O23  1  0.50000000  0.65771129  0.03976551  1
  O  O24  1  0.50000000  0.66127395  0.23895597  1
  O  O25  1  0.50000000  0.33872605  0.76104403  1
  O  O26  1  0.50000000  0.16127395  0.26104403  1
  O  O27  1  0.50000000  0.83872605  0.73895597  1
  O  O28  1  0.00000000  0.62446287  0.41998630  1
  O  O29  1  0.00000000  0.37553713  0.58001370  1
  O  O30  1  0.00000000  0.12446287  0.08001370  1
  O  O31  1  0.00000000  0.87553713  0.91998630  1
  O  O32  1  -0.00000000  0.88402926  0.35733962  1
  O  O33  1  -0.00000000  0.11597074  0.64266038  1
  O  O34  1  0.00000000  0.38402926  0.14266038  1
  O  O35  1  -0.00000000  0.61597074  0.85733962  1
