# generated using pymatgen
data_CoPd3
_symmetry_space_group_name_H-M   'P 1'
_cell_length_a   5.49290527
_cell_length_b   5.49292286
_cell_length_c   4.46521559
_cell_angle_alpha   89.99823922
_cell_angle_beta   90.00186452
_cell_angle_gamma   120.00314711
_symmetry_Int_Tables_number   1
_chemical_formula_structural   CoPd3
_chemical_formula_sum   'Co2 Pd6'
_cell_volume   116.67153186
_cell_formula_units_Z   2
loop_
 _symmetry_equiv_pos_site_id
 _symmetry_equiv_pos_as_xyz
  1  'x, y, z'
loop_
 _atom_site_type_symbol
 _atom_site_label
 _atom_site_symmetry_multiplicity
 _atom_site_fract_x
 _atom_site_fract_y
 _atom_site_fract_z
 _atom_site_occupancy
  Co  Co0  1  0.33333936  0.66666372  0.75000238  1
  Co  Co1  1  0.66666408  0.33333854  0.24999772  1
  Pd  Pd2  1  0.16977353  0.33954174  0.24999981  1
  Pd  Pd3  1  0.66045776  0.83022423  0.25000058  1
  Pd  Pd4  1  0.16976768  0.83022745  0.24999560  1
  Pd  Pd5  1  0.83023316  0.66046883  0.74999810  1
  Pd  Pd6  1  0.33953281  0.16976890  0.74999750  1
  Pd  Pd7  1  0.83023263  0.16976959  0.75000431  1
