# generated using pymatgen
data_Mg16ScAl12
_symmetry_space_group_name_H-M   'P 1'
_cell_length_a   9.01834103
_cell_length_b   9.16203612
_cell_length_c   9.15995015
_cell_angle_alpha   109.86271739
_cell_angle_beta   109.26310646
_cell_angle_gamma   108.97249693
_symmetry_Int_Tables_number   1
_chemical_formula_structural   Mg16ScAl12
_chemical_formula_sum   'Mg16 Sc1 Al12'
_cell_volume   584.85484615
_cell_formula_units_Z   1
loop_
 _symmetry_equiv_pos_site_id
 _symmetry_equiv_pos_as_xyz
  1  'x, y, z'
loop_
 _atom_site_type_symbol
 _atom_site_label
 _atom_site_symmetry_multiplicity
 _atom_site_fract_x
 _atom_site_fract_y
 _atom_site_fract_z
 _atom_site_occupancy
  Mg  Mg0  1  0.31856359  0.59892841  0.00004636  1
  Mg  Mg1  1  0.34528010  0.99432300  0.99997884  1
  Mg  Mg2  1  0.99442161  0.34493627  0.00001602  1
  Mg  Mg3  1  0.99698069  0.99926557  -0.00000411  1
  Mg  Mg4  1  0.68880137  0.68636040  0.29071217  1
  Mg  Mg5  1  0.99828257  0.60112720  0.31646446  1
  Mg  Mg6  1  0.60478681  0.99995145  0.31808207  1
  Mg  Mg7  1  0.99644696  0.00324164  0.34093757  1
  Mg  Mg8  1  0.39574957  0.71141181  0.39520359  1
  Mg  Mg9  1  0.71644823  0.40177923  0.40332923  1
  Mg  Mg10  1  0.31306695  0.99843140  0.59666285  1
  Mg  Mg11  1  0.00050320  0.31619112  0.60474722  1
  Mg  Mg12  1  0.65554288  0.66232574  0.65909332  1
  Mg  Mg13  1  0.28668349  0.68188593  0.68193982  1
  Mg  Mg14  1  0.68187101  0.28471560  0.68357565  1
  Mg  Mg15  1  0.39811119  0.39562509  0.70929362  1
  Sc  Sc16  1  0.59364138  0.31514679  0.99998652  1
  Al  Al17  1  0.81326263  0.62806361  0.99994314  1
  Al  Al18  1  0.63524223  0.81528576  0.99999884  1
  Al  Al19  1  0.36841909  0.36635626  0.17982073  1
  Al  Al20  1  0.81693509  0.18830844  0.18457951  1
  Al  Al21  1  0.18671170  0.82055112  0.18497164  1
  Al  Al22  1  0.36623762  0.17831732  0.36248320  1
  Al  Al23  1  0.18357695  0.36569926  0.36566388  1
  Al  Al24  1  0.81794470  0.00004953  0.63432616  1
  Al  Al25  1  0.00379882  0.81594289  0.63753302  1
  Al  Al26  1  0.00173537  0.63559018  0.81502415  1
  Al  Al27  1  0.63236568  0.00371584  0.81544849  1
  Al  Al28  1  0.18858753  0.18647413  0.82014404  1
