# generated using pymatgen
data_Eu2Mg
_symmetry_space_group_name_H-M   'P 1'
_cell_length_a   3.91790278
_cell_length_b   6.74856291
_cell_length_c   9.40922427
_cell_angle_alpha   69.04224691
_cell_angle_beta   90.00000000
_cell_angle_gamma   106.87452964
_symmetry_Int_Tables_number   1
_chemical_formula_structural   Eu2Mg
_chemical_formula_sum   'Eu4 Mg2'
_cell_volume   220.81474762
_cell_formula_units_Z   2
loop_
 _symmetry_equiv_pos_site_id
 _symmetry_equiv_pos_as_xyz
  1  'x, y, z'
loop_
 _atom_site_type_symbol
 _atom_site_label
 _atom_site_symmetry_multiplicity
 _atom_site_fract_x
 _atom_site_fract_y
 _atom_site_fract_z
 _atom_site_occupancy
  Eu  Eu0  1  0.70025630  0.40050960  0.12258403  1
  Eu  Eu1  1  0.37126398  0.74252796  0.32320993  1
  Eu  Eu2  1  0.35095902  0.70191804  0.73234507  1
  Eu  Eu3  1  0.02196770  0.04393440  0.93297097  1
  Mg  Mg4  1  0.05638732  0.11277365  0.44468590  1
  Mg  Mg5  1  0.66583768  0.33167135  0.61087110  1
