# generated using pymatgen
data_InSn3
_symmetry_space_group_name_H-M   'P 1'
_cell_length_a   6.73422150
_cell_length_b   6.73422108
_cell_length_c   5.60608592
_cell_angle_alpha   90.00000000
_cell_angle_beta   90.00000000
_cell_angle_gamma   119.99999529
_symmetry_Int_Tables_number   1
_chemical_formula_structural   InSn3
_chemical_formula_sum   'In2 Sn6'
_cell_volume   220.17356202
_cell_formula_units_Z   2
loop_
 _symmetry_equiv_pos_site_id
 _symmetry_equiv_pos_as_xyz
  1  'x, y, z'
loop_
 _atom_site_type_symbol
 _atom_site_label
 _atom_site_symmetry_multiplicity
 _atom_site_fract_x
 _atom_site_fract_y
 _atom_site_fract_z
 _atom_site_occupancy
  In  In0  1  0.33333300  0.66666600  0.75000000  1
  In  In1  1  0.66666600  0.33333300  0.24999900  1
  Sn  Sn2  1  0.16722575  0.33445249  0.24999900  1
  Sn  Sn3  1  0.66554851  0.83277525  0.24999900  1
  Sn  Sn4  1  0.16722675  0.83277525  0.24999900  1
  Sn  Sn5  1  0.83277425  0.66554951  0.75000000  1
  Sn  Sn6  1  0.33445249  0.16722475  0.75000000  1
  Sn  Sn7  1  0.83277325  0.16722475  0.75000000  1
