# generated using pymatgen
data_YFe11MoN
_symmetry_space_group_name_H-M   'P 1'
_cell_length_a   4.78380236
_cell_length_b   6.51599312
_cell_length_c   6.51599312
_cell_angle_alpha   97.53944312
_cell_angle_beta   111.53574420
_cell_angle_gamma   68.46425580
_symmetry_Int_Tables_number   1
_chemical_formula_structural   YFe11MoN
_chemical_formula_sum   'Y1 Fe11 Mo1 N1'
_cell_volume   175.74095703
_cell_formula_units_Z   1
loop_
 _symmetry_equiv_pos_site_id
 _symmetry_equiv_pos_as_xyz
  1  'x, y, z'
loop_
 _atom_site_type_symbol
 _atom_site_label
 _atom_site_symmetry_multiplicity
 _atom_site_fract_x
 _atom_site_fract_y
 _atom_site_fract_z
 _atom_site_occupancy
  Y  Y0  1  0.00527791  0.99472209  0.00527791  1
  Fe  Fe1  1  0.72525086  0.77474914  0.22525086  1
  Fe  Fe2  1  0.27716376  0.22283624  0.77716376  1
  Fe  Fe3  1  0.49625118  0.78098714  0.77348951  1
  Fe  Fe4  1  0.49625118  0.22651049  0.21901286  1
  Fe  Fe5  1  0.50006842  0.99708796  0.49837928  1
  Fe  Fe6  1  0.00122290  0.99708796  0.49837928  1
  Fe  Fe7  1  0.50006842  0.50162072  0.00291204  1
  Fe  Fe8  1  0.00122290  0.50162072  0.00291204  1
  Fe  Fe9  1  0.35976548  0.64023452  0.35976548  1
  Fe  Fe10  1  0.99947409  0.36061372  0.35956191  1
  Fe  Fe11  1  0.99947409  0.64043809  0.63938628  1
  Mo  Mo12  1  0.63764988  0.36235012  0.63764988  1
  N  N13  1  0.50085891  0.99914109  0.00085891  1
