# generated using pymatgen
data_Zr3Co8Si
_symmetry_space_group_name_H-M   'P 1'
_cell_length_a   4.85411174
_cell_length_b   4.85411174
_cell_length_c   8.25587387
_cell_angle_alpha   72.90365925
_cell_angle_beta   90.00000000
_cell_angle_gamma   120.00000000
_symmetry_Int_Tables_number   1
_chemical_formula_structural   Zr3Co8Si
_chemical_formula_sum   'Zr3 Co8 Si1'
_cell_volume   158.46303995
_cell_formula_units_Z   1
loop_
 _symmetry_equiv_pos_site_id
 _symmetry_equiv_pos_as_xyz
  1  'x, y, z'
loop_
 _atom_site_type_symbol
 _atom_site_label
 _atom_site_symmetry_multiplicity
 _atom_site_fract_x
 _atom_site_fract_y
 _atom_site_fract_z
 _atom_site_occupancy
  Zr  Zr0  1  0.37744899  0.75489799  0.86765302  1
  Zr  Zr1  1  0.99051635  0.98103271  0.02845094  1
  Zr  Zr2  1  0.50591605  0.01183210  0.48225186  1
  Co  Co3  1  0.43779963  0.37707290  0.18512747  1
  Co  Co4  1  0.93979657  0.37948345  0.68071998  1
  Co  Co5  1  0.43779963  0.87559926  0.18512747  1
  Co  Co6  1  0.93979657  0.87959314  0.68071998  1
  Co  Co7  1  0.19020484  0.38040968  0.42938548  1
  Co  Co8  1  0.68971173  0.37942345  0.93086482  1
  Co  Co9  1  0.93927327  0.37707290  0.18512747  1
  Co  Co10  1  0.43968688  0.37948345  0.68071998  1
  Si  Si11  1  0.86204949  0.72409897  0.41385154  1
