# generated using pymatgen
data_Mg16UAl12
_symmetry_space_group_name_H-M   'P 1'
_cell_length_a   8.79679496
_cell_length_b   9.26167338
_cell_length_c   9.26167534
_cell_angle_alpha   110.46557982
_cell_angle_beta   108.45755881
_cell_angle_gamma   108.45754792
_symmetry_Int_Tables_number   1
_chemical_formula_structural   Mg16UAl12
_chemical_formula_sum   'Mg16 U1 Al12'
_cell_volume   587.97974242
_cell_formula_units_Z   1
loop_
 _symmetry_equiv_pos_site_id
 _symmetry_equiv_pos_as_xyz
  1  'x, y, z'
loop_
 _atom_site_type_symbol
 _atom_site_label
 _atom_site_symmetry_multiplicity
 _atom_site_fract_x
 _atom_site_fract_y
 _atom_site_fract_z
 _atom_site_occupancy
  Mg  Mg0  1  0.31720414  0.59596362  0.99999900  1
  Mg  Mg1  1  0.60817494  0.33351153  0.99999900  1
  Mg  Mg2  1  0.99856707  0.00000100  1.00000000  1
  Mg  Mg3  1  0.99648603  0.34108109  0.00000000  1
  Mg  Mg4  1  0.69191856  0.68905187  0.30105504  1
  Mg  Mg5  1  0.00286669  0.61200317  0.31094813  1
  Mg  Mg6  1  0.60817494  0.99999900  0.33351253  1
  Mg  Mg7  1  0.99648603  0.00000000  0.34108209  1
  Mg  Mg8  1  0.39086352  0.69894596  0.38799783  1
  Mg  Mg9  1  0.72124052  0.40403638  0.40403638  1
  Mg  Mg10  1  0.31720414  0.99999900  0.59596462  1
  Mg  Mg11  1  0.00286669  0.31094913  0.61200317  1
  Mg  Mg12  1  0.65540293  0.65891791  0.65891691  1
  Mg  Mg13  1  0.27466241  0.66648647  0.66648647  1
  Mg  Mg14  1  0.69191856  0.30105504  0.68905187  1
  Mg  Mg15  1  0.39086352  0.38799683  0.69894596  1
  U  U16  1  0.37210835  1.00000000  0.00000000  1
  Al  Al17  1  0.62580471  0.82024770  0.99999900  1
  Al  Al18  1  0.80836888  0.63908496  0.00000100  1
  Al  Al19  1  0.36572192  0.35905618  0.17820965  1
  Al  Al20  1  0.80555601  0.17975130  0.17975130  1
  Al  Al21  1  0.18751227  0.82178935  0.18084553  1
  Al  Al22  1  0.36572192  0.17820965  0.35905618  1
  Al  Al23  1  0.16928491  0.36091704  0.36091604  1
  Al  Al24  1  0.80836888  0.00000100  0.63908496  1
  Al  Al25  1  0.00666574  0.81915447  0.64094382  1
  Al  Al26  1  0.00666674  0.64094382  0.81915347  1
  Al  Al27  1  0.62580371  0.99999900  0.82024770  1
  Al  Al28  1  0.18751127  0.18084553  0.82178935  1
