# generated using pymatgen
data_Er3GaNiS7
_symmetry_space_group_name_H-M   'P 1'
_cell_length_a   6.16296574
_cell_length_b   9.47948868
_cell_length_c   9.47922136
_cell_angle_alpha   119.99879027
_cell_angle_beta   90.00000000
_cell_angle_gamma   90.00000000
_symmetry_Int_Tables_number   1
_chemical_formula_structural   Er3GaNiS7
_chemical_formula_sum   'Er6 Ga2 Ni2 S14'
_cell_volume   479.60450778
_cell_formula_units_Z   2
loop_
 _symmetry_equiv_pos_site_id
 _symmetry_equiv_pos_as_xyz
  1  'x, y, z'
loop_
 _atom_site_type_symbol
 _atom_site_label
 _atom_site_symmetry_multiplicity
 _atom_site_fract_x
 _atom_site_fract_y
 _atom_site_fract_z
 _atom_site_occupancy
  Er  Er0  1  0.82222652  0.15674115  0.78141511  1
  Er  Er1  1  0.82221737  0.21858234  0.37533536  1
  Er  Er2  1  0.82221232  0.62469968  0.84327431  1
  Er  Er3  1  0.32222652  0.84325885  0.21858489  1
  Er  Er4  1  0.32221737  0.78141766  0.62466464  1
  Er  Er5  1  0.32221232  0.37530032  0.15672569  1
  Ga  Ga6  1  0.89395449  0.66666189  0.33332730  1
  Ga  Ga7  1  0.39395449  0.33333811  0.66667270  1
  Ni  Ni8  1  0.49365094  0.99999415  -0.00001055  1
  Ni  Ni9  1  0.99365094  0.00000585  0.00001055  1
  S  S10  1  0.55480881  0.43477956  0.91483544  1
  S  S11  1  0.55479825  0.08516672  0.51992737  1
  S  S12  1  0.55483501  0.48009048  0.56526663  1
  S  S13  1  0.05480881  0.56522044  0.08516456  1
  S  S14  1  0.05479825  0.91483328  0.48007263  1
  S  S15  1  0.05483501  0.51990952  0.43473337  1
  S  S16  1  0.52647200  0.66667594  0.33334811  1
  S  S17  1  0.02647200  0.33332406  0.66665189  1
  S  S18  1  0.72910888  0.86919762  0.76694372  1
  S  S19  1  0.72910473  0.23303157  0.10221006  1
  S  S20  1  0.72911068  0.89776210  0.13083086  1
  S  S21  1  0.22910888  0.13080238  0.23305628  1
  S  S22  1  0.22910473  0.76696843  0.89778994  1
  S  S23  1  0.22911068  0.10223790  0.86916914  1
