# generated using pymatgen
data_Tb3GaFeS7
_symmetry_space_group_name_H-M   'P 1'
_cell_length_a   6.13988801
_cell_length_b   9.68265577
_cell_length_c   9.67756238
_cell_angle_alpha   120.12424811
_cell_angle_beta   90.00000000
_cell_angle_gamma   90.00000000
_symmetry_Int_Tables_number   1
_chemical_formula_structural   Tb3GaFeS7
_chemical_formula_sum   'Tb6 Ga2 Fe2 S14'
_cell_volume   497.62988226
_cell_formula_units_Z   2
loop_
 _symmetry_equiv_pos_site_id
 _symmetry_equiv_pos_as_xyz
  1  'x, y, z'
loop_
 _atom_site_type_symbol
 _atom_site_label
 _atom_site_symmetry_multiplicity
 _atom_site_fract_x
 _atom_site_fract_y
 _atom_site_fract_z
 _atom_site_occupancy
  Tb  Tb0  1  0.32075719  0.84630294  0.22404770  1
  Tb  Tb1  1  0.31995424  0.77780111  0.62470820  1
  Tb  Tb2  1  0.32028039  0.37563655  0.15223076  1
  Tb  Tb3  1  0.82075719  0.15369706  0.77595230  1
  Tb  Tb4  1  0.81995424  0.22219889  0.37529180  1
  Tb  Tb5  1  0.82028039  0.62436345  0.84776924  1
  Ga  Ga6  1  0.39406616  0.33363846  0.66656165  1
  Ga  Ga7  1  0.89406616  0.66636154  0.33343835  1
  Fe  Fe8  1  0.50215803  0.00005597  0.99767313  1
  Fe  Fe9  1  0.00215803  -0.00005597  0.00232687  1
  S  S10  1  0.23646527  0.13653318  0.23726019  1
  S  S11  1  0.23666603  0.76299858  0.89843780  1
  S  S12  1  0.23669191  0.10023072  0.86391674  1
  S  S13  1  0.73646527  0.86346682  0.76273981  1
  S  S14  1  0.73666603  0.23700142  0.10156220  1
  S  S15  1  0.73669191  0.89976928  0.13608326  1
  S  S16  1  0.05276426  0.56932692  0.08807913  1
  S  S17  1  0.05237832  0.91183935  0.48133741  1
  S  S18  1  0.05229276  0.51918330  0.43056888  1
  S  S19  1  0.55276426  0.43067308  0.91192087  1
  S  S20  1  0.55237832  0.08816065  0.51866259  1
  S  S21  1  0.55229276  0.48081670  0.56943112  1
  S  S22  1  0.02510544  0.33319855  0.66663517  1
  S  S23  1  0.52510544  0.66680145  0.33336483  1
