# generated using pymatgen
data_NaH5CO4
_symmetry_space_group_name_H-M   'P 1'
_cell_length_a   3.73574149
_cell_length_b   7.69169630
_cell_length_c   8.21249940
_cell_angle_alpha   110.90136273
_cell_angle_beta   90.00000000
_cell_angle_gamma   90.00000000
_symmetry_Int_Tables_number   1
_chemical_formula_structural   NaH5CO4
_chemical_formula_sum   'Na2 H10 C2 O8'
_cell_volume   220.45111174
_cell_formula_units_Z   2
loop_
 _symmetry_equiv_pos_site_id
 _symmetry_equiv_pos_as_xyz
  1  'x, y, z'
loop_
 _atom_site_type_symbol
 _atom_site_label
 _atom_site_symmetry_multiplicity
 _atom_site_fract_x
 _atom_site_fract_y
 _atom_site_fract_z
 _atom_site_occupancy
  Na  Na0  1  0.19341800  0.18817625  0.65471348  1
  Na  Na1  1  0.69341800  0.81182375  0.34528652  1
  H  H2  1  0.60565186  0.33796816  0.47252775  1
  H  H3  1  0.10565186  0.66203184  0.52747225  1
  H  H4  1  0.71558100  0.50187204  0.64511828  1
  H  H5  1  0.21558100  0.49812796  0.35488172  1
  H  H6  1  0.25831022  0.31627914  0.05931674  1
  H  H7  1  0.75831022  0.68372086  0.94068326  1
  H  H8  1  0.00762386  0.45226936  0.99910957  1
  H  H9  1  0.50762386  0.54773064  0.00089043  1
  H  H10  1  0.03034915  0.03533148  0.11008647  1
  H  H11  1  0.53034915  0.96466852  0.88991353  1
  C  C12  1  0.18818728  0.10322199  0.23120254  1
  C  C13  1  0.68818728  0.89677801  0.76879746  1
  O  O14  1  0.19432895  0.02305005  0.34136914  1
  O  O15  1  0.69432895  0.97694995  0.65863086  1
  O  O16  1  0.34866922  0.25446295  0.24485686  1
  O  O17  1  0.84866922  0.74553705  0.75514314  1
  O  O18  1  0.20858397  0.36107045  0.96151713  1
  O  O19  1  0.70858397  0.63892955  0.03848287  1
  O  O20  1  0.68399649  0.36582654  0.59401167  1
  O  O21  1  0.18399649  0.63417346  0.40598833  1
