# generated using pymatgen
data_Dy3GaNiSe7
_symmetry_space_group_name_H-M   'P 1'
_cell_length_a   6.49785211
_cell_length_b   9.98618590
_cell_length_c   9.98639665
_cell_angle_alpha   120.00095736
_cell_angle_beta   90.00000000
_cell_angle_gamma   90.00000000
_symmetry_Int_Tables_number   1
_chemical_formula_structural   Dy3GaNiSe7
_chemical_formula_sum   'Dy6 Ga2 Ni2 Se14'
_cell_volume   561.18327996
_cell_formula_units_Z   2
loop_
 _symmetry_equiv_pos_site_id
 _symmetry_equiv_pos_as_xyz
  1  'x, y, z'
loop_
 _atom_site_type_symbol
 _atom_site_label
 _atom_site_symmetry_multiplicity
 _atom_site_fract_x
 _atom_site_fract_y
 _atom_site_fract_z
 _atom_site_occupancy
  Dy  Dy0  1  0.17820656  0.84041648  0.21456678  1
  Dy  Dy1  1  0.17821963  0.78542431  0.62584682  1
  Dy  Dy2  1  0.17824126  0.37412748  0.15956657  1
  Dy  Dy3  1  0.67820656  0.15958352  0.78543322  1
  Dy  Dy4  1  0.67821963  0.21457569  0.37415318  1
  Dy  Dy5  1  0.67824126  0.62587252  0.84043343  1
  Ga  Ga6  1  0.10360096  0.33334610  0.66667299  1
  Ga  Ga7  1  0.60360096  0.66665390  0.33332701  1
  Ni  Ni8  1  0.50315341  -0.00000011  0.99999763  1
  Ni  Ni9  1  0.00315341  0.00000011  0.00000237  1
  Se  Se10  1  0.44466733  0.56174531  0.08179519  1
  Se  Se11  1  0.44468552  0.91818088  0.47992934  1
  Se  Se12  1  0.44465975  0.52004555  0.43825791  1
  Se  Se13  1  0.94466733  0.43825469  0.91820481  1
  Se  Se14  1  0.94468552  0.08181912  0.52007066  1
  Se  Se15  1  0.94465975  0.47995445  0.56174209  1
  Se  Se16  1  0.47384789  0.33337637  0.66668606  1
  Se  Se17  1  0.97384789  0.66662363  0.33331394  1
  Se  Se18  1  0.26884865  0.13070983  0.23484154  1
  Se  Se19  1  0.26882405  0.76516724  0.89588549  1
  Se  Se20  1  0.26884500  0.10412840  0.86927045  1
  Se  Se21  1  0.76884865  0.86929017  0.76515846  1
  Se  Se22  1  0.76882405  0.23483276  0.10411451  1
  Se  Se23  1  0.76884500  0.89587160  0.13072955  1
