# generated using pymatgen
data_Nd3GaCoSe7
_symmetry_space_group_name_H-M   'P 1'
_cell_length_a   6.46470861
_cell_length_b   10.30161230
_cell_length_c   10.29767378
_cell_angle_alpha   119.93609546
_cell_angle_beta   90.00000000
_cell_angle_gamma   90.00000000
_symmetry_Int_Tables_number   1
_chemical_formula_structural   Nd3GaCoSe7
_chemical_formula_sum   'Nd6 Ga2 Co2 Se14'
_cell_volume   594.29656282
_cell_formula_units_Z   2
loop_
 _symmetry_equiv_pos_site_id
 _symmetry_equiv_pos_as_xyz
  1  'x, y, z'
loop_
 _atom_site_type_symbol
 _atom_site_label
 _atom_site_symmetry_multiplicity
 _atom_site_fract_x
 _atom_site_fract_y
 _atom_site_fract_z
 _atom_site_occupancy
  Nd  Nd0  1  0.18027670  0.84341251  0.21619878  1
  Nd  Nd1  1  0.18002047  0.78356746  0.62703146  1
  Nd  Nd2  1  0.17989922  0.37300836  0.15673229  1
  Nd  Nd3  1  0.68027670  0.15658749  0.78380122  1
  Nd  Nd4  1  0.68002047  0.21643254  0.37296854  1
  Nd  Nd5  1  0.67989922  0.62699164  0.84326771  1
  Ga  Ga6  1  0.10009406  0.33332367  0.66662537  1
  Ga  Ga7  1  0.60009406  0.66667633  0.33337463  1
  Co  Co8  1  0.49194551  0.99997685  0.99996503  1
  Co  Co9  1  0.99194551  0.00002315  0.00003497  1
  Se  Se10  1  0.45274102  0.56445084  0.08498524  1
  Se  Se11  1  0.45279754  0.91505827  0.47934025  1
  Se  Se12  1  0.45261588  0.52059159  0.43573653  1
  Se  Se13  1  0.95274102  0.43554916  0.91501476  1
  Se  Se14  1  0.95279754  0.08494173  0.52065975  1
  Se  Se15  1  0.95261588  0.47940841  0.56426347  1
  Se  Se16  1  0.47076020  0.33330945  0.66673380  1
  Se  Se17  1  0.97076020  0.66669055  0.33326620  1
  Se  Se18  1  0.25360773  0.13233773  0.23117148  1
  Se  Se19  1  0.25365521  0.76864504  0.90098816  1
  Se  Se20  1  0.25348646  0.09856856  0.86808917  1
  Se  Se21  1  0.75360773  0.86766227  0.76882852  1
  Se  Se22  1  0.75365521  0.23135496  0.09901184  1
  Se  Se23  1  0.75348646  0.90143144  0.13191083  1
