# generated using pymatgen
data_Ce2Zn2Sn2H3
_symmetry_space_group_name_H-M   'P 1'
_cell_length_a   4.40305882
_cell_length_b   4.40305882
_cell_length_c   17.99014541
_cell_angle_alpha   90.00000000
_cell_angle_beta   90.00000000
_cell_angle_gamma   119.99238303
_symmetry_Int_Tables_number   1
_chemical_formula_structural   Ce2Zn2Sn2H3
_chemical_formula_sum   'Ce4 Zn4 Sn4 H6'
_cell_volume   302.07000933
_cell_formula_units_Z   2
loop_
 _symmetry_equiv_pos_site_id
 _symmetry_equiv_pos_as_xyz
  1  'x, y, z'
loop_
 _atom_site_type_symbol
 _atom_site_label
 _atom_site_symmetry_multiplicity
 _atom_site_fract_x
 _atom_site_fract_y
 _atom_site_fract_z
 _atom_site_occupancy
  Ce  Ce0  1  0.99999688  0.00000312  0.50061520  1
  Ce  Ce1  1  0.00000312  0.99999688  0.00061520  1
  Ce  Ce2  1  0.00006857  0.99993143  0.25132838  1
  Ce  Ce3  1  0.99993143  0.00006857  0.75132838  1
  Zn  Zn4  1  0.33329296  0.66670704  0.38313697  1
  Zn  Zn5  1  0.66670704  0.33329296  0.88313697  1
  Zn  Zn6  1  0.33331175  0.66668825  0.11741902  1
  Zn  Zn7  1  0.66668825  0.33331175  0.61741902  1
  Sn  Sn8  1  0.33330775  0.66669225  0.86421719  1
  Sn  Sn9  1  0.66669225  0.33330775  0.36421719  1
  Sn  Sn10  1  0.33330706  0.66669294  0.63910716  1
  Sn  Sn11  1  0.66669294  0.33330706  0.13910716  1
  H  H12  1  0.33329692  0.66670308  0.48719785  1
  H  H13  1  0.66670308  0.33329692  0.98719785  1
  H  H14  1  0.33326099  0.66673901  0.25455485  1
  H  H15  1  0.66673901  0.33326099  0.75455485  1
  H  H16  1  0.33329623  0.66670377  0.01542336  1
  H  H17  1  0.66670377  0.33329623  0.51542336  1
