# generated using pymatgen
data_CuBH4ClO4
_symmetry_space_group_name_H-M   'P 1'
_cell_length_a   5.77568612
_cell_length_b   6.18840986
_cell_length_c   6.18840986
_cell_angle_alpha   90.00000000
_cell_angle_beta   90.00000000
_cell_angle_gamma   90.00000000
_symmetry_Int_Tables_number   1
_chemical_formula_structural   CuBH4ClO4
_chemical_formula_sum   'Cu2 B2 H8 Cl2 O8'
_cell_volume   221.18808178
_cell_formula_units_Z   2
loop_
 _symmetry_equiv_pos_site_id
 _symmetry_equiv_pos_as_xyz
  1  'x, y, z'
loop_
 _atom_site_type_symbol
 _atom_site_label
 _atom_site_symmetry_multiplicity
 _atom_site_fract_x
 _atom_site_fract_y
 _atom_site_fract_z
 _atom_site_occupancy
  Cu  Cu0  1  0.61734308  0.00000000  0.50000000  1
  Cu  Cu1  1  0.38265692  0.50000000  0.00000000  1
  B  B2  1  0.50000000  0.50000000  0.50000000  1
  B  B3  1  0.50000000  0.00000000  0.00000000  1
  H  H4  1  0.75039593  0.65419587  0.32411087  1
  H  H5  1  0.75039593  0.34580413  0.67588913  1
  H  H6  1  0.24960407  0.15419587  0.82411087  1
  H  H7  1  0.24960407  0.84580413  0.17588913  1
  H  H8  1  0.24960407  0.32411087  0.34580413  1
  H  H9  1  0.24960407  0.67588913  0.65419587  1
  H  H10  1  0.75039593  0.82411087  0.84580413  1
  H  H11  1  0.75039593  0.17588913  0.15419587  1
  Cl  Cl12  1  0.15012986  0.00000000  0.50000000  1
  Cl  Cl13  1  0.84987014  0.50000000  0.00000000  1
  O  O14  1  0.65219513  0.04948731  0.18554981  1
  O  O15  1  0.65219513  0.95051269  0.81445019  1
  O  O16  1  0.34780487  0.54948731  0.68554981  1
  O  O17  1  0.34780487  0.45051269  0.31445019  1
  O  O18  1  0.34780487  0.18554981  0.95051269  1
  O  O19  1  0.34780487  0.81445019  0.04948731  1
  O  O20  1  0.65219513  0.68554981  0.45051269  1
  O  O21  1  0.65219513  0.31445019  0.54948731  1
