# generated using pymatgen
data_ScRhO3
_symmetry_space_group_name_H-M   'P 1'
_cell_length_a   5.12282848
_cell_length_b   5.54180716
_cell_length_c   7.57429744
_cell_angle_alpha   90.00000000
_cell_angle_beta   90.00000000
_cell_angle_gamma   90.00742575
_symmetry_Int_Tables_number   1
_chemical_formula_structural   ScRhO3
_chemical_formula_sum   'Sc4 Rh4 O12'
_cell_volume   215.03223878
_cell_formula_units_Z   4
loop_
 _symmetry_equiv_pos_site_id
 _symmetry_equiv_pos_as_xyz
  1  'x, y, z'
loop_
 _atom_site_type_symbol
 _atom_site_label
 _atom_site_symmetry_multiplicity
 _atom_site_fract_x
 _atom_site_fract_y
 _atom_site_fract_z
 _atom_site_occupancy
  Sc  Sc0  1  0.53478164  0.58049490  0.25000000  1
  Sc  Sc1  1  0.46521836  0.41950510  0.75000000  1
  Sc  Sc2  1  0.96685298  0.08090007  0.25000000  1
  Sc  Sc3  1  0.03314702  0.91909993  0.75000000  1
  Rh  Rh4  1  0.50000000  -0.00000000  0.50000000  1
  Rh  Rh5  1  0.50000000  -0.00000000  0.00000000  1
  Rh  Rh6  1  -0.00000000  0.50000000  0.50000000  1
  Rh  Rh7  1  -0.00000000  0.50000000  0.00000000  1
  O  O8  1  0.15496346  0.42764915  0.25000000  1
  O  O9  1  0.84503654  0.57235085  0.75000000  1
  O  O10  1  0.34588250  0.92662184  0.25000000  1
  O  O11  1  0.65411750  0.07337816  0.75000000  1
  O  O12  1  0.17272732  0.18367421  0.57694268  1
  O  O13  1  0.82727268  0.81632579  0.07694268  1
  O  O14  1  0.82727268  0.81632579  0.42305732  1
  O  O15  1  0.17272732  0.18367421  0.92305732  1
  O  O16  1  0.67313864  0.31590690  0.42327979  1
  O  O17  1  0.32686136  0.68409310  0.92327979  1
  O  O18  1  0.32686136  0.68409310  0.57672021  1
  O  O19  1  0.67313864  0.31590690  0.07672021  1
