# generated using pymatgen
data_Na2Cu5TeS3O19
_symmetry_space_group_name_H-M   'P 1'
_cell_length_a   7.46354935
_cell_length_b   9.54317481
_cell_length_c   11.76652315
_cell_angle_alpha   90.00000000
_cell_angle_beta   90.00000000
_cell_angle_gamma   115.19064208
_symmetry_Int_Tables_number   1
_chemical_formula_structural   Na2Cu5TeS3O19
_chemical_formula_sum   'Na4 Cu10 Te2 S6 O38'
_cell_volume   758.37741108
_cell_formula_units_Z   2
loop_
 _symmetry_equiv_pos_site_id
 _symmetry_equiv_pos_as_xyz
  1  'x, y, z'
loop_
 _atom_site_type_symbol
 _atom_site_label
 _atom_site_symmetry_multiplicity
 _atom_site_fract_x
 _atom_site_fract_y
 _atom_site_fract_z
 _atom_site_occupancy
  Na  Na0  1  0.05150628  0.03278938  0.75000000  1
  Na  Na1  1  0.94849372  0.96721062  0.25000000  1
  Na  Na2  1  0.50000000  0.50000000  0.50000000  1
  Na  Na3  1  0.50000000  0.50000000  0.00000000  1
  Cu  Cu4  1  0.76347514  0.21356703  0.62424278  1
  Cu  Cu5  1  0.23652486  0.78643297  0.12424278  1
  Cu  Cu6  1  0.23652486  0.78643297  0.37575722  1
  Cu  Cu7  1  0.76347514  0.21356703  0.87575722  1
  Cu  Cu8  1  0.27273050  0.78263272  0.63278269  1
  Cu  Cu9  1  0.72726950  0.21736728  0.13278269  1
  Cu  Cu10  1  0.72726950  0.21736728  0.36721731  1
  Cu  Cu11  1  0.27273050  0.78263272  0.86721731  1
  Cu  Cu12  1  -0.00000000  0.50000000  0.50000000  1
  Cu  Cu13  1  -0.00000000  0.50000000  0.00000000  1
  Te  Te14  1  0.79299978  0.57992356  0.75000000  1
  Te  Te15  1  0.20700022  0.42007644  0.25000000  1
  S  S16  1  0.30431855  0.11266961  0.47431541  1
  S  S17  1  0.69568145  0.88733039  0.97431541  1
  S  S18  1  0.69568145  0.88733039  0.52568459  1
  S  S19  1  0.30431855  0.11266961  0.02568459  1
  S  S20  1  0.25428814  0.42888029  0.75000000  1
  S  S21  1  0.74571186  0.57111971  0.25000000  1
  O  O22  1  0.07608389  0.74258650  0.75000000  1
  O  O23  1  0.92391611  0.25741350  0.25000000  1
  O  O24  1  0.61324470  0.16067381  0.75000000  1
  O  O25  1  0.38675530  0.83932619  0.25000000  1
  O  O26  1  0.09583672  0.71116317  0.51352098  1
  O  O27  1  0.90416328  0.28883683  0.01352098  1
  O  O28  1  0.90416328  0.28883683  0.48647902  1
  O  O29  1  0.09583672  0.71116317  0.98647902  1
  O  O30  1  0.81004033  0.45297973  0.62653446  1
  O  O31  1  0.18995967  0.54702027  0.12653446  1
  O  O32  1  0.18995967  0.54702027  0.37346554  1
  O  O33  1  0.81004033  0.45297973  0.87346554  1
  O  O34  1  0.44139649  0.85784931  0.75000000  1
  O  O35  1  0.55860351  0.14215069  0.25000000  1
  O  O36  1  0.21925405  0.99458919  0.38181925  1
  O  O37  1  0.78074595  0.00541081  0.88181925  1
  O  O38  1  0.78074595  0.00541081  0.61818075  1
  O  O39  1  0.21925405  0.99458919  0.11818075  1
  O  O40  1  0.23326247  0.04675642  0.58629904  1
  O  O41  1  0.76673753  0.95324358  0.08629904  1
  O  O42  1  0.76673753  0.95324358  0.41370096  1
  O  O43  1  0.23326247  0.04675642  0.91370096  1
  O  O44  1  0.53040472  0.16269197  0.48127531  1
  O  O45  1  0.46959528  0.83730803  0.98127531  1
  O  O46  1  0.46959528  0.83730803  0.51872469  1
  O  O47  1  0.53040472  0.16269197  0.01872469  1
  O  O48  1  0.06820821  0.28304986  0.75000000  1
  O  O49  1  0.93179179  0.71695014  0.25000000  1
  O  O50  1  0.27015043  0.24858524  0.44583200  1
  O  O51  1  0.72984957  0.75141476  0.94583200  1
  O  O52  1  0.72984957  0.75141476  0.55416800  1
  O  O53  1  0.27015043  0.24858524  0.05416800  1
  O  O54  1  0.26411900  0.51977078  0.64515956  1
  O  O55  1  0.73588100  0.48022922  0.14515956  1
  O  O56  1  0.73588100  0.48022922  0.35484044  1
  O  O57  1  0.26411900  0.51977078  0.85484044  1
  O  O58  1  0.43053773  0.38974484  0.75000000  1
  O  O59  1  0.56946227  0.61025516  0.25000000  1
