# generated using pymatgen
data_Yb16Sb8S45
_symmetry_space_group_name_H-M   'P 1'
_cell_length_a   11.21906674
_cell_length_b   14.29280957
_cell_length_c   13.58955130
_cell_angle_alpha   99.50418429
_cell_angle_beta   114.37977033
_cell_angle_gamma   66.42083909
_symmetry_Int_Tables_number   1
_chemical_formula_structural   Yb16Sb8S45
_chemical_formula_sum   'Yb16 Sb8 S45'
_cell_volume   1819.08469144
_cell_formula_units_Z   1
loop_
 _symmetry_equiv_pos_site_id
 _symmetry_equiv_pos_as_xyz
  1  'x, y, z'
loop_
 _atom_site_type_symbol
 _atom_site_label
 _atom_site_symmetry_multiplicity
 _atom_site_fract_x
 _atom_site_fract_y
 _atom_site_fract_z
 _atom_site_occupancy
  Yb  Yb0  1  0.00113473  0.83955735  0.34402944  1
  Yb  Yb1  1  0.50519217  0.83069418  0.34139233  1
  Yb  Yb2  1  0.33620016  0.16930582  0.34139233  1
  Yb  Yb3  1  0.84289571  0.16044265  0.34402944  1
  Yb  Yb4  1  0.90830453  0.33929100  0.15614709  1
  Yb  Yb5  1  0.40932070  0.33935674  0.15588856  1
  Yb  Yb6  1  0.24656886  0.66064326  0.15588856  1
  Yb  Yb7  1  0.74784356  0.66070900  0.15614709  1
  Yb  Yb8  1  0.49480783  0.16930582  0.65860767  1
  Yb  Yb9  1  0.99886527  0.16044265  0.65597056  1
  Yb  Yb10  1  0.15710429  0.83955735  0.65597056  1
  Yb  Yb11  1  0.66379884  0.83069418  0.65860767  1
  Yb  Yb12  1  0.59068030  0.66064326  0.84411144  1
  Yb  Yb13  1  0.09169647  0.66070900  0.84385291  1
  Yb  Yb14  1  0.25215744  0.33929100  0.84385291  1
  Yb  Yb15  1  0.75343214  0.33935674  0.84411144  1
  Sb  Sb16  1  0.37310538  0.81473488  0.99983416  1
  Sb  Sb17  1  0.87327122  0.81473488  0.00016584  1
  Sb  Sb18  1  0.62689462  0.18526512  0.00016584  1
  Sb  Sb19  1  0.12672878  0.18526512  0.99983416  1
  Sb  Sb20  1  0.05870263  0.31561210  0.50000000  1
  Sb  Sb21  1  0.56044083  0.31588959  0.50000000  1
  Sb  Sb22  1  0.43955917  0.68411041  0.50000000  1
  Sb  Sb23  1  0.94129737  0.68438790  0.50000000  1
  S  S24  1  0.27368302  0.00122064  0.22674888  1
  S  S25  1  0.76267342  0.00308311  0.20576838  1
  S  S26  1  0.94309496  0.99691689  0.20576838  1
  S  S27  1  0.45306586  0.99877936  0.22674888  1
  S  S28  1  0.98469750  0.50223729  0.29446349  1
  S  S29  1  0.48479143  0.50244925  0.29482176  1
  S  S30  1  0.31003033  0.49755075  0.29482176  1
  S  S31  1  0.80976599  0.49776271  0.29446349  1
  S  S32  1  0.23732658  0.99691689  0.79423162  1
  S  S33  1  0.72631698  0.99877936  0.77325112  1
  S  S34  1  0.54693414  0.00122064  0.77325112  1
  S  S35  1  0.05690504  0.00308311  0.79423162  1
  S  S36  1  0.51520857  0.49755075  0.70517824  1
  S  S37  1  0.01530250  0.49776271  0.70553651  1
  S  S38  1  0.19023401  0.50223729  0.70553651  1
  S  S39  1  0.68996967  0.50244925  0.70517824  1
  S  S40  1  0.32007055  0.70445042  0.84299652  1
  S  S41  1  0.82167472  0.70224562  0.84421615  1
  S  S42  1  0.52254143  0.29775438  0.84421615  1
  S  S43  1  0.02292597  0.29554958  0.84299652  1
  S  S44  1  0.22475055  0.20532305  0.65670329  1
  S  S45  1  0.72517759  0.20556856  0.65647711  1
  S  S46  1  0.43129952  0.79443144  0.65647711  1
  S  S47  1  0.93195274  0.79467695  0.65670329  1
  S  S48  1  0.17832528  0.29775438  0.15578385  1
  S  S49  1  0.67992945  0.29554958  0.15700348  1
  S  S50  1  0.97707403  0.70445042  0.15700348  1
  S  S51  1  0.47745857  0.70224562  0.15578385  1
  S  S52  1  0.27482241  0.79443144  0.34352289  1
  S  S53  1  0.77524945  0.79467695  0.34329671  1
  S  S54  1  0.06804726  0.20532305  0.34329671  1
  S  S55  1  0.56870048  0.20556856  0.34352289  1
  S  S56  1  0.59071648  0.81510607  0.00038538  1
  S  S57  1  0.09033110  0.81510607  0.99961462  1
  S  S58  1  0.40928352  0.18489393  0.99961462  1
  S  S59  1  0.90966890  0.18489393  0.00038538  1
  S  S60  1  0.34133795  0.31675083  0.50000000  1
  S  S61  1  0.84186043  0.31480296  0.50000000  1
  S  S62  1  0.15813957  0.68519704  0.50000000  1
  S  S63  1  0.65866205  0.68324917  0.50000000  1
  S  S64  1  0.58825561  0.00247391  0.50000000  1
  S  S65  1  0.41174439  0.99752609  0.50000000  1
  S  S66  1  0.00000000  -0.00000000  0.50000000  1
  S  S67  1  0.74999465  0.50000000  0.99998930  1
  S  S68  1  0.25000535  0.50000000  0.00001070  1
