# generated using pymatgen
data_Tm2S3
_symmetry_space_group_name_H-M   'P 1'
_cell_length_a   6.81010237
_cell_length_b   6.81010337
_cell_length_c   18.55582175
_cell_angle_alpha   90.00000000
_cell_angle_beta   90.00000000
_cell_angle_gamma   119.99999572
_symmetry_Int_Tables_number   1
_chemical_formula_structural   Tm2S3
_chemical_formula_sum   'Tm12 S18'
_cell_volume   745.27780318
_cell_formula_units_Z   6
loop_
 _symmetry_equiv_pos_site_id
 _symmetry_equiv_pos_as_xyz
  1  'x, y, z'
loop_
 _atom_site_type_symbol
 _atom_site_label
 _atom_site_symmetry_multiplicity
 _atom_site_fract_x
 _atom_site_fract_y
 _atom_site_fract_z
 _atom_site_occupancy
  Tm  Tm0  1  0.00001342  1.00000000  0.45513778  1
  Tm  Tm1  1  0.99998658  0.00000000  0.95513778  1
  Tm  Tm2  1  0.99999939  -0.00000000  0.15746042  1
  Tm  Tm3  1  0.00000061  0.00000000  0.65746042  1
  Tm  Tm4  1  0.66667860  0.33333247  0.49105824  1
  Tm  Tm5  1  0.33334614  0.66666753  0.49105824  1
  Tm  Tm6  1  0.33332140  0.66666753  0.99105824  1
  Tm  Tm7  1  0.66665386  0.33333247  0.99105824  1
  Tm  Tm8  1  0.66667222  0.33333300  0.29226120  1
  Tm  Tm9  1  0.33333922  0.66666700  0.29226120  1
  Tm  Tm10  1  0.33332778  0.66666700  0.79226120  1
  Tm  Tm11  1  0.66666078  0.33333300  0.79226120  1
  S  S12  1  0.63129438  0.00000000  0.39519499  1
  S  S13  1  0.36872594  0.36871672  0.39519612  1
  S  S14  1  0.00000922  0.63128328  0.39519612  1
  S  S15  1  0.36870562  1.00000000  0.89519499  1
  S  S16  1  0.63127406  0.63128328  0.89519612  1
  S  S17  1  0.99999078  0.36871672  0.89519612  1
  S  S18  1  0.69965760  1.00000000  0.05206734  1
  S  S19  1  0.30031964  0.30032827  0.05206839  1
  S  S20  1  0.99999137  0.69967173  0.05206839  1
  S  S21  1  0.30034240  0.00000000  0.55206734  1
  S  S22  1  0.69968036  0.69967173  0.55206839  1
  S  S23  1  0.00000863  0.30032827  0.55206839  1
  S  S24  1  0.33943324  1.00000000  0.22398980  1
  S  S25  1  0.66057567  0.66057084  0.22399088  1
  S  S26  1  0.00000483  0.33942916  0.22399088  1
  S  S27  1  0.66056676  0.00000000  0.72398980  1
  S  S28  1  0.33942433  0.33942916  0.72399088  1
  S  S29  1  0.99999517  0.66057084  0.72399088  1
