# generated using pymatgen
data_La2B5H7(C2O7)2
_symmetry_space_group_name_H-M   'P 1'
_cell_length_a   6.49545574
_cell_length_b   11.11826235
_cell_length_c   11.74352155
_cell_angle_alpha   61.74617015
_cell_angle_beta   89.58252055
_cell_angle_gamma   89.11805843
_symmetry_Int_Tables_number   1
_chemical_formula_structural   La2B5H7(C2O7)2
_chemical_formula_sum   'La4 B10 H14 C8 O28'
_cell_volume   746.96436931
_cell_formula_units_Z   2
loop_
 _symmetry_equiv_pos_site_id
 _symmetry_equiv_pos_as_xyz
  1  'x, y, z'
loop_
 _atom_site_type_symbol
 _atom_site_label
 _atom_site_symmetry_multiplicity
 _atom_site_fract_x
 _atom_site_fract_y
 _atom_site_fract_z
 _atom_site_occupancy
  La  La0  1  0.67186365  0.61452409  0.51921568  1
  La  La1  1  0.17186365  0.13373977  0.48078432  1
  La  La2  1  0.83397947  0.20786463  0.86652945  1
  La  La3  1  0.33397947  0.07439408  0.13347055  1
  B  B4  1  0.17979906  0.41273179  0.58504143  1
  B  B5  1  0.67979906  0.99777323  0.41495857  1
  B  B6  1  0.28386885  0.21906209  0.80460925  1
  B  B7  1  0.78386885  0.02367135  0.19539075  1
  B  B8  1  0.52700079  0.30464186  0.61762398  1
  B  B9  1  0.02700079  0.92226585  0.38237602  1
  B  B10  1  0.13332384  0.67268325  0.51687331  1
  B  B11  1  0.63332384  0.18955655  0.48312669  1
  B  B12  1  0.86670396  0.35942148  0.49326347  1
  B  B13  1  0.36670396  0.85268495  0.50673653  1
  H  H14  1  0.43211018  0.64644363  0.79574838  1
  H  H15  1  0.93211018  0.44219201  0.20425162  1
  H  H16  1  0.24878628  0.51157600  0.86850625  1
  H  H17  1  0.74878628  0.38008224  0.13149375  1
  H  H18  1  0.42646668  0.53764500  0.96801264  1
  H  H19  1  0.92646668  0.50565764  0.03198736  1
  H  H20  1  0.79821879  0.75280553  0.89249953  1
  H  H21  1  0.29821879  0.64530506  0.10750047  1
  H  H22  1  0.82376187  0.81372043  0.72181657  1
  H  H23  1  0.32376187  0.53553700  0.27818343  1
  H  H24  1  0.04778987  0.76348859  0.82281981  1
  H  H25  1  0.54778987  0.58630840  0.17718019  1
  H  H26  1  0.66560412  0.49497238  0.35399220  1
  H  H27  1  0.16560412  0.84896458  0.64600780  1
  C  C28  1  0.55207144  0.44033810  0.86414196  1
  C  C29  1  0.05207144  0.30448006  0.13585804  1
  C  C30  1  0.91666177  0.95696105  0.78420209  1
  C  C31  1  0.41666177  0.74116314  0.21579791  1
  C  C32  1  0.40723429  0.54250035  0.87304548  1
  C  C33  1  0.90723429  0.41554583  0.12695452  1
  C  C34  1  0.89416974  0.81183500  0.80768705  1
  C  C35  1  0.39416974  0.61952205  0.19231295  1
  O  O36  1  0.06953241  0.54297793  0.55383174  1
  O  O37  1  0.56953241  0.09680967  0.44616826  1
  O  O38  1  0.14279571  0.32003526  0.72589879  1
  O  O39  1  0.64279571  0.04593405  0.27410121  1
  O  O40  1  0.40280803  0.43163633  0.56154599  1
  O  O41  1  0.90280803  0.99318232  0.43845401  1
  O  O42  1  0.21601663  0.13039584  0.92415592  1
  O  O43  1  0.71601663  0.05455175  0.07584408  1
  O  O44  1  0.47968455  0.21711019  0.75697231  1
  O  O45  1  0.97968455  0.97408250  0.24302769  1
  O  O46  1  0.98332805  0.77157478  0.45395162  1
  O  O47  1  0.48332805  0.22552639  0.54604838  1
  O  O48  1  0.74763749  0.33441257  0.61164045  1
  O  O49  1  0.24763749  0.94605302  0.38835955  1
  O  O50  1  0.82125936  0.25130529  0.45377914  1
  O  O51  1  0.32125936  0.70508443  0.54622086  1
  O  O52  1  0.80036373  0.49720162  0.38866657  1
  O  O53  1  0.30036373  0.88586818  0.61133343  1
  O  O54  1  0.08673729  0.35348447  0.50922425  1
  O  O55  1  0.58673729  0.86270872  0.49077575  1
  O  O56  1  0.54797599  0.31654306  0.95261914  1
  O  O57  1  0.04797599  0.26916220  0.04738086  1
  O  O58  1  0.67883470  0.47796493  0.76884310  1
  O  O59  1  0.17883470  0.24680803  0.23115690  1
  O  O60  1  0.82098496  0.99426405  0.85639186  1
  O  O61  1  0.32098496  0.85065591  0.14360814  1
  O  O62  1  0.03211644  0.03618483  0.69057779  1
  O  O63  1  0.53211644  0.72676262  0.30942221  1
