# generated using pymatgen
data_W3I8
_symmetry_space_group_name_H-M   'P 1'
_cell_length_a   14.46260443
_cell_length_b   15.88836107
_cell_length_c   16.70726885
_cell_angle_alpha   104.56185450
_cell_angle_beta   90.00000000
_cell_angle_gamma   90.00000000
_symmetry_Int_Tables_number   1
_chemical_formula_structural   W3I8
_chemical_formula_sum   'W24 I64'
_cell_volume   3715.78980288
_cell_formula_units_Z   8
loop_
 _symmetry_equiv_pos_site_id
 _symmetry_equiv_pos_as_xyz
  1  'x, y, z'
loop_
 _atom_site_type_symbol
 _atom_site_label
 _atom_site_symmetry_multiplicity
 _atom_site_fract_x
 _atom_site_fract_y
 _atom_site_fract_z
 _atom_site_occupancy
  W  W0  1  0.27631612  0.63348269  0.40426672  1
  W  W1  1  0.77631612  0.36651731  0.09573328  1
  W  W2  1  0.72368388  0.36651731  0.59573328  1
  W  W3  1  0.22368388  0.63348269  0.90426672  1
  W  W4  1  0.14312495  0.53964507  0.34396571  1
  W  W5  1  0.64312495  0.46035493  0.15603429  1
  W  W6  1  0.85687505  0.46035493  0.65603429  1
  W  W7  1  0.35687505  0.53964507  0.84396571  1
  W  W8  1  0.12414197  0.69868091  0.38113860  1
  W  W9  1  0.62414197  0.30131909  0.11886140  1
  W  W10  1  0.87585803  0.30131909  0.61886140  1
  W  W11  1  0.37585803  0.69868091  0.88113860  1
  W  W12  1  0.16496529  0.20744413  0.21534913  1
  W  W13  1  0.66496529  0.79255587  0.28465087  1
  W  W14  1  0.83503471  0.79255587  0.78465087  1
  W  W15  1  0.33503471  0.20744413  0.71534913  1
  W  W16  1  0.17029248  0.04589008  0.17182565  1
  W  W17  1  0.67029248  0.95410992  0.32817435  1
  W  W18  1  0.82970752  0.95410992  0.82817435  1
  W  W19  1  0.32970752  0.04589008  0.67182565  1
  W  W20  1  0.30821110  0.13537389  0.15774860  1
  W  W21  1  0.80821110  0.86462611  0.34225140  1
  W  W22  1  0.69178890  0.86462611  0.84225140  1
  W  W23  1  0.19178890  0.13537389  0.65774860  1
  I  I24  1  0.30684956  0.50932457  0.25436230  1
  I  I25  1  0.80684956  0.49067543  0.24563770  1
  I  I26  1  0.69315044  0.49067543  0.74563770  1
  I  I27  1  0.19315044  0.50932457  0.75436230  1
  I  I28  1  0.07312228  0.61148983  0.22052116  1
  I  I29  1  0.57312228  0.38851017  0.27947884  1
  I  I30  1  0.92687772  0.38851017  0.77947884  1
  I  I31  1  0.42687772  0.61148983  0.72052116  1
  I  I32  1  0.27968865  0.76108083  0.31543295  1
  I  I33  1  0.77968865  0.23891917  0.18456705  1
  I  I34  1  0.72031135  0.23891917  0.68456705  1
  I  I35  1  0.22031135  0.76108083  0.81543295  1
  I  I36  1  0.22939024  0.50119312  0.48060304  1
  I  I37  1  0.72939024  0.49880688  0.01939696  1
  I  I38  1  0.77060976  0.49880688  0.51939696  1
  I  I39  1  0.27060976  0.50119312  0.98060304  1
  I  I40  1  0.99316782  0.60584750  0.44596454  1
  I  I41  1  0.49316782  0.39415250  0.05403546  1
  I  I42  1  0.00683218  0.39415250  0.55403546  1
  I  I43  1  0.50683218  0.60584750  0.94596454  1
  I  I44  1  0.20045863  0.75384611  0.53898051  1
  I  I45  1  0.70045863  0.24615389  0.96101949  1
  I  I46  1  0.79954137  0.24615389  0.46101949  1
  I  I47  1  0.29954137  0.75384611  0.03898051  1
  I  I48  1  0.45839893  0.64285920  0.45894630  1
  I  I49  1  0.95839893  0.35714080  0.04105370  1
  I  I50  1  0.54160107  0.35714080  0.54105370  1
  I  I51  1  0.04160107  0.64285920  0.95894630  1
  I  I52  1  0.05884796  0.36668279  0.28714175  1
  I  I53  1  0.55884796  0.63331721  0.21285825  1
  I  I54  1  0.94115204  0.63331721  0.71285825  1
  I  I55  1  0.44115204  0.36668279  0.78714175  1
  I  I56  1  0.00307701  0.85573983  0.39850891  1
  I  I57  1  0.50307701  0.14426017  0.10149109  1
  I  I58  1  0.99692299  0.14426017  0.60149109  1
  I  I59  1  0.49692299  0.85573983  0.89850891  1
  I  I60  1  0.02692764  0.12573808  0.10610060  1
  I  I61  1  0.52692764  0.87426192  0.39389940  1
  I  I62  1  0.97307236  0.87426192  0.89389940  1
  I  I63  1  0.47307236  0.12573808  0.60610060  1
  I  I64  1  0.25464552  0.00951471  0.01650820  1
  I  I65  1  0.75464552  0.99048529  0.48349180  1
  I  I66  1  0.74535448  0.99048529  0.98349180  1
  I  I67  1  0.24535448  0.00951471  0.51650820  1
  I  I68  1  0.24085728  0.26196936  0.08345917  1
  I  I69  1  0.74085728  0.73803064  0.41654083  1
  I  I70  1  0.75914272  0.73803064  0.91654083  1
  I  I71  1  0.25914272  0.26196936  0.58345917  1
  I  I72  1  0.10478933  0.12191586  0.33241579  1
  I  I73  1  0.60478933  0.87808414  0.16758421  1
  I  I74  1  0.89521067  0.87808414  0.66758421  1
  I  I75  1  0.39521067  0.12191586  0.83241579  1
  I  I76  1  0.33715033  0.00545859  0.23969458  1
  I  I77  1  0.83715033  0.99454141  0.26030542  1
  I  I78  1  0.66284967  0.99454141  0.76030542  1
  I  I79  1  0.16284967  0.00545859  0.73969458  1
  I  I80  1  0.32500096  0.25619423  0.30976139  1
  I  I81  1  0.82500096  0.74380577  0.19023861  1
  I  I82  1  0.67499904  0.74380577  0.69023861  1
  I  I83  1  0.17499904  0.25619423  0.80976139  1
  I  I84  1  0.08381340  0.88536233  0.15451327  1
  I  I85  1  0.58381340  0.11463767  0.34548673  1
  I  I86  1  0.91618660  0.11463767  0.84548673  1
  I  I87  1  0.41618660  0.88536233  0.65451327  1
