# generated using pymatgen
data_Ce2Mn3Cu9As7
_symmetry_space_group_name_H-M   'P 1'
_cell_length_a   4.00177755
_cell_length_b   9.83121314
_cell_length_c   9.83305341
_cell_angle_alpha   119.99357182
_cell_angle_beta   90.00000000
_cell_angle_gamma   90.00000000
_symmetry_Int_Tables_number   1
_chemical_formula_structural   Ce2Mn3Cu9As7
_chemical_formula_sum   'Ce2 Mn3 Cu9 As7'
_cell_volume   335.04814098
_cell_formula_units_Z   1
loop_
 _symmetry_equiv_pos_site_id
 _symmetry_equiv_pos_as_xyz
  1  'x, y, z'
loop_
 _atom_site_type_symbol
 _atom_site_label
 _atom_site_symmetry_multiplicity
 _atom_site_fract_x
 _atom_site_fract_y
 _atom_site_fract_z
 _atom_site_occupancy
  Ce  Ce0  1  -0.00000000  0.66667156  0.33339851  1
  Ce  Ce1  1  0.50000000  0.33335709  0.66662432  1
  Mn  Mn2  1  0.50000000  0.12376591  0.90591024  1
  Mn  Mn3  1  0.50000000  0.09435356  0.21837938  1
  Mn  Mn4  1  0.50000000  0.78204572  0.87583049  1
  Cu  Cu5  1  0.00000000  0.37343994  0.95232835  1
  Cu  Cu6  1  0.00000000  0.04762485  0.42109954  1
  Cu  Cu7  1  -0.00000000  0.57891370  0.62651493  1
  Cu  Cu8  1  -0.00000000  0.87962674  0.71844393  1
  Cu  Cu9  1  0.00000000  0.28165618  0.16109039  1
  Cu  Cu10  1  0.00000000  0.83873393  0.12052087  1
  Cu  Cu11  1  0.50000000  0.95616292  0.57848823  1
  Cu  Cu12  1  0.50000000  0.42145506  0.37760102  1
  Cu  Cu13  1  0.50000000  0.62227468  0.04371215  1
  As  As14  1  0.00000000  0.12284396  0.70502428  1
  As  As15  1  0.00000000  0.29496292  0.41781125  1
  As  As16  1  0.00000000  0.58220038  0.87712918  1
  As  As17  1  0.50000000  0.70365500  0.58373198  1
  As  As18  1  0.50000000  0.41621615  0.11993441  1
  As  As19  1  0.50000000  0.88005786  0.29634281  1
  As  As20  1  0.00000000  -0.00001811  0.00008373  1
