# generated using pymatgen
data_Mn3As2H26(S4N5)2
_symmetry_space_group_name_H-M   'P 1'
_cell_length_a   7.93789238
_cell_length_b   12.76821196
_cell_length_c   13.07627160
_cell_angle_alpha   93.56805502
_cell_angle_beta   107.66931121
_cell_angle_gamma   90.00000000
_symmetry_Int_Tables_number   1
_chemical_formula_structural   Mn3As2H26(S4N5)2
_chemical_formula_sum   'Mn6 As4 H52 S16 N20'
_cell_volume   1260.09603367
_cell_formula_units_Z   2
loop_
 _symmetry_equiv_pos_site_id
 _symmetry_equiv_pos_as_xyz
  1  'x, y, z'
loop_
 _atom_site_type_symbol
 _atom_site_label
 _atom_site_symmetry_multiplicity
 _atom_site_fract_x
 _atom_site_fract_y
 _atom_site_fract_z
 _atom_site_occupancy
  Mn  Mn0  1  0.22101432  0.98785475  0.49122633  1
  Mn  Mn1  1  0.72978799  0.51214525  0.50877367  1
  Mn  Mn2  1  0.77898568  0.01214525  0.50877367  1
  Mn  Mn3  1  0.27021201  0.48785475  0.49122633  1
  Mn  Mn4  1  0.23595628  0.75000000  1.00000000  1
  Mn  Mn5  1  0.76404372  0.25000000  0.00000000  1
  As  As6  1  0.86444783  0.92300904  0.28698501  1
  As  As7  1  0.57746283  0.57699096  0.71301499  1
  As  As8  1  0.13555217  0.07699096  0.71301499  1
  As  As9  1  0.42253717  0.42300904  0.28698501  1
  H  H10  1  0.29168200  0.12460061  0.35244176  1
  H  H11  1  0.93924024  0.37539939  0.64755824  1
  H  H12  1  0.70831800  0.87539939  0.64755824  1
  H  H13  1  0.06075976  0.62460061  0.35244176  1
  H  H14  1  0.39993202  0.01324281  0.34080927  1
  H  H15  1  0.05912275  0.48675719  0.65919073  1
  H  H16  1  0.60006798  0.98675719  0.65919073  1
  H  H17  1  0.94087725  0.51324281  0.34080927  1
  H  H18  1  0.42225838  0.82461422  0.59512667  1
  H  H19  1  0.82713170  0.67538578  0.40487333  1
  H  H20  1  0.57774162  0.17538578  0.40487333  1
  H  H21  1  0.17286830  0.32461422  0.59512667  1
  H  H22  1  0.47108675  0.83858034  0.48338778  1
  H  H23  1  0.98769898  0.66141966  0.51661222  1
  H  H24  1  0.52891325  0.16141966  0.51661222  1
  H  H25  1  0.01230102  0.33858034  0.48338778  1
  H  H26  1  0.15709479  0.62465278  0.14816032  1
  H  H27  1  0.00893447  0.87534722  0.85183968  1
  H  H28  1  0.84290521  0.37534722  0.85183968  1
  H  H29  1  0.99106553  0.12465278  0.14816032  1
  H  H30  1  0.03564128  0.73051706  0.14557959  1
  H  H31  1  0.89006168  0.76948294  0.85442041  1
  H  H32  1  0.96435872  0.26948294  0.85442041  1
  H  H33  1  0.10993832  0.23051706  0.14557959  1
  H  H34  1  0.97233276  0.63625022  0.04774501  1
  H  H35  1  0.92458775  0.86374978  0.95225499  1
  H  H36  1  0.02766724  0.36374978  0.95225499  1
  H  H37  1  0.07541225  0.13625022  0.04774501  1
  H  H38  1  0.26087141  0.54460341  0.92149979  1
  H  H39  1  0.33937162  0.95539659  0.07850021  1
  H  H40  1  0.73912859  0.45539659  0.07850021  1
  H  H41  1  0.66062838  0.04460341  0.92149979  1
  H  H42  1  0.04803083  0.57369494  0.87605377  1
  H  H43  1  0.17197706  0.92630506  0.12394623  1
  H  H44  1  0.95196917  0.42630506  0.12394623  1
  H  H45  1  0.82802294  0.07369494  0.87605377  1
  H  H46  1  0.18882168  0.61218345  0.81379286  1
  H  H47  1  0.37502882  0.88781655  0.18620714  1
  H  H48  1  0.81117832  0.38781655  0.18620714  1
  H  H49  1  0.62497118  0.11218345  0.81379286  1
  H  H50  1  0.49735611  0.60677453  0.09335525  1
  H  H51  1  0.40400085  0.89322547  0.90664475  1
  H  H52  1  0.50264389  0.39322547  0.90664475  1
  H  H53  1  0.59599915  0.10677453  0.09335525  1
  H  H54  1  0.59753007  0.72343139  0.09938860  1
  H  H55  1  0.49814146  0.77656861  0.90061140  1
  H  H56  1  0.40246993  0.27656861  0.90061140  1
  H  H57  1  0.50185854  0.22343139  0.09938860  1
  H  H58  1  0.50052877  0.69649007  0.18941752  1
  H  H59  1  0.31111125  0.80350993  0.81058248  1
  H  H60  1  0.49947123  0.30350993  0.81058248  1
  H  H61  1  0.68888875  0.19649007  0.18941752  1
  S  S62  1  0.77682170  0.92288568  0.11390675  1
  S  S63  1  0.66291495  0.57711432  0.88609325  1
  S  S64  1  0.22317830  0.07711432  0.88609325  1
  S  S65  1  0.33708505  0.42288568  0.11390675  1
  S  S66  1  0.10632559  0.83365779  0.34371804  1
  S  S67  1  0.76260755  0.66634221  0.65628196  1
  S  S68  1  0.89367441  0.16634221  0.65628196  1
  S  S69  1  0.23739245  0.33365779  0.34371804  1
  S  S70  1  0.93816306  0.07939727  0.37532411  1
  S  S71  1  0.56283895  0.42060273  0.62467589  1
  S  S72  1  0.06183694  0.92060273  0.62467589  1
  S  S73  1  0.43716105  0.57939727  0.37532411  1
  S  S74  1  0.65807259  0.86706404  0.35294663  1
  S  S75  1  0.30512597  0.63293596  0.64705337  1
  S  S76  1  0.34192741  0.13293596  0.64705337  1
  S  S77  1  0.69487403  0.36706404  0.35294663  1
  N  N78  1  0.37681195  0.06989268  0.39401024  1
  N  N79  1  0.98280171  0.43010732  0.60598976  1
  N  N80  1  0.62318805  0.93010732  0.60598976  1
  N  N81  1  0.01719829  0.56989268  0.39401024  1
  N  N82  1  0.45436372  0.87974268  0.54957452  1
  N  N83  1  0.90478921  0.62025732  0.45042548  1
  N  N84  1  0.54563628  0.12025732  0.45042548  1
  N  N85  1  0.09521079  0.37974268  0.54957452  1
  N  N86  1  0.07992153  0.67665138  0.09851860  1
  N  N87  1  0.98140293  0.82334862  0.90148140  1
  N  N88  1  0.92007847  0.32334862  0.90148140  1
  N  N89  1  0.01859707  0.17665138  0.09851860  1
  N  N90  1  0.17421378  0.60121587  0.88792788  1
  N  N91  1  0.28628590  0.89878413  0.11207212  1
  N  N92  1  0.82578622  0.39878413  0.11207212  1
  N  N93  1  0.71371410  0.10121587  0.88792788  1
  N  N94  1  0.48985541  0.68599208  0.10929197  1
  N  N95  1  0.38056343  0.81400792  0.89070803  1
  N  N96  1  0.51014459  0.31400792  0.89070803  1
  N  N97  1  0.61943657  0.18599208  0.10929197  1
