# generated using pymatgen
data_NaCd2(GeO3)3
_symmetry_space_group_name_H-M   'P 1'
_cell_length_a   7.26465653
_cell_length_b   7.20305300
_cell_length_c   8.13842694
_cell_angle_alpha   102.64942363
_cell_angle_beta   94.13742978
_cell_angle_gamma   90.25406401
_symmetry_Int_Tables_number   1
_chemical_formula_structural   NaCd2(GeO3)3
_chemical_formula_sum   'Na2 Cd4 Ge6 O18'
_cell_volume   414.35619621
_cell_formula_units_Z   2
loop_
 _symmetry_equiv_pos_site_id
 _symmetry_equiv_pos_as_xyz
  1  'x, y, z'
loop_
 _atom_site_type_symbol
 _atom_site_label
 _atom_site_symmetry_multiplicity
 _atom_site_fract_x
 _atom_site_fract_y
 _atom_site_fract_z
 _atom_site_occupancy
  Na  Na0  1  0.64725058  0.73762009  0.43824456  1
  Na  Na1  1  0.35274942  0.26237991  0.56175544  1
  Cd  Cd2  1  0.85885633  0.41077486  0.14722570  1
  Cd  Cd3  1  0.14114367  0.58922514  0.85277430  1
  Cd  Cd4  1  0.86695428  0.91081753  0.14873351  1
  Cd  Cd5  1  0.13304572  0.08918247  0.85126649  1
  Ge  Ge6  1  0.34733303  0.40820415  0.20915341  1
  Ge  Ge7  1  0.65266697  0.59179585  0.79084659  1
  Ge  Ge8  1  0.35154871  0.94709521  0.20644987  1
  Ge  Ge9  1  0.64845129  0.05290479  0.79355013  1
  Ge  Ge10  1  0.14241059  0.73832086  0.45931803  1
  Ge  Ge11  1  0.85758941  0.26167914  0.54068197  1
  O  O12  1  0.16118149  0.38858947  0.05737376  1
  O  O13  1  0.83881851  0.61141053  0.94262624  1
  O  O14  1  0.17004844  0.89134081  0.04841577  1
  O  O15  1  0.82995156  0.10865919  0.95158423  1
  O  O16  1  0.28026527  0.52876953  0.41478785  1
  O  O17  1  0.71973473  0.47123047  0.58521215  1
  O  O18  1  0.28946666  0.91995397  0.41029789  1
  O  O19  1  0.71053334  0.08004603  0.58970211  1
  O  O20  1  0.89469905  0.20555059  0.32593985  1
  O  O21  1  0.10530095  0.79444941  0.67406015  1
  O  O22  1  0.93942565  0.70805326  0.32455410  1
  O  O23  1  0.06057435  0.29194674  0.67544590  1
  O  O24  1  0.56215864  0.51401697  0.18674169  1
  O  O25  1  0.43784136  0.48598303  0.81325831  1
  O  O26  1  0.55868241  0.82628459  0.15825216  1
  O  O27  1  0.44131759  0.17371541  0.84174784  1
  O  O28  1  0.41623106  0.19213764  0.26616317  1
  O  O29  1  0.58376894  0.80786236  0.73383683  1
