# generated using pymatgen
data_NaC2NO3
_symmetry_space_group_name_H-M   'P 1'
_cell_length_a   3.58790702
_cell_length_b   5.39871107
_cell_length_c   21.51953249
_cell_angle_alpha   90.00000000
_cell_angle_beta   93.23800053
_cell_angle_gamma   90.00000000
_symmetry_Int_Tables_number   1
_chemical_formula_structural   NaC2NO3
_chemical_formula_sum   'Na4 C8 N4 O12'
_cell_volume   416.16945474
_cell_formula_units_Z   4
loop_
 _symmetry_equiv_pos_site_id
 _symmetry_equiv_pos_as_xyz
  1  'x, y, z'
loop_
 _atom_site_type_symbol
 _atom_site_label
 _atom_site_symmetry_multiplicity
 _atom_site_fract_x
 _atom_site_fract_y
 _atom_site_fract_z
 _atom_site_occupancy
  Na  Na0  1  0.48860447  0.70100708  0.79769382  1
  Na  Na1  1  0.01139553  0.20100708  0.70230618  1
  Na  Na2  1  0.51139553  0.29899292  0.20230618  1
  Na  Na3  1  0.98860447  0.79899292  0.29769382  1
  C  C4  1  0.81566339  0.50287371  0.57641651  1
  C  C5  1  0.68433661  0.00287371  0.92358349  1
  C  C6  1  0.18433661  0.49712629  0.42358349  1
  C  C7  1  0.31566339  0.99712629  0.07641651  1
  C  C8  1  0.54684689  0.70926318  0.66066216  1
  C  C9  1  0.95315311  0.20926318  0.83933784  1
  C  C10  1  0.45315311  0.29073682  0.33933784  1
  C  C11  1  0.04684689  0.79073682  0.16066216  1
  N  N12  1  0.68320654  0.68823030  0.59916724  1
  N  N13  1  0.81679346  0.18823030  0.90083276  1
  N  N14  1  0.31679346  0.31176970  0.40083276  1
  N  N15  1  0.18320654  0.81176970  0.09916724  1
  O  O16  1  0.95427196  0.33255837  0.55238785  1
  O  O17  1  0.54572804  0.83255837  0.94761215  1
  O  O18  1  0.04572804  0.66744163  0.44761215  1
  O  O19  1  0.45427196  0.16744163  0.05238785  1
  O  O20  1  0.49381964  0.92563398  0.67999426  1
  O  O21  1  0.00618036  0.42563398  0.82000574  1
  O  O22  1  0.50618036  0.07436602  0.32000574  1
  O  O23  1  0.99381964  0.57436602  0.17999426  1
  O  O24  1  0.49687694  0.50958148  0.69054856  1
  O  O25  1  0.00312306  0.00958148  0.80945144  1
  O  O26  1  0.50312306  0.49041852  0.30945144  1
  O  O27  1  -0.00312306  0.99041852  0.19054856  1
