# generated using pymatgen
data_FeTe3S3Cl3(OF2)9
_symmetry_space_group_name_H-M   'P 1'
_cell_length_a   9.79023924
_cell_length_b   16.05829203
_cell_length_c   17.55535681
_cell_angle_alpha   90.00000000
_cell_angle_beta   98.79067461
_cell_angle_gamma   90.00000000
_symmetry_Int_Tables_number   1
_chemical_formula_structural   FeTe3S3Cl3(OF2)9
_chemical_formula_sum   'Fe4 Te12 S12 Cl12 O36 F72'
_cell_volume   2727.53653322
_cell_formula_units_Z   4
loop_
 _symmetry_equiv_pos_site_id
 _symmetry_equiv_pos_as_xyz
  1  'x, y, z'
loop_
 _atom_site_type_symbol
 _atom_site_label
 _atom_site_symmetry_multiplicity
 _atom_site_fract_x
 _atom_site_fract_y
 _atom_site_fract_z
 _atom_site_occupancy
  Fe  Fe0  1  0.49733122  0.84864449  0.74180389  1
  Fe  Fe1  1  0.99733122  0.65135551  0.24180389  1
  Fe  Fe2  1  0.50266878  0.15135551  0.25819611  1
  Fe  Fe3  1  0.00266878  0.34864449  0.75819611  1
  Te  Te4  1  0.30708120  0.97868588  0.60397868  1
  Te  Te5  1  0.80708120  0.52131412  0.10397868  1
  Te  Te6  1  0.69291880  0.02131412  0.39602132  1
  Te  Te7  1  0.19291880  0.47868588  0.89602132  1
  Te  Te8  1  0.68748785  0.01537450  0.83598370  1
  Te  Te9  1  0.18748785  0.48462550  0.33598370  1
  Te  Te10  1  0.31251215  0.98462550  0.16401630  1
  Te  Te11  1  0.81251215  0.51537450  0.66401630  1
  Te  Te12  1  0.22640982  0.85827812  0.85502724  1
  Te  Te13  1  0.72640982  0.64172188  0.35502724  1
  Te  Te14  1  0.77359018  0.14172188  0.14497276  1
  Te  Te15  1  0.27359018  0.35827812  0.64497276  1
  S  S16  1  0.73558950  0.82427329  0.61818406  1
  S  S17  1  0.23558950  0.67572671  0.11818406  1
  S  S18  1  0.26441050  0.17572671  0.38181594  1
  S  S19  1  0.76441050  0.32427329  0.88181594  1
  S  S20  1  0.65365203  0.70495820  0.88177213  1
  S  S21  1  0.15365203  0.79504180  0.38177213  1
  S  S22  1  0.34634797  0.29504180  0.11822787  1
  S  S23  1  0.84634797  0.20495820  0.61822787  1
  S  S24  1  0.34221478  0.67126088  0.64251599  1
  S  S25  1  0.84221478  0.82873912  0.14251599  1
  S  S26  1  0.65778522  0.32873912  0.35748401  1
  S  S27  1  0.15778522  0.17126088  0.85748401  1
  Cl  Cl28  1  0.92354003  0.77768430  0.62466148  1
  Cl  Cl29  1  0.42354003  0.72231570  0.12466148  1
  Cl  Cl30  1  0.07645997  0.22231570  0.37533852  1
  Cl  Cl31  1  0.57645997  0.27768430  0.87533852  1
  Cl  Cl32  1  0.84871097  0.70084609  0.86509187  1
  Cl  Cl33  1  0.34871097  0.79915391  0.36509187  1
  Cl  Cl34  1  0.15128903  0.29915391  0.13490813  1
  Cl  Cl35  1  0.65128903  0.20084609  0.63490813  1
  Cl  Cl36  1  0.37990825  0.61900709  0.54605656  1
  Cl  Cl37  1  0.87990825  0.88099291  0.04605656  1
  Cl  Cl38  1  0.62009175  0.38099291  0.45394344  1
  Cl  Cl39  1  0.12009175  0.11900709  0.95394344  1
  O  O40  1  0.46049292  0.92591491  0.65959953  1
  O  O41  1  0.96049292  0.57408509  0.15959953  1
  O  O42  1  0.53950708  0.07408509  0.34040047  1
  O  O43  1  0.03950708  0.42591491  0.84040047  1
  O  O44  1  0.60212640  0.91179873  0.82185038  1
  O  O45  1  0.10212640  0.58820127  0.32185038  1
  O  O46  1  0.39787360  0.08820127  0.17814962  1
  O  O47  1  0.89787360  0.41179873  0.67814962  1
  O  O48  1  0.32240666  0.83691348  0.77349127  1
  O  O49  1  0.82240666  0.66308652  0.27349127  1
  O  O50  1  0.67759334  0.16308652  0.22650873  1
  O  O51  1  0.17759334  0.33691348  0.72650873  1
  O  O52  1  0.69452319  0.81953755  0.69391250  1
  O  O53  1  0.19452319  0.68046245  0.19391250  1
  O  O54  1  0.30547681  0.18046245  0.30608750  1
  O  O55  1  0.80547681  0.31953755  0.80608750  1
  O  O56  1  0.64812671  0.79591665  0.55126101  1
  O  O57  1  0.14812671  0.70408335  0.05126101  1
  O  O58  1  0.35187329  0.20408335  0.44873899  1
  O  O59  1  0.85187329  0.29591665  0.94873899  1
  O  O60  1  0.56896821  0.73416172  0.81220000  1
  O  O61  1  0.06896821  0.76583828  0.31220000  1
  O  O62  1  0.43103179  0.26583828  0.18780000  1
  O  O63  1  0.93103179  0.23416172  0.68780000  1
  O  O64  1  0.64237762  0.73859843  0.95512465  1
  O  O65  1  0.14237762  0.76140157  0.45512465  1
  O  O66  1  0.35762238  0.26140157  0.04487535  1
  O  O67  1  0.85762238  0.23859843  0.54487535  1
  O  O68  1  0.42961975  0.74369946  0.65711955  1
  O  O69  1  0.92961975  0.75630054  0.15711955  1
  O  O70  1  0.57038025  0.25630054  0.34288045  1
  O  O71  1  0.07038025  0.24369946  0.84288045  1
  O  O72  1  0.19848116  0.67465534  0.64541110  1
  O  O73  1  0.69848116  0.82534466  0.14541110  1
  O  O74  1  0.80151884  0.32534466  0.35458890  1
  O  O75  1  0.30151884  0.17465534  0.85458890  1
  F  F76  1  0.77047208  0.91853699  0.60631345  1
  F  F77  1  0.27047208  0.58146301  0.10631345  1
  F  F78  1  0.22952792  0.08146301  0.39368655  1
  F  F79  1  0.72952792  0.41853699  0.89368655  1
  F  F80  1  0.62198410  0.60905894  0.88337170  1
  F  F81  1  0.12198410  0.89094106  0.38337170  1
  F  F82  1  0.37801590  0.39094106  0.11662830  1
  F  F83  1  0.87801590  0.10905894  0.61662830  1
  F  F84  1  0.40850654  0.60327115  0.70152374  1
  F  F85  1  0.90850654  0.89672885  0.20152374  1
  F  F86  1  0.59149346  0.39672885  0.29847626  1
  F  F87  1  0.09149346  0.10327115  0.79847626  1
  F  F88  1  0.40654247  0.07762340  0.59711961  1
  F  F89  1  0.90654247  0.42237660  0.09711961  1
  F  F90  1  0.59345753  0.92237660  0.40288039  1
  F  F91  1  0.09345753  0.57762340  0.90288039  1
  F  F92  1  0.24170562  0.01915591  0.69237173  1
  F  F93  1  0.74170562  0.48084409  0.19237173  1
  F  F94  1  0.75829438  0.98084409  0.30762827  1
  F  F95  1  0.25829438  0.51915591  0.80762827  1
  F  F96  1  0.19219486  0.88403249  0.60206492  1
  F  F97  1  0.69219486  0.61596751  0.10206492  1
  F  F98  1  0.80780514  0.11596751  0.39793508  1
  F  F99  1  0.30780514  0.38403249  0.89793508  1
  F  F100  1  0.35783070  0.94482781  0.50950426  1
  F  F101  1  0.85783070  0.55517219  0.00950426  1
  F  F102  1  0.64216930  0.05517219  0.49049574  1
  F  F103  1  0.14216930  0.44482781  0.99049574  1
  F  F104  1  0.15474582  0.03275306  0.54630804  1
  F  F105  1  0.65474582  0.46724694  0.04630804  1
  F  F106  1  0.84525418  0.96724694  0.45369196  1
  F  F107  1  0.34525418  0.53275306  0.95369196  1
  F  F108  1  0.76675737  0.00913124  0.74466624  1
  F  F109  1  0.26675737  0.49086876  0.24466624  1
  F  F110  1  0.23324263  0.99086876  0.25533376  1
  F  F111  1  0.73324263  0.50913124  0.75533376  1
  F  F112  1  0.84915535  0.96787130  0.89122312  1
  F  F113  1  0.34915535  0.53212870  0.39122312  1
  F  F114  1  0.15084465  0.03212870  0.10877688  1
  F  F115  1  0.65084465  0.46787130  0.60877688  1
  F  F116  1  0.62331612  0.03318239  0.92993027  1
  F  F117  1  0.12331612  0.46681761  0.42993027  1
  F  F118  1  0.37668388  0.96681761  0.07006973  1
  F  F119  1  0.87668388  0.53318239  0.57006973  1
  F  F120  1  0.53653683  0.07547110  0.78357849  1
  F  F121  1  0.03653683  0.42452890  0.28357849  1
  F  F122  1  0.46346317  0.92452890  0.21642151  1
  F  F123  1  0.96346317  0.57547110  0.71642151  1
  F  F124  1  0.77927874  0.11884697  0.85197280  1
  F  F125  1  0.27927874  0.38115303  0.35197280  1
  F  F126  1  0.22072126  0.88115303  0.14802720  1
  F  F127  1  0.72072126  0.61884697  0.64802720  1
  F  F128  1  0.36647491  0.81519931  0.93021747  1
  F  F129  1  0.86647491  0.68480069  0.43021747  1
  F  F130  1  0.63352509  0.18480069  0.06978253  1
  F  F131  1  0.13352509  0.31519931  0.56978253  1
  F  F132  1  0.14263403  0.75234697  0.84433500  1
  F  F133  1  0.64263403  0.74765303  0.34433500  1
  F  F134  1  0.85736597  0.24765303  0.15566500  1
  F  F135  1  0.35736597  0.25234697  0.65566500  1
  F  F136  1  0.07368956  0.90070670  0.78827286  1
  F  F137  1  0.57368956  0.59929330  0.28827286  1
  F  F138  1  0.92631044  0.09929330  0.21172714  1
  F  F139  1  0.42631044  0.40070670  0.71172714  1
  F  F140  1  0.29766962  0.96676153  0.87258362  1
  F  F141  1  0.79766962  0.53323847  0.37258362  1
  F  F142  1  0.70233038  0.03323847  0.12741638  1
  F  F143  1  0.20233038  0.46676153  0.62741638  1
  F  F144  1  0.12427175  0.87744918  0.93581427  1
  F  F145  1  0.62427175  0.62255082  0.43581427  1
  F  F146  1  0.87572825  0.12255082  0.06418573  1
  F  F147  1  0.37572825  0.37744918  0.56418573  1
