# generated using pymatgen
data_GdCrO5
_symmetry_space_group_name_H-M   'P 1'
_cell_length_a   8.36343555
_cell_length_b   8.51334175
_cell_length_c   11.52149845
_cell_angle_alpha   90.00000000
_cell_angle_beta   90.00000000
_cell_angle_gamma   95.75304309
_symmetry_Int_Tables_number   1
_chemical_formula_structural   GdCrO5
_chemical_formula_sum   'Gd8 Cr8 O40'
_cell_volume   816.20784358
_cell_formula_units_Z   8
loop_
 _symmetry_equiv_pos_site_id
 _symmetry_equiv_pos_as_xyz
  1  'x, y, z'
loop_
 _atom_site_type_symbol
 _atom_site_label
 _atom_site_symmetry_multiplicity
 _atom_site_fract_x
 _atom_site_fract_y
 _atom_site_fract_z
 _atom_site_occupancy
  Gd  Gd0  1  0.12896246  0.34333294  0.94748175  1
  Gd  Gd1  1  0.37103754  0.15666706  0.44748175  1
  Gd  Gd2  1  0.87103754  0.65666706  0.05251825  1
  Gd  Gd3  1  0.62896246  0.84333294  0.55251825  1
  Gd  Gd4  1  0.58351985  0.31463325  0.92380847  1
  Gd  Gd5  1  0.91648015  0.18536675  0.42380847  1
  Gd  Gd6  1  0.41648015  0.68536675  0.07619153  1
  Gd  Gd7  1  0.08351985  0.81463325  0.57619153  1
  Cr  Cr8  1  0.35914403  0.50013527  0.67560253  1
  Cr  Cr9  1  0.14085597  -0.00013527  0.17560253  1
  Cr  Cr10  1  0.64085597  0.49986473  0.32439747  1
  Cr  Cr11  1  0.85914403  0.00013527  0.82439747  1
  Cr  Cr12  1  0.86040885  0.45742471  0.69117161  1
  Cr  Cr13  1  0.63959115  0.04257529  0.19117161  1
  Cr  Cr14  1  0.13959115  0.54257529  0.30882839  1
  Cr  Cr15  1  0.36040885  0.95742471  0.80882839  1
  O  O16  1  0.33707601  0.43326446  0.81345709  1
  O  O17  1  0.16292399  0.06673554  0.31345709  1
  O  O18  1  0.66292399  0.56673554  0.18654291  1
  O  O19  1  0.83707601  0.93326446  0.68654291  1
  O  O20  1  0.19580794  0.57838593  0.63389211  1
  O  O21  1  0.30419206  0.92161407  0.13389211  1
  O  O22  1  0.80419206  0.42161407  0.36610789  1
  O  O23  1  0.69580794  0.07838593  0.86610789  1
  O  O24  1  0.50890229  0.64126222  0.66838016  1
  O  O25  1  0.99109771  0.85873778  0.16838016  1
  O  O26  1  0.49109771  0.35873778  0.33161984  1
  O  O27  1  0.00890229  0.14126222  0.83161984  1
  O  O28  1  0.39117936  0.35006111  0.58830327  1
  O  O29  1  0.10882064  0.14993889  0.08830327  1
  O  O30  1  0.60882064  0.64993889  0.41169673  1
  O  O31  1  0.89117936  0.85006111  0.91169673  1
  O  O32  1  0.68011431  0.39143713  0.73880303  1
  O  O33  1  0.81988569  0.10856287  0.23880303  1
  O  O34  1  0.31988569  0.60856287  0.26119697  1
  O  O35  1  0.18011431  0.89143713  0.76119697  1
  O  O36  1  0.85306116  0.62995429  0.62290622  1
  O  O37  1  0.64693884  0.87004571  0.12290622  1
  O  O38  1  0.14693884  0.37004571  0.37709378  1
  O  O39  1  0.35306116  0.12995429  0.87709378  1
  O  O40  1  0.97804055  0.48134704  0.81165789  1
  O  O41  1  0.52195945  0.01865296  0.31165789  1
  O  O42  1  0.02195945  0.51865296  0.18834211  1
  O  O43  1  0.47804055  0.98134704  0.68834211  1
  O  O44  1  0.92063913  0.32449563  0.60066078  1
  O  O45  1  0.57936087  0.17550437  0.10066078  1
  O  O46  1  0.07936087  0.67550437  0.39933922  1
  O  O47  1  0.42063913  0.82449563  0.89933922  1
  O  O48  1  0.38692767  0.41356801  0.03607567  1
  O  O49  1  0.11307233  0.08643199  0.53607567  1
  O  O50  1  0.61307233  0.58643199  0.96392433  1
  O  O51  1  0.88692767  0.91356801  0.46392433  1
  O  O52  1  0.14226143  0.61071011  0.01793423  1
  O  O53  1  0.35773857  0.88928989  0.51793423  1
  O  O54  1  0.85773857  0.38928989  0.98206577  1
  O  O55  1  0.64226143  0.11071011  0.48206577  1
