# generated using pymatgen
data_Sb3O8
_symmetry_space_group_name_H-M   'P 1'
_cell_length_a   8.98567573
_cell_length_b   9.56482045
_cell_length_c   10.02843187
_cell_angle_alpha   90.39535565
_cell_angle_beta   90.00000000
_cell_angle_gamma   90.00000000
_symmetry_Int_Tables_number   1
_chemical_formula_structural   Sb3O8
_chemical_formula_sum   'Sb18 O48'
_cell_volume   861.88684727
_cell_formula_units_Z   6
loop_
 _symmetry_equiv_pos_site_id
 _symmetry_equiv_pos_as_xyz
  1  'x, y, z'
loop_
 _atom_site_type_symbol
 _atom_site_label
 _atom_site_symmetry_multiplicity
 _atom_site_fract_x
 _atom_site_fract_y
 _atom_site_fract_z
 _atom_site_occupancy
  Sb  Sb0  1  0.69273804  0.25000000  0.75000000  1
  Sb  Sb1  1  0.30726196  0.75000000  0.25000000  1
  Sb  Sb2  1  0.00768014  0.49967020  0.25358093  1
  Sb  Sb3  1  0.99231986  0.50032980  0.74641907  1
  Sb  Sb4  1  0.00768014  0.00032980  0.24641907  1
  Sb  Sb5  1  0.99231986  -0.00032980  0.75358093  1
  Sb  Sb6  1  0.64723204  0.50769378  0.25047594  1
  Sb  Sb7  1  0.35276796  0.49230622  0.74952406  1
  Sb  Sb8  1  0.64723204  0.99230622  0.24952406  1
  Sb  Sb9  1  0.35276796  0.00769378  0.75047594  1
  Sb  Sb10  1  0.15172930  0.25286698  0.99873539  1
  Sb  Sb11  1  0.84827070  0.74713302  0.00126461  1
  Sb  Sb12  1  0.15172930  0.24713302  0.50126461  1
  Sb  Sb13  1  0.84827070  0.75286698  0.49873539  1
  Sb  Sb14  1  0.50543896  0.25028150  0.01835758  1
  Sb  Sb15  1  0.49456104  0.74971850  0.98164242  1
  Sb  Sb16  1  0.50543896  0.24971850  0.48164242  1
  Sb  Sb17  1  0.49456104  0.75028150  0.51835758  1
  O  O18  1  0.83673809  0.38467418  0.82598557  1
  O  O19  1  0.16326191  0.61532582  0.17401443  1
  O  O20  1  0.83673809  0.11532582  0.67401443  1
  O  O21  1  0.16326191  0.88467418  0.32598557  1
  O  O22  1  0.51058407  0.36887966  0.83523652  1
  O  O23  1  0.48941593  0.63112034  0.16476348  1
  O  O24  1  0.51058407  0.13112034  0.66476348  1
  O  O25  1  0.48941593  0.86887966  0.33523652  1
  O  O26  1  0.66077260  0.34794619  0.58246442  1
  O  O27  1  0.33922740  0.65205381  0.41753558  1
  O  O28  1  0.66077260  0.15205381  0.91753558  1
  O  O29  1  0.33922740  0.84794619  0.08246442  1
  O  O30  1  0.82548304  0.40763726  0.32332403  1
  O  O31  1  0.17451696  0.59236274  0.67667597  1
  O  O32  1  0.82548304  0.09236274  0.17667597  1
  O  O33  1  0.17451696  0.90763726  0.82332403  1
  O  O34  1  0.99992264  0.63788674  0.40737024  1
  O  O35  1  0.00007736  0.36211326  0.59262976  1
  O  O36  1  0.99992264  0.86211326  0.09262976  1
  O  O37  1  0.00007736  0.13788674  0.90737024  1
  O  O38  1  0.00645345  0.37708682  0.09072985  1
  O  O39  1  0.99354655  0.62291318  0.90927015  1
  O  O40  1  0.00645345  0.12291318  0.40927015  1
  O  O41  1  0.99354655  0.87708682  0.59072985  1
  O  O42  1  0.64934754  0.38465653  0.09248104  1
  O  O43  1  0.35065246  0.61534347  0.90751896  1
  O  O44  1  0.64934754  0.11534347  0.40751896  1
  O  O45  1  0.35065246  0.88465653  0.59248104  1
  O  O46  1  0.66682403  0.64262903  0.41018844  1
  O  O47  1  0.33317597  0.35737097  0.58981156  1
  O  O48  1  0.66682403  0.85737097  0.08981156  1
  O  O49  1  0.33317597  0.14262903  0.91018844  1
  O  O50  1  0.32584831  0.34864284  0.07651236  1
  O  O51  1  0.67415169  0.65135716  0.92348764  1
  O  O52  1  0.32584831  0.15135716  0.42348764  1
  O  O53  1  0.67415169  0.84864284  0.57651236  1
  O  O54  1  0.16548388  0.38534025  0.83749159  1
  O  O55  1  0.83451612  0.61465975  0.16250841  1
  O  O56  1  0.16548388  0.11465975  0.66250841  1
  O  O57  1  0.83451612  0.88534025  0.33749159  1
  O  O58  1  0.14837583  0.12062674  0.15055352  1
  O  O59  1  0.85162417  0.87937326  0.84944648  1
  O  O60  1  0.14837583  0.37937326  0.34944648  1
  O  O61  1  0.85162417  0.62062674  0.65055352  1
  O  O62  1  0.50069919  0.10929736  0.15914334  1
  O  O63  1  0.49930081  0.89070264  0.84085666  1
  O  O64  1  0.50069919  0.39070264  0.34085666  1
  O  O65  1  0.49930081  0.60929736  0.65914334  1
