# generated using pymatgen
data_TlCu2(AsO4)2
_symmetry_space_group_name_H-M   'P 1'
_cell_length_a   6.39191119
_cell_length_b   10.60198521
_cell_length_c   11.21128043
_cell_angle_alpha   90.00000000
_cell_angle_beta   90.00000000
_cell_angle_gamma   98.13787706
_symmetry_Int_Tables_number   1
_chemical_formula_structural   TlCu2(AsO4)2
_chemical_formula_sum   'Tl4 Cu8 As8 O32'
_cell_volume   752.10375497
_cell_formula_units_Z   4
loop_
 _symmetry_equiv_pos_site_id
 _symmetry_equiv_pos_as_xyz
  1  'x, y, z'
loop_
 _atom_site_type_symbol
 _atom_site_label
 _atom_site_symmetry_multiplicity
 _atom_site_fract_x
 _atom_site_fract_y
 _atom_site_fract_z
 _atom_site_occupancy
  Tl  Tl0  1  0.73058371  0.47737298  0.91557463  1
  Tl  Tl1  1  0.26941629  0.02262702  0.41557463  1
  Tl  Tl2  1  0.26941629  0.52262702  0.08442537  1
  Tl  Tl3  1  0.73058371  0.97737298  0.58442537  1
  Cu  Cu4  1  0.58950971  0.34204828  0.45652894  1
  Cu  Cu5  1  0.41049029  0.15795172  0.95652894  1
  Cu  Cu6  1  0.41049029  0.65795172  0.54347106  1
  Cu  Cu7  1  0.58950971  0.84204828  0.04347106  1
  Cu  Cu8  1  0.94287411  0.32232373  0.65601448  1
  Cu  Cu9  1  0.05712589  0.17767627  0.15601448  1
  Cu  Cu10  1  0.05712589  0.67767627  0.34398552  1
  Cu  Cu11  1  0.94287411  0.82232373  0.84398552  1
  As  As12  1  0.88230278  0.12354719  0.88706255  1
  As  As13  1  0.11769722  0.37645281  0.38706255  1
  As  As14  1  0.11769722  0.87645281  0.11293745  1
  As  As15  1  0.88230278  0.62354719  0.61293745  1
  As  As16  1  0.63216920  0.26333974  0.20770239  1
  As  As17  1  0.36783080  0.23666026  0.70770239  1
  As  As18  1  0.36783080  0.73666026  0.79229761  1
  As  As19  1  0.63216920  0.76333974  0.29229761  1
  O  O20  1  0.89084053  0.99405264  0.79646712  1
  O  O21  1  0.10915947  0.50594736  0.29646712  1
  O  O22  1  0.10915947  0.00594736  0.20353288  1
  O  O23  1  0.89084053  0.49405264  0.70353288  1
  O  O24  1  0.86795440  0.26507039  0.81484077  1
  O  O25  1  0.13204560  0.23492961  0.31484077  1
  O  O26  1  0.13204560  0.73492961  0.18515923  1
  O  O27  1  0.86795440  0.76507039  0.68515923  1
  O  O28  1  0.67113138  0.09752300  0.98450655  1
  O  O29  1  0.32886862  0.40247700  0.48450655  1
  O  O30  1  0.32886862  0.90247700  0.01549345  1
  O  O31  1  0.67113138  0.59752300  0.51549345  1
  O  O32  1  0.10150191  0.14415852  0.98604725  1
  O  O33  1  0.89849809  0.35584148  0.48604725  1
  O  O34  1  0.89849809  0.85584148  0.01395275  1
  O  O35  1  0.10150191  0.64415852  0.51395275  1
  O  O36  1  0.87162416  0.30245822  0.13179013  1
  O  O37  1  0.12837584  0.19754178  0.63179013  1
  O  O38  1  0.12837584  0.69754178  0.86820987  1
  O  O39  1  0.87162416  0.80245822  0.36820987  1
  O  O40  1  0.60298091  0.39671496  0.29670479  1
  O  O41  1  0.39701909  0.10328504  0.79670479  1
  O  O42  1  0.39701909  0.60328504  0.70329521  1
  O  O43  1  0.60298091  0.89671496  0.20329521  1
  O  O44  1  0.42973730  0.25610061  0.09998074  1
  O  O45  1  0.57026270  0.24389939  0.59998074  1
  O  O46  1  0.57026270  0.74389939  0.90001926  1
  O  O47  1  0.42973730  0.75610061  0.40001926  1
  O  O48  1  0.61391692  0.14024815  0.30507493  1
  O  O49  1  0.38608308  0.35975185  0.80507493  1
  O  O50  1  0.38608308  0.85975185  0.69492507  1
  O  O51  1  0.61391692  0.64024815  0.19492507  1
