# generated using pymatgen
data_CdH6C2O7
_symmetry_space_group_name_H-M   'P 1'
_cell_length_a   6.15928389
_cell_length_b   6.75815979
_cell_length_c   8.63278345
_cell_angle_alpha   72.66820687
_cell_angle_beta   73.14751140
_cell_angle_gamma   78.90456663
_symmetry_Int_Tables_number   1
_chemical_formula_structural   CdH6C2O7
_chemical_formula_sum   'Cd2 H12 C4 O14'
_cell_volume   326.07547584
_cell_formula_units_Z   2
loop_
 _symmetry_equiv_pos_site_id
 _symmetry_equiv_pos_as_xyz
  1  'x, y, z'
loop_
 _atom_site_type_symbol
 _atom_site_label
 _atom_site_symmetry_multiplicity
 _atom_site_fract_x
 _atom_site_fract_y
 _atom_site_fract_z
 _atom_site_occupancy
  Cd  Cd0  1  0.72839645  0.05305029  0.34520290  1
  Cd  Cd1  1  0.62468727  0.43376344  0.92520214  1
  H  H2  1  0.96639099  0.65483554  0.32289585  1
  H  H3  1  0.73412374  0.65721721  0.27692060  1
  H  H4  1  0.29165181  0.91747345  0.45236889  1
  H  H5  1  0.44463278  0.74135568  0.56459695  1
  H  H6  1  0.89607155  0.75765318  0.70602061  1
  H  H7  1  0.05312498  0.58057481  0.81764605  1
  H  H8  1  0.38301690  0.75544040  0.08434501  1
  H  H9  1  0.62458131  0.82294942  0.00948011  1
  H  H10  1  0.29395834  0.46963512  0.41856796  1
  H  H11  1  0.07305847  0.52665623  0.55280532  1
  H  H12  1  0.09117580  0.98922120  0.88445004  1
  H  H13  1  0.29024041  0.97108440  0.72896165  1
  C  C14  1  0.61717867  0.34617923  0.58942134  1
  C  C15  1  0.72445707  0.13536814  0.68976250  1
  C  C16  1  0.24682797  0.16648599  0.19286815  1
  C  C17  1  0.10997043  0.32367526  0.07238567  1
  O  O18  1  0.59346108  0.35541661  0.44560872  1
  O  O19  1  0.55884104  0.49682360  0.65703451  1
  O  O20  1  0.79244304  0.98979447  0.61594986  1
  O  O21  1  0.73719858  0.12083655  0.83661501  1
  O  O22  1  0.45271092  0.19602612  0.17224670  1
  O  O23  1  0.14562224  0.02071293  0.30211689  1
  O  O24  1  0.20967123  0.47093156  0.96397067  1
  O  O25  1  0.90508920  0.29086373  0.09356830  1
  O  O26  1  0.85082884  0.74624403  0.26183913  1
  O  O27  1  0.39854571  0.89422830  0.52579761  1
  O  O28  1  0.94266876  0.60350382  0.74693349  1
  O  O29  1  0.54409796  0.70028533  0.07434194  1
  O  O30  1  0.12674797  0.50044506  0.43993900  1
  O  O31  1  0.25566849  0.99376892  0.84190642  1
