# generated using pymatgen
data_ZnS
_symmetry_space_group_name_H-M   'P 1'
_cell_length_a   3.87552854
_cell_length_b   3.87552854
_cell_length_c   56.54851131
_cell_angle_alpha   88.03624469
_cell_angle_beta   88.03624469
_cell_angle_gamma   59.99999826
_symmetry_Int_Tables_number   1
_chemical_formula_structural   ZnS
_chemical_formula_sum   'Zn18 S18'
_cell_volume   734.97646734
_cell_formula_units_Z   18
loop_
 _symmetry_equiv_pos_site_id
 _symmetry_equiv_pos_as_xyz
  1  'x, y, z'
loop_
 _atom_site_type_symbol
 _atom_site_label
 _atom_site_symmetry_multiplicity
 _atom_site_fract_x
 _atom_site_fract_y
 _atom_site_fract_z
 _atom_site_occupancy
  Zn  Zn0  1  0.99999261  0.99999261  0.00002216  1
  Zn  Zn1  1  0.94443595  0.94443595  0.16669216  1
  Zn  Zn2  1  0.88887960  0.88887960  0.33336120  1
  Zn  Zn3  1  0.85184332  0.85184332  0.44447005  1
  Zn  Zn4  1  0.79629009  0.79629009  0.61112974  1
  Zn  Zn5  1  0.75924832  0.75924832  0.72225504  1
  Zn  Zn6  1  0.72221115  0.72221115  0.83336654  1
  Zn  Zn7  1  0.64814660  0.64814660  0.05556020  1
  Zn  Zn8  1  0.59258183  0.59258183  0.22225451  1
  Zn  Zn9  1  0.53703272  0.53703272  0.38890184  1
  Zn  Zn10  1  0.48147278  0.48147278  0.55558167  1
  Zn  Zn11  1  0.40740480  0.40740480  0.77778560  1
  Zn  Zn12  1  0.35184694  0.35184694  0.94445919  1
  Zn  Zn13  1  0.29629596  0.29629596  0.11111211  1
  Zn  Zn14  1  0.24073082  0.24073082  0.27780753  1
  Zn  Zn15  1  0.16666445  0.16666445  0.50000665  1
  Zn  Zn16  1  0.11110197  0.11110197  0.66669409  1
  Zn  Zn17  1  0.03703337  0.03703337  0.88889988  1
  S  S18  1  0.98612319  0.98612319  0.04163044  1
  S  S19  1  0.93056692  0.93056692  0.20829923  1
  S  S20  1  0.87502453  0.87502453  0.37492641  1
  S  S21  1  0.83797537  0.83797537  0.48607388  1
  S  S22  1  0.78244029  0.78244029  0.65267912  1
  S  S23  1  0.74539811  0.74539811  0.76380568  1
  S  S24  1  0.70834768  0.70834768  0.87495697  1
  S  S25  1  0.63427388  0.63427388  0.09717835  1
  S  S26  1  0.57871800  0.57871800  0.26384600  1
  S  S27  1  0.52315374  0.52315374  0.43053877  1
  S  S28  1  0.46761015  0.46761015  0.59716956  1
  S  S29  1  0.39352596  0.39352596  0.81942212  1
  S  S30  1  0.33796605  0.33796605  0.98610186  1
  S  S31  1  0.28242326  0.28242326  0.15273023  1
  S  S32  1  0.22686856  0.22686856  0.31939432  1
  S  S33  1  0.15279488  0.15279488  0.54161537  1
  S  S34  1  0.09723007  0.09723007  0.70830978  1
  S  S35  1  0.02317608  0.02317608  0.93047175  1
