# generated using pymatgen
data_CsU(SeO4)2
_symmetry_space_group_name_H-M   'P 1'
_cell_length_a   8.88693498
_cell_length_b   10.64854523
_cell_length_c   10.40292836
_cell_angle_alpha   89.99795257
_cell_angle_beta   89.99762947
_cell_angle_gamma   88.75784072
_symmetry_Int_Tables_number   1
_chemical_formula_structural   CsU(SeO4)2
_chemical_formula_sum   'Cs4 U4 Se8 O32'
_cell_volume   984.22823580
_cell_formula_units_Z   4
loop_
 _symmetry_equiv_pos_site_id
 _symmetry_equiv_pos_as_xyz
  1  'x, y, z'
loop_
 _atom_site_type_symbol
 _atom_site_label
 _atom_site_symmetry_multiplicity
 _atom_site_fract_x
 _atom_site_fract_y
 _atom_site_fract_z
 _atom_site_occupancy
  Cs  Cs0  1  0.64303140  0.78584891  0.94851769  1
  Cs  Cs1  1  0.14303132  0.28584828  0.55148248  1
  Cs  Cs2  1  0.35696808  0.21415071  0.05148192  1
  Cs  Cs3  1  0.85696967  0.71415167  0.44851811  1
  U  U4  1  0.69698582  0.37794746  0.70786559  1
  U  U5  1  0.19698241  0.87794988  0.79213510  1
  U  U6  1  0.30301596  0.62205491  0.29213479  1
  U  U7  1  0.80301803  0.12204910  0.20786509  1
  Se  Se8  1  0.81048908  0.44300836  0.04878000  1
  Se  Se9  1  0.31049111  0.94300913  0.45122121  1
  Se  Se10  1  0.18951080  0.55699249  0.95121985  1
  Se  Se11  1  0.68950694  0.05699143  0.54877925  1
  Se  Se12  1  0.59624925  0.38234812  0.37273589  1
  Se  Se13  1  0.09625258  0.88235159  0.12726180  1
  Se  Se14  1  0.40374825  0.61765302  0.62726480  1
  Se  Se15  1  0.90374665  0.11764498  0.87273406  1
  O  O16  1  0.55284276  0.29149343  0.79260316  1
  O  O17  1  0.05283160  0.79148780  0.70739030  1
  O  O18  1  0.44717088  0.70851437  0.20738852  1
  O  O19  1  0.94715670  0.20850597  0.29260312  1
  O  O20  1  0.84369803  0.45325556  0.61382213  1
  O  O21  1  0.34371051  0.95326200  0.88618481  1
  O  O22  1  0.15628958  0.54673793  0.38618692  1
  O  O23  1  0.65630009  0.04674356  0.11382142  1
  O  O24  1  0.88642206  0.27288413  0.82409055  1
  O  O25  1  0.38642986  0.77287440  0.67590373  1
  O  O26  1  0.11357859  0.72711933  0.17590897  1
  O  O27  1  0.61357222  0.22712432  0.32409401  1
  O  O28  1  0.73921201  0.49994240  0.90728700  1
  O  O29  1  0.23921215  0.99994478  0.59271267  1
  O  O30  1  0.26078777  0.50005764  0.09271351  1
  O  O31  1  0.76078881  0.00005561  0.40728438  1
  O  O32  1  0.53894602  0.35855403  0.53115841  1
  O  O33  1  0.03894243  0.85855237  0.96884478  1
  O  O34  1  0.46105177  0.64144521  0.46883983  1
  O  O35  1  0.96105556  0.14144760  0.03116245  1
  O  O36  1  0.78829513  0.18607801  0.59129034  1
  O  O37  1  0.28829439  0.68607284  0.90871233  1
  O  O38  1  0.21170634  0.81392294  0.40870948  1
  O  O39  1  0.71170650  0.31392621  0.09128844  1
  O  O40  1  0.57096413  0.57434953  0.70029419  1
  O  O41  1  0.07096383  0.07435293  0.79970341  1
  O  O42  1  0.42903853  0.42565044  0.29970749  1
  O  O43  1  0.92903453  0.92564874  0.20029664  1
  O  O44  1  0.78738506  0.55529303  0.15957539  1
  O  O45  1  0.28738504  0.05529581  0.34042043  1
  O  O46  1  0.21261470  0.44470452  0.84042305  1
  O  O47  1  0.71261506  0.94470254  0.65958051  1
