# generated using pymatgen
data_KUH3SO8
_symmetry_space_group_name_H-M   'P 1'
_cell_length_a   8.61866886
_cell_length_b   8.32236023
_cell_length_c   11.87449549
_cell_angle_alpha   111.88059150
_cell_angle_beta   90.00000000
_cell_angle_gamma   90.00000000
_symmetry_Int_Tables_number   1
_chemical_formula_structural   KUH3SO8
_chemical_formula_sum   'K4 U4 H12 S4 O32'
_cell_volume   790.37340857
_cell_formula_units_Z   4
loop_
 _symmetry_equiv_pos_site_id
 _symmetry_equiv_pos_as_xyz
  1  'x, y, z'
loop_
 _atom_site_type_symbol
 _atom_site_label
 _atom_site_symmetry_multiplicity
 _atom_site_fract_x
 _atom_site_fract_y
 _atom_site_fract_z
 _atom_site_occupancy
  K  K0  1  0.97085275  0.05392993  0.29288158  1
  K  K1  1  0.47085275  0.94607007  0.20711842  1
  K  K2  1  0.02914725  0.94607007  0.70711842  1
  K  K3  1  0.52914725  0.05392993  0.79288158  1
  U  U4  1  0.10025648  0.57856731  0.30654902  1
  U  U5  1  0.60025648  0.42143269  0.19345098  1
  U  U6  1  0.89974352  0.42143269  0.69345098  1
  U  U7  1  0.39974352  0.57856731  0.80654902  1
  H  H8  1  0.28451021  0.87544533  0.53135866  1
  H  H9  1  0.78451021  0.12455467  0.96864134  1
  H  H10  1  0.71548979  0.12455467  0.46864134  1
  H  H11  1  0.21548979  0.87544533  0.03135866  1
  H  H12  1  0.33085415  0.68148320  0.51529156  1
  H  H13  1  0.83085415  0.31851680  0.98470844  1
  H  H14  1  0.66914585  0.31851680  0.48470844  1
  H  H15  1  0.16914585  0.68148320  0.01529156  1
  H  H16  1  0.39832996  0.64372597  0.32196092  1
  H  H17  1  0.89832996  0.35627403  0.17803908  1
  H  H18  1  0.60167004  0.35627403  0.67803908  1
  H  H19  1  0.10167004  0.64372597  0.82196092  1
  S  S20  1  0.73722617  0.80031573  0.45405443  1
  S  S21  1  0.23722617  0.19968427  0.04594557  1
  S  S22  1  0.26277383  0.19968427  0.54594557  1
  S  S23  1  0.76277383  0.80031573  0.95405443  1
  O  O24  1  0.90983217  0.77294479  0.42739534  1
  O  O25  1  0.40983217  0.22705521  0.07260466  1
  O  O26  1  0.09016783  0.22705521  0.57260466  1
  O  O27  1  0.59016783  0.77294479  0.92739534  1
  O  O28  1  0.36769257  0.52203225  0.29650256  1
  O  O29  1  0.86769257  0.47796775  0.20349744  1
  O  O30  1  0.63230743  0.47796775  0.70349744  1
  O  O31  1  0.13230743  0.52203225  0.79650256  1
  O  O32  1  0.71315085  0.86670622  0.58509560  1
  O  O33  1  0.21315085  0.13329378  0.91490440  1
  O  O34  1  0.28684915  0.13329378  0.41490440  1
  O  O35  1  0.78684915  0.86670622  0.08509560  1
  O  O36  1  0.14167733  0.75099834  0.25052940  1
  O  O37  1  0.64167733  0.24900166  0.24947060  1
  O  O38  1  0.85832267  0.24900166  0.74947060  1
  O  O39  1  0.35832267  0.75099834  0.75052940  1
  O  O40  1  0.06689108  0.40480995  0.36048425  1
  O  O41  1  0.56689108  0.59519005  0.13951575  1
  O  O42  1  0.93310892  0.59519005  0.63951575  1
  O  O43  1  0.43310892  0.40480995  0.86048425  1
  O  O44  1  0.65645757  0.62972393  0.39388600  1
  O  O45  1  0.15645757  0.37027607  0.10611400  1
  O  O46  1  0.34354243  0.37027607  0.60611400  1
  O  O47  1  0.84354243  0.62972393  0.89388600  1
  O  O48  1  0.68024121  0.92289179  0.39790183  1
  O  O49  1  0.18024121  0.07710821  0.10209817  1
  O  O50  1  0.31975879  0.07710821  0.60209817  1
  O  O51  1  0.81975879  0.92289179  0.89790183  1
  O  O52  1  0.24703548  0.75054284  0.50061246  1
  O  O53  1  0.74703548  0.24945716  0.99938754  1
  O  O54  1  0.75296452  0.24945716  0.49938754  1
  O  O55  1  0.25296452  0.75054284  0.00061246  1
