# generated using pymatgen
data_Cs2CeN5O17
_symmetry_space_group_name_H-M   'P 1'
_cell_length_a   7.28501910
_cell_length_b   7.28501910
_cell_length_c   16.77439573
_cell_angle_alpha   78.96858155
_cell_angle_beta   78.96858155
_cell_angle_gamma   78.45686224
_symmetry_Int_Tables_number   1
_chemical_formula_structural   Cs2CeN5O17
_chemical_formula_sum   'Cs4 Ce2 N10 O34'
_cell_volume   845.20695055
_cell_formula_units_Z   2
loop_
 _symmetry_equiv_pos_site_id
 _symmetry_equiv_pos_as_xyz
  1  'x, y, z'
loop_
 _atom_site_type_symbol
 _atom_site_label
 _atom_site_symmetry_multiplicity
 _atom_site_fract_x
 _atom_site_fract_y
 _atom_site_fract_z
 _atom_site_occupancy
  Cs  Cs0  1  0.26297161  0.36701111  0.42271033  1
  Cs  Cs1  1  0.63298889  0.73702839  0.07728967  1
  Cs  Cs2  1  0.73702839  0.63298889  0.57728967  1
  Cs  Cs3  1  0.36701111  0.26297161  0.92271033  1
  Ce  Ce4  1  0.94853233  0.05146767  0.25000000  1
  Ce  Ce5  1  0.05146767  0.94853233  0.75000000  1
  N  N6  1  0.84669912  0.17633557  0.05027741  1
  N  N7  1  0.82366443  0.15330088  0.44972259  1
  N  N8  1  0.15330088  0.82366443  0.94972259  1
  N  N9  1  0.17633557  0.84669912  0.55027741  1
  N  N10  1  0.75667666  0.72104374  0.34320669  1
  N  N11  1  0.27895626  0.24332334  0.15679331  1
  N  N12  1  0.24332334  0.27895626  0.65679331  1
  N  N13  1  0.72104374  0.75667666  0.84320669  1
  N  N14  1  0.62170391  0.37829609  0.25000000  1
  N  N15  1  0.37829609  0.62170391  0.75000000  1
  O  O16  1  0.13646834  0.77701871  0.49443711  1
  O  O17  1  0.22298129  0.86353166  0.00556289  1
  O  O18  1  0.86353166  0.22298129  0.50556289  1
  O  O19  1  0.77701871  0.13646834  0.99443711  1
  O  O20  1  0.92921614  0.17818614  0.37722688  1
  O  O21  1  0.82181386  0.07078386  0.12277312  1
  O  O22  1  0.07078386  0.82181386  0.62277312  1
  O  O23  1  0.17818614  0.92921614  0.87722688  1
  O  O24  1  0.93702479  0.30965633  0.04011948  1
  O  O25  1  0.69034367  0.06297521  0.45988052  1
  O  O26  1  0.06297521  0.69034367  0.95988052  1
  O  O27  1  0.30965633  0.93702479  0.54011948  1
  O  O28  1  0.17252266  0.29283944  0.22143329  1
  O  O29  1  0.70716056  0.82747734  0.27856671  1
  O  O30  1  0.82747734  0.70716056  0.77856671  1
  O  O31  1  0.29283944  0.17252266  0.72143329  1
  O  O32  1  0.91419464  0.74005328  0.36305282  1
  O  O33  1  0.25994672  0.08580536  0.13694718  1
  O  O34  1  0.08580536  0.25994672  0.63694718  1
  O  O35  1  0.74005328  0.91419464  0.86305282  1
  O  O36  1  0.66031919  0.60695857  0.38680608  1
  O  O37  1  0.39304143  0.33968081  0.11319392  1
  O  O38  1  0.33968081  0.39304143  0.61319392  1
  O  O39  1  0.60695857  0.66031919  0.88680608  1
  O  O40  1  0.79069519  0.39984994  0.21463589  1
  O  O41  1  0.60015006  0.20930481  0.28536411  1
  O  O42  1  0.20930481  0.60015006  0.78536411  1
  O  O43  1  0.39984994  0.79069519  0.71463589  1
  O  O44  1  0.48770052  0.51229948  0.25000000  1
  O  O45  1  0.51229948  0.48770052  0.75000000  1
  O  O46  1  0.11765618  0.78605519  0.20445381  1
  O  O47  1  0.21394481  0.88234382  0.29554619  1
  O  O48  1  0.88234382  0.21394481  0.79554619  1
  O  O49  1  0.78605519  0.11765618  0.70445381  1
