# generated using pymatgen
data_V4Ru
_symmetry_space_group_name_H-M   'P 1'
_cell_length_a   2.66338723
_cell_length_b   2.66338723
_cell_length_c   10.36625907
_cell_angle_alpha   85.31130175
_cell_angle_beta   85.31130175
_cell_angle_gamma   111.32754275
_symmetry_Int_Tables_number   1
_chemical_formula_structural   V4Ru
_chemical_formula_sum   'V4 Ru1'
_cell_volume   67.77541371
_cell_formula_units_Z   1
loop_
 _symmetry_equiv_pos_site_id
 _symmetry_equiv_pos_as_xyz
  1  'x, y, z'
loop_
 _atom_site_type_symbol
 _atom_site_label
 _atom_site_symmetry_multiplicity
 _atom_site_fract_x
 _atom_site_fract_y
 _atom_site_fract_z
 _atom_site_occupancy
  V  V0  1  0.39941184  0.39941184  0.20117633  1
  V  V1  1  0.79998199  0.79998199  0.40003602  1
  V  V2  1  0.20001801  0.20001801  0.59996398  1
  V  V3  1  0.60058816  0.60058816  0.79882367  1
  Ru  Ru4  1  -0.00000000  0.00000000  -0.00000000  1
