# generated using pymatgen
data_LaNb2CuClO7
_symmetry_space_group_name_H-M   'P 1'
_cell_length_a   7.89044483
_cell_length_b   7.90240552
_cell_length_c   11.83527118
_cell_angle_alpha   90.00000000
_cell_angle_beta   90.00000000
_cell_angle_gamma   90.00000000
_symmetry_Int_Tables_number   1
_chemical_formula_structural   LaNb2CuClO7
_chemical_formula_sum   'La4 Nb8 Cu4 Cl4 O28'
_cell_volume   737.97051974
_cell_formula_units_Z   4
loop_
 _symmetry_equiv_pos_site_id
 _symmetry_equiv_pos_as_xyz
  1  'x, y, z'
loop_
 _atom_site_type_symbol
 _atom_site_label
 _atom_site_symmetry_multiplicity
 _atom_site_fract_x
 _atom_site_fract_y
 _atom_site_fract_z
 _atom_site_occupancy
  La  La0  1  0.99999661  0.23756374  -0.00000000  1
  La  La1  1  0.00000339  0.76243626  -0.00000000  1
  La  La2  1  0.49999661  0.26243626  -0.00000000  1
  La  La3  1  0.50000339  0.73756374  -0.00000000  1
  Nb  Nb4  1  0.75202372  0.49997566  0.19052318  1
  Nb  Nb5  1  0.24797628  0.50002434  0.19052318  1
  Nb  Nb6  1  0.25202372  0.00002434  0.80947682  1
  Nb  Nb7  1  0.74797628  0.99997566  0.80947682  1
  Nb  Nb8  1  0.24797628  0.50002434  0.80947682  1
  Nb  Nb9  1  0.75202372  0.49997566  0.80947682  1
  Nb  Nb10  1  0.74797628  0.99997566  0.19052318  1
  Nb  Nb11  1  0.25202372  0.00002434  0.19052318  1
  Cu  Cu12  1  0.77075645  0.49249307  0.50000000  1
  Cu  Cu13  1  0.22924355  0.50750693  0.50000000  1
  Cu  Cu14  1  0.27075645  0.00750693  0.50000000  1
  Cu  Cu15  1  0.72924355  0.99249307  0.50000000  1
  Cl  Cl16  1  0.91628267  0.22902916  0.50000000  1
  Cl  Cl17  1  0.08371733  0.77097084  0.50000000  1
  Cl  Cl18  1  0.41628267  0.27097084  0.50000000  1
  Cl  Cl19  1  0.58371733  0.72902916  0.50000000  1
  O  O20  1  -0.00000000  0.50000000  0.13402950  1
  O  O21  1  0.50000000  0.00000000  0.86597050  1
  O  O22  1  -0.00000000  0.50000000  0.86597050  1
  O  O23  1  0.50000000  0.00000000  0.13402950  1
  O  O24  1  0.50000000  0.50000000  0.18391898  1
  O  O25  1  -0.00000000  0.00000000  0.81608102  1
  O  O26  1  0.50000000  0.50000000  0.81608102  1
  O  O27  1  -0.00000000  0.00000000  0.18391898  1
  O  O28  1  0.74980221  0.24991494  0.15235534  1
  O  O29  1  0.25019779  0.75008506  0.15235534  1
  O  O30  1  0.24980221  0.25008506  0.84764466  1
  O  O31  1  0.75019779  0.74991494  0.84764466  1
  O  O32  1  0.25019779  0.75008506  0.84764466  1
  O  O33  1  0.74980221  0.24991494  0.84764466  1
  O  O34  1  0.75019779  0.74991494  0.15235534  1
  O  O35  1  0.24980221  0.25008506  0.15235534  1
  O  O36  1  0.69950807  0.49986975  -0.00000000  1
  O  O37  1  0.30049193  0.50013025  -0.00000000  1
  O  O38  1  0.19950807  0.00013025  -0.00000000  1
  O  O39  1  0.80049193  0.99986975  -0.00000000  1
  O  O40  1  0.78200134  0.49905541  0.34202645  1
  O  O41  1  0.21799866  0.50094459  0.34202645  1
  O  O42  1  0.28200134  0.00094459  0.65797355  1
  O  O43  1  0.71799866  0.99905541  0.65797355  1
  O  O44  1  0.21799866  0.50094459  0.65797355  1
  O  O45  1  0.78200134  0.49905541  0.65797355  1
  O  O46  1  0.71799866  0.99905541  0.34202645  1
  O  O47  1  0.28200134  0.00094459  0.34202645  1
