# generated using pymatgen
data_CoTe6O13
_symmetry_space_group_name_H-M   'P 1'
_cell_length_a   8.77768880
_cell_length_b   8.77768880
_cell_length_c   8.77768844
_cell_angle_alpha   71.95658231
_cell_angle_beta   71.95658231
_cell_angle_gamma   71.95658810
_symmetry_Int_Tables_number   1
_chemical_formula_structural   CoTe6O13
_chemical_formula_sum   'Co2 Te12 O26'
_cell_volume   594.07585466
_cell_formula_units_Z   2
loop_
 _symmetry_equiv_pos_site_id
 _symmetry_equiv_pos_as_xyz
  1  'x, y, z'
loop_
 _atom_site_type_symbol
 _atom_site_label
 _atom_site_symmetry_multiplicity
 _atom_site_fract_x
 _atom_site_fract_y
 _atom_site_fract_z
 _atom_site_occupancy
  Co  Co0  1  0.75682799  0.75682799  0.75682799  1
  Co  Co1  1  0.24317201  0.24317201  0.24317201  1
  Te  Te2  1  0.51200331  0.83342229  0.44119803  1
  Te  Te3  1  0.83342229  0.44119803  0.51200331  1
  Te  Te4  1  0.44119803  0.51200331  0.83342229  1
  Te  Te5  1  0.48799669  0.16657771  0.55880197  1
  Te  Te6  1  0.16657771  0.55880197  0.48799669  1
  Te  Te7  1  0.55880197  0.48799669  0.16657771  1
  Te  Te8  1  0.07858099  0.96983550  0.67637148  1
  Te  Te9  1  0.96983550  0.67637148  0.07858099  1
  Te  Te10  1  0.67637148  0.07858099  0.96983550  1
  Te  Te11  1  0.92141901  0.03016450  0.32362852  1
  Te  Te12  1  0.03016450  0.32362852  0.92141901  1
  Te  Te13  1  0.32362852  0.92141901  0.03016450  1
  O  O14  1  0.57923590  0.89668159  0.60327590  1
  O  O15  1  0.89668159  0.60327590  0.57923590  1
  O  O16  1  0.60327590  0.57923590  0.89668159  1
  O  O17  1  0.42076410  0.10331841  0.39672410  1
  O  O18  1  0.10331841  0.39672410  0.42076410  1
  O  O19  1  0.39672410  0.42076410  0.10331841  1
  O  O20  1  0.95349976  0.86371892  0.61915703  1
  O  O21  1  0.86371892  0.61915703  0.95349976  1
  O  O22  1  0.61915703  0.95349976  0.86371892  1
  O  O23  1  0.04650024  0.13628108  0.38084297  1
  O  O24  1  0.13628108  0.38084297  0.04650024  1
  O  O25  1  0.38084297  0.04650024  0.13628108  1
  O  O26  1  0.58652248  0.58652248  0.58652248  1
  O  O27  1  0.41347752  0.41347752  0.41347752  1
  O  O28  1  0.29849998  0.80353714  0.55312468  1
  O  O29  1  0.80353714  0.55312468  0.29849998  1
  O  O30  1  0.55312468  0.29849998  0.80353714  1
  O  O31  1  0.70150002  0.19646286  0.44687532  1
  O  O32  1  0.19646286  0.44687532  0.70150002  1
  O  O33  1  0.44687532  0.70150002  0.19646286  1
  O  O34  1  0.87623324  0.11518345  0.80074047  1
  O  O35  1  0.11518345  0.80074047  0.87623324  1
  O  O36  1  0.80074047  0.87623324  0.11518345  1
  O  O37  1  0.12376676  0.88481655  0.19925953  1
  O  O38  1  0.88481655  0.19925953  0.12376676  1
  O  O39  1  0.19925953  0.12376676  0.88481655  1
