# generated using pymatgen
data_Yb5S9
_symmetry_space_group_name_H-M   'P 1'
_cell_length_a   5.58536619
_cell_length_b   12.11269594
_cell_length_c   10.71903233
_cell_angle_alpha   77.40165783
_cell_angle_beta   74.89819422
_cell_angle_gamma   90.00000004
_symmetry_Int_Tables_number   1
_chemical_formula_structural   Yb5S9
_chemical_formula_sum   'Yb10 S18'
_cell_volume   682.03804500
_cell_formula_units_Z   2
loop_
 _symmetry_equiv_pos_site_id
 _symmetry_equiv_pos_as_xyz
  1  'x, y, z'
loop_
 _atom_site_type_symbol
 _atom_site_label
 _atom_site_symmetry_multiplicity
 _atom_site_fract_x
 _atom_site_fract_y
 _atom_site_fract_z
 _atom_site_occupancy
  Yb  Yb0  1  0.98062308  0.06633018  0.59625147  1
  Yb  Yb1  1  0.37693308  0.86371444  0.79908355  1
  Yb  Yb2  1  0.57988949  0.26595883  0.39975325  1
  Yb  Yb3  1  0.77193315  0.66583376  0.99968753  1
  Yb  Yb4  1  0.17961772  0.46599716  0.19658801  1
  Yb  Yb5  1  0.57964274  0.93404117  0.40024675  1
  Yb  Yb6  1  0.97620574  0.73400284  0.60341199  1
  Yb  Yb7  1  0.17687456  0.13366982  0.20374853  1
  Yb  Yb8  1  0.37162068  0.53416624  0.80031247  1
  Yb  Yb9  1  0.77601663  0.33628556  0.00091645  1
  S  S10  1  0.25837341  0.60000000  0.40000000  1
  S  S11  1  0.62752190  0.39156972  0.60883908  1
  S  S12  1  0.83636098  0.80843028  0.19116092  1
  S  S13  1  0.90873119  0.21368048  0.78643516  1
  S  S14  1  0.29516635  0.98631952  0.01356484  1
  S  S15  1  -0.06784633  0.94897492  0.05147609  1
  S  S16  1  0.91064891  0.60000000  0.40000000  1
  S  S17  1  0.58362976  0.25102508  0.74852391  1
  S  S18  1  0.67850433  0.13441930  0.20092483  1
  S  S19  1  0.47631180  0.73728306  0.60369832  1
  S  S20  1  0.27708656  0.33274429  0.00027605  1
  S  S21  1  0.07739684  0.93689041  0.40798736  1
  S  S22  1  0.87002422  0.53793253  0.80652290  1
  S  S23  1  0.08538420  0.26310959  0.39201264  1
  S  S24  1  0.87736261  0.86725571  0.79972395  1
  S  S25  1  0.68001013  0.46271694  0.19630168  1
  S  S26  1  0.47942916  0.06558070  0.59907517  1
  S  S27  1  0.27654712  0.66206747  0.99347710  1
