# generated using pymatgen
data_NaGa11O18
_symmetry_space_group_name_H-M   'P 1'
_cell_length_a   8.71310904
_cell_length_b   9.08101726
_cell_length_c   9.54703879
_cell_angle_alpha   90.00000000
_cell_angle_beta   115.88008532
_cell_angle_gamma   90.00000000
_symmetry_Int_Tables_number   1
_chemical_formula_structural   NaGa11O18
_chemical_formula_sum   'Na2 Ga22 O36'
_cell_volume   679.63958488
_cell_formula_units_Z   2
loop_
 _symmetry_equiv_pos_site_id
 _symmetry_equiv_pos_as_xyz
  1  'x, y, z'
loop_
 _atom_site_type_symbol
 _atom_site_label
 _atom_site_symmetry_multiplicity
 _atom_site_fract_x
 _atom_site_fract_y
 _atom_site_fract_z
 _atom_site_occupancy
  Na  Na0  1  0.01900248  0.75000000  0.05925444  1
  Na  Na1  1  0.98099752  0.25000000  0.94074556  1
  Ga  Ga2  1  0.67774651  0.07656223  0.04839244  1
  Ga  Ga3  1  0.32225349  0.57656223  0.95160756  1
  Ga  Ga4  1  0.32225349  0.92343777  0.95160756  1
  Ga  Ga5  1  0.67774651  0.42343777  0.04839244  1
  Ga  Ga6  1  0.67010278  0.75000000  0.04436679  1
  Ga  Ga7  1  0.32989722  0.25000000  0.95563321  1
  Ga  Ga8  1  0.01326095  0.58556777  0.35930570  1
  Ga  Ga9  1  0.98673905  0.08556777  0.64069430  1
  Ga  Ga10  1  0.98673905  0.41443223  0.64069430  1
  Ga  Ga11  1  0.01326095  0.91443223  0.35930570  1
  Ga  Ga12  1  0.00268178  0.25000000  0.36295207  1
  Ga  Ga13  1  0.99731822  0.75000000  0.63704793  1
  Ga  Ga14  1  0.28910033  0.07801750  0.25745564  1
  Ga  Ga15  1  0.71089967  0.57801750  0.74254436  1
  Ga  Ga16  1  0.71089967  0.92198250  0.74254436  1
  Ga  Ga17  1  0.28910033  0.42198250  0.25745564  1
  Ga  Ga18  1  0.63054166  0.57593698  0.34663138  1
  Ga  Ga19  1  0.36945834  0.07593698  0.65336862  1
  Ga  Ga20  1  0.36945834  0.42406302  0.65336862  1
  Ga  Ga21  1  0.63054166  0.92406302  0.34663138  1
  Ga  Ga22  1  0.64989269  0.25000000  0.53952534  1
  Ga  Ga23  1  0.35010731  0.75000000  0.46047466  1
  O  O24  1  0.86431380  0.58474576  0.47744394  1
  O  O25  1  0.13568620  0.08474576  0.52255606  1
  O  O26  1  0.13568620  0.41525424  0.52255606  1
  O  O27  1  0.86431380  0.91525424  0.47744394  1
  O  O28  1  0.13890328  0.75000000  0.50945266  1
  O  O29  1  0.86109672  0.25000000  0.49054734  1
  O  O30  1  0.89294403  0.08290924  0.23347335  1
  O  O31  1  0.10705597  0.58290924  0.76652665  1
  O  O32  1  0.10705597  0.91709076  0.76652665  1
  O  O33  1  0.89294403  0.41709076  0.23347335  1
  O  O34  1  0.88662059  0.75000000  0.22589176  1
  O  O35  1  0.11337941  0.25000000  0.77410824  1
  O  O36  1  0.57963015  0.57917202  0.13307308  1
  O  O37  1  0.42036985  0.07917202  0.86692692  1
  O  O38  1  0.42036985  0.42082798  0.86692692  1
  O  O39  1  0.57963015  0.92082798  0.13307308  1
  O  O40  1  0.57684000  0.25000000  0.11255565  1
  O  O41  1  0.42316000  0.75000000  0.88744435  1
  O  O42  1  0.20749680  0.59330543  0.30554214  1
  O  O43  1  0.79250320  0.09330543  0.69445786  1
  O  O44  1  0.79250320  0.40669457  0.69445786  1
  O  O45  1  0.20749680  0.90669457  0.30554214  1
  O  O46  1  0.52727295  0.75000000  0.37609766  1
  O  O47  1  0.47272705  0.25000000  0.62390234  1
  O  O48  1  0.25442796  0.08436730  0.04990670  1
  O  O49  1  0.74557204  0.58436730  0.95009330  1
  O  O50  1  0.74557204  0.91563270  0.95009330  1
  O  O51  1  0.25442796  0.41563270  0.04990670  1
  O  O52  1  0.52738717  0.09175550  0.37991845  1
  O  O53  1  0.47261283  0.59175550  0.62008155  1
  O  O54  1  0.47261283  0.90824450  0.62008155  1
  O  O55  1  0.52738717  0.40824450  0.37991845  1
  O  O56  1  0.18483825  0.25000000  0.28192235  1
  O  O57  1  0.81516175  0.75000000  0.71807765  1
  O  O58  1  0.27049285  0.75000000  0.04301870  1
  O  O59  1  0.72950715  0.25000000  0.95698130  1
