# generated using pymatgen
data_SiH8C(N2F3)2
_symmetry_space_group_name_H-M   'P 1'
_cell_length_a   7.79026650
_cell_length_b   10.47122671
_cell_length_c   17.90523635
_cell_angle_alpha   90.00000000
_cell_angle_beta   90.00000000
_cell_angle_gamma   90.00000000
_symmetry_Int_Tables_number   1
_chemical_formula_structural   SiH8C(N2F3)2
_chemical_formula_sum   'Si8 H64 C8 N32 F48'
_cell_volume   1460.59542325
_cell_formula_units_Z   8
loop_
 _symmetry_equiv_pos_site_id
 _symmetry_equiv_pos_as_xyz
  1  'x, y, z'
loop_
 _atom_site_type_symbol
 _atom_site_label
 _atom_site_symmetry_multiplicity
 _atom_site_fract_x
 _atom_site_fract_y
 _atom_site_fract_z
 _atom_site_occupancy
  Si  Si0  1  0.11082580  0.45165266  0.13463557  1
  Si  Si1  1  0.11082580  0.04834734  0.36536443  1
  Si  Si2  1  0.38917420  0.95165266  0.86536443  1
  Si  Si3  1  0.38917420  0.54834734  0.63463557  1
  Si  Si4  1  0.88917420  0.54834734  0.86536443  1
  Si  Si5  1  0.88917420  0.95165266  0.63463557  1
  Si  Si6  1  0.61082580  0.04834734  0.13463557  1
  Si  Si7  1  0.61082580  0.45165266  0.36536443  1
  H  H8  1  0.51687482  0.75746621  0.16210234  1
  H  H9  1  0.51687482  0.74253379  0.33789766  1
  H  H10  1  0.98312518  0.25746621  0.83789766  1
  H  H11  1  0.98312518  0.24253379  0.66210234  1
  H  H12  1  0.48312518  0.24253379  0.83789766  1
  H  H13  1  0.48312518  0.25746621  0.66210234  1
  H  H14  1  0.01687482  0.74253379  0.16210234  1
  H  H15  1  0.01687482  0.75746621  0.33789766  1
  H  H16  1  0.47365514  0.60546175  0.19738951  1
  H  H17  1  0.47365514  0.89453825  0.30261049  1
  H  H18  1  0.02634486  0.10546175  0.80261049  1
  H  H19  1  0.02634486  0.39453825  0.69738951  1
  H  H20  1  0.52634486  0.39453825  0.80261049  1
  H  H21  1  0.52634486  0.10546175  0.69738951  1
  H  H22  1  0.97365514  0.89453825  0.19738951  1
  H  H23  1  0.97365514  0.60546175  0.30261049  1
  H  H24  1  0.63784097  0.78279223  0.04623033  1
  H  H25  1  0.63784097  0.71720777  0.45376967  1
  H  H26  1  0.86215903  0.28279223  0.95376967  1
  H  H27  1  0.86215903  0.21720777  0.54623033  1
  H  H28  1  0.36215903  0.21720777  0.95376967  1
  H  H29  1  0.36215903  0.28279223  0.54623033  1
  H  H30  1  0.13784097  0.71720777  0.04623033  1
  H  H31  1  0.13784097  0.78279223  0.45376967  1
  H  H32  1  0.70550158  0.64968918  0.99520844  1
  H  H33  1  0.70550158  0.85031082  0.50479156  1
  H  H34  1  0.79449842  0.14968918  0.00479156  1
  H  H35  1  0.79449842  0.35031082  0.49520844  1
  H  H36  1  0.29449842  0.35031082  0.00479156  1
  H  H37  1  0.29449842  0.14968918  0.49520844  1
  H  H38  1  0.20550158  0.85031082  0.99520844  1
  H  H39  1  0.20550158  0.64968918  0.50479156  1
  H  H40  1  0.74512211  0.45836796  0.06149943  1
  H  H41  1  0.74512211  0.04163204  0.43850057  1
  H  H42  1  0.75487789  0.95836796  0.93850057  1
  H  H43  1  0.75487789  0.54163204  0.56149943  1
  H  H44  1  0.25487789  0.54163204  0.93850057  1
  H  H45  1  0.25487789  0.95836796  0.56149943  1
  H  H46  1  0.24512211  0.04163204  0.06149943  1
  H  H47  1  0.24512211  0.45836796  0.43850057  1
  H  H48  1  0.50185356  0.39082310  0.17280053  1
  H  H49  1  0.50185356  0.10917690  0.32719947  1
  H  H50  1  0.99814644  0.89082310  0.82719947  1
  H  H51  1  0.99814644  0.60917690  0.67280053  1
  H  H52  1  0.49814644  0.60917690  0.82719947  1
  H  H53  1  0.49814644  0.89082310  0.67280053  1
  H  H54  1  0.00185356  0.10917690  0.17280053  1
  H  H55  1  0.00185356  0.39082310  0.32719947  1
  H  H56  1  0.68201423  0.31640097  0.14498123  1
  H  H57  1  0.68201423  0.18359903  0.35501877  1
  H  H58  1  0.81798577  0.81640097  0.85501877  1
  H  H59  1  0.81798577  0.68359903  0.64498123  1
  H  H60  1  0.31798577  0.68359903  0.85501877  1
  H  H61  1  0.31798577  0.81640097  0.64498123  1
  H  H62  1  0.18201423  0.18359903  0.14498123  1
  H  H63  1  0.18201423  0.31640097  0.35501877  1
  H  H64  1  0.69390713  0.44483547  0.20447399  1
  H  H65  1  0.69390713  0.05516453  0.29552601  1
  H  H66  1  0.80609287  0.94483547  0.79552601  1
  H  H67  1  0.80609287  0.55516453  0.70447399  1
  H  H68  1  0.30609287  0.55516453  0.79552601  1
  H  H69  1  0.30609287  0.94483547  0.70447399  1
  H  H70  1  0.19390713  0.05516453  0.20447399  1
  H  H71  1  0.19390713  0.44483547  0.29552601  1
  C  C72  1  0.61212923  0.61238659  0.10031277  1
  C  C73  1  0.61212923  0.88761341  0.39968723  1
  C  C74  1  0.88787077  0.11238659  0.89968723  1
  C  C75  1  0.88787077  0.38761341  0.60031277  1
  C  C76  1  0.38787077  0.38761341  0.89968723  1
  C  C77  1  0.38787077  0.11238659  0.60031277  1
  C  C78  1  0.11212923  0.88761341  0.10031277  1
  C  C79  1  0.11212923  0.61238659  0.39968723  1
  N  N80  1  0.54381739  0.66104556  0.16207832  1
  N  N81  1  0.54381739  0.83895444  0.33792168  1
  N  N82  1  0.95618261  0.16104556  0.83792168  1
  N  N83  1  0.95618261  0.33895444  0.66207832  1
  N  N84  1  0.45618261  0.33895444  0.83792168  1
  N  N85  1  0.45618261  0.16104556  0.66207832  1
  N  N86  1  0.04381739  0.83895444  0.16207832  1
  N  N87  1  0.04381739  0.66104556  0.33792168  1
  N  N88  1  0.65746532  0.68649199  0.04364497  1
  N  N89  1  0.65746532  0.81350801  0.45635503  1
  N  N90  1  0.84253468  0.18649199  0.95635503  1
  N  N91  1  0.84253468  0.31350801  0.54364497  1
  N  N92  1  0.34253468  0.31350801  0.95635503  1
  N  N93  1  0.34253468  0.18649199  0.54364497  1
  N  N94  1  0.15746532  0.81350801  0.04364497  1
  N  N95  1  0.15746532  0.68649199  0.45635503  1
  N  N96  1  0.63887300  0.48344113  0.09264606  1
  N  N97  1  0.63887300  0.01655887  0.40735394  1
  N  N98  1  0.86112700  0.98344113  0.90735394  1
  N  N99  1  0.86112700  0.51655887  0.59264606  1
  N  N100  1  0.36112700  0.51655887  0.90735394  1
  N  N101  1  0.36112700  0.98344113  0.59264606  1
  N  N102  1  0.13887300  0.01655887  0.09264606  1
  N  N103  1  0.13887300  0.48344113  0.40735394  1
  N  N104  1  0.62870130  0.40667476  0.15815888  1
  N  N105  1  0.62870130  0.09332524  0.34184112  1
  N  N106  1  0.87129870  0.90667476  0.84184112  1
  N  N107  1  0.87129870  0.59332524  0.65815888  1
  N  N108  1  0.37129870  0.59332524  0.84184112  1
  N  N109  1  0.37129870  0.90667476  0.65815888  1
  N  N110  1  0.12870130  0.09332524  0.15815888  1
  N  N111  1  0.12870130  0.40667476  0.34184112  1
  F  F112  1  0.22048365  0.54064735  0.07069594  1
  F  F113  1  0.22048365  0.95935265  0.42930406  1
  F  F114  1  0.27951635  0.04064735  0.92930406  1
  F  F115  1  0.27951635  0.45935265  0.57069594  1
  F  F116  1  0.77951635  0.45935265  0.92930406  1
  F  F117  1  0.77951635  0.04064735  0.57069594  1
  F  F118  1  0.72048365  0.95935265  0.07069594  1
  F  F119  1  0.72048365  0.54064735  0.42930406  1
  F  F120  1  0.97270284  0.39947525  0.06755519  1
  F  F121  1  0.97270284  0.10052475  0.43244481  1
  F  F122  1  0.52729716  0.89947525  0.93244481  1
  F  F123  1  0.52729716  0.60052475  0.56755519  1
  F  F124  1  0.02729716  0.60052475  0.93244481  1
  F  F125  1  0.02729716  0.89947525  0.56755519  1
  F  F126  1  0.47270284  0.10052475  0.06755519  1
  F  F127  1  0.47270284  0.39947525  0.43244481  1
  F  F128  1  0.24843895  0.32340938  0.11478218  1
  F  F129  1  0.24843895  0.17659062  0.38521782  1
  F  F130  1  0.25156105  0.82340938  0.88521782  1
  F  F131  1  0.25156105  0.67659062  0.61478218  1
  F  F132  1  0.75156105  0.67659062  0.88521782  1
  F  F133  1  0.75156105  0.82340938  0.61478218  1
  F  F134  1  0.74843895  0.17659062  0.11478218  1
  F  F135  1  0.74843895  0.32340938  0.38521782  1
  F  F136  1  0.25581918  0.49935122  0.20375762  1
  F  F137  1  0.25581918  0.00064878  0.29624238  1
  F  F138  1  0.24418082  0.99935122  0.79624238  1
  F  F139  1  0.24418082  0.50064878  0.70375762  1
  F  F140  1  0.74418082  0.50064878  0.79624238  1
  F  F141  1  0.74418082  0.99935122  0.70375762  1
  F  F142  1  0.75581918  0.00064878  0.20375762  1
  F  F143  1  0.75581918  0.49935122  0.29624238  1
  F  F144  1  0.00937152  0.36044958  0.19944037  1
  F  F145  1  0.00937152  0.13955042  0.30055963  1
  F  F146  1  0.49062848  0.86044958  0.80055963  1
  F  F147  1  0.49062848  0.63955042  0.69944037  1
  F  F148  1  0.99062848  0.63955042  0.80055963  1
  F  F149  1  0.99062848  0.86044958  0.69944037  1
  F  F150  1  0.50937152  0.13955042  0.19944037  1
  F  F151  1  0.50937152  0.36044958  0.30055963  1
  F  F152  1  0.98110539  0.57960834  0.15570582  1
  F  F153  1  0.98110539  0.92039166  0.34429418  1
  F  F154  1  0.51889461  0.07960834  0.84429418  1
  F  F155  1  0.51889461  0.42039166  0.65570582  1
  F  F156  1  0.01889461  0.42039166  0.84429418  1
  F  F157  1  0.01889461  0.07960834  0.65570582  1
  F  F158  1  0.48110539  0.92039166  0.15570582  1
  F  F159  1  0.48110539  0.57960834  0.34429418  1
