# generated using pymatgen
data_La4Fe(SbSe5)2
_symmetry_space_group_name_H-M   'P 1'
_cell_length_a   7.96031229
_cell_length_b   13.83732768
_cell_length_c   15.73608067
_cell_angle_alpha   90.00000000
_cell_angle_beta   90.00000000
_cell_angle_gamma   90.00000000
_symmetry_Int_Tables_number   1
_chemical_formula_structural   La4Fe(SbSe5)2
_chemical_formula_sum   'La16 Fe4 Sb8 Se40'
_cell_volume   1733.32062453
_cell_formula_units_Z   4
loop_
 _symmetry_equiv_pos_site_id
 _symmetry_equiv_pos_as_xyz
  1  'x, y, z'
loop_
 _atom_site_type_symbol
 _atom_site_label
 _atom_site_symmetry_multiplicity
 _atom_site_fract_x
 _atom_site_fract_y
 _atom_site_fract_z
 _atom_site_occupancy
  La  La0  1  0.12932051  0.75000000  0.06490369  1
  La  La1  1  0.87067949  0.25000000  0.93509631  1
  La  La2  1  0.37067949  0.25000000  0.06490369  1
  La  La3  1  0.62932051  0.75000000  0.93509631  1
  La  La4  1  0.37405082  0.75000000  0.68885183  1
  La  La5  1  0.62594918  0.25000000  0.31114817  1
  La  La6  1  0.12594918  0.25000000  0.68885183  1
  La  La7  1  0.87405082  0.75000000  0.31114817  1
  La  La8  1  0.25000000  0.50000000  0.37744292  1
  La  La9  1  0.75000000  0.00000000  0.62255708  1
  La  La10  1  0.75000000  0.50000000  0.62255708  1
  La  La11  1  0.25000000  0.00000000  0.37744292  1
  La  La12  1  0.25000000  0.50000000  0.87482551  1
  La  La13  1  0.75000000  0.00000000  0.12517449  1
  La  La14  1  0.75000000  0.50000000  0.12517449  1
  La  La15  1  0.25000000  0.00000000  0.87482551  1
  Fe  Fe16  1  0.25000000  0.50000000  0.12352617  1
  Fe  Fe17  1  0.75000000  0.00000000  0.87647383  1
  Fe  Fe18  1  0.75000000  0.50000000  0.87647383  1
  Fe  Fe19  1  0.25000000  0.00000000  0.12352617  1
  Sb  Sb20  1  0.44707042  0.75000000  0.21544444  1
  Sb  Sb21  1  0.55292958  0.25000000  0.78455556  1
  Sb  Sb22  1  0.05292958  0.25000000  0.21544444  1
  Sb  Sb23  1  0.94707042  0.75000000  0.78455556  1
  Sb  Sb24  1  0.05120763  0.75000000  0.53576125  1
  Sb  Sb25  1  0.94879237  0.25000000  0.46423875  1
  Sb  Sb26  1  0.44879237  0.25000000  0.53576125  1
  Sb  Sb27  1  0.55120763  0.75000000  0.46423875  1
  Se  Se28  1  0.41672206  0.60149030  0.54509247  1
  Se  Se29  1  0.58327794  0.10149030  0.45490753  1
  Se  Se30  1  0.08327794  0.39850970  0.54509247  1
  Se  Se31  1  0.91672206  0.89850970  0.45490753  1
  Se  Se32  1  0.58327794  0.39850970  0.45490753  1
  Se  Se33  1  0.41672206  0.89850970  0.54509247  1
  Se  Se34  1  0.91672206  0.60149030  0.45490753  1
  Se  Se35  1  0.08327794  0.10149030  0.54509247  1
  Se  Se36  1  0.25681202  0.75000000  0.37422774  1
  Se  Se37  1  0.74318798  0.25000000  0.62577226  1
  Se  Se38  1  0.24318798  0.25000000  0.37422774  1
  Se  Se39  1  0.75681202  0.75000000  0.62577226  1
  Se  Se40  1  0.41578319  0.60470854  0.03640712  1
  Se  Se41  1  0.58421681  0.10470854  0.96359288  1
  Se  Se42  1  0.08421681  0.39529146  0.03640712  1
  Se  Se43  1  0.91578319  0.89529146  0.96359288  1
  Se  Se44  1  0.58421681  0.39529146  0.96359288  1
  Se  Se45  1  0.41578319  0.89529146  0.03640712  1
  Se  Se46  1  0.91578319  0.60470854  0.96359288  1
  Se  Se47  1  0.08421681  0.10470854  0.03640712  1
  Se  Se48  1  0.08576309  0.60142006  0.70595026  1
  Se  Se49  1  0.91423691  0.10142006  0.29404974  1
  Se  Se50  1  0.41423691  0.39857994  0.70595026  1
  Se  Se51  1  0.58576309  0.89857994  0.29404974  1
  Se  Se52  1  0.91423691  0.39857994  0.29404974  1
  Se  Se53  1  0.08576309  0.89857994  0.70595026  1
  Se  Se54  1  0.58576309  0.60142006  0.29404974  1
  Se  Se55  1  0.41423691  0.10142006  0.70595026  1
  Se  Se56  1  0.07781338  0.60206913  0.20997223  1
  Se  Se57  1  0.92218662  0.10206913  0.79002777  1
  Se  Se58  1  0.42218662  0.39793087  0.20997223  1
  Se  Se59  1  0.57781338  0.89793087  0.79002777  1
  Se  Se60  1  0.92218662  0.39793087  0.79002777  1
  Se  Se61  1  0.07781338  0.89793087  0.20997223  1
  Se  Se62  1  0.57781338  0.60206913  0.79002777  1
  Se  Se63  1  0.42218662  0.10206913  0.20997223  1
  Se  Se64  1  0.74298343  0.75000000  0.12585169  1
  Se  Se65  1  0.25701657  0.25000000  0.87414831  1
  Se  Se66  1  0.75701657  0.25000000  0.12585169  1
  Se  Se67  1  0.24298343  0.75000000  0.87414831  1
