# generated using pymatgen
data_ZnS
_symmetry_space_group_name_H-M   'P 1'
_cell_length_a   3.87732380
_cell_length_b   3.87732380
_cell_length_c   56.55532456
_cell_angle_alpha   88.03557084
_cell_angle_beta   88.03557084
_cell_angle_gamma   60.00001337
_symmetry_Int_Tables_number   1
_chemical_formula_structural   ZnS
_chemical_formula_sum   'Zn18 S18'
_cell_volume   735.74590055
_cell_formula_units_Z   18
loop_
 _symmetry_equiv_pos_site_id
 _symmetry_equiv_pos_as_xyz
  1  'x, y, z'
loop_
 _atom_site_type_symbol
 _atom_site_label
 _atom_site_symmetry_multiplicity
 _atom_site_fract_x
 _atom_site_fract_y
 _atom_site_fract_z
 _atom_site_occupancy
  Zn  Zn0  1  0.99999442  0.99999442  0.00001673  1
  Zn  Zn1  1  0.94443663  0.94443663  0.16669011  1
  Zn  Zn2  1  0.88888457  0.88888457  0.33334630  1
  Zn  Zn3  1  0.83332629  0.83332629  0.50002113  1
  Zn  Zn4  1  0.79627308  0.79627308  0.61118076  1
  Zn  Zn5  1  0.72221762  0.72221762  0.83334713  1
  Zn  Zn6  1  0.64814551  0.64814551  0.05556348  1
  Zn  Zn7  1  0.57406864  0.57406864  0.27779407  1
  Zn  Zn8  1  0.53703138  0.53703138  0.38890587  1
  Zn  Zn9  1  0.48144861  0.48144861  0.55565417  1
  Zn  Zn10  1  0.42592239  0.42592239  0.72223282  1
  Zn  Zn11  1  0.35185015  0.35185015  0.94444955  1
  Zn  Zn12  1  0.29629513  0.29629513  0.11111461  1
  Zn  Zn13  1  0.25924978  0.25924978  0.22225067  1
  Zn  Zn14  1  0.18518537  0.18518537  0.44444389  1
  Zn  Zn15  1  0.11110444  0.11110444  0.66668668  1
  Zn  Zn16  1  0.07407064  0.07407064  0.77778809  1
  Zn  Zn17  1  0.03703299  0.03703299  0.88890102  1
  S  S18  1  0.98612275  0.98612275  0.04163174  1
  S  S19  1  0.93055598  0.93055598  0.20833205  1
  S  S20  1  0.87499831  0.87499831  0.37500508  1
  S  S21  1  0.81946385  0.81946385  0.54160844  1
  S  S22  1  0.78241939  0.78241939  0.65274182  1
  S  S23  1  0.70833605  0.70833605  0.87499185  1
  S  S24  1  0.63427524  0.63427524  0.09717427  1
  S  S25  1  0.56020652  0.56020652  0.31938045  1
  S  S26  1  0.52316226  0.52316226  0.43051321  1
  S  S27  1  0.46755106  0.46755106  0.59734683  1
  S  S28  1  0.41204678  0.41204678  0.76385967  1
  S  S29  1  0.33796263  0.33796263  0.98611212  1
  S  S30  1  0.28243622  0.28243622  0.15269135  1
  S  S31  1  0.24538256  0.24538256  0.26385233  1
  S  S32  1  0.17131403  0.17131403  0.48605790  1
  S  S33  1  0.09725080  0.09725080  0.70824761  1
  S  S34  1  0.06021524  0.06021524  0.81935429  1
  S  S35  1  0.02317268  0.02317268  0.93048195  1
