# generated using pymatgen
data_Mg7(SiO3)8
_symmetry_space_group_name_H-M   'P 1'
_cell_length_a   5.34104417
_cell_length_b   18.28154790
_cell_length_c   18.83036982
_cell_angle_alpha   90.00000000
_cell_angle_beta   90.00000000
_cell_angle_gamma   90.00000000
_symmetry_Int_Tables_number   1
_chemical_formula_structural   Mg7(SiO3)8
_chemical_formula_sum   'Mg28 Si32 O96'
_cell_volume   1838.64541762
_cell_formula_units_Z   4
loop_
 _symmetry_equiv_pos_site_id
 _symmetry_equiv_pos_as_xyz
  1  'x, y, z'
loop_
 _atom_site_type_symbol
 _atom_site_label
 _atom_site_symmetry_multiplicity
 _atom_site_fract_x
 _atom_site_fract_y
 _atom_site_fract_z
 _atom_site_occupancy
  Mg  Mg0  1  0.89214276  0.84258503  0.37505948  1
  Mg  Mg1  1  0.60785724  0.65741497  0.87505948  1
  Mg  Mg2  1  0.10785724  0.34258503  0.62494052  1
  Mg  Mg3  1  0.39214276  0.15741497  0.12494052  1
  Mg  Mg4  1  0.10785724  0.15741497  0.62494052  1
  Mg  Mg5  1  0.39214276  0.34258503  0.12494052  1
  Mg  Mg6  1  0.89214276  0.65741497  0.37505948  1
  Mg  Mg7  1  0.60785724  0.84258503  0.87505948  1
  Mg  Mg8  1  0.39278853  0.92905665  0.37538979  1
  Mg  Mg9  1  0.10721147  0.57094335  0.87538979  1
  Mg  Mg10  1  0.60721147  0.42905665  0.62461021  1
  Mg  Mg11  1  0.89278853  0.07094335  0.12461021  1
  Mg  Mg12  1  0.60721147  0.07094335  0.62461021  1
  Mg  Mg13  1  0.89278853  0.42905665  0.12461021  1
  Mg  Mg14  1  0.39278853  0.57094335  0.37538979  1
  Mg  Mg15  1  0.10721147  0.92905665  0.87538979  1
  Mg  Mg16  1  0.39118501  0.75000000  0.37389520  1
  Mg  Mg17  1  0.10881499  0.75000000  0.87389520  1
  Mg  Mg18  1  0.60881499  0.25000000  0.62610480  1
  Mg  Mg19  1  0.89118501  0.25000000  0.12610480  1
  Mg  Mg20  1  0.89148898  0.00746275  0.37450032  1
  Mg  Mg21  1  0.60851102  0.49253725  0.87450032  1
  Mg  Mg22  1  0.10851102  0.50746275  0.62549968  1
  Mg  Mg23  1  0.39148898  0.99253725  0.12549968  1
  Mg  Mg24  1  0.10851102  0.99253725  0.62549968  1
  Mg  Mg25  1  0.39148898  0.50746275  0.12549968  1
  Mg  Mg26  1  0.89148898  0.49253725  0.37450032  1
  Mg  Mg27  1  0.60851102  0.00746275  0.87450032  1
  Si  Si28  1  0.07222661  0.16562091  0.26826029  1
  Si  Si29  1  0.42777339  0.33437909  0.76826029  1
  Si  Si30  1  0.92777339  0.66562091  0.73173971  1
  Si  Si31  1  0.57222661  0.83437909  0.23173971  1
  Si  Si32  1  0.92777339  0.83437909  0.73173971  1
  Si  Si33  1  0.57222661  0.66562091  0.23173971  1
  Si  Si34  1  0.07222661  0.33437909  0.26826029  1
  Si  Si35  1  0.42777339  0.16562091  0.76826029  1
  Si  Si36  1  0.77487335  0.16655038  0.48271851  1
  Si  Si37  1  0.72512665  0.33344962  0.98271851  1
  Si  Si38  1  0.22512665  0.66655038  0.51728149  1
  Si  Si39  1  0.27487335  0.83344962  0.01728149  1
  Si  Si40  1  0.22512665  0.83344962  0.51728149  1
  Si  Si41  1  0.27487335  0.66655038  0.01728149  1
  Si  Si42  1  0.77487335  0.33344962  0.48271851  1
  Si  Si43  1  0.72512665  0.16655038  0.98271851  1
  Si  Si44  1  0.56963832  0.07949426  0.27261469  1
  Si  Si45  1  0.93036168  0.42050574  0.77261469  1
  Si  Si46  1  0.43036168  0.57949426  0.72738531  1
  Si  Si47  1  0.06963832  0.92050574  0.22738531  1
  Si  Si48  1  0.43036168  0.92050574  0.72738531  1
  Si  Si49  1  0.06963832  0.57949426  0.22738531  1
  Si  Si50  1  0.56963832  0.42050574  0.27261469  1
  Si  Si51  1  0.93036168  0.07949426  0.77261469  1
  Si  Si52  1  0.27474257  0.08168478  0.47573029  1
  Si  Si53  1  0.22525743  0.41831522  0.97573029  1
  Si  Si54  1  0.72525743  0.58168478  0.52426971  1
  Si  Si55  1  0.77474257  0.91831522  0.02426971  1
  Si  Si56  1  0.72525743  0.91831522  0.52426971  1
  Si  Si57  1  0.77474257  0.58168478  0.02426971  1
  Si  Si58  1  0.27474257  0.41831522  0.47573029  1
  Si  Si59  1  0.22525743  0.08168478  0.97573029  1
  O  O60  1  0.44367228  0.16177132  0.68161403  1
  O  O61  1  0.05632772  0.33822868  0.18161403  1
  O  O62  1  0.55632772  0.66177132  0.31838597  1
  O  O63  1  0.94367228  0.83822868  0.81838597  1
  O  O64  1  0.55632772  0.83822868  0.31838597  1
  O  O65  1  0.94367228  0.66177132  0.81838597  1
  O  O66  1  0.44367228  0.33822868  0.68161403  1
  O  O67  1  0.05632772  0.16177132  0.18161403  1
  O  O68  1  0.23040522  0.83809952  0.43056979  1
  O  O69  1  0.26959478  0.66190048  0.93056979  1
  O  O70  1  0.76959478  0.33809952  0.56943021  1
  O  O71  1  0.73040522  0.16190048  0.06943021  1
  O  O72  1  0.76959478  0.16190048  0.56943021  1
  O  O73  1  0.73040522  0.33809952  0.06943021  1
  O  O74  1  0.23040522  0.66190048  0.43056979  1
  O  O75  1  0.26959478  0.83809952  0.93056979  1
  O  O76  1  0.06463667  0.92551990  0.31464956  1
  O  O77  1  0.43536333  0.57448010  0.81464956  1
  O  O78  1  0.93536333  0.42551990  0.68535044  1
  O  O79  1  0.56463667  0.07448010  0.18535044  1
  O  O80  1  0.93536333  0.07448010  0.68535044  1
  O  O81  1  0.56463667  0.42551990  0.18535044  1
  O  O82  1  0.06463667  0.57448010  0.31464956  1
  O  O83  1  0.43536333  0.92551990  0.81464956  1
  O  O84  1  0.72384465  0.92614293  0.43671391  1
  O  O85  1  0.77615535  0.57385707  0.93671391  1
  O  O86  1  0.27615535  0.42614293  0.56328609  1
  O  O87  1  0.22384465  0.07385707  0.06328609  1
  O  O88  1  0.27615535  0.07385707  0.56328609  1
  O  O89  1  0.22384465  0.42614293  0.06328609  1
  O  O90  1  0.72384465  0.57385707  0.43671391  1
  O  O91  1  0.77615535  0.92614293  0.93671391  1
  O  O92  1  0.03778795  0.75000000  0.32843133  1
  O  O93  1  0.46221205  0.75000000  0.82843133  1
  O  O94  1  0.96221205  0.25000000  0.67156867  1
  O  O95  1  0.53778795  0.25000000  0.17156867  1
  O  O96  1  0.25556102  0.25000000  0.57931461  1
  O  O97  1  0.24443898  0.25000000  0.07931461  1
  O  O98  1  0.74443898  0.75000000  0.42068539  1
  O  O99  1  0.75556102  0.75000000  0.92068539  1
  O  O100  1  0.57683022  0.00263052  0.31433985  1
  O  O101  1  0.92316978  0.49736948  0.81433985  1
  O  O102  1  0.42316978  0.50263052  0.68566015  1
  O  O103  1  0.07683022  0.99736948  0.18566015  1
  O  O104  1  0.42316978  0.99736948  0.68566015  1
  O  O105  1  0.07683022  0.50263052  0.18566015  1
  O  O106  1  0.57683022  0.49736948  0.31433985  1
  O  O107  1  0.92316978  0.00263052  0.81433985  1
  O  O108  1  0.20761040  0.00809690  0.43230027  1
  O  O109  1  0.29238960  0.49190310  0.93230027  1
  O  O110  1  0.79238960  0.50809690  0.56769973  1
  O  O111  1  0.70761040  0.99190310  0.06769973  1
  O  O112  1  0.79238960  0.99190310  0.56769973  1
  O  O113  1  0.70761040  0.50809690  0.06769973  1
  O  O114  1  0.20761040  0.49190310  0.43230027  1
  O  O115  1  0.29238960  0.00809690  0.93230027  1
  O  O116  1  0.84298282  0.11509177  0.30156223  1
  O  O117  1  0.65701718  0.38490823  0.80156223  1
  O  O118  1  0.15701718  0.61509177  0.69843777  1
  O  O119  1  0.34298282  0.88490823  0.19843777  1
  O  O120  1  0.15701718  0.88490823  0.69843777  1
  O  O121  1  0.34298282  0.61509177  0.19843777  1
  O  O122  1  0.84298282  0.38490823  0.30156223  1
  O  O123  1  0.65701718  0.11509177  0.80156223  1
  O  O124  1  0.55524438  0.11220281  0.45080225  1
  O  O125  1  0.94475562  0.38779719  0.95080225  1
  O  O126  1  0.44475562  0.61220281  0.54919775  1
  O  O127  1  0.05524438  0.88779719  0.04919775  1
  O  O128  1  0.44475562  0.88779719  0.54919775  1
  O  O129  1  0.05524438  0.61220281  0.04919775  1
  O  O130  1  0.55524438  0.38779719  0.45080225  1
  O  O131  1  0.94475562  0.11220281  0.95080225  1
  O  O132  1  0.33694588  0.36752119  0.29754602  1
  O  O133  1  0.16305412  0.13247881  0.79754602  1
  O  O134  1  0.66305412  0.86752119  0.70245398  1
  O  O135  1  0.83694588  0.63247881  0.20245398  1
  O  O136  1  0.66305412  0.63247881  0.70245398  1
  O  O137  1  0.83694588  0.86752119  0.20245398  1
  O  O138  1  0.33694588  0.13247881  0.29754602  1
  O  O139  1  0.16305412  0.36752119  0.79754602  1
  O  O140  1  0.04948165  0.14012700  0.45320333  1
  O  O141  1  0.45051835  0.35987300  0.95320333  1
  O  O142  1  0.95051835  0.64012700  0.54679667  1
  O  O143  1  0.54948165  0.85987300  0.04679667  1
  O  O144  1  0.95051835  0.85987300  0.54679667  1
  O  O145  1  0.54948165  0.64012700  0.04679667  1
  O  O146  1  0.04948165  0.35987300  0.45320333  1
  O  O147  1  0.45051835  0.14012700  0.95320333  1
  O  O148  1  0.04151964  0.25000000  0.29570738  1
  O  O149  1  0.45848036  0.25000000  0.79570738  1
  O  O150  1  0.95848036  0.75000000  0.70429262  1
  O  O151  1  0.54151964  0.75000000  0.20429262  1
  O  O152  1  0.72328939  0.25000000  0.45539514  1
  O  O153  1  0.77671061  0.25000000  0.95539514  1
  O  O154  1  0.27671061  0.75000000  0.54460486  1
  O  O155  1  0.22328939  0.75000000  0.04460486  1
