# generated using pymatgen
data_ErAlB14
_symmetry_space_group_name_H-M   'P 1'
_cell_length_a   5.91140455
_cell_length_b   7.28021879
_cell_length_c   7.28021879
_cell_angle_alpha   68.83396973
_cell_angle_beta   66.04676960
_cell_angle_gamma   66.04676960
_symmetry_Int_Tables_number   1
_chemical_formula_structural   ErAlB14
_chemical_formula_sum   'Er2 Al2 B28'
_cell_volume   254.34443944
_cell_formula_units_Z   2
loop_
 _symmetry_equiv_pos_site_id
 _symmetry_equiv_pos_as_xyz
  1  'x, y, z'
loop_
 _atom_site_type_symbol
 _atom_site_label
 _atom_site_symmetry_multiplicity
 _atom_site_fract_x
 _atom_site_fract_y
 _atom_site_fract_z
 _atom_site_occupancy
  Er  Er0  1  0.75000000  0.59713195  0.90286805  1
  Er  Er1  1  0.25000000  0.40286805  0.09713195  1
  Al  Al2  1  0.50000000  -0.00000000  0.50000000  1
  Al  Al3  1  0.00000000  -0.00000000  0.50000000  1
  B  B4  1  0.16744719  0.79879447  0.86631114  1
  B  B5  1  0.83255281  0.20120553  0.13368886  1
  B  B6  1  0.66744719  0.36631114  0.29879447  1
  B  B7  1  0.33255281  0.63368886  0.70120553  1
  B  B8  1  0.64426830  0.98086964  0.73059377  1
  B  B9  1  0.35573170  0.01913036  0.26940623  1
  B  B10  1  0.14426830  0.23059377  0.48086964  1
  B  B11  1  0.85573170  0.76940623  0.51913036  1
  B  B12  1  0.59034319  0.24247713  0.57683649  1
  B  B13  1  0.40965681  0.75752287  0.42316351  1
  B  B14  1  0.09034319  0.07683649  0.74247713  1
  B  B15  1  0.90965681  0.92316351  0.25752287  1
  B  B16  1  0.89877800  0.77661836  0.10134771  1
  B  B17  1  0.77674407  0.22338164  0.89865229  1
  B  B18  1  0.39877800  0.60134771  0.27661836  1
  B  B19  1  0.27674407  0.39865229  0.72338164  1
  B  B20  1  0.10122200  0.22338164  0.89865229  1
  B  B21  1  0.22325593  0.77661836  0.10134771  1
  B  B22  1  0.60122200  0.39865229  0.72338164  1
  B  B23  1  0.72325593  0.60134771  0.27661836  1
  B  B24  1  0.33226741  0.37186491  0.46819842  1
  B  B25  1  0.17233074  0.62813509  0.53180158  1
  B  B26  1  0.83226741  0.96819842  0.87186491  1
  B  B27  1  0.67233074  0.03180158  0.12813509  1
  B  B28  1  0.66773259  0.62813509  0.53180158  1
  B  B29  1  0.82766926  0.37186491  0.46819842  1
  B  B30  1  0.16773259  0.03180158  0.12813509  1
  B  B31  1  0.32766926  0.96819842  0.87186491  1
