# generated using pymatgen
data_Na2LaH2C5O11
_symmetry_space_group_name_H-M   'P 1'
_cell_length_a   7.94055059
_cell_length_b   11.81320811
_cell_length_c   12.10854392
_cell_angle_alpha   90.00000000
_cell_angle_beta   101.18295544
_cell_angle_gamma   90.00000000
_symmetry_Int_Tables_number   1
_chemical_formula_structural   Na2LaH2C5O11
_chemical_formula_sum   'Na8 La4 H8 C20 O44'
_cell_volume   1114.25632706
_cell_formula_units_Z   4
loop_
 _symmetry_equiv_pos_site_id
 _symmetry_equiv_pos_as_xyz
  1  'x, y, z'
loop_
 _atom_site_type_symbol
 _atom_site_label
 _atom_site_symmetry_multiplicity
 _atom_site_fract_x
 _atom_site_fract_y
 _atom_site_fract_z
 _atom_site_occupancy
  Na  Na0  1  0.64257203  0.79277133  0.42522858  1
  Na  Na1  1  0.14257203  0.70722867  0.92522858  1
  Na  Na2  1  0.35742797  0.20722867  0.57477142  1
  Na  Na3  1  0.85742797  0.29277133  0.07477142  1
  Na  Na4  1  0.61319474  0.18889769  0.83385094  1
  Na  Na5  1  0.11319474  0.31110231  0.33385094  1
  Na  Na6  1  0.38680526  0.81110231  0.16614906  1
  Na  Na7  1  0.88680526  0.68889769  0.66614906  1
  La  La8  1  0.87767062  0.81518681  0.17398808  1
  La  La9  1  0.37767062  0.68481319  0.67398808  1
  La  La10  1  0.12232938  0.18481319  0.82601192  1
  La  La11  1  0.62232938  0.31518681  0.32601192  1
  H  H12  1  0.82976062  0.93168982  0.63100782  1
  H  H13  1  0.32976062  0.56831018  0.13100782  1
  H  H14  1  0.17023938  0.06831018  0.36899218  1
  H  H15  1  0.67023938  0.43168982  0.86899218  1
  H  H16  1  0.64084179  0.90178838  0.63765819  1
  H  H17  1  0.14084179  0.59821162  0.13765819  1
  H  H18  1  0.35915821  0.09821162  0.36234181  1
  H  H19  1  0.85915821  0.40178838  0.86234181  1
  C  C20  1  0.90789608  0.02636363  0.98977227  1
  C  C21  1  0.40789608  0.47363637  0.48977227  1
  C  C22  1  0.09210392  0.97363637  0.01022773  1
  C  C23  1  0.59210392  0.52636363  0.51022773  1
  C  C24  1  0.84672998  0.07941018  0.26114802  1
  C  C25  1  0.34672998  0.42058982  0.76114802  1
  C  C26  1  0.15327002  0.92058982  0.73885198  1
  C  C27  1  0.65327002  0.57941018  0.23885198  1
  C  C28  1  0.66679407  0.03203291  0.27298383  1
  C  C29  1  0.16679407  0.46796709  0.77298383  1
  C  C30  1  0.33320593  0.96796709  0.72701617  1
  C  C31  1  0.83320593  0.53203291  0.22701617  1
  C  C32  1  0.06097452  0.75780766  0.44850217  1
  C  C33  1  0.56097452  0.74219234  0.94850217  1
  C  C34  1  0.93902548  0.24219234  0.55149783  1
  C  C35  1  0.43902548  0.25780766  0.05149783  1
  C  C36  1  0.22342123  0.77810169  0.39783349  1
  C  C37  1  0.72342123  0.72189831  0.89783349  1
  C  C38  1  0.77657877  0.22189831  0.60216651  1
  C  C39  1  0.27657877  0.27810169  0.10216651  1
  O  O40  1  0.79684492  0.97798806  0.03446617  1
  O  O41  1  0.29684492  0.52201194  0.53446617  1
  O  O42  1  0.20315508  0.02201194  0.96553383  1
  O  O43  1  0.70315508  0.47798806  0.46553383  1
  O  O44  1  0.88293300  0.11560531  0.92938805  1
  O  O45  1  0.38293300  0.38439469  0.42938805  1
  O  O46  1  0.11706700  0.88439469  0.07061195  1
  O  O47  1  0.61706700  0.61560531  0.57061195  1
  O  O48  1  0.96601472  0.00733323  0.26481021  1
  O  O49  1  0.46601472  0.49266677  0.76481021  1
  O  O50  1  0.03398528  0.99266677  0.73518979  1
  O  O51  1  0.53398528  0.50733323  0.23518979  1
  O  O52  1  0.86164333  0.18521818  0.25146787  1
  O  O53  1  0.36164333  0.31478182  0.75146787  1
  O  O54  1  0.13835667  0.81478182  0.74853213  1
  O  O55  1  0.63835667  0.68521818  0.24853213  1
  O  O56  1  0.63978933  0.92715874  0.25438545  1
  O  O57  1  0.13978933  0.57284126  0.75438545  1
  O  O58  1  0.36021067  0.07284126  0.74561455  1
  O  O59  1  0.86021067  0.42715874  0.24561455  1
  O  O60  1  0.56248040  0.10145639  0.30275782  1
  O  O61  1  0.06248040  0.39854361  0.80275782  1
  O  O62  1  0.43751960  0.89854361  0.69724218  1
  O  O63  1  0.93751960  0.60145639  0.19724218  1
  O  O64  1  0.91786073  0.78175300  0.38723186  1
  O  O65  1  0.41786073  0.71824700  0.88723186  1
  O  O66  1  0.08213927  0.21824700  0.61276814  1
  O  O67  1  0.58213927  0.28175300  0.11276814  1
  O  O68  1  0.08246404  0.71982076  0.54780270  1
  O  O69  1  0.58246404  0.78017924  0.04780270  1
  O  O70  1  0.91753596  0.28017924  0.45219730  1
  O  O71  1  0.41753596  0.21982076  0.95219730  1
  O  O72  1  0.19919050  0.79707164  0.29281225  1
  O  O73  1  0.69919050  0.70292836  0.79281225  1
  O  O74  1  0.80080950  0.20292836  0.70718775  1
  O  O75  1  0.30080950  0.29707164  0.20718775  1
  O  O76  1  0.36622953  0.77464430  0.46545697  1
  O  O77  1  0.86622953  0.72535570  0.96545697  1
  O  O78  1  0.63377047  0.22535570  0.53454303  1
  O  O79  1  0.13377047  0.27464430  0.03454303  1
  O  O80  1  0.73327754  0.88295599  0.59677372  1
  O  O81  1  0.23327754  0.61704401  0.09677372  1
  O  O82  1  0.26672246  0.11704401  0.40322628  1
  O  O83  1  0.76672246  0.38295599  0.90322628  1
