# generated using pymatgen
data_ZnS
_symmetry_space_group_name_H-M   'P 1'
_cell_length_a   3.87388143
_cell_length_b   3.87388143
_cell_length_c   56.39201845
_cell_angle_alpha   88.03163020
_cell_angle_beta   88.03163020
_cell_angle_gamma   59.99999814
_symmetry_Int_Tables_number   1
_chemical_formula_structural   ZnS
_chemical_formula_sum   'Zn18 S18'
_cell_volume   732.31691151
_cell_formula_units_Z   18
loop_
 _symmetry_equiv_pos_site_id
 _symmetry_equiv_pos_as_xyz
  1  'x, y, z'
loop_
 _atom_site_type_symbol
 _atom_site_label
 _atom_site_symmetry_multiplicity
 _atom_site_fract_x
 _atom_site_fract_y
 _atom_site_fract_z
 _atom_site_occupancy
  Zn  Zn0  1  0.99999501  0.99999501  0.00001497  1
  Zn  Zn1  1  0.94443950  0.94443950  0.16668150  1
  Zn  Zn2  1  0.90740310  0.90740310  0.27779070  1
  Zn  Zn3  1  0.85184877  0.85184877  0.44445370  1
  Zn  Zn4  1  0.81480692  0.81480692  0.55557923  1
  Zn  Zn5  1  0.75925557  0.75925557  0.72223329  1
  Zn  Zn6  1  0.72221197  0.72221197  0.83336408  1
  Zn  Zn7  1  0.64814877  0.64814877  0.05555368  1
  Zn  Zn8  1  0.59258796  0.59258796  0.22223612  1
  Zn  Zn9  1  0.53703440  0.53703440  0.38889680  1
  Zn  Zn10  1  0.46295966  0.46295966  0.61112101  1
  Zn  Zn11  1  0.40740515  0.40740515  0.77778456  1
  Zn  Zn12  1  0.35185221  0.35185221  0.94444336  1
  Zn  Zn13  1  0.29629489  0.29629489  0.11111533  1
  Zn  Zn14  1  0.22222118  0.22222118  0.33333647  1
  Zn  Zn15  1  0.16666679  0.16666679  0.49999963  1
  Zn  Zn16  1  0.11110552  0.11110552  0.66668344  1
  Zn  Zn17  1  0.03703879  0.03703879  0.88888364  1
  S  S18  1  0.98611891  0.98611891  0.04164327  1
  S  S19  1  0.93058092  0.93058092  0.20825723  1
  S  S20  1  0.89352638  0.89352638  0.31942086  1
  S  S21  1  0.83799233  0.83799233  0.48602302  1
  S  S22  1  0.80092987  0.80092987  0.59721040  1
  S  S23  1  0.74540115  0.74540115  0.76379655  1
  S  S24  1  0.70834499  0.70834499  0.87496504  1
  S  S25  1  0.63427308  0.63427308  0.09718076  1
  S  S26  1  0.57869882  0.57869882  0.26390353  1
  S  S27  1  0.52316306  0.52316306  0.43051081  1
  S  S28  1  0.44908259  0.44908259  0.65275224  1
  S  S29  1  0.39351947  0.39351947  0.81944160  1
  S  S30  1  0.33795889  0.33795889  0.98612334  1
  S  S31  1  0.28242320  0.28242320  0.15273040  1
  S  S32  1  0.20834502  0.20834502  0.37496493  1
  S  S33  1  0.15277453  0.15277453  0.54167642  1
  S  S34  1  0.09723537  0.09723537  0.70829390  1
  S  S35  1  0.02317526  0.02317526  0.93047423  1
