# generated using pymatgen
data_ZnS
_symmetry_space_group_name_H-M   'P 1'
_cell_length_a   3.87544099
_cell_length_b   3.87544099
_cell_length_c   56.54702239
_cell_angle_alpha   88.03623734
_cell_angle_beta   88.03623734
_cell_angle_gamma   59.99999812
_symmetry_Int_Tables_number   1
_chemical_formula_structural   ZnS
_chemical_formula_sum   'Zn18 S18'
_cell_volume   734.92390362
_cell_formula_units_Z   18
loop_
 _symmetry_equiv_pos_site_id
 _symmetry_equiv_pos_as_xyz
  1  'x, y, z'
loop_
 _atom_site_type_symbol
 _atom_site_label
 _atom_site_symmetry_multiplicity
 _atom_site_fract_x
 _atom_site_fract_y
 _atom_site_fract_z
 _atom_site_occupancy
  Zn  Zn0  1  0.99999412  0.99999412  0.00001764  1
  Zn  Zn1  1  0.94443483  0.94443483  0.16669552  1
  Zn  Zn2  1  0.88887956  0.88887956  0.33336133  1
  Zn  Zn3  1  0.83332752  0.83332752  0.50001744  1
  Zn  Zn4  1  0.77777413  0.77777413  0.66667761  1
  Zn  Zn5  1  0.72221066  0.72221066  0.83336803  1
  Zn  Zn6  1  0.64814732  0.64814732  0.05555804  1
  Zn  Zn7  1  0.59258034  0.59258034  0.22225897  1
  Zn  Zn8  1  0.51851373  0.51851373  0.44445880  1
  Zn  Zn9  1  0.48147283  0.48147283  0.55558152  1
  Zn  Zn10  1  0.42592004  0.42592004  0.72223989  1
  Zn  Zn11  1  0.35184811  0.35184811  0.94445568  1
  Zn  Zn12  1  0.29629571  0.29629571  0.11111286  1
  Zn  Zn13  1  0.24073098  0.24073098  0.27780705  1
  Zn  Zn14  1  0.20368786  0.20368786  0.38893642  1
  Zn  Zn15  1  0.12962683  0.12962683  0.61111950  1
  Zn  Zn16  1  0.07406151  0.07406151  0.77781546  1
  Zn  Zn17  1  0.03702811  0.03702811  0.88891567  1
  S  S18  1  0.98612213  0.98612213  0.04163362  1
  S  S19  1  0.93056818  0.93056818  0.20829545  1
  S  S20  1  0.87500295  0.87500295  0.37499114  1
  S  S21  1  0.81944510  0.81944510  0.54166470  1
  S  S22  1  0.76390761  0.76390761  0.70827718  1
  S  S23  1  0.70834104  0.70834104  0.87497689  1
  S  S24  1  0.63427363  0.63427363  0.09717912  1
  S  S25  1  0.57871925  0.57871925  0.26384224  1
  S  S26  1  0.50465600  0.50465600  0.48603199  1
  S  S27  1  0.46760263  0.46760263  0.59719212  1
  S  S28  1  0.41205826  0.41205826  0.76382523  1
  S  S29  1  0.33796483  0.33796483  0.98610550  1
  S  S30  1  0.28242391  0.28242391  0.15272828  1
  S  S31  1  0.22687997  0.22687997  0.31936008  1
  S  S32  1  0.18982733  0.18982733  0.43051802  1
  S  S33  1  0.11575466  0.11575466  0.65273602  1
  S  S34  1  0.06021276  0.06021276  0.81936172  1
  S  S35  1  0.02317557  0.02317557  0.93047329  1
