# generated using pymatgen
data_U(AlCu)6
_symmetry_space_group_name_H-M   'P 1'
_cell_length_a   5.01442668
_cell_length_b   6.71611418
_cell_length_c   6.61410905
_cell_angle_alpha   98.13534938
_cell_angle_beta   112.27612063
_cell_angle_gamma   68.07990602
_symmetry_Int_Tables_number   1
_chemical_formula_structural   U(AlCu)6
_chemical_formula_sum   'U1 Al6 Cu6'
_cell_volume   191.22081432
_cell_formula_units_Z   1
loop_
 _symmetry_equiv_pos_site_id
 _symmetry_equiv_pos_as_xyz
  1  'x, y, z'
loop_
 _atom_site_type_symbol
 _atom_site_label
 _atom_site_symmetry_multiplicity
 _atom_site_fract_x
 _atom_site_fract_y
 _atom_site_fract_z
 _atom_site_occupancy
  U  U0  1  0.00000000  0.00000000  0.00000000  1
  Al  Al1  1  0.50000000  0.50000000  0.00000000  1
  Al  Al2  1  0.00000000  0.50000000  0.00000000  1
  Al  Al3  1  0.73338988  0.77832933  0.24510909  1
  Al  Al4  1  0.26661012  0.22167067  0.75489091  1
  Al  Al5  1  0.48828079  0.77832933  0.75489091  1
  Al  Al6  1  0.51171921  0.22167067  0.24510909  1
  Cu  Cu7  1  0.65143859  0.35211119  0.65498836  1
  Cu  Cu8  1  0.34856141  0.64788881  0.34501164  1
  Cu  Cu9  1  0.99645023  0.35211119  0.34501164  1
  Cu  Cu10  1  0.00354977  0.64788881  0.65498836  1
  Cu  Cu11  1  0.50000000  0.00000000  0.50000000  1
  Cu  Cu12  1  0.00000000  0.00000000  0.50000000  1
