# generated using pymatgen
data_UAl4B3O14
_symmetry_space_group_name_H-M   'P 1'
_cell_length_a   5.65054893
_cell_length_b   9.65414892
_cell_length_c   10.68480997
_cell_angle_alpha   112.81528554
_cell_angle_beta   90.00000000
_cell_angle_gamma   90.00000000
_symmetry_Int_Tables_number   1
_chemical_formula_structural   UAl4B3O14
_chemical_formula_sum   'U2 Al8 B6 O28'
_cell_volume   537.26576745
_cell_formula_units_Z   2
loop_
 _symmetry_equiv_pos_site_id
 _symmetry_equiv_pos_as_xyz
  1  'x, y, z'
loop_
 _atom_site_type_symbol
 _atom_site_label
 _atom_site_symmetry_multiplicity
 _atom_site_fract_x
 _atom_site_fract_y
 _atom_site_fract_z
 _atom_site_occupancy
  U  U0  1  0.75000000  0.10555263  0.77407141  1
  U  U1  1  0.25000000  0.89444737  0.22592859  1
  Al  Al2  1  0.75000000  0.41384710  0.23199013  1
  Al  Al3  1  0.25000000  0.58615290  0.76800987  1
  Al  Al4  1  0.50000000  0.50000000  0.50000000  1
  Al  Al5  1  -0.00000000  0.50000000  0.50000000  1
  Al  Al6  1  0.25000000  0.86027662  0.67235781  1
  Al  Al7  1  0.75000000  0.13972338  0.32764219  1
  Al  Al8  1  0.50000000  0.50000000  0.00000000  1
  Al  Al9  1  0.00000000  0.50000000  0.00000000  1
  B  B10  1  0.75000000  0.79237334  0.58272409  1
  B  B11  1  0.25000000  0.20762666  0.41727591  1
  B  B12  1  0.25000000  0.49205351  0.24909496  1
  B  B13  1  0.75000000  0.50794649  0.75090504  1
  B  B14  1  0.75000000  0.78639254  0.14346798  1
  B  B15  1  0.25000000  0.21360746  0.85653202  1
  O  O16  1  0.25000000  0.64031921  0.57041473  1
  O  O17  1  0.75000000  0.35968079  0.42958527  1
  O  O18  1  0.75000000  0.02171145  0.89828489  1
  O  O19  1  0.25000000  0.97828855  0.10171511  1
  O  O20  1  0.75000000  0.63804523  0.52507352  1
  O  O21  1  0.25000000  0.36195477  0.47492648  1
  O  O22  1  0.54750797  0.87707281  0.61816128  1
  O  O23  1  0.04750797  0.12292719  0.38183872  1
  O  O24  1  0.45249203  0.12292719  0.38183872  1
  O  O25  1  0.95249203  0.87707281  0.61816128  1
  O  O26  1  0.75000000  0.51122449  0.87937389  1
  O  O27  1  0.25000000  0.48877551  0.12062611  1
  O  O28  1  0.75000000  0.46005281  0.09137682  1
  O  O29  1  0.25000000  0.53994719  0.90862318  1
  O  O30  1  0.53586405  0.71429361  0.10525409  1
  O  O31  1  0.03586405  0.28570639  0.89474591  1
  O  O32  1  0.46413595  0.28570639  0.89474591  1
  O  O33  1  0.96413595  0.71429361  0.10525409  1
  O  O34  1  0.75000000  0.22066064  0.20182856  1
  O  O35  1  0.25000000  0.77933936  0.79817144  1
  O  O36  1  0.46294433  0.48889814  0.31520259  1
  O  O37  1  0.96294433  0.51110186  0.68479741  1
  O  O38  1  0.53705567  0.51110186  0.68479741  1
  O  O39  1  0.03705567  0.48889814  0.31520259  1
  O  O40  1  0.75000000  0.18311421  0.64481268  1
  O  O41  1  0.25000000  0.81688579  0.35518732  1
  O  O42  1  0.25000000  0.06436120  0.77081413  1
  O  O43  1  0.75000000  0.93563880  0.22918587  1
