# generated using pymatgen
data_LaNb2CuBrO7
_symmetry_space_group_name_H-M   'P 1'
_cell_length_a   7.90204563
_cell_length_b   7.93239001
_cell_length_c   11.78493344
_cell_angle_alpha   90.00000000
_cell_angle_beta   90.00000000
_cell_angle_gamma   89.99494744
_symmetry_Int_Tables_number   1
_chemical_formula_structural   LaNb2CuBrO7
_chemical_formula_sum   'La4 Nb8 Cu4 Br4 O28'
_cell_volume   738.70446516
_cell_formula_units_Z   4
loop_
 _symmetry_equiv_pos_site_id
 _symmetry_equiv_pos_as_xyz
  1  'x, y, z'
loop_
 _atom_site_type_symbol
 _atom_site_label
 _atom_site_symmetry_multiplicity
 _atom_site_fract_x
 _atom_site_fract_y
 _atom_site_fract_z
 _atom_site_occupancy
  La  La0  1  0.00002270  0.23664585  0.00000000  1
  La  La1  1  0.99997730  0.76335415  0.00000000  1
  La  La2  1  0.50002547  0.26331009  0.00000000  1
  La  La3  1  0.49997453  0.73668991  0.00000000  1
  Nb  Nb4  1  0.75172059  0.50016018  0.18910676  1
  Nb  Nb5  1  0.24827941  0.49983982  0.18910676  1
  Nb  Nb6  1  0.25171857  0.99983998  0.81088494  1
  Nb  Nb7  1  0.74828143  0.00016002  0.81088494  1
  Nb  Nb8  1  0.24827941  0.49983982  0.81089324  1
  Nb  Nb9  1  0.75172059  0.50016018  0.81089324  1
  Nb  Nb10  1  0.74828143  0.00016002  0.18911506  1
  Nb  Nb11  1  0.25171857  0.99983998  0.18911506  1
  Cu  Cu12  1  0.77171795  0.49484605  0.50000000  1
  Cu  Cu13  1  0.22828205  0.50515395  0.50000000  1
  Cu  Cu14  1  0.27172090  0.00514138  0.50000000  1
  Cu  Cu15  1  0.72827910  0.99485862  0.50000000  1
  Br  Br16  1  0.94393262  0.22948914  0.50000000  1
  Br  Br17  1  0.05606738  0.77051086  0.50000000  1
  Br  Br18  1  0.44393344  0.27046860  0.50000000  1
  Br  Br19  1  0.55606656  0.72953140  0.50000000  1
  O  O20  1  -0.00000000  0.50000000  0.13355271  1
  O  O21  1  0.50000000  -0.00000000  0.86645406  1
  O  O22  1  -0.00000000  0.50000000  0.86644729  1
  O  O23  1  0.50000000  -0.00000000  0.13354594  1
  O  O24  1  0.50000000  0.50000000  0.18237860  1
  O  O25  1  -0.00000000  -0.00000000  0.81763264  1
  O  O26  1  0.50000000  0.50000000  0.81762140  1
  O  O27  1  -0.00000000  -0.00000000  0.18236736  1
  O  O28  1  0.74984245  0.25003082  0.15137882  1
  O  O29  1  0.25015755  0.74996918  0.15137882  1
  O  O30  1  0.24983229  0.24996443  0.84862128  1
  O  O31  1  0.75016771  0.75003557  0.84862128  1
  O  O32  1  0.25015755  0.74996918  0.84862118  1
  O  O33  1  0.74984245  0.25003082  0.84862118  1
  O  O34  1  0.75016771  0.75003557  0.15137872  1
  O  O35  1  0.24983229  0.24996443  0.15137872  1
  O  O36  1  0.69863376  0.49999427  0.00000000  1
  O  O37  1  0.30136624  0.50000573  0.00000000  1
  O  O38  1  0.19863950  0.00000399  0.00000000  1
  O  O39  1  0.80136050  0.99999601  0.00000000  1
  O  O40  1  0.77942879  0.49971330  0.34137118  1
  O  O41  1  0.22057121  0.50028670  0.34137118  1
  O  O42  1  0.27942669  0.00028572  0.65861324  1
  O  O43  1  0.72057331  0.99971428  0.65861324  1
  O  O44  1  0.22057121  0.50028670  0.65862882  1
  O  O45  1  0.77942879  0.49971330  0.65862882  1
  O  O46  1  0.72057331  0.99971428  0.34138676  1
  O  O47  1  0.27942669  0.00028572  0.34138676  1
