# generated using pymatgen
data_ZnS
_symmetry_space_group_name_H-M   'P 1'
_cell_length_a   3.87561206
_cell_length_b   3.87561206
_cell_length_c   56.54906157
_cell_angle_alpha   88.03622146
_cell_angle_beta   88.03622146
_cell_angle_gamma   59.99999826
_symmetry_Int_Tables_number   1
_chemical_formula_structural   ZnS
_chemical_formula_sum   'Zn18 S18'
_cell_volume   735.01528451
_cell_formula_units_Z   18
loop_
 _symmetry_equiv_pos_site_id
 _symmetry_equiv_pos_as_xyz
  1  'x, y, z'
loop_
 _atom_site_type_symbol
 _atom_site_label
 _atom_site_symmetry_multiplicity
 _atom_site_fract_x
 _atom_site_fract_y
 _atom_site_fract_z
 _atom_site_occupancy
  Zn  Zn0  1  0.99999351  0.99999351  0.00001947  1
  Zn  Zn1  1  0.94443628  0.94443628  0.16669117  1
  Zn  Zn2  1  0.88887807  0.88887807  0.33336579  1
  Zn  Zn3  1  0.81480448  0.81480448  0.55558656  1
  Zn  Zn4  1  0.74073565  0.74073565  0.77779305  1
  Zn  Zn5  1  0.68518570  0.68518570  0.94444289  1
  Zn  Zn6  1  0.62962561  0.62962561  0.11112316  1
  Zn  Zn7  1  0.57406386  0.57406386  0.27780842  1
  Zn  Zn8  1  0.51851395  0.51851395  0.44445815  1
  Zn  Zn9  1  0.46295203  0.46295203  0.61114392  1
  Zn  Zn10  1  0.42591763  0.42591763  0.72224711  1
  Zn  Zn11  1  0.38887732  0.38887732  0.83336805  1
  Zn  Zn12  1  0.31480775  0.31480775  0.05557674  1
  Zn  Zn13  1  0.25925279  0.25925279  0.22224163  1
  Zn  Zn14  1  0.20369161  0.20369161  0.38892518  1
  Zn  Zn15  1  0.16666028  0.16666028  0.50001917  1
  Zn  Zn16  1  0.11110143  0.11110143  0.66669572  1
  Zn  Zn17  1  0.03703232  0.03703232  0.88890305  1
  S  S18  1  0.98612219  0.98612219  0.04163344  1
  S  S19  1  0.93056603  0.93056603  0.20830191  1
  S  S20  1  0.87501287  0.87501287  0.37496138  1
  S  S21  1  0.80093913  0.80093913  0.59718262  1
  S  S22  1  0.72685698  0.72685698  0.81942905  1
  S  S23  1  0.67130485  0.67130485  0.98608544  1
  S  S24  1  0.61575279  0.61575279  0.15274164  1
  S  S25  1  0.56019846  0.56019846  0.31940463  1
  S  S26  1  0.50463686  0.50463686  0.48608941  1
  S  S27  1  0.44910067  0.44910067  0.65269798  1
  S  S28  1  0.41206658  0.41206658  0.76380027  1
  S  S29  1  0.37501194  0.37501194  0.87496417  1
  S  S30  1  0.30093497  0.30093497  0.09719509  1
  S  S31  1  0.24538502  0.24538502  0.26384493  1
  S  S32  1  0.18983958  0.18983958  0.43048126  1
  S  S33  1  0.15279357  0.15279357  0.54161928  1
  S  S34  1  0.09722993  0.09722993  0.70831020  1
  S  S35  1  0.02317732  0.02317732  0.93046805  1
