# generated using pymatgen
data_ZnS
_symmetry_space_group_name_H-M   'P 1'
_cell_length_a   3.87402013
_cell_length_b   3.87402013
_cell_length_c   56.38957166
_cell_angle_alpha   88.03147425
_cell_angle_beta   88.03147425
_cell_angle_gamma   59.99999811
_symmetry_Int_Tables_number   1
_chemical_formula_structural   ZnS
_chemical_formula_sum   'Zn18 S18'
_cell_volume   732.33748435
_cell_formula_units_Z   18
loop_
 _symmetry_equiv_pos_site_id
 _symmetry_equiv_pos_as_xyz
  1  'x, y, z'
loop_
 _atom_site_type_symbol
 _atom_site_label
 _atom_site_symmetry_multiplicity
 _atom_site_fract_x
 _atom_site_fract_y
 _atom_site_fract_z
 _atom_site_occupancy
  Zn  Zn0  1  0.99999609  0.99999609  0.00001173  1
  Zn  Zn1  1  0.94443890  0.94443890  0.16668329  1
  Zn  Zn2  1  0.88888529  0.88888529  0.33334414  1
  Zn  Zn3  1  0.83332790  0.83332790  0.50001631  1
  Zn  Zn4  1  0.75925877  0.75925877  0.72222370  1
  Zn  Zn5  1  0.72221274  0.72221274  0.83336178  1
  Zn  Zn6  1  0.64815217  0.64815217  0.05554350  1
  Zn  Zn7  1  0.59258299  0.59258299  0.22225104  1
  Zn  Zn8  1  0.51851853  0.51851853  0.44444441  1
  Zn  Zn9  1  0.46295749  0.46295749  0.61112753  1
  Zn  Zn10  1  0.40740771  0.40740771  0.77777686  1
  Zn  Zn11  1  0.35185204  0.35185204  0.94444388  1
  Zn  Zn12  1  0.29629941  0.29629941  0.11110176  1
  Zn  Zn13  1  0.24073640  0.24073640  0.27779081  1
  Zn  Zn14  1  0.20369482  0.20369482  0.38891554  1
  Zn  Zn15  1  0.14814498  0.14814498  0.55556506  1
  Zn  Zn16  1  0.11110007  0.11110007  0.66669980  1
  Zn  Zn17  1  0.03703851  0.03703851  0.88888448  1
  S  S18  1  0.98611693  0.98611693  0.04164920  1
  S  S19  1  0.93056516  0.93056516  0.20830453  1
  S  S20  1  0.87499321  0.87499321  0.37502037  1
  S  S21  1  0.81945766  0.81945766  0.54162703  1
  S  S22  1  0.74539868  0.74539868  0.76380396  1
  S  S23  1  0.70834485  0.70834485  0.87496546  1
  S  S24  1  0.63426927  0.63426927  0.09719220  1
  S  S25  1  0.57871646  0.57871646  0.26385061  1
  S  S26  1  0.50464144  0.50464144  0.48607569  1
  S  S27  1  0.44907204  0.44907204  0.65278387  1
  S  S28  1  0.39351785  0.39351785  0.81944644  1
  S  S29  1  0.33795852  0.33795852  0.98612445  1
  S  S30  1  0.28241914  0.28241914  0.15274257  1
  S  S31  1  0.22687847  0.22687847  0.31936460  1
  S  S32  1  0.18981826  0.18981826  0.43054521  1
  S  S33  1  0.13428931  0.13428931  0.59713208  1
  S  S34  1  0.09723219  0.09723219  0.70830343  1
  S  S35  1  0.02317577  0.02317577  0.93047270  1
