# generated using pymatgen
data_ZnS
_symmetry_space_group_name_H-M   'P 1'
_cell_length_a   3.87486883
_cell_length_b   3.87486883
_cell_length_c   56.55700173
_cell_angle_alpha   88.03687396
_cell_angle_beta   88.03687396
_cell_angle_gamma   59.99999805
_symmetry_Int_Tables_number   1
_chemical_formula_structural   ZnS
_chemical_formula_sum   'Zn18 S18'
_cell_volume   734.83694969
_cell_formula_units_Z   18
loop_
 _symmetry_equiv_pos_site_id
 _symmetry_equiv_pos_as_xyz
  1  'x, y, z'
loop_
 _atom_site_type_symbol
 _atom_site_label
 _atom_site_symmetry_multiplicity
 _atom_site_fract_x
 _atom_site_fract_y
 _atom_site_fract_z
 _atom_site_occupancy
  Zn  Zn0  1  0.99999305  0.99999305  0.00002084  1
  Zn  Zn1  1  0.94443809  0.94443809  0.16668573  1
  Zn  Zn2  1  0.88887909  0.88887909  0.33336274  1
  Zn  Zn3  1  0.85183763  0.85183763  0.44448712  1
  Zn  Zn4  1  0.75925560  0.75925560  0.72223320  1
  Zn  Zn5  1  0.72220874  0.72220874  0.83337379  1
  Zn  Zn6  1  0.62962875  0.62962875  0.11111375  1
  Zn  Zn7  1  0.57406339  0.57406339  0.27780982  1
  Zn  Zn8  1  0.49999161  0.49999161  0.50002517  1
  Zn  Zn9  1  0.46295328  0.46295328  0.61114016  1
  Zn  Zn10  1  0.40740460  0.40740460  0.77778620  1
  Zn  Zn11  1  0.35184463  0.35184463  0.94446612  1
  Zn  Zn12  1  0.31480660  0.31480660  0.05558019  1
  Zn  Zn13  1  0.25925302  0.25925302  0.22224094  1
  Zn  Zn14  1  0.20369203  0.20369203  0.38892391  1
  Zn  Zn15  1  0.14814309  0.14814309  0.55557073  1
  Zn  Zn16  1  0.11110241  0.11110241  0.66669277  1
  Zn  Zn17  1  0.03702977  0.03702977  0.88891069  1
  S  S18  1  0.98611129  0.98611129  0.04166612  1
  S  S19  1  0.93056518  0.93056518  0.20830447  1
  S  S20  1  0.87502381  0.87502381  0.37492856  1
  S  S21  1  0.83797910  0.83797910  0.48606271  1
  S  S22  1  0.74539701  0.74539701  0.76380898  1
  S  S23  1  0.70835060  0.70835060  0.87494821  1
  S  S24  1  0.61575048  0.61575048  0.15274855  1
  S  S25  1  0.56019895  0.56019895  0.31940315  1
  S  S26  1  0.48614047  0.48614047  0.54157858  1
  S  S27  1  0.44907522  0.44907522  0.65277433  1
  S  S28  1  0.39352696  0.39352696  0.81941912  1
  S  S29  1  0.33797912  0.33797912  0.98606264  1
  S  S30  1  0.30093148  0.30093148  0.09720556  1
  S  S31  1  0.24538534  0.24538534  0.26384399  1
  S  S32  1  0.18981855  0.18981855  0.43054435  1
  S  S33  1  0.13427769  0.13427769  0.59716693  1
  S  S34  1  0.09723376  0.09723376  0.70829871  1
  S  S35  1  0.02317961  0.02317961  0.93046116  1
