# generated using pymatgen
data_Si10(H3C)19
_symmetry_space_group_name_H-M   'P 1'
_cell_length_a   10.09463200
_cell_length_b   10.09463200
_cell_length_c   22.65678986
_cell_angle_alpha   93.63049762
_cell_angle_beta   101.65300157
_cell_angle_gamma   113.86213829
_symmetry_Int_Tables_number   1
_chemical_formula_structural   Si10(H3C)19
_chemical_formula_sum   'Si20 H114 C38'
_cell_volume   2040.60475720
_cell_formula_units_Z   2
loop_
 _symmetry_equiv_pos_site_id
 _symmetry_equiv_pos_as_xyz
  1  'x, y, z'
loop_
 _atom_site_type_symbol
 _atom_site_label
 _atom_site_symmetry_multiplicity
 _atom_site_fract_x
 _atom_site_fract_y
 _atom_site_fract_z
 _atom_site_occupancy
  Si  Si0  1  0.62464459  0.06880508  0.55279006  1
  Si  Si1  1  0.51601501  0.07185453  0.44720994  1
  Si  Si2  1  0.57996008  0.18963120  0.63868062  1
  Si  Si3  1  0.55095058  0.94127946  0.36131938  1
  Si  Si4  1  0.76414761  0.20819963  0.72859960  1
  Si  Si5  1  0.47960004  0.03554802  0.27140040  1
  Si  Si6  1  0.70282009  0.23070340  0.82398988  1
  Si  Si7  1  0.40671352  0.87883021  0.17601012  1
  Si  Si8  1  0.48887005  0.02545463  0.83479977  1
  Si  Si9  1  0.19065486  0.65407028  0.16520023  1
  Si  Si10  1  0.32404059  0.91287922  0.73675579  1
  Si  Si11  1  0.17612343  0.58728480  0.26324421  1
  Si  Si12  1  0.34244996  0.07335749  0.66291299  1
  Si  Si13  1  0.41044449  0.67953696  0.33708701  1
  Si  Si14  1  0.61570846  0.43083517  0.62052941  1
  Si  Si15  1  0.81030576  0.99517904  0.37947059  1
  Si  Si16  1  0.55462881  0.85202358  0.88554804  1
  Si  Si17  1  0.96647555  0.66908078  0.11445196  1
  Si  Si18  1  0.36515635  0.10469405  0.89880549  1
  Si  Si19  1  0.20588856  0.46635086  0.10119451  1
  H  H20  1  0.89013552  0.14623427  0.61159116  1
  H  H21  1  0.53464311  0.27854436  0.38840884  1
  H  H22  1  0.88201594  0.27237420  0.56160652  1
  H  H23  1  0.71076767  0.32040942  0.43839348  1
  H  H24  1  0.86970462  0.09906214  0.53256429  1
  H  H25  1  0.56649786  0.33714034  0.46743571  1
  H  H26  1  0.60602560  0.81670462  0.52871915  1
  H  H27  1  0.28798546  0.07730645  0.47128085  1
  H  H28  1  0.44556491  0.80652614  0.55235215  1
  H  H29  1  0.25417398  0.89321276  0.44764785  1
  H  H30  1  0.61728854  0.85823260  0.60759176  1
  H  H31  1  0.25064084  0.00969678  0.39240824  1
  H  H32  1  0.84366018  0.02155223  0.68689708  1
  H  H33  1  0.33465515  0.15676310  0.31310292  1
  H  H34  1  0.70957920  0.94019440  0.72921242  1
  H  H35  1  0.21098199  0.98036679  0.27078758  1
  H  H36  1  0.89678809  0.05810441  0.76791766  1
  H  H37  1  0.29018675  0.12887043  0.23208234  1
  H  H38  1  0.03601862  0.37180381  0.77379979  1
  H  H39  1  0.59800402  0.26221883  0.22620021  1
  H  H40  1  0.94609065  0.47673660  0.73907147  1
  H  H41  1  0.73766513  0.20701918  0.26092853  1
  H  H42  1  0.99140651  0.36031525  0.69316684  1
  H  H43  1  0.66714840  0.29823966  0.30683316  1
  H  H44  1  0.65799923  0.42197558  0.88227019  1
  H  H45  1  0.53970539  0.77572904  0.11772981  1
  H  H46  1  0.59521350  0.41626583  0.80273504  1
  H  H47  1  0.61353079  0.79247846  0.19726496  1
  H  H48  1  0.78916867  0.50168936  0.83869109  1
  H  H49  1  0.66299827  0.95047758  0.16130891  1
  H  H50  1  0.97031169  0.36075445  0.88388466  1
  H  H51  1  0.47686979  0.08642703  0.11611534  1
  H  H52  1  0.90935924  0.16887763  0.88308308  1
  H  H53  1  0.28579455  0.02627616  0.11691692  1
  H  H54  1  0.85286496  0.27010748  0.93123578  1
  H  H55  1  0.33887171  0.92162919  0.06876422  1
  H  H56  1  0.04462945  0.77409297  0.69941616  1
  H  H57  1  0.07467681  0.34521329  0.30058384  1
  H  H58  1  0.08803065  0.91641364  0.76017432  1
  H  H59  1  0.15623932  0.32785634  0.23982568  1
  H  H60  1  0.10794973  0.75463108  0.77611298  1
  H  H61  1  0.97851811  0.33183676  0.22388702  1
  H  H62  1  0.31976231  0.66130844  0.73152933  1
  H  H63  1  0.92977911  0.58823297  0.26847067  1
  H  H64  1  0.46015543  0.77552553  0.69778400  1
  H  H65  1  0.07774153  0.76237143  0.30221600  1
  H  H66  1  0.26904971  0.70300180  0.65779057  1
  H  H67  1  0.04521123  0.61125913  0.34220943  1
  H  H68  1  0.07856580  0.91763249  0.60335489  1
  H  H69  1  0.31427760  0.47521091  0.39664511  1
  H  H70  1  0.20310840  0.87260167  0.56997047  1
  H  H71  1  0.30263120  0.63313792  0.43002953  1
  H  H72  1  0.18272625  0.03641627  0.55828023  1
  H  H73  1  0.47813604  0.62444602  0.44171977  1
  H  H74  1  0.26667215  0.28237443  0.65694651  1
  H  H75  1  0.62542791  0.60972563  0.34305349  1
  H  H76  1  0.36449929  0.29228084  0.73290255  1
  H  H77  1  0.55937829  0.63159675  0.26709745  1
  H  H78  1  0.17645429  0.16120960  0.70439520  1
  H  H79  1  0.45681440  0.47205909  0.29560480  1
  H  H80  1  0.47041423  0.52691345  0.54710231  1
  H  H81  1  0.97981114  0.92331192  0.45289769  1
  H  H82  1  0.35246096  0.40359219  0.58654212  1
  H  H83  1  0.81705008  0.76591884  0.41345788  1
  H  H84  1  0.40265798  0.33445758  0.52503084  1
  H  H85  1  0.80942674  0.87762715  0.47496916  1
  H  H86  1  0.77898132  0.46294157  0.54586607  1
  H  H87  1  0.91707550  0.23311525  0.45413393  1
  H  H88  1  0.88863902  0.53888070  0.62173228  1
  H  H89  1  0.91714843  0.26690674  0.37826772  1
  H  H90  1  0.79403779  0.63261925  0.58052065  1
  H  H91  1  0.05209860  0.21351714  0.41947935  1
  H  H92  1  0.75034769  0.58131508  0.72513418  1
  H  H93  1  0.85618090  0.02521351  0.27486582  1
  H  H94  1  0.55423564  0.52552889  0.71227859  1
  H  H95  1  0.81325030  0.84195706  0.28772141  1
  H  H96  1  0.66172473  0.66897735  0.67683955  1
  H  H97  1  0.99213780  0.98488517  0.32316045  1
  H  H98  1  0.34392377  0.61614453  0.82576964  1
  H  H99  1  0.79037489  0.51815413  0.17423036  1
  H  H100  1  0.29359222  0.67908769  0.88887913  1
  H  H101  1  0.79020855  0.40471309  0.11112087  1
  H  H102  1  0.41825167  0.59449611  0.90057371  1
  H  H103  1  0.69392240  0.51767796  0.09942629  1
  H  H104  1  0.80860590  0.91602399  0.86556026  1
  H  H105  1  0.05046373  0.94304564  0.13443974  1
  H  H106  1  0.66971728  0.76308072  0.81197218  1
  H  H107  1  0.95110854  0.85774509  0.18802782  1
  H  H108  1  0.73353059  0.74089632  0.88798772  1
  H  H109  1  0.85290860  0.84554286  0.11201228  1
  H  H110  1  0.66608968  0.83640105  0.99088151  1
  H  H111  1  0.84551953  0.67520817  0.00911849  1
  H  H112  1  0.53783456  0.91500649  0.99248649  1
  H  H113  1  0.92252000  0.54534807  0.00751351  1
  H  H114  1  0.71974433  0.02413345  0.98391788  1
  H  H115  1  0.04021557  0.73582645  0.01608212  1
  H  H116  1  0.21987399  0.25298987  0.89588051  1
  H  H117  1  0.35710937  0.32399348  0.10411949  1
  H  H118  1  0.17558157  0.15080929  0.82233446  1
  H  H119  1  0.32847483  0.35324711  0.17766554  1
  H  H120  1  0.34437756  0.31314769  0.84792828  1
  H  H121  1  0.46521941  0.49644928  0.15207172  1
  H  H122  1  0.57546979  0.33397714  0.96306367  1
  H  H123  1  0.37091348  0.61240613  0.03693633  1
  H  H124  1  0.57273989  0.17740998  0.99543510  1
  H  H125  1  0.18197489  0.57730479  0.00456490  1
  H  H126  1  0.43812974  0.24435476  0.00283524  1
  H  H127  1  0.24151953  0.43529450  0.99716476  1
  H  H128  1  0.16403423  0.98920067  0.95130502  1
  H  H129  1  0.03789565  0.21272921  0.04869498  1
  H  H130  1  0.26307922  0.87926620  0.94859076  1
  H  H131  1  0.93067543  0.31448845  0.05140924  1
  H  H132  1  0.12815773  0.87112855  0.88283048  1
  H  H133  1  0.98829807  0.24532725  0.11716952  1
  C  C134  1  0.83638079  0.15532423  0.56573440  1
  C  C135  1  0.58958982  0.27064639  0.43426560  1
  C  C136  1  0.56744597  0.86875390  0.56135712  1
  C  C137  1  0.30739678  0.00608885  0.43864288  1
  C  C138  1  0.80618496  0.04061675  0.72743702  1
  C  C139  1  0.31317972  0.07874793  0.27256298  1
  C  C140  1  0.95134185  0.37021551  0.73412749  1
  C  C141  1  0.63608802  0.21721436  0.26587251  1
  C  C142  1  0.68261066  0.40829803  0.83786270  1
  C  C143  1  0.57043532  0.84474795  0.16213730  1
  C  C144  1  0.87485243  0.25854486  0.88606928  1
  C  C145  1  0.37247558  0.98878315  0.11393072  1
  C  C146  1  0.12228106  0.83363811  0.74385513  1
  C  C147  1  0.08978298  0.37842592  0.25614487  1
  C  C148  1  0.34725010  0.74858047  0.70327572  1
  C  C149  1  0.04530475  0.64397437  0.29672428  1
  C  C150  1  0.18780688  0.96356261  0.59186360  1
  C  C151  1  0.37169901  0.59594328  0.40813640  1
  C  C152  1  0.28373400  0.21691258  0.69213778  1
  C  C153  1  0.52477480  0.59159621  0.30786222  1
  C  C154  1  0.44447836  0.42218524  0.56440597  1
  C  C155  1  0.85777926  0.88007239  0.43559403  1
  C  C156  1  0.78500283  0.52317827  0.58895647  1
  C  C157  1  0.93422180  0.19604637  0.41104353  1
  C  C158  1  0.64808890  0.56228671  0.69073767  1
  C  C159  1  0.87154904  0.95735123  0.30926233  1
  C  C160  1  0.38637123  0.66902869  0.87378962  1
  C  C161  1  0.79523907  0.51258161  0.12621038  1
  C  C162  1  0.70537808  0.81559308  0.85986575  1
  C  C163  1  0.95572732  0.84551233  0.14013425  1
  C  C164  1  0.62584185  0.91457524  0.97108902  1
  C  C165  1  0.94348622  0.65475283  0.02891098  1
  C  C166  1  0.26763779  0.21535962  0.86236181  1
  C  C167  1  0.35299781  0.40527598  0.13763819  1
  C  C168  1  0.50187400  0.22594582  0.97163444  1
  C  C169  1  0.25431138  0.53023956  0.02836556  1
  C  C170  1  0.21686122  0.94508613  0.92219271  1
  C  C171  1  0.02289342  0.29466850  0.07780729  1
