# generated using pymatgen
data_W3O8
_symmetry_space_group_name_H-M   'P 1'
_cell_length_a   3.85081645
_cell_length_b   10.57970785
_cell_length_c   14.45089354
_cell_angle_alpha   90.00000000
_cell_angle_beta   90.00000000
_cell_angle_gamma   90.00000000
_symmetry_Int_Tables_number   1
_chemical_formula_structural   W3O8
_chemical_formula_sum   'W12 O32'
_cell_volume   588.73681649
_cell_formula_units_Z   4
loop_
 _symmetry_equiv_pos_site_id
 _symmetry_equiv_pos_as_xyz
  1  'x, y, z'
loop_
 _atom_site_type_symbol
 _atom_site_label
 _atom_site_symmetry_multiplicity
 _atom_site_fract_x
 _atom_site_fract_y
 _atom_site_fract_z
 _atom_site_occupancy
  W  W0  1  -0.00000000  0.52611102  0.10907455  1
  W  W1  1  0.00000000  0.47388898  0.89092545  1
  W  W2  1  -0.00000000  0.02611102  0.39092545  1
  W  W3  1  0.00000000  0.97388898  0.60907455  1
  W  W4  1  0.00000000  0.71489553  0.40908824  1
  W  W5  1  -0.00000000  0.28510447  0.59091176  1
  W  W6  1  0.00000000  0.21489553  0.09091176  1
  W  W7  1  0.00000000  0.78510447  0.90908824  1
  W  W8  1  0.00000000  0.87260914  0.16144028  1
  W  W9  1  -0.00000000  0.12739086  0.83855972  1
  W  W10  1  0.00000000  0.37260914  0.33855972  1
  W  W11  1  -0.00000000  0.62739086  0.66144028  1
  O  O12  1  -0.00000000  0.55402516  0.33647475  1
  O  O13  1  -0.00000000  0.44597484  0.66352525  1
  O  O14  1  0.00000000  0.05402516  0.16352525  1
  O  O15  1  0.00000000  0.94597484  0.83647475  1
  O  O16  1  0.00000000  0.62109930  0.98476096  1
  O  O17  1  0.00000000  0.37890070  0.01523904  1
  O  O18  1  0.00000000  0.12109930  0.51523904  1
  O  O19  1  -0.00000000  0.87890070  0.48476096  1
  O  O20  1  0.00000000  0.69228539  0.17119217  1
  O  O21  1  0.00000000  0.30771461  0.82880783  1
  O  O22  1  -0.00000000  0.19228539  0.32880783  1
  O  O23  1  -0.00000000  0.80771461  0.67119217  1
  O  O24  1  -0.00000000  0.86788526  0.30626013  1
  O  O25  1  -0.00000000  0.13211474  0.69373987  1
  O  O26  1  -0.00000000  0.36788526  0.19373987  1
  O  O27  1  0.00000000  0.63211474  0.80626013  1
  O  O28  1  -0.00000000  0.87371260  0.03029389  1
  O  O29  1  -0.00000000  0.12628740  0.96970611  1
  O  O30  1  -0.00000000  0.37371260  0.46970611  1
  O  O31  1  0.00000000  0.62628740  0.53029389  1
  O  O32  1  0.50000000  0.52287624  0.11125327  1
  O  O33  1  0.50000000  0.47712376  0.88874673  1
  O  O34  1  0.50000000  0.02287624  0.38874673  1
  O  O35  1  0.50000000  0.97712376  0.61125327  1
  O  O36  1  0.50000000  0.72002373  0.40494676  1
  O  O37  1  0.50000000  0.27997627  0.59505324  1
  O  O38  1  0.50000000  0.22002373  0.09505324  1
  O  O39  1  0.50000000  0.77997627  0.90494676  1
  O  O40  1  0.50000000  0.87288870  0.16940495  1
  O  O41  1  0.50000000  0.12711130  0.83059505  1
  O  O42  1  0.50000000  0.37288870  0.33059505  1
  O  O43  1  0.50000000  0.62711130  0.66940495  1
