# generated using pymatgen
data_Na2CeH2C5O11
_symmetry_space_group_name_H-M   'P 1'
_cell_length_a   7.93369540
_cell_length_b   11.73966303
_cell_length_c   12.03432695
_cell_angle_alpha   90.00000000
_cell_angle_beta   101.34648605
_cell_angle_gamma   90.00000000
_symmetry_Int_Tables_number   1
_chemical_formula_structural   Na2CeH2C5O11
_chemical_formula_sum   'Na8 Ce4 H8 C20 O44'
_cell_volume   1098.95721313
_cell_formula_units_Z   4
loop_
 _symmetry_equiv_pos_site_id
 _symmetry_equiv_pos_as_xyz
  1  'x, y, z'
loop_
 _atom_site_type_symbol
 _atom_site_label
 _atom_site_symmetry_multiplicity
 _atom_site_fract_x
 _atom_site_fract_y
 _atom_site_fract_z
 _atom_site_occupancy
  Na  Na0  1  0.64141749  0.79400589  0.42508185  1
  Na  Na1  1  0.14141749  0.70599411  0.92508185  1
  Na  Na2  1  0.35858251  0.20599411  0.57491815  1
  Na  Na3  1  0.85858251  0.29400589  0.07491815  1
  Na  Na4  1  0.61493987  0.18894522  0.83428589  1
  Na  Na5  1  0.11493987  0.31105478  0.33428589  1
  Na  Na6  1  0.38506013  0.81105478  0.16571411  1
  Na  Na7  1  0.88506013  0.68894522  0.66571411  1
  Ce  Ce8  1  0.87472355  0.81586984  0.17377399  1
  Ce  Ce9  1  0.37472355  0.68413016  0.67377399  1
  Ce  Ce10  1  0.12527645  0.18413016  0.82622601  1
  Ce  Ce11  1  0.62527645  0.31586984  0.32622601  1
  H  H12  1  0.83472037  0.92996388  0.63471489  1
  H  H13  1  0.33472037  0.57003612  0.13471489  1
  H  H14  1  0.16527963  0.07003612  0.36528511  1
  H  H15  1  0.66527963  0.42996388  0.86528511  1
  H  H16  1  0.64033078  0.90809128  0.63532698  1
  H  H17  1  0.14033078  0.59190872  0.13532698  1
  H  H18  1  0.35966922  0.09190872  0.36467302  1
  H  H19  1  0.85966922  0.40809128  0.86467302  1
  C  C20  1  0.90866662  0.02678540  0.99000915  1
  C  C21  1  0.40866662  0.47321460  0.49000915  1
  C  C22  1  0.09133338  0.97321460  0.00999085  1
  C  C23  1  0.59133338  0.52678540  0.50999085  1
  C  C24  1  0.84662694  0.07945675  0.26119384  1
  C  C25  1  0.34662694  0.42054325  0.76119384  1
  C  C26  1  0.15337306  0.92054325  0.73880616  1
  C  C27  1  0.65337306  0.57945675  0.23880616  1
  C  C28  1  0.66808516  0.03281854  0.27308498  1
  C  C29  1  0.16808516  0.46718146  0.77308498  1
  C  C30  1  0.33191484  0.96718146  0.72691502  1
  C  C31  1  0.83191484  0.53281854  0.22691502  1
  C  C32  1  0.05959100  0.75676577  0.44752877  1
  C  C33  1  0.55959100  0.74323423  0.94752877  1
  C  C34  1  0.94040900  0.24323423  0.55247123  1
  C  C35  1  0.44040900  0.25676577  0.05247123  1
  C  C36  1  0.22065714  0.77809089  0.39675195  1
  C  C37  1  0.72065714  0.72190911  0.89675195  1
  C  C38  1  0.77934286  0.22190911  0.60324805  1
  C  C39  1  0.27934286  0.27809089  0.10324805  1
  O  O40  1  0.79704459  0.97833368  0.03466108  1
  O  O41  1  0.29704459  0.52166632  0.53466108  1
  O  O42  1  0.20295541  0.02166632  0.96533892  1
  O  O43  1  0.70295541  0.47833368  0.46533892  1
  O  O44  1  0.88540356  0.11711027  0.92974005  1
  O  O45  1  0.38540356  0.38288973  0.42974005  1
  O  O46  1  0.11459644  0.88288973  0.07025995  1
  O  O47  1  0.61459644  0.61711027  0.57025995  1
  O  O48  1  0.96556848  0.00604189  0.26277326  1
  O  O49  1  0.46556848  0.49395811  0.76277326  1
  O  O50  1  0.03443152  0.99395811  0.73722674  1
  O  O51  1  0.53443152  0.50604189  0.23722674  1
  O  O52  1  0.86340825  0.18628484  0.25367591  1
  O  O53  1  0.36340825  0.31371516  0.75367591  1
  O  O54  1  0.13659175  0.81371516  0.74632409  1
  O  O55  1  0.63659175  0.68628484  0.24632409  1
  O  O56  1  0.64110249  0.92670629  0.25397047  1
  O  O57  1  0.14110249  0.57329371  0.75397047  1
  O  O58  1  0.35889751  0.07329371  0.74602953  1
  O  O59  1  0.85889751  0.42670629  0.24602953  1
  O  O60  1  0.56383327  0.10297265  0.30344940  1
  O  O61  1  0.06383327  0.39702735  0.80344940  1
  O  O62  1  0.43616673  0.89702735  0.69655060  1
  O  O63  1  0.93616673  0.60297265  0.19655060  1
  O  O64  1  0.91554288  0.78061255  0.38549084  1
  O  O65  1  0.41554288  0.71938745  0.88549084  1
  O  O66  1  0.08445712  0.21938745  0.61450916  1
  O  O67  1  0.58445712  0.28061255  0.11450916  1
  O  O68  1  0.08172268  0.71796719  0.54740840  1
  O  O69  1  0.58172268  0.78203281  0.04740840  1
  O  O70  1  0.91827732  0.28203281  0.45259160  1
  O  O71  1  0.41827732  0.21796719  0.95259160  1
  O  O72  1  0.19538287  0.79778733  0.29107013  1
  O  O73  1  0.69538287  0.70221267  0.79107013  1
  O  O74  1  0.80461713  0.20221267  0.70892987  1
  O  O75  1  0.30461713  0.29778733  0.20892987  1
  O  O76  1  0.36442135  0.77447260  0.46509247  1
  O  O77  1  0.86442135  0.72552740  0.96509247  1
  O  O78  1  0.63557865  0.22552740  0.53490753  1
  O  O79  1  0.13557865  0.27447260  0.03490753  1
  O  O80  1  0.73404255  0.88622964  0.59666738  1
  O  O81  1  0.23404255  0.61377036  0.09666738  1
  O  O82  1  0.26595745  0.11377036  0.40333262  1
  O  O83  1  0.76595745  0.38622964  0.90333262  1
