# generated using pymatgen
data_Ba10Re3O22
_symmetry_space_group_name_H-M   'P 1'
_cell_length_a   5.84461466
_cell_length_b   10.23793670
_cell_length_c   10.57818496
_cell_angle_alpha   93.19814140
_cell_angle_beta   106.03699177
_cell_angle_gamma   90.00000000
_symmetry_Int_Tables_number   1
_chemical_formula_structural   Ba10Re3O22
_chemical_formula_sum   'Ba10 Re3 O22'
_cell_volume   607.30615793
_cell_formula_units_Z   1
loop_
 _symmetry_equiv_pos_site_id
 _symmetry_equiv_pos_as_xyz
  1  'x, y, z'
loop_
 _atom_site_type_symbol
 _atom_site_label
 _atom_site_symmetry_multiplicity
 _atom_site_fract_x
 _atom_site_fract_y
 _atom_site_fract_z
 _atom_site_occupancy
  Ba  Ba0  1  0.70775305  0.41389981  0.41550610  1
  Ba  Ba1  1  0.29224695  0.58610019  0.58449390  1
  Ba  Ba2  1  0.59294323  0.08534386  0.18588647  1
  Ba  Ba3  1  0.40705677  0.91465614  0.81411353  1
  Ba  Ba4  1  0.82141323  0.10391897  0.64282646  1
  Ba  Ba5  1  0.17858677  0.89608103  0.35717354  1
  Ba  Ba6  1  0.93337050  0.65976826  0.86674100  1
  Ba  Ba7  1  0.06662950  0.34023174  0.13325900  1
  Ba  Ba8  1  0.56870684  0.67171583  0.13741369  1
  Ba  Ba9  1  0.43129316  0.32828417  0.86258631  1
  Re  Re10  1  -0.00000000  0.00000000  0.00000000  1
  Re  Re11  1  0.74307657  0.76148444  0.48615314  1
  Re  Re12  1  0.25692343  0.23851556  0.51384686  1
  O  O13  1  0.91687859  0.65936121  0.38375105  1
  O  O14  1  0.46687246  0.65936121  0.38375105  1
  O  O15  1  0.08312141  0.34063879  0.61624895  1
  O  O16  1  0.53312754  0.34063879  0.61624895  1
  O  O17  1  0.67452671  0.88149360  0.34905341  1
  O  O18  1  0.32547329  0.11850640  0.65094659  1
  O  O19  1  0.80329656  0.62385368  0.60659312  1
  O  O20  1  0.19670344  0.37614632  0.39340688  1
  O  O21  1  0.02610980  0.84892625  0.57748778  1
  O  O22  1  0.55137798  0.84892625  0.57748778  1
  O  O23  1  0.97389020  0.15107375  0.42251222  1
  O  O24  1  0.44862202  0.15107375  0.42251222  1
  O  O25  1  0.91356535  0.91860178  0.82713070  1
  O  O26  1  0.08643465  0.08139822  0.17286930  1
  O  O27  1  0.20611080  0.11824845  0.94765029  1
  O  O28  1  0.74153948  0.11824845  0.94765029  1
  O  O29  1  0.79388920  0.88175155  0.05234971  1
  O  O30  1  0.25846052  0.88175155  0.05234971  1
  O  O31  1  0.57333188  0.35787005  0.14666375  1
  O  O32  1  0.42666812  0.64212995  0.85333625  1
  O  O33  1  0.04978459  0.58778642  0.09956918  1
  O  O34  1  0.95021541  0.41221358  0.90043082  1
