# generated using pymatgen
data_Si3Ge2(H3C)11
_symmetry_space_group_name_H-M   'P 1'
_cell_length_a   9.61601835
_cell_length_b   9.63034728
_cell_length_c   14.43134089
_cell_angle_alpha   92.09840611
_cell_angle_beta   102.86517464
_cell_angle_gamma   114.19376426
_symmetry_Int_Tables_number   1
_chemical_formula_structural   Si3Ge2(H3C)11
_chemical_formula_sum   'Si6 Ge4 H66 C22'
_cell_volume   1176.08628540
_cell_formula_units_Z   2
loop_
 _symmetry_equiv_pos_site_id
 _symmetry_equiv_pos_as_xyz
  1  'x, y, z'
loop_
 _atom_site_type_symbol
 _atom_site_label
 _atom_site_symmetry_multiplicity
 _atom_site_fract_x
 _atom_site_fract_y
 _atom_site_fract_z
 _atom_site_occupancy
  Si  Si0  1  0.37118222  0.92014381  0.68969593  1
  Si  Si1  1  0.62881778  0.07985619  0.31030407  1
  Si  Si2  1  0.26598271  0.55504569  0.82664821  1
  Si  Si3  1  0.73401729  0.44495431  0.17335179  1
  Si  Si4  1  0.02000648  0.79630677  0.81338565  1
  Si  Si5  1  0.97999352  0.20369323  0.18661435  1
  Ge  Ge6  1  0.15743542  0.70039785  0.72279198  1
  Ge  Ge7  1  0.84256458  0.29960215  0.27720802  1
  Ge  Ge8  1  0.95703707  0.52837229  0.57202265  1
  Ge  Ge9  1  0.04296293  0.47162771  0.42797735  1
  H  H10  1  0.60428980  0.95803217  0.62908418  1
  H  H11  1  0.39571020  0.04196783  0.37091582  1
  H  H12  1  0.56928430  0.81033104  0.70324714  1
  H  H13  1  0.43071570  0.18966896  0.29675286  1
  H  H14  1  0.45186306  0.77014537  0.58300612  1
  H  H15  1  0.54813694  0.22985463  0.41699388  1
  H  H16  1  0.22392806  0.94326443  0.52779074  1
  H  H17  1  0.77607194  0.05673557  0.47220926  1
  H  H18  1  0.21800211  0.06623213  0.62035490  1
  H  H19  1  0.78199789  0.93376787  0.37964510  1
  H  H20  1  0.39271594  0.11774059  0.58082061  1
  H  H21  1  0.60728406  0.88225941  0.41917939  1
  H  H22  1  0.58375855  0.16723919  0.78056941  1
  H  H23  1  0.41624145  0.83276081  0.21943059  1
  H  H24  1  0.41968863  0.11032782  0.83107651  1
  H  H25  1  0.58031137  0.88967218  0.16892349  1
  H  H26  1  0.55173484  0.02186874  0.85638022  1
  H  H27  1  0.44826516  0.97813126  0.14361978  1
  H  H28  1  0.54344872  0.76011938  0.89338101  1
  H  H29  1  0.45655128  0.23988062  0.10661899  1
  H  H30  1  0.41973442  0.76742601  0.96689433  1
  H  H31  1  0.58026558  0.23257399  0.03310567  1
  H  H32  1  0.48862676  0.62188980  0.97243402  1
  H  H33  1  0.51137324  0.37811020  0.02756598  1
  H  H34  1  0.17102754  0.35703905  0.93171739  1
  H  H35  1  0.82897246  0.64296095  0.06828261  1
  H  H36  1  0.08914079  0.49120052  0.93849251  1
  H  H37  1  0.91085921  0.50879948  0.06150749  1
  H  H38  1  0.00927229  0.34373648  0.83779310  1
  H  H39  1  0.99072771  0.65626352  0.16220690  1
  H  H40  1  0.22717589  0.34073934  0.70521111  1
  H  H41  1  0.77282411  0.65926066  0.29478889  1
  H  H42  1  0.41614606  0.49735843  0.72084092  1
  H  H43  1  0.58385394  0.50264157  0.27915908  1
  H  H44  1  0.38229478  0.37163551  0.80893637  1
  H  H45  1  0.61770522  0.62836449  0.19106363  1
  H  H46  1  0.74093134  0.59621226  0.74542149  1
  H  H47  1  0.25906866  0.40378774  0.25457851  1
  H  H48  1  0.83629173  0.54070437  0.84781424  1
  H  H49  1  0.16370827  0.45929563  0.15218576  1
  H  H50  1  0.76867646  0.68442087  0.86237752  1
  H  H51  1  0.23132354  0.31557913  0.13762248  1
  H  H52  1  0.15833721  0.78408442  0.98162259  1
  H  H53  1  0.84166279  0.21591558  0.01837741  1
  H  H54  1  0.25706313  0.96774766  0.94721559  1
  H  H55  1  0.74293687  0.03225234  0.05278441  1
  H  H56  1  0.07719375  0.91946037  0.98021372  1
  H  H57  1  0.92280625  0.08053963  0.01978628  1
  H  H58  1  0.91625044  0.99536705  0.80170875  1
  H  H59  1  0.08374956  0.00463295  0.19829125  1
  H  H60  1  0.09406088  0.05994145  0.76472526  1
  H  H61  1  0.90593912  0.94005855  0.23527474  1
  H  H62  1  0.91342255  0.92487883  0.68552322  1
  H  H63  1  0.08657745  0.07512117  0.31447678  1
  H  H64  1  0.75577365  0.63553177  0.58743571  1
  H  H65  1  0.24422635  0.36446823  0.41256429  1
  H  H66  1  0.85390791  0.72249777  0.49914066  1
  H  H67  1  0.14609209  0.27750223  0.50085934  1
  H  H68  1  0.70176205  0.53058107  0.47135172  1
  H  H69  1  0.29823795  0.46941893  0.52864828  1
  H  H70  1  0.73176552  0.25781659  0.55726779  1
  H  H71  1  0.26823448  0.74218341  0.44273221  1
  H  H72  1  0.90855973  0.26623529  0.63497739  1
  H  H73  1  0.09144027  0.73376471  0.36502261  1
  H  H74  1  0.79750184  0.35280080  0.67725015  1
  H  H75  1  0.20249816  0.64719920  0.32274985  1
  C  C76  1  0.51145072  0.85765912  0.64701343  1
  C  C77  1  0.48854928  0.14234088  0.35298657  1
  C  C78  1  0.29306476  0.02028797  0.59559590  1
  C  C79  1  0.70693524  0.97971203  0.40440410  1
  C  C80  1  0.49216475  0.06790014  0.80034455  1
  C  C81  1  0.50783525  0.93209986  0.19965545  1
  C  C82  1  0.44620968  0.68977888  0.92364165  1
  C  C83  1  0.55379032  0.31022112  0.07635835  1
  C  C84  1  0.11896776  0.42473536  0.88907152  1
  C  C85  1  0.88103224  0.57526464  0.11092848  1
  C  C86  1  0.32836462  0.42962206  0.75831037  1
  C  C87  1  0.67163538  0.57037794  0.24168963  1
  C  C88  1  0.82323118  0.63896208  0.81717544  1
  C  C89  1  0.17676882  0.36103792  0.18282456  1
  C  C90  1  0.14067450  0.87378555  0.94240436  1
  C  C91  1  0.85932550  0.12621445  0.05759564  1
  C  C92  1  0.98270434  0.95907280  0.76083475  1
  C  C93  1  0.01729566  0.04092720  0.23916525  1
  C  C94  1  0.80142378  0.61423154  0.52789925  1
  C  C95  1  0.19857622  0.38576846  0.47210075  1
  C  C96  1  0.83667219  0.33002317  0.61501958  1
  C  C97  1  0.16332781  0.66997683  0.38498042  1
