# generated using pymatgen
data_U2B9O22
_symmetry_space_group_name_H-M   'P 1'
_cell_length_a   6.52586679
_cell_length_b   6.58245087
_cell_length_c   11.19439527
_cell_angle_alpha   97.24871140
_cell_angle_beta   92.90678732
_cell_angle_gamma   119.67322554
_symmetry_Int_Tables_number   1
_chemical_formula_structural   U2B9O22
_chemical_formula_sum   'U2 B9 O22'
_cell_volume   410.88119810
_cell_formula_units_Z   1
loop_
 _symmetry_equiv_pos_site_id
 _symmetry_equiv_pos_as_xyz
  1  'x, y, z'
loop_
 _atom_site_type_symbol
 _atom_site_label
 _atom_site_symmetry_multiplicity
 _atom_site_fract_x
 _atom_site_fract_y
 _atom_site_fract_z
 _atom_site_occupancy
  U  U0  1  0.87316835  0.75321491  0.72578887  1
  U  U1  1  0.12759958  0.24755085  0.27416473  1
  B  B2  1  0.39354141  0.85472156  0.77872088  1
  B  B3  1  0.61465176  0.14017784  0.22840137  1
  B  B4  1  0.19735110  0.41557315  0.72443018  1
  B  B5  1  0.79857741  0.58149638  0.26799713  1
  B  B6  1  0.47333168  0.26707283  0.78824979  1
  B  B7  1  0.52837479  0.73621618  0.20734112  1
  B  B8  1  0.74855796  0.14289779  0.68260296  1
  B  B9  1  0.24648685  0.85085276  0.31676355  1
  B  B10  1  0.49258609  0.89047583  0.02438560  1
  O  O11  1  0.18331592  0.61727109  0.72622634  1
  O  O12  1  0.81520962  0.38140081  0.27166431  1
  O  O13  1  0.45392450  0.86820736  0.90335924  1
  O  O14  1  0.54562209  0.10098070  0.09838969  1
  O  O15  1  0.70420475  0.15283827  0.55493520  1
  O  O16  1  0.30211222  0.85396219  0.44470620  1
  O  O17  1  0.41784910  0.43516531  0.74198379  1
  O  O18  1  0.57945689  0.55852091  0.24391839  1
  O  O19  1  0.70707506  0.32755752  0.74618595  1
  O  O20  1  0.29322850  0.66963637  0.25736028  1
  O  O21  1  0.60375179  0.90993264  0.71496328  1
  O  O22  1  0.39634120  0.08729131  0.28603855  1
  O  O23  1  0.51597279  0.33061526  0.92050577  1
  O  O24  1  0.47935416  0.70648725  0.07708098  1
  O  O25  1  0.90221819  0.81138009  0.88767054  1
  O  O26  1  0.08557224  0.18027660  0.11263832  1
  O  O27  1  0.83790775  0.69097486  0.56383412  1
  O  O28  1  0.17246037  0.31619148  0.43664107  1
  O  O29  1  0.99537836  0.19396160  0.70804075  1
  O  O30  1  0.00283621  0.80279562  0.28760520  1
  O  O31  1  0.30223742  0.01618669  0.75317425  1
  O  O32  1  0.70274391  0.98411599  0.26123158  1
