# generated using pymatgen
data_InAs2PbO8
_symmetry_space_group_name_H-M   'P 1'
_cell_length_a   5.09123801
_cell_length_b   8.61847050
_cell_length_c   15.93463221
_cell_angle_alpha   90.00000000
_cell_angle_beta   93.33317673
_cell_angle_gamma   90.00000000
_symmetry_Int_Tables_number   1
_chemical_formula_structural   InAs2PbO8
_chemical_formula_sum   'In4 As8 Pb4 O32'
_cell_volume   698.00789262
_cell_formula_units_Z   4
loop_
 _symmetry_equiv_pos_site_id
 _symmetry_equiv_pos_as_xyz
  1  'x, y, z'
loop_
 _atom_site_type_symbol
 _atom_site_label
 _atom_site_symmetry_multiplicity
 _atom_site_fract_x
 _atom_site_fract_y
 _atom_site_fract_z
 _atom_site_occupancy
  In  In0  1  0.66186460  0.95304169  0.35836503  1
  In  In1  1  0.16186460  0.54695831  0.85836503  1
  In  In2  1  0.33813540  0.04695831  0.64163497  1
  In  In3  1  0.83813540  0.45304169  0.14163497  1
  As  As4  1  0.17436784  0.79532515  0.48347722  1
  As  As5  1  0.67436784  0.70467485  0.98347722  1
  As  As6  1  0.82563216  0.20467485  0.51652278  1
  As  As7  1  0.32563216  0.29532515  0.01652278  1
  As  As8  1  0.15773210  0.76365146  0.23670823  1
  As  As9  1  0.65773210  0.73634854  0.73670823  1
  As  As10  1  0.84226790  0.23634854  0.76329177  1
  As  As11  1  0.34226790  0.26365146  0.26329177  1
  Pb  Pb12  1  0.60488094  0.52077700  0.38062006  1
  Pb  Pb13  1  0.10488094  0.97922300  0.88062006  1
  Pb  Pb14  1  0.39511906  0.47922300  0.61937994  1
  Pb  Pb15  1  0.89511906  0.02077700  0.11937994  1
  O  O16  1  0.32240100  0.94430289  0.43396360  1
  O  O17  1  0.82240100  0.55569711  0.93396360  1
  O  O18  1  0.67759900  0.05569711  0.56603640  1
  O  O19  1  0.17759900  0.44430289  0.06603640  1
  O  O20  1  0.16722570  0.83921504  0.58775846  1
  O  O21  1  0.66722570  0.66078496  0.08775846  1
  O  O22  1  0.83277430  0.16078496  0.41224154  1
  O  O23  1  0.33277430  0.33921504  0.91224154  1
  O  O24  1  0.86438505  0.76651808  0.43226713  1
  O  O25  1  0.36438505  0.73348192  0.93226713  1
  O  O26  1  0.13561495  0.23348192  0.56773287  1
  O  O27  1  0.63561495  0.26651808  0.06773287  1
  O  O28  1  0.31948093  0.60965591  0.48146023  1
  O  O29  1  0.81948093  0.89034409  0.98146023  1
  O  O30  1  0.68051907  0.39034409  0.51853977  1
  O  O31  1  0.18051907  0.10965591  0.01853977  1
  O  O32  1  0.99867649  0.58995196  0.24696699  1
  O  O33  1  0.49867649  0.91004804  0.74696699  1
  O  O34  1  0.00132351  0.41004804  0.75303301  1
  O  O35  1  0.50132351  0.08995196  0.25303301  1
  O  O36  1  0.44488862  0.74684704  0.30097795  1
  O  O37  1  0.94488862  0.75315296  0.80097795  1
  O  O38  1  0.55511138  0.25315296  0.69902205  1
  O  O39  1  0.05511138  0.24684704  0.19902205  1
  O  O40  1  0.95946601  0.91819658  0.26620910  1
  O  O41  1  0.45946601  0.58180342  0.76620910  1
  O  O42  1  0.04053399  0.08180342  0.73379090  1
  O  O43  1  0.54053399  0.41819658  0.23379090  1
  O  O44  1  0.21164924  0.82564801  0.13643059  1
  O  O45  1  0.71164924  0.67435199  0.63643059  1
  O  O46  1  0.78835076  0.17435199  0.86356941  1
  O  O47  1  0.28835076  0.32564801  0.36356941  1
