# generated using pymatgen
data_KYbP2H4O9
_symmetry_space_group_name_H-M   'P 1'
_cell_length_a   7.78595760
_cell_length_b   10.36566226
_cell_length_c   11.03757323
_cell_angle_alpha   90.00000000
_cell_angle_beta   90.00000000
_cell_angle_gamma   91.14882512
_symmetry_Int_Tables_number   1
_chemical_formula_structural   KYbP2H4O9
_chemical_formula_sum   'K4 Yb4 P8 H16 O36'
_cell_volume   890.62602248
_cell_formula_units_Z   4
loop_
 _symmetry_equiv_pos_site_id
 _symmetry_equiv_pos_as_xyz
  1  'x, y, z'
loop_
 _atom_site_type_symbol
 _atom_site_label
 _atom_site_symmetry_multiplicity
 _atom_site_fract_x
 _atom_site_fract_y
 _atom_site_fract_z
 _atom_site_occupancy
  K  K0  1  0.73241073  0.37555208  0.79781583  1
  K  K1  1  0.26758927  0.12444792  0.29781583  1
  K  K2  1  0.26758927  0.62444792  0.20218417  1
  K  K3  1  0.73241073  0.87555208  0.70218417  1
  Yb  Yb4  1  0.24735610  0.32577435  0.87116934  1
  Yb  Yb5  1  0.75264390  0.17422565  0.37116934  1
  Yb  Yb6  1  0.75264390  0.67422565  0.12883066  1
  Yb  Yb7  1  0.24735610  0.82577435  0.62883066  1
  P  P8  1  0.40182952  0.15824466  0.60736503  1
  P  P9  1  0.59817048  0.34175534  0.10736503  1
  P  P10  1  0.59817048  0.84175534  0.39263497  1
  P  P11  1  0.40182952  0.65824466  0.89263497  1
  P  P12  1  0.03192019  0.13366922  0.64152279  1
  P  P13  1  0.96807981  0.36633078  0.14152279  1
  P  P14  1  0.96807981  0.86633078  0.35847721  1
  P  P15  1  0.03192019  0.63366922  0.85847721  1
  H  H16  1  0.55556969  0.59543816  0.67778047  1
  H  H17  1  0.44443031  0.90456184  0.17778047  1
  H  H18  1  0.44443031  0.40456184  0.32221953  1
  H  H19  1  0.55556969  0.09543816  0.82221953  1
  H  H20  1  0.69476230  0.62304438  0.57980341  1
  H  H21  1  0.30523770  0.87695562  0.07980341  1
  H  H22  1  0.30523770  0.37695562  0.42019659  1
  H  H23  1  0.69476230  0.12304438  0.92019659  1
  H  H24  1  0.32399287  0.05050038  0.95115258  1
  H  H25  1  0.67600713  0.44949962  0.45115258  1
  H  H26  1  0.67600713  0.94949962  0.04884742  1
  H  H27  1  0.32399287  0.55050038  0.54884742  1
  H  H28  1  0.16962798  0.09869250  0.02220858  1
  H  H29  1  0.83037202  0.40130750  0.52220858  1
  H  H30  1  0.83037202  0.90130750  0.97779142  1
  H  H31  1  0.16962798  0.59869250  0.47779142  1
  O  O32  1  0.42220125  0.01748738  0.64629436  1
  O  O33  1  0.57779875  0.48251262  0.14629436  1
  O  O34  1  0.57779875  0.98251262  0.35370564  1
  O  O35  1  0.42220125  0.51748738  0.85370564  1
  O  O36  1  0.50366548  0.19615741  0.49441921  1
  O  O37  1  0.49633452  0.30384259  0.99441921  1
  O  O38  1  0.49633452  0.80384259  0.50558079  1
  O  O39  1  0.50366548  0.69615741  0.00558079  1
  O  O40  1  0.43098587  0.24783390  0.71613987  1
  O  O41  1  0.56901413  0.25216610  0.21613987  1
  O  O42  1  0.56901413  0.75216610  0.28386013  1
  O  O43  1  0.43098587  0.74783390  0.78386013  1
  O  O44  1  0.20284635  0.17581978  0.56123434  1
  O  O45  1  0.79715365  0.32418022  0.06123434  1
  O  O46  1  0.79715365  0.82418022  0.43876566  1
  O  O47  1  0.20284635  0.67581978  0.93876566  1
  O  O48  1  0.05054908  0.99092104  0.67264332  1
  O  O49  1  0.94945092  0.50907896  0.17264332  1
  O  O50  1  0.94945092  0.00907896  0.32735668  1
  O  O51  1  0.05054908  0.49092104  0.82735668  1
  O  O52  1  0.88084156  0.15569225  0.55699589  1
  O  O53  1  0.11915844  0.34430775  0.05699589  1
  O  O54  1  0.11915844  0.84430775  0.44300411  1
  O  O55  1  0.88084156  0.65569225  0.94300411  1
  O  O56  1  0.02871918  0.22201593  0.75185765  1
  O  O57  1  0.97128082  0.27798407  0.25185765  1
  O  O58  1  0.97128082  0.77798407  0.24814235  1
  O  O59  1  0.02871918  0.72201593  0.74814235  1
  O  O60  1  0.64365228  0.55396415  0.62821021  1
  O  O61  1  0.35634772  0.94603585  0.12821021  1
  O  O62  1  0.35634772  0.44603585  0.37178979  1
  O  O63  1  0.64365228  0.05396415  0.87178979  1
  O  O64  1  0.21989062  0.10019136  0.94133494  1
  O  O65  1  0.78010938  0.39980864  0.44133494  1
  O  O66  1  0.78010938  0.89980864  0.05866506  1
  O  O67  1  0.21989062  0.60019136  0.55866506  1
