# generated using pymatgen
data_NaU2H5C4O15
_symmetry_space_group_name_H-M   'P 1'
_cell_length_a   9.66073516
_cell_length_b   11.80233983
_cell_length_c   13.43393564
_cell_angle_alpha   90.00000000
_cell_angle_beta   90.00000000
_cell_angle_gamma   90.00000000
_symmetry_Int_Tables_number   1
_chemical_formula_structural   NaU2H5C4O15
_chemical_formula_sum   'Na4 U8 H20 C16 O60'
_cell_volume   1531.72766072
_cell_formula_units_Z   4
loop_
 _symmetry_equiv_pos_site_id
 _symmetry_equiv_pos_as_xyz
  1  'x, y, z'
loop_
 _atom_site_type_symbol
 _atom_site_label
 _atom_site_symmetry_multiplicity
 _atom_site_fract_x
 _atom_site_fract_y
 _atom_site_fract_z
 _atom_site_occupancy
  Na  Na0  1  0.11910694  0.04992244  0.25000000  1
  Na  Na1  1  0.61910694  0.45007756  0.25000000  1
  Na  Na2  1  0.88089306  0.95007756  0.75000000  1
  Na  Na3  1  0.38089306  0.54992244  0.75000000  1
  U  U4  1  0.72894757  0.10867190  0.41124942  1
  U  U5  1  0.22894757  0.39132810  0.08875058  1
  U  U6  1  0.27105243  0.89132810  0.91124942  1
  U  U7  1  0.77105243  0.60867190  0.58875058  1
  U  U8  1  0.27105243  0.89132810  0.58875058  1
  U  U9  1  0.77105243  0.60867190  0.91124942  1
  U  U10  1  0.72894757  0.10867190  0.08875058  1
  U  U11  1  0.22894757  0.39132810  0.41124942  1
  H  H12  1  0.54655526  0.08392445  0.25000000  1
  H  H13  1  0.04655526  0.41607555  0.25000000  1
  H  H14  1  0.45344474  0.91607555  0.75000000  1
  H  H15  1  0.95344474  0.58392445  0.75000000  1
  H  H16  1  0.10423469  0.81590396  0.30806179  1
  H  H17  1  0.60423469  0.68409604  0.19193821  1
  H  H18  1  0.89576531  0.18409604  0.80806179  1
  H  H19  1  0.39576531  0.31590396  0.69193821  1
  H  H20  1  0.89576531  0.18409604  0.69193821  1
  H  H21  1  0.39576531  0.31590396  0.80806179  1
  H  H22  1  0.10423469  0.81590396  0.19193821  1
  H  H23  1  0.60423469  0.68409604  0.30806179  1
  H  H24  1  0.39524253  0.93181875  0.30742872  1
  H  H25  1  0.89524253  0.56818125  0.19257128  1
  H  H26  1  0.60475747  0.06818125  0.80742872  1
  H  H27  1  0.10475747  0.43181875  0.69257128  1
  H  H28  1  0.60475747  0.06818125  0.69257128  1
  H  H29  1  0.10475747  0.43181875  0.80742872  1
  H  H30  1  0.39524253  0.93181875  0.19257128  1
  H  H31  1  0.89524253  0.56818125  0.30742872  1
  C  C32  1  0.71675358  0.83512923  0.44989988  1
  C  C33  1  0.21675358  0.66487077  0.05010012  1
  C  C34  1  0.28324642  0.16487077  0.94989988  1
  C  C35  1  0.78324642  0.33512923  0.55010012  1
  C  C36  1  0.28324642  0.16487077  0.55010012  1
  C  C37  1  0.78324642  0.33512923  0.94989988  1
  C  C38  1  0.71675358  0.83512923  0.05010012  1
  C  C39  1  0.21675358  0.66487077  0.44989988  1
  C  C40  1  0.76529350  0.88243952  0.55029159  1
  C  C41  1  0.26529350  0.61756048  0.94970841  1
  C  C42  1  0.23470650  0.11756048  0.05029159  1
  C  C43  1  0.73470650  0.38243952  0.44970841  1
  C  C44  1  0.23470650  0.11756048  0.44970841  1
  C  C45  1  0.73470650  0.38243952  0.05029159  1
  C  C46  1  0.76529350  0.88243952  0.94970841  1
  C  C47  1  0.26529350  0.61756048  0.55029159  1
  O  O48  1  0.90565792  0.10190100  0.36708603  1
  O  O49  1  0.40565792  0.39809900  0.13291397  1
  O  O50  1  0.09434208  0.89809900  0.86708603  1
  O  O51  1  0.59434208  0.60190100  0.63291397  1
  O  O52  1  0.09434208  0.89809900  0.63291397  1
  O  O53  1  0.59434208  0.60190100  0.86708603  1
  O  O54  1  0.90565792  0.10190100  0.13291397  1
  O  O55  1  0.40565792  0.39809900  0.36708603  1
  O  O56  1  0.55265099  0.11623322  0.45475963  1
  O  O57  1  0.05265099  0.38376678  0.04524037  1
  O  O58  1  0.44734901  0.88376678  0.95475963  1
  O  O59  1  0.94734901  0.61623322  0.54524037  1
  O  O60  1  0.44734901  0.88376678  0.54524037  1
  O  O61  1  0.94734901  0.61623322  0.95475963  1
  O  O62  1  0.55265099  0.11623322  0.04524037  1
  O  O63  1  0.05265099  0.38376678  0.45475963  1
  O  O64  1  0.69557298  0.90734038  0.38209839  1
  O  O65  1  0.19557298  0.59265962  0.11790161  1
  O  O66  1  0.30442702  0.09265962  0.88209839  1
  O  O67  1  0.80442702  0.40734038  0.61790161  1
  O  O68  1  0.30442702  0.09265962  0.61790161  1
  O  O69  1  0.80442702  0.40734038  0.88209839  1
  O  O70  1  0.69557298  0.90734038  0.11790161  1
  O  O71  1  0.19557298  0.59265962  0.38209839  1
  O  O72  1  0.70307422  0.72876461  0.44353699  1
  O  O73  1  0.20307422  0.77123539  0.05646301  1
  O  O74  1  0.29692578  0.27123539  0.94353699  1
  O  O75  1  0.79692578  0.22876461  0.55646301  1
  O  O76  1  0.29692578  0.27123539  0.55646301  1
  O  O77  1  0.79692578  0.22876461  0.94353699  1
  O  O78  1  0.70307422  0.72876461  0.05646301  1
  O  O79  1  0.20307422  0.77123539  0.44353699  1
  O  O80  1  0.78379801  0.98844134  0.55535226  1
  O  O81  1  0.28379801  0.51155866  0.94464774  1
  O  O82  1  0.21620199  0.01155866  0.05535226  1
  O  O83  1  0.71620199  0.48844134  0.44464774  1
  O  O84  1  0.21620199  0.01155866  0.44464774  1
  O  O85  1  0.71620199  0.48844134  0.05535226  1
  O  O86  1  0.78379801  0.98844134  0.94464774  1
  O  O87  1  0.28379801  0.51155866  0.55535226  1
  O  O88  1  0.78400292  0.81252594  0.62044717  1
  O  O89  1  0.28400292  0.68747406  0.87955283  1
  O  O90  1  0.21599708  0.18747406  0.12044717  1
  O  O91  1  0.71599708  0.31252594  0.37955283  1
  O  O92  1  0.21599708  0.18747406  0.37955283  1
  O  O93  1  0.71599708  0.31252594  0.12044717  1
  O  O94  1  0.78400292  0.81252594  0.87955283  1
  O  O95  1  0.28400292  0.68747406  0.62044717  1
  O  O96  1  0.64517005  0.10676699  0.25000000  1
  O  O97  1  0.14517005  0.39323301  0.25000000  1
  O  O98  1  0.35482995  0.89323301  0.75000000  1
  O  O99  1  0.85482995  0.60676699  0.75000000  1
  O  O100  1  0.06572282  0.85499847  0.25000000  1
  O  O101  1  0.56572282  0.64500153  0.25000000  1
  O  O102  1  0.93427718  0.14500153  0.75000000  1
  O  O103  1  0.43427718  0.35499847  0.75000000  1
  O  O104  1  0.38456995  0.98166207  0.25000000  1
  O  O105  1  0.88456995  0.51833793  0.25000000  1
  O  O106  1  0.61543005  0.01833793  0.75000000  1
  O  O107  1  0.11543005  0.48166207  0.75000000  1
