# generated using pymatgen
data_TmMnSn2
_symmetry_space_group_name_H-M   'P 1'
_cell_length_a   8.98017152
_cell_length_b   10.32179661
_cell_length_c   11.31893108
_cell_angle_alpha   90.00000000
_cell_angle_beta   90.00000000
_cell_angle_gamma   90.00000000
_symmetry_Int_Tables_number   1
_chemical_formula_structural   TmMnSn2
_chemical_formula_sum   'Tm12 Mn12 Sn24'
_cell_volume   1049.16874494
_cell_formula_units_Z   12
loop_
 _symmetry_equiv_pos_site_id
 _symmetry_equiv_pos_as_xyz
  1  'x, y, z'
loop_
 _atom_site_type_symbol
 _atom_site_label
 _atom_site_symmetry_multiplicity
 _atom_site_fract_x
 _atom_site_fract_y
 _atom_site_fract_z
 _atom_site_occupancy
  Tm  Tm0  1  0.24287696  0.83068882  0.45410373  1
  Tm  Tm1  1  0.24287696  0.16931118  0.54589627  1
  Tm  Tm2  1  0.75712304  0.33068882  0.04589627  1
  Tm  Tm3  1  0.75712304  0.66931118  0.95410373  1
  Tm  Tm4  1  0.75712304  0.16931118  0.54589627  1
  Tm  Tm5  1  0.75712304  0.83068882  0.45410373  1
  Tm  Tm6  1  0.24287696  0.66931118  0.95410373  1
  Tm  Tm7  1  0.24287696  0.33068882  0.04589627  1
  Tm  Tm8  1  0.00000000  0.83577714  0.18017134  1
  Tm  Tm9  1  -0.00000000  0.16422286  0.81982866  1
  Tm  Tm10  1  0.00000000  0.33577714  0.31982866  1
  Tm  Tm11  1  -0.00000000  0.66422286  0.68017134  1
  Mn  Mn12  1  0.24725949  0.58771620  0.25707866  1
  Mn  Mn13  1  0.24725949  0.41228380  0.74292134  1
  Mn  Mn14  1  0.75274051  0.08771620  0.24292134  1
  Mn  Mn15  1  0.75274051  0.91228380  0.75707866  1
  Mn  Mn16  1  0.75274051  0.41228380  0.74292134  1
  Mn  Mn17  1  0.75274051  0.58771620  0.25707866  1
  Mn  Mn18  1  0.24725949  0.91228380  0.75707866  1
  Mn  Mn19  1  0.24725949  0.08771620  0.24292134  1
  Mn  Mn20  1  0.24374680  0.50000000  0.50000000  1
  Mn  Mn21  1  0.75625320  0.00000000  -0.00000000  1
  Mn  Mn22  1  0.75625320  0.50000000  0.50000000  1
  Mn  Mn23  1  0.24374680  0.00000000  -0.00000000  1
  Sn  Sn24  1  0.33664115  0.83683063  0.18219269  1
  Sn  Sn25  1  0.33664115  0.16316937  0.81780731  1
  Sn  Sn26  1  0.66335885  0.33683063  0.31780731  1
  Sn  Sn27  1  0.66335885  0.66316937  0.68219269  1
  Sn  Sn28  1  0.66335885  0.16316937  0.81780731  1
  Sn  Sn29  1  0.66335885  0.83683063  0.18219269  1
  Sn  Sn30  1  0.33664115  0.66316937  0.68219269  1
  Sn  Sn31  1  0.33664115  0.33683063  0.31780731  1
  Sn  Sn32  1  0.50000000  0.54483767  0.12619879  1
  Sn  Sn33  1  0.50000000  0.45516233  0.87380121  1
  Sn  Sn34  1  0.50000000  0.04483767  0.37380121  1
  Sn  Sn35  1  0.50000000  0.95516233  0.62619879  1
  Sn  Sn36  1  -0.00000000  0.54139561  0.12364348  1
  Sn  Sn37  1  0.00000000  0.45860439  0.87635652  1
  Sn  Sn38  1  -0.00000000  0.04139561  0.37635652  1
  Sn  Sn39  1  -0.00000000  0.95860439  0.62364348  1
  Sn  Sn40  1  0.50000000  0.62767318  0.40764915  1
  Sn  Sn41  1  0.50000000  0.37232682  0.59235085  1
  Sn  Sn42  1  0.50000000  0.12767318  0.09235085  1
  Sn  Sn43  1  0.50000000  0.87232682  0.90764915  1
  Sn  Sn44  1  -0.00000000  0.63137554  0.40114285  1
  Sn  Sn45  1  0.00000000  0.36862446  0.59885715  1
  Sn  Sn46  1  -0.00000000  0.13137554  0.09885715  1
  Sn  Sn47  1  0.00000000  0.86862446  0.90114285  1
