# generated using pymatgen
data_ZnS
_symmetry_space_group_name_H-M   'P 1'
_cell_length_a   3.87554684
_cell_length_b   3.87554684
_cell_length_c   56.54881072
_cell_angle_alpha   88.03624581
_cell_angle_beta   88.03624581
_cell_angle_gamma   59.99999798
_symmetry_Int_Tables_number   1
_chemical_formula_structural   ZnS
_chemical_formula_sum   'Zn18 S18'
_cell_volume   734.98729710
_cell_formula_units_Z   18
loop_
 _symmetry_equiv_pos_site_id
 _symmetry_equiv_pos_as_xyz
  1  'x, y, z'
loop_
 _atom_site_type_symbol
 _atom_site_label
 _atom_site_symmetry_multiplicity
 _atom_site_fract_x
 _atom_site_fract_y
 _atom_site_fract_z
 _atom_site_occupancy
  Zn  Zn0  1  0.99999491  0.99999491  0.00001526  1
  Zn  Zn1  1  0.94443233  0.94443233  0.16670301  1
  Zn  Zn2  1  0.87036444  0.87036444  0.38890667  1
  Zn  Zn3  1  0.81480624  0.81480624  0.55558128  1
  Zn  Zn4  1  0.75925054  0.75925054  0.72224837  1
  Zn  Zn5  1  0.68518698  0.68518698  0.94443905  1
  Zn  Zn6  1  0.62962330  0.62962330  0.11113011  1
  Zn  Zn7  1  0.57406566  0.57406566  0.27780303  1
  Zn  Zn8  1  0.51851279  0.51851279  0.44446162  1
  Zn  Zn9  1  0.44443617  0.44443617  0.66669150  1
  Zn  Zn10  1  0.38887755  0.38887755  0.83336734  1
  Zn  Zn11  1  0.31480759  0.31480759  0.05557723  1
  Zn  Zn12  1  0.25925067  0.25925067  0.22224800  1
  Zn  Zn13  1  0.22221158  0.22221158  0.33336526  1
  Zn  Zn14  1  0.16666229  0.16666229  0.50001314  1
  Zn  Zn15  1  0.12962147  0.12962147  0.61113560  1
  Zn  Zn16  1  0.07406139  0.07406139  0.77781582  1
  Zn  Zn17  1  0.03702729  0.03702729  0.88891814  1
  S  S18  1  0.98612160  0.98612160  0.04163521  1
  S  S19  1  0.93056990  0.93056990  0.20829031  1
  S  S20  1  0.85649606  0.85649606  0.43051183  1
  S  S21  1  0.80092711  0.80092711  0.59721867  1
  S  S22  1  0.74538809  0.74538809  0.76383573  1
  S  S23  1  0.67130368  0.67130368  0.98608897  1
  S  S24  1  0.61575589  0.61575589  0.15273234  1
  S  S25  1  0.56018647  0.56018647  0.31944058  1
  S  S26  1  0.50464846  0.50464846  0.48605461  1
  S  S27  1  0.43056739  0.43056739  0.70829783  1
  S  S28  1  0.37500534  0.37500534  0.87498398  1
  S  S29  1  0.30093608  0.30093608  0.09719177  1
  S  S30  1  0.24539751  0.24539751  0.26380747  1
  S  S31  1  0.20834488  0.20834488  0.37496537  1
  S  S32  1  0.15280668  0.15280668  0.54157997  1
  S  S33  1  0.11575253  0.11575253  0.65274240  1
  S  S34  1  0.06021249  0.06021249  0.81936254  1
  S  S35  1  0.02317667  0.02317667  0.93047000  1
