# generated using pymatgen
data_NdCrO5
_symmetry_space_group_name_H-M   'P 1'
_cell_length_a   8.51852459
_cell_length_b   8.62007226
_cell_length_c   11.60952258
_cell_angle_alpha   90.00000000
_cell_angle_beta   90.00000000
_cell_angle_gamma   91.34609730
_symmetry_Int_Tables_number   1
_chemical_formula_structural   NdCrO5
_chemical_formula_sum   'Nd8 Cr8 O40'
_cell_volume   852.25543751
_cell_formula_units_Z   8
loop_
 _symmetry_equiv_pos_site_id
 _symmetry_equiv_pos_as_xyz
  1  'x, y, z'
loop_
 _atom_site_type_symbol
 _atom_site_label
 _atom_site_symmetry_multiplicity
 _atom_site_fract_x
 _atom_site_fract_y
 _atom_site_fract_z
 _atom_site_occupancy
  Nd  Nd0  1  0.12898104  0.33189040  0.94429393  1
  Nd  Nd1  1  0.37101896  0.16810960  0.44429393  1
  Nd  Nd2  1  0.87101896  0.66810960  0.05570607  1
  Nd  Nd3  1  0.62898104  0.83189040  0.55570607  1
  Nd  Nd4  1  0.57319918  0.31833260  0.92276048  1
  Nd  Nd5  1  0.92680082  0.18166740  0.42276048  1
  Nd  Nd6  1  0.42680082  0.68166740  0.07723952  1
  Nd  Nd7  1  0.07319918  0.81833260  0.57723952  1
  Cr  Cr8  1  0.36300465  0.50342216  0.67813275  1
  Cr  Cr9  1  0.13699535  0.99657784  0.17813275  1
  Cr  Cr10  1  0.63699535  0.49657784  0.32186725  1
  Cr  Cr11  1  0.86300465  0.00342216  0.82186725  1
  Cr  Cr12  1  0.85797004  0.46080258  0.69105008  1
  Cr  Cr13  1  0.64202996  0.03919742  0.19105008  1
  Cr  Cr14  1  0.14202996  0.53919742  0.30894992  1
  Cr  Cr15  1  0.35797004  0.96080258  0.80894992  1
  O  O16  1  0.34419025  0.43624735  0.81505858  1
  O  O17  1  0.15580975  0.06375265  0.31505858  1
  O  O18  1  0.65580975  0.56375265  0.18494142  1
  O  O19  1  0.84419025  0.93624735  0.68494142  1
  O  O20  1  0.19722421  0.58214902  0.63752697  1
  O  O21  1  0.30277579  0.91785098  0.13752697  1
  O  O22  1  0.80277579  0.41785098  0.36247303  1
  O  O23  1  0.69722421  0.08214902  0.86247303  1
  O  O24  1  0.50177654  0.63911087  0.67280243  1
  O  O25  1  0.99822346  0.86088913  0.17280243  1
  O  O26  1  0.49822346  0.36088913  0.32719757  1
  O  O27  1  0.00177654  0.13911087  0.82719757  1
  O  O28  1  0.40180677  0.35772372  0.59002506  1
  O  O29  1  0.09819323  0.14227628  0.09002506  1
  O  O30  1  0.59819323  0.64227628  0.40997494  1
  O  O31  1  0.90180677  0.85772372  0.90997494  1
  O  O32  1  0.68602688  0.39364445  0.73547673  1
  O  O33  1  0.81397312  0.10635555  0.23547673  1
  O  O34  1  0.31397312  0.60635555  0.26452327  1
  O  O35  1  0.18602688  0.89364445  0.76452327  1
  O  O36  1  0.84131519  0.63288210  0.62338556  1
  O  O37  1  0.65868481  0.86711790  0.12338556  1
  O  O38  1  0.15868481  0.36711790  0.37661444  1
  O  O39  1  0.34131519  0.13288210  0.87661444  1
  O  O40  1  0.97021148  0.48377820  0.81060551  1
  O  O41  1  0.52978852  0.01622180  0.31060551  1
  O  O42  1  0.02978852  0.51622180  0.18939449  1
  O  O43  1  0.47021148  0.98377820  0.68939449  1
  O  O44  1  0.93030405  0.33279583  0.60058492  1
  O  O45  1  0.56969595  0.16720417  0.10058492  1
  O  O46  1  0.06969595  0.66720417  0.39941508  1
  O  O47  1  0.43030405  0.83279583  0.89941508  1
  O  O48  1  0.36171326  0.41467169  0.04413047  1
  O  O49  1  0.13828674  0.08532831  0.54413047  1
  O  O50  1  0.63828674  0.58532831  0.95586953  1
  O  O51  1  0.86171326  0.91467169  0.45586953  1
  O  O52  1  0.15569224  0.60397805  0.01106922  1
  O  O53  1  0.34430776  0.89602195  0.51106922  1
  O  O54  1  0.84430776  0.39602195  0.98893078  1
  O  O55  1  0.65569224  0.10397805  0.48893078  1
