# generated using pymatgen
data_NaH2SNO3
_symmetry_space_group_name_H-M   'P 1'
_cell_length_a   5.63854252
_cell_length_b   12.81687458
_cell_length_c   15.93988932
_cell_angle_alpha   90.00000000
_cell_angle_beta   90.00000000
_cell_angle_gamma   90.00000000
_symmetry_Int_Tables_number   1
_chemical_formula_structural   NaH2SNO3
_chemical_formula_sum   'Na12 H24 S12 N12 O36'
_cell_volume   1151.95176847
_cell_formula_units_Z   12
loop_
 _symmetry_equiv_pos_site_id
 _symmetry_equiv_pos_as_xyz
  1  'x, y, z'
loop_
 _atom_site_type_symbol
 _atom_site_label
 _atom_site_symmetry_multiplicity
 _atom_site_fract_x
 _atom_site_fract_y
 _atom_site_fract_z
 _atom_site_occupancy
  Na  Na0  1  0.95394283  0.53621480  0.72563312  1
  Na  Na1  1  0.54605717  0.46378520  0.22563312  1
  Na  Na2  1  0.45394283  0.96378520  0.27436688  1
  Na  Na3  1  0.04605717  0.03621480  0.77436688  1
  Na  Na4  1  0.95404123  0.78088709  0.22860880  1
  Na  Na5  1  0.54595877  0.21911291  0.72860880  1
  Na  Na6  1  0.45404123  0.71911291  0.77139120  1
  Na  Na7  1  0.04595877  0.28088709  0.27139120  1
  Na  Na8  1  0.99772948  0.78613874  0.63196902  1
  Na  Na9  1  0.50227052  0.21386126  0.13196902  1
  Na  Na10  1  0.49772948  0.71386126  0.36803098  1
  Na  Na11  1  0.00227052  0.28613874  0.86803098  1
  H  H12  1  0.16023933  0.99649930  0.48190742  1
  H  H13  1  0.33976067  0.00350070  0.98190742  1
  H  H14  1  0.66023933  0.50350070  0.51809258  1
  H  H15  1  0.83976067  0.49649930  0.01809258  1
  H  H16  1  0.00912903  0.04738891  0.40061096  1
  H  H17  1  0.49087097  0.95261109  0.90061096  1
  H  H18  1  0.50912903  0.45261109  0.59938904  1
  H  H19  1  0.99087097  0.54738891  0.09938904  1
  H  H20  1  0.42365996  0.24848349  0.49243181  1
  H  H21  1  0.07634004  0.75151651  0.99243181  1
  H  H22  1  0.92365996  0.25151651  0.50756819  1
  H  H23  1  0.57634004  0.74848349  0.00756819  1
  H  H24  1  0.50220477  0.35530028  0.44077946  1
  H  H25  1  0.99779523  0.64469972  0.94077946  1
  H  H26  1  0.00220477  0.14469972  0.55922054  1
  H  H27  1  0.49779523  0.85530028  0.05922054  1
  H  H28  1  0.98466322  0.12362851  0.02920678  1
  H  H29  1  0.51533678  0.87637149  0.52920678  1
  H  H30  1  0.48466322  0.37637149  0.97079322  1
  H  H31  1  0.01533678  0.62362851  0.47079322  1
  H  H32  1  0.90168745  -0.00002708  0.02137061  1
  H  H33  1  0.59831255  0.00002708  0.52137061  1
  H  H34  1  0.40168745  0.50002708  0.97862939  1
  H  H35  1  0.09831255  0.49997292  0.47862939  1
  S  S36  1  0.98145599  0.87328807  0.41086797  1
  S  S37  1  0.51854401  0.12671193  0.91086797  1
  S  S38  1  0.48145599  0.62671193  0.58913203  1
  S  S39  1  0.01854401  0.37328807  0.08913203  1
  S  S40  1  0.54219431  0.21443897  0.35993232  1
  S  S41  1  0.95780569  0.78556103  0.85993232  1
  S  S42  1  0.04219431  0.28556103  0.64006768  1
  S  S43  1  0.45780569  0.71443897  0.14006768  1
  S  S44  1  0.98828634  0.04625908  0.15340230  1
  S  S45  1  0.51171366  0.95374092  0.65340230  1
  S  S46  1  0.48828634  0.45374092  0.84659770  1
  S  S47  1  0.01171366  0.54625908  0.34659770  1
  N  N48  1  0.00393737  0.99372755  0.44836914  1
  N  N49  1  0.49606263  0.00627245  0.94836914  1
  N  N50  1  0.50393737  0.50627245  0.55163086  1
  N  N51  1  0.99606263  0.49372755  0.05163086  1
  N  N52  1  0.41586839  0.28555093  0.43540829  1
  N  N53  1  0.08413161  0.71444907  0.93540829  1
  N  N54  1  0.91586839  0.21444907  0.56459171  1
  N  N55  1  0.58413161  0.78555093  0.06459171  1
  N  N56  1  0.02246244  0.04918645  0.04890970  1
  N  N57  1  0.47753756  0.95081355  0.54890970  1
  N  N58  1  0.52246244  0.45081355  0.95109030  1
  N  N59  1  0.97753756  0.54918645  0.45109030  1
  O  O60  1  0.76021820  0.87256413  0.36146963  1
  O  O61  1  0.73978180  0.12743587  0.86146963  1
  O  O62  1  0.26021820  0.62743587  0.63853037  1
  O  O63  1  0.23978180  0.37256413  0.13853037  1
  O  O64  1  0.18764940  0.84904007  0.35638843  1
  O  O65  1  0.31235060  0.15095993  0.85638843  1
  O  O66  1  0.68764940  0.65095993  0.64361157  1
  O  O67  1  0.81235060  0.34904007  0.14361157  1
  O  O68  1  0.97541595  0.80713145  0.48550522  1
  O  O69  1  0.52458405  0.19286855  0.98550522  1
  O  O70  1  0.47541595  0.69286855  0.51449478  1
  O  O71  1  0.02458405  0.30713145  0.01449478  1
  O  O72  1  0.48165264  0.27267764  0.28280564  1
  O  O73  1  0.01834736  0.72732236  0.78280564  1
  O  O74  1  0.98165264  0.22732236  0.71719436  1
  O  O75  1  0.51834736  0.77267764  0.21719436  1
  O  O76  1  0.42603304  0.11248536  0.36597747  1
  O  O77  1  0.07396696  0.88751464  0.86597747  1
  O  O78  1  0.92603304  0.38751464  0.63402253  1
  O  O79  1  0.57396696  0.61248536  0.13402253  1
  O  O80  1  0.80055838  0.20970111  0.37315104  1
  O  O81  1  0.69944162  0.79029889  0.87315104  1
  O  O82  1  0.30055838  0.29029889  0.62684896  1
  O  O83  1  0.19944162  0.70970111  0.12684896  1
  O  O84  1  0.73440852  0.05995240  0.17365900  1
  O  O85  1  0.76559148  0.94004760  0.67365900  1
  O  O86  1  0.23440852  0.44004760  0.82634100  1
  O  O87  1  0.26559148  0.55995240  0.32634100  1
  O  O88  1  0.13597615  0.13331885  0.18277159  1
  O  O89  1  0.36402385  0.86668115  0.68277159  1
  O  O90  1  0.63597615  0.36668115  0.81722841  1
  O  O91  1  0.86402385  0.63331885  0.31722841  1
  O  O92  1  0.08011411  0.94459726  0.17990319  1
  O  O93  1  0.41988589  0.05540274  0.67990319  1
  O  O94  1  0.58011411  0.55540274  0.82009681  1
  O  O95  1  0.91988589  0.44459726  0.32009681  1
