# generated using pymatgen
data_V3Cd5O12
_symmetry_space_group_name_H-M   'P 1'
_cell_length_a   7.14775049
_cell_length_b   9.45786290
_cell_length_c   9.45786290
_cell_angle_alpha   94.21600151
_cell_angle_beta   106.32510239
_cell_angle_gamma   106.32510239
_symmetry_Int_Tables_number   1
_chemical_formula_structural   V3Cd5O12
_chemical_formula_sum   'V6 Cd10 O24'
_cell_volume   580.72613775
_cell_formula_units_Z   2
loop_
 _symmetry_equiv_pos_site_id
 _symmetry_equiv_pos_as_xyz
  1  'x, y, z'
loop_
 _atom_site_type_symbol
 _atom_site_label
 _atom_site_symmetry_multiplicity
 _atom_site_fract_x
 _atom_site_fract_y
 _atom_site_fract_z
 _atom_site_occupancy
  V  V0  1  0.75000000  0.70230437  0.29769563  1
  V  V1  1  0.25000000  0.29769563  0.70230437  1
  V  V2  1  0.86884733  0.65751134  0.87866859  1
  V  V3  1  0.13115267  0.34248866  0.12133141  1
  V  V4  1  0.63115267  0.12133141  0.34248866  1
  V  V5  1  0.36884733  0.87866859  0.65751134  1
  Cd  Cd6  1  0.75000000  0.98959819  0.01040181  1
  Cd  Cd7  1  0.25000000  0.01040181  0.98959819  1
  Cd  Cd8  1  -0.00000000  0.50000000  0.50000000  1
  Cd  Cd9  1  0.50000000  0.50000000  0.50000000  1
  Cd  Cd10  1  0.75000000  0.26980856  0.73019144  1
  Cd  Cd11  1  0.25000000  0.73019144  0.26980856  1
  Cd  Cd12  1  0.63458125  0.36934564  0.06117007  1
  Cd  Cd13  1  0.36541875  0.63065436  0.93882993  1
  Cd  Cd14  1  0.86541875  0.93882993  0.63065436  1
  Cd  Cd15  1  0.13458125  0.06117007  0.36934564  1
  O  O16  1  0.52876304  0.73087814  0.18484085  1
  O  O17  1  0.47123696  0.26912186  0.81515915  1
  O  O18  1  0.97123696  0.81515915  0.26912186  1
  O  O19  1  0.02876304  0.18484085  0.73087814  1
  O  O20  1  0.76849558  0.52064676  0.28244263  1
  O  O21  1  0.23150442  0.47935324  0.71755737  1
  O  O22  1  0.73150442  0.71755737  0.47935324  1
  O  O23  1  0.26849558  0.28244263  0.52064676  1
  O  O24  1  0.80224689  0.53080722  0.70793305  1
  O  O25  1  0.19775311  0.46919278  0.29206695  1
  O  O26  1  0.69775311  0.29206695  0.46919278  1
  O  O27  1  0.30224689  0.70793305  0.53080722  1
  O  O28  1  0.68089784  0.60086309  0.96051460  1
  O  O29  1  0.31910216  0.39913691  0.03948540  1
  O  O30  1  0.81910216  0.03948540  0.39913691  1
  O  O31  1  0.18089784  0.96051460  0.60086309  1
  O  O32  1  0.89407007  0.84619668  0.85217574  1
  O  O33  1  0.10592993  0.15380332  0.14782426  1
  O  O34  1  0.60592993  0.14782426  0.15380332  1
  O  O35  1  0.39407007  0.85217574  0.84619668  1
  O  O36  1  0.89886230  0.33391430  0.99125244  1
  O  O37  1  0.10113770  0.66608570  0.00874756  1
  O  O38  1  0.60113770  0.00874756  0.66608570  1
  O  O39  1  0.39886230  0.99125244  0.33391430  1
