# generated using pymatgen
data_CdH8C4(BrN4)2
_symmetry_space_group_name_H-M   'P 1'
_cell_length_a   4.12505825
_cell_length_b   8.84356217
_cell_length_c   17.92771793
_cell_angle_alpha   90.00000000
_cell_angle_beta   99.09901956
_cell_angle_gamma   90.00000000
_symmetry_Int_Tables_number   1
_chemical_formula_structural   CdH8C4(BrN4)2
_chemical_formula_sum   'Cd2 H16 C8 Br4 N16'
_cell_volume   645.77721119
_cell_formula_units_Z   2
loop_
 _symmetry_equiv_pos_site_id
 _symmetry_equiv_pos_as_xyz
  1  'x, y, z'
loop_
 _atom_site_type_symbol
 _atom_site_label
 _atom_site_symmetry_multiplicity
 _atom_site_fract_x
 _atom_site_fract_y
 _atom_site_fract_z
 _atom_site_occupancy
  Cd  Cd0  1  -0.00000000  0.50000000  0.50000000  1
  Cd  Cd1  1  0.50000000  0.00000000  -0.00000000  1
  H  H2  1  0.72515344  0.69502812  0.85022622  1
  H  H3  1  0.22515344  0.80497188  0.35022622  1
  H  H4  1  0.27484656  0.30497188  0.14977378  1
  H  H5  1  0.77484656  0.19502812  0.64977378  1
  H  H6  1  0.45946602  0.71703070  0.76500658  1
  H  H7  1  0.95946602  0.78296930  0.26500658  1
  H  H8  1  0.54053398  0.28296930  0.23499342  1
  H  H9  1  0.04053398  0.21703070  0.73499342  1
  H  H10  1  0.76799245  0.46163331  0.91013671  1
  H  H11  1  0.26799245  0.03836669  0.41013671  1
  H  H12  1  0.23200755  0.53836669  0.08986329  1
  H  H13  1  0.73200755  0.96163331  0.58986329  1
  H  H14  1  0.55863620  0.30443028  0.86726073  1
  H  H15  1  0.05863620  0.19556972  0.36726073  1
  H  H16  1  0.44136380  0.69556972  0.13273927  1
  H  H17  1  0.94136380  0.80443028  0.63273927  1
  C  C18  1  0.19058047  0.50696201  0.68687226  1
  C  C19  1  0.69058047  0.99303799  0.18687226  1
  C  C20  1  0.80941953  0.49303799  0.31312774  1
  C  C21  1  0.30941953  0.00696201  0.81312774  1
  C  C22  1  0.49982720  0.50131747  0.80567602  1
  C  C23  1  0.99982720  0.99868253  0.30567602  1
  C  C24  1  0.50017280  0.49868253  0.19432398  1
  C  C25  1  0.00017280  0.00131747  0.69432398  1
  Br  Br26  1  0.47354774  0.71938434  0.47313295  1
  Br  Br27  1  0.97354774  0.78061566  0.97313295  1
  Br  Br28  1  0.52645226  0.28061566  0.52686705  1
  Br  Br29  1  0.02645226  0.21938434  0.02686705  1
  N  N30  1  0.07616534  0.56075156  0.62805629  1
  N  N31  1  0.57616534  0.93924844  0.12805629  1
  N  N32  1  0.92383466  0.43924844  0.37194371  1
  N  N33  1  0.42383466  0.06075156  0.87194371  1
  N  N34  1  0.29228967  0.43568901  0.74906930  1
  N  N35  1  0.79228967  0.06431099  0.24906930  1
  N  N36  1  0.70771033  0.56431099  0.25093070  1
  N  N37  1  0.20771033  0.93568901  0.75093070  1
  N  N38  1  0.59312445  0.64612328  0.80302643  1
  N  N39  1  0.09312445  0.85387672  0.30302643  1
  N  N40  1  0.40687555  0.35387672  0.19697357  1
  N  N41  1  0.90687555  0.14612328  0.69697357  1
  N  N42  1  0.61589426  0.41647255  0.86569652  1
  N  N43  1  0.11589426  0.08352745  0.36569652  1
  N  N44  1  0.38410574  0.58352745  0.13430348  1
  N  N45  1  0.88410574  0.91647255  0.63430348  1
