# generated using pymatgen
data_LaB5HO10
_symmetry_space_group_name_H-M   'P 1'
_cell_length_a   6.56852648
_cell_length_b   10.45912254
_cell_length_c   10.59346628
_cell_angle_alpha   90.00000000
_cell_angle_beta   90.00000000
_cell_angle_gamma   101.48229859
_symmetry_Int_Tables_number   1
_chemical_formula_structural   LaB5HO10
_chemical_formula_sum   'La4 B20 H4 O40'
_cell_volume   713.21632998
_cell_formula_units_Z   4
loop_
 _symmetry_equiv_pos_site_id
 _symmetry_equiv_pos_as_xyz
  1  'x, y, z'
loop_
 _atom_site_type_symbol
 _atom_site_label
 _atom_site_symmetry_multiplicity
 _atom_site_fract_x
 _atom_site_fract_y
 _atom_site_fract_z
 _atom_site_occupancy
  La  La0  1  0.86155359  0.63014589  0.64223666  1
  La  La1  1  0.13844641  0.36985411  0.35776334  1
  La  La2  1  0.63844641  0.86985411  0.14223666  1
  La  La3  1  0.36155359  0.13014589  0.85776334  1
  B  B4  1  0.22536832  0.66214126  0.18120046  1
  B  B5  1  0.77463168  0.33785874  0.81879954  1
  B  B6  1  0.27463168  0.83785874  0.68120046  1
  B  B7  1  0.72536832  0.16214126  0.31879954  1
  B  B8  1  0.15419211  0.89429295  0.13046691  1
  B  B9  1  0.84580789  0.10570705  0.86953309  1
  B  B10  1  0.34580789  0.60570705  0.63046691  1
  B  B11  1  0.65419211  0.39429295  0.36953309  1
  B  B12  1  0.92428516  0.92091601  0.73866540  1
  B  B13  1  0.07571484  0.07908399  0.26133460  1
  B  B14  1  0.57571484  0.57908399  0.23866540  1
  B  B15  1  0.42428516  0.42091601  0.76133460  1
  B  B16  1  0.48488672  0.80139740  0.49720222  1
  B  B17  1  0.51511328  0.19860260  0.50279778  1
  B  B18  1  0.01511328  0.69860260  0.99720222  1
  B  B19  1  0.98488672  0.30139740  0.00279778  1
  B  B20  1  0.92125373  0.61202243  0.34193883  1
  B  B21  1  0.07874627  0.38797757  0.65806117  1
  B  B22  1  0.57874627  0.88797757  0.84193883  1
  B  B23  1  0.42125373  0.11202243  0.15806117  1
  H  H24  1  0.05705444  0.79943917  0.40226730  1
  H  H25  1  0.94294556  0.20056083  0.59773270  1
  H  H26  1  0.44294556  0.70056083  0.90226730  1
  H  H27  1  0.55705444  0.29943917  0.09773270  1
  O  O28  1  0.01025638  0.95695005  0.21022431  1
  O  O29  1  0.98974362  0.04304995  0.78977569  1
  O  O30  1  0.48974362  0.54304995  0.71022431  1
  O  O31  1  0.51025638  0.45695005  0.28977569  1
  O  O32  1  0.60713110  0.85075791  0.39480064  1
  O  O33  1  0.39286890  0.14924209  0.60519936  1
  O  O34  1  0.89286890  0.64924209  0.89480064  1
  O  O35  1  0.10713110  0.35075791  0.10519936  1
  O  O36  1  0.97276391  0.71937344  0.43481560  1
  O  O37  1  0.02723609  0.28062656  0.56518440  1
  O  O38  1  0.52723609  0.78062656  0.93481560  1
  O  O39  1  0.47276391  0.21937344  0.06518440  1
  O  O40  1  0.24936348  0.80405718  0.20341740  1
  O  O41  1  0.75063652  0.19594282  0.79658260  1
  O  O42  1  0.25063652  0.69594282  0.70341740  1
  O  O43  1  0.74936348  0.30405718  0.29658260  1
  O  O44  1  0.01103512  0.82715474  0.03113255  1
  O  O45  1  0.98896488  0.17284526  0.96886745  1
  O  O46  1  0.48896488  0.67284526  0.53113255  1
  O  O47  1  0.51103512  0.32715474  0.46886745  1
  O  O48  1  0.12923405  0.62324399  0.05846467  1
  O  O49  1  0.87076595  0.37675601  0.94153533  1
  O  O50  1  0.37076595  0.87675601  0.55846467  1
  O  O51  1  0.62923405  0.12324399  0.44153533  1
  O  O52  1  0.77757963  0.64645371  0.24592437  1
  O  O53  1  0.22242037  0.35354629  0.75407563  1
  O  O54  1  0.72242037  0.85354629  0.74592437  1
  O  O55  1  0.27757963  0.14645371  0.25407563  1
  O  O56  1  0.32336586  0.99752935  0.08012259  1
  O  O57  1  0.67663414  0.00247065  0.91987741  1
  O  O58  1  0.17663414  0.50247065  0.58012259  1
  O  O59  1  0.82336586  0.49752935  0.41987741  1
  O  O60  1  0.11241372  0.58434386  0.28391633  1
  O  O61  1  0.88758628  0.41565614  0.71608367  1
  O  O62  1  0.38758628  0.91565614  0.78391633  1
  O  O63  1  0.61241372  0.08434386  0.21608367  1
  O  O64  1  0.05615879  0.85772785  0.67499252  1
  O  O65  1  0.94384121  0.14227215  0.32500748  1
  O  O66  1  0.44384121  0.64227215  0.17499252  1
  O  O67  1  0.55615879  0.35772785  0.82500748  1
