# generated using pymatgen
data_LiCr2(MoO4)3
_symmetry_space_group_name_H-M   'P 1'
_cell_length_a   6.83678205
_cell_length_b   7.03286275
_cell_length_c   11.80183357
_cell_angle_alpha   77.55772602
_cell_angle_beta   85.65707499
_cell_angle_gamma   77.87780960
_symmetry_Int_Tables_number   1
_chemical_formula_structural   LiCr2(MoO4)3
_chemical_formula_sum   'Li2 Cr4 Mo6 O24'
_cell_volume   541.49780988
_cell_formula_units_Z   2
loop_
 _symmetry_equiv_pos_site_id
 _symmetry_equiv_pos_as_xyz
  1  'x, y, z'
loop_
 _atom_site_type_symbol
 _atom_site_label
 _atom_site_symmetry_multiplicity
 _atom_site_fract_x
 _atom_site_fract_y
 _atom_site_fract_z
 _atom_site_occupancy
  Li  Li0  1  0.32158949  0.56286656  0.41303726  1
  Li  Li1  1  0.67841051  0.43713344  0.58696274  1
  Cr  Cr2  1  0.30244502  0.16495210  0.02248427  1
  Cr  Cr3  1  0.69755498  0.83504790  0.97751573  1
  Cr  Cr4  1  0.69516601  0.23010802  0.37231366  1
  Cr  Cr5  1  0.30483399  0.76989198  0.62768634  1
  Mo  Mo6  1  0.74609940  0.30093156  0.05293159  1
  Mo  Mo7  1  0.25390060  0.69906844  0.94706841  1
  Mo  Mo8  1  0.25449514  0.09238453  0.35249746  1
  Mo  Mo9  1  0.74550486  0.90761547  0.64750254  1
  Mo  Mo10  1  0.20322082  0.28711594  0.68671597  1
  Mo  Mo11  1  0.79677918  0.71288406  0.31328403  1
  O  O12  1  0.99310525  0.20034523  0.35929291  1
  O  O13  1  0.00689475  0.79965477  0.64070709  1
  O  O14  1  0.05644561  0.63946905  0.33176729  1
  O  O15  1  0.94355439  0.36053095  0.66823271  1
  O  O16  1  0.39388371  0.26925465  0.38570236  1
  O  O17  1  0.60611629  0.73074535  0.61429764  1
  O  O18  1  0.67493832  0.31930077  0.20060846  1
  O  O19  1  0.32506168  0.68069923  0.79939154  1
  O  O20  1  0.29192618  0.45863350  0.03953553  1
  O  O21  1  0.70807382  0.54136650  0.96046447  1
  O  O22  1  0.32011781  0.05155841  0.21157327  1
  O  O23  1  0.67988219  0.94844159  0.78842673  1
  O  O24  1  0.00298316  0.18928672  0.04557992  1
  O  O25  1  0.99701684  0.81071328  0.95442008  1
  O  O26  1  0.24741642  0.24723251  0.83582227  1
  O  O27  1  0.75258358  0.75276749  0.16417773  1
  O  O28  1  0.33682932  0.48523100  0.60450072  1
  O  O29  1  0.66317068  0.51476900  0.39549928  1
  O  O30  1  0.70202573  0.15006990  0.54856407  1
  O  O31  1  0.29797427  0.84993010  0.45143593  1
  O  O32  1  0.60766438  0.14158997  0.99938872  1
  O  O33  1  0.39233562  0.85841003  0.00061128  1
  O  O34  1  0.29046656  0.05370988  0.63856903  1
  O  O35  1  0.70953344  0.94629012  0.36143097  1
