# generated using pymatgen
data_NaMo3Se4
_symmetry_space_group_name_H-M   'P 1'
_cell_length_a   7.10019372
_cell_length_b   7.06293270
_cell_length_c   7.12809841
_cell_angle_alpha   91.05286039
_cell_angle_beta   92.59676653
_cell_angle_gamma   100.62583700
_symmetry_Int_Tables_number   1
_chemical_formula_structural   NaMo3Se4
_chemical_formula_sum   'Na2 Mo6 Se8'
_cell_volume   350.84074653
_cell_formula_units_Z   2
loop_
 _symmetry_equiv_pos_site_id
 _symmetry_equiv_pos_as_xyz
  1  'x, y, z'
loop_
 _atom_site_type_symbol
 _atom_site_label
 _atom_site_symmetry_multiplicity
 _atom_site_fract_x
 _atom_site_fract_y
 _atom_site_fract_z
 _atom_site_occupancy
  Na  Na0  1  0.33096668  0.09253803  0.05555031  1
  Na  Na1  1  0.66903332  0.90746197  0.94444969  1
  Mo  Mo2  1  0.10639632  0.74962693  0.44403186  1
  Mo  Mo3  1  0.89360368  0.25037307  0.55596814  1
  Mo  Mo4  1  0.25598587  0.46195170  0.59011392  1
  Mo  Mo5  1  0.74401413  0.53804830  0.40988608  1
  Mo  Mo6  1  0.04669945  0.41198540  0.25049374  1
  Mo  Mo7  1  0.95330055  0.58801460  0.74950626  1
  Se  Se8  1  0.70609116  0.21405158  0.23397018  1
  Se  Se9  1  0.29390884  0.78594842  0.76602982  1
  Se  Se10  1  0.08805555  0.29858313  0.87837908  1
  Se  Se11  1  0.91194445  0.70141687  0.12162092  1
  Se  Se12  1  0.19573959  0.14377787  0.41059151  1
  Se  Se13  1  0.80426041  0.85622213  0.58940849  1
  Se  Se14  1  0.38712877  0.62104501  0.28046142  1
  Se  Se15  1  0.61287123  0.37895499  0.71953858  1
