# generated using pymatgen
data_Tm2NiRuO6
_symmetry_space_group_name_H-M   'P 1'
_cell_length_a   5.23522219
_cell_length_b   5.67565006
_cell_length_c   7.63346783
_cell_angle_alpha   90.00000000
_cell_angle_beta   89.52037358
_cell_angle_gamma   90.00000000
_symmetry_Int_Tables_number   1
_chemical_formula_structural   Tm2NiRuO6
_chemical_formula_sum   'Tm4 Ni2 Ru2 O12'
_cell_volume   226.80748996
_cell_formula_units_Z   2
loop_
 _symmetry_equiv_pos_site_id
 _symmetry_equiv_pos_as_xyz
  1  'x, y, z'
loop_
 _atom_site_type_symbol
 _atom_site_label
 _atom_site_symmetry_multiplicity
 _atom_site_fract_x
 _atom_site_fract_y
 _atom_site_fract_z
 _atom_site_occupancy
  Tm  Tm0  1  0.02678519  0.42078190  0.25260550  1
  Tm  Tm1  1  0.97321481  0.57921810  0.74739450  1
  Tm  Tm2  1  0.47321481  0.92078190  0.24739450  1
  Tm  Tm3  1  0.52678519  0.07921810  0.75260550  1
  Ni  Ni4  1  -0.00000000  -0.00000000  0.50000000  1
  Ni  Ni5  1  0.50000000  0.50000000  0.00000000  1
  Ru  Ru6  1  -0.00000000  0.00000000  0.00000000  1
  Ru  Ru7  1  0.50000000  0.50000000  0.50000000  1
  O  O8  1  0.86793068  0.05192815  0.24675227  1
  O  O9  1  0.13206932  0.94807185  0.75324773  1
  O  O10  1  0.63206932  0.55192815  0.25324773  1
  O  O11  1  0.36793068  0.44807185  0.74675227  1
  O  O12  1  0.18009077  0.69676018  0.07005989  1
  O  O13  1  0.81990923  0.30323982  0.92994011  1
  O  O14  1  0.31990923  0.19676018  0.42994011  1
  O  O15  1  0.68009077  0.80323982  0.57005989  1
  O  O16  1  0.31344922  0.18719325  0.05983144  1
  O  O17  1  0.68655078  0.81280675  0.94016856  1
  O  O18  1  0.18655078  0.68719325  0.44016856  1
  O  O19  1  0.81344922  0.31280675  0.55983144  1
