# generated using pymatgen
data_KV3CdCu4O13
_symmetry_space_group_name_H-M   'P 1'
_cell_length_a   6.27182802
_cell_length_b   8.46224070
_cell_length_c   10.92156261
_cell_angle_alpha   97.54321877
_cell_angle_beta   90.00000000
_cell_angle_gamma   90.00000000
_symmetry_Int_Tables_number   1
_chemical_formula_structural   KV3CdCu4O13
_chemical_formula_sum   'K2 V6 Cd2 Cu8 O26'
_cell_volume   574.63173508
_cell_formula_units_Z   2
loop_
 _symmetry_equiv_pos_site_id
 _symmetry_equiv_pos_as_xyz
  1  'x, y, z'
loop_
 _atom_site_type_symbol
 _atom_site_label
 _atom_site_symmetry_multiplicity
 _atom_site_fract_x
 _atom_site_fract_y
 _atom_site_fract_z
 _atom_site_occupancy
  K  K0  1  0.75000000  0.51357453  0.89510399  1
  K  K1  1  0.25000000  0.48642547  0.10489601  1
  V  V2  1  0.75000000  0.46441137  0.29357102  1
  V  V3  1  0.25000000  0.53558863  0.70642898  1
  V  V4  1  0.75000000  0.14041584  0.00542948  1
  V  V5  1  0.25000000  0.85958416  0.99457052  1
  V  V6  1  0.75000000  0.17900995  0.62018645  1
  V  V7  1  0.25000000  0.82099005  0.37981355  1
  Cd  Cd8  1  0.75000000  0.80586758  0.13724403  1
  Cd  Cd9  1  0.25000000  0.19413242  0.86275597  1
  Cu  Cu10  1  0.75000000  0.59989924  0.60199854  1
  Cu  Cu11  1  0.25000000  0.40010076  0.39800146  1
  Cu  Cu12  1  0.99660684  0.89124129  0.72403485  1
  Cu  Cu13  1  0.00339316  0.10875871  0.27596515  1
  Cu  Cu14  1  0.49660684  0.10875871  0.27596515  1
  Cu  Cu15  1  0.50339316  0.89124129  0.72403485  1
  Cu  Cu16  1  0.75000000  0.85647597  0.43965838  1
  Cu  Cu17  1  0.25000000  0.14352403  0.56034162  1
  O  O18  1  0.75000000  0.97741888  0.89592559  1
  O  O19  1  0.25000000  0.02258112  0.10407441  1
  O  O20  1  0.75000000  0.62008341  0.42042278  1
  O  O21  1  0.25000000  0.37991659  0.57957722  1
  O  O22  1  0.75000000  0.55035137  0.16226091  1
  O  O23  1  0.25000000  0.44964863  0.83773909  1
  O  O24  1  0.75000000  0.83747563  0.62066346  1
  O  O25  1  0.25000000  0.16252437  0.37933654  1
  O  O26  1  0.75000000  0.38053124  0.62242515  1
  O  O27  1  0.25000000  0.61946876  0.37757485  1
  O  O28  1  0.75000000  0.07709291  0.16938193  1
  O  O29  1  0.25000000  0.92290709  0.83061807  1
  O  O30  1  0.48043493  0.65809948  0.71058772  1
  O  O31  1  0.51956507  0.34190052  0.28941228  1
  O  O32  1  0.98043493  0.34190052  0.28941228  1
  O  O33  1  0.01956507  0.65809948  0.71058772  1
  O  O34  1  0.75000000  0.08856106  0.46762291  1
  O  O35  1  0.25000000  0.91143894  0.53237709  1
  O  O36  1  0.96872290  0.25557212  0.98510317  1
  O  O37  1  0.03127710  0.74442788  0.01489683  1
  O  O38  1  0.46872290  0.74442788  0.01489683  1
  O  O39  1  0.53127710  0.25557212  0.98510317  1
  O  O40  1  0.00935409  0.88085880  0.30721708  1
  O  O41  1  0.99064591  0.11914120  0.69278292  1
  O  O42  1  0.50935409  0.11914120  0.69278292  1
  O  O43  1  0.49064591  0.88085880  0.30721708  1
