# generated using pymatgen
data_K2DyNb5O15
_symmetry_space_group_name_H-M   'P 1'
_cell_length_a   3.95388832
_cell_length_b   12.75088472
_cell_length_c   12.75088472
_cell_angle_alpha   90.00000000
_cell_angle_beta   90.00000000
_cell_angle_gamma   90.00000000
_symmetry_Int_Tables_number   1
_chemical_formula_structural   K2DyNb5O15
_chemical_formula_sum   'K4 Dy2 Nb10 O30'
_cell_volume   642.84317426
_cell_formula_units_Z   2
loop_
 _symmetry_equiv_pos_site_id
 _symmetry_equiv_pos_as_xyz
  1  'x, y, z'
loop_
 _atom_site_type_symbol
 _atom_site_label
 _atom_site_symmetry_multiplicity
 _atom_site_fract_x
 _atom_site_fract_y
 _atom_site_fract_z
 _atom_site_occupancy
  K  K0  1  0.50000000  0.16995187  0.66995187  1
  K  K1  1  0.50000000  0.83004813  0.33004813  1
  K  K2  1  0.50000000  0.33004813  0.16995187  1
  K  K3  1  0.50000000  0.66995187  0.83004813  1
  Dy  Dy4  1  0.50000000  -0.00000000  0.00000000  1
  Dy  Dy5  1  0.50000000  0.50000000  0.50000000  1
  Nb  Nb6  1  0.00000000  -0.00000000  0.50000000  1
  Nb  Nb7  1  0.00000000  0.50000000  0.00000000  1
  Nb  Nb8  1  0.00000000  0.07652393  0.21182738  1
  Nb  Nb9  1  -0.00000000  0.92347607  0.78817262  1
  Nb  Nb10  1  -0.00000000  0.78817262  0.07652393  1
  Nb  Nb11  1  0.00000000  0.42347607  0.71182738  1
  Nb  Nb12  1  0.00000000  0.21182738  0.92347607  1
  Nb  Nb13  1  -0.00000000  0.57652393  0.28817262  1
  Nb  Nb14  1  0.00000000  0.71182738  0.57652393  1
  Nb  Nb15  1  -0.00000000  0.28817262  0.42347607  1
  O  O16  1  0.50000000  0.07833711  0.18503182  1
  O  O17  1  0.50000000  0.92166289  0.81496818  1
  O  O18  1  0.50000000  0.81496818  0.07833711  1
  O  O19  1  0.50000000  0.42166289  0.68503182  1
  O  O20  1  0.50000000  0.18503182  0.92166289  1
  O  O21  1  0.50000000  0.57833711  0.31496818  1
  O  O22  1  0.50000000  0.68503182  0.57833711  1
  O  O23  1  0.50000000  0.31496818  0.42166289  1
  O  O24  1  0.00000000  0.71726434  0.21726434  1
  O  O25  1  -0.00000000  0.28273566  0.78273566  1
  O  O26  1  0.00000000  0.78273566  0.71726434  1
  O  O27  1  -0.00000000  0.21726434  0.28273566  1
  O  O28  1  0.50000000  -0.00000000  0.50000000  1
  O  O29  1  0.50000000  0.50000000  0.00000000  1
  O  O30  1  0.00000000  0.13077147  0.05789735  1
  O  O31  1  -0.00000000  0.86922853  0.94210265  1
  O  O32  1  -0.00000000  0.94210265  0.13077147  1
  O  O33  1  0.00000000  0.36922853  0.55789735  1
  O  O34  1  0.00000000  0.05789735  0.86922853  1
  O  O35  1  -0.00000000  0.63077147  0.44210265  1
  O  O36  1  -0.00000000  0.55789735  0.63077147  1
  O  O37  1  0.00000000  0.44210265  0.36922853  1
  O  O38  1  -0.00000000  0.99950775  0.34198330  1
  O  O39  1  0.00000000  0.00049225  0.65801670  1
  O  O40  1  0.00000000  0.65801670  0.99950775  1
  O  O41  1  -0.00000000  0.50049225  0.84198330  1
  O  O42  1  -0.00000000  0.34198330  0.00049225  1
  O  O43  1  0.00000000  0.49950775  0.15801670  1
  O  O44  1  -0.00000000  0.84198330  0.49950775  1
  O  O45  1  0.00000000  0.15801670  0.50049225  1
