# generated using pymatgen
data_U2WO8
_symmetry_space_group_name_H-M   'P 1'
_cell_length_a   4.06088682
_cell_length_b   6.82989853
_cell_length_c   23.70099313
_cell_angle_alpha   90.00000000
_cell_angle_beta   90.00000000
_cell_angle_gamma   90.00000000
_symmetry_Int_Tables_number   1
_chemical_formula_structural   U2WO8
_chemical_formula_sum   'U8 W4 O32'
_cell_volume   657.35758956
_cell_formula_units_Z   4
loop_
 _symmetry_equiv_pos_site_id
 _symmetry_equiv_pos_as_xyz
  1  'x, y, z'
loop_
 _atom_site_type_symbol
 _atom_site_label
 _atom_site_symmetry_multiplicity
 _atom_site_fract_x
 _atom_site_fract_y
 _atom_site_fract_z
 _atom_site_occupancy
  U  U0  1  0.00000000  0.30354756  0.37682411  1
  U  U1  1  0.00000000  0.69645244  0.62317589  1
  U  U2  1  -0.00000000  0.19645244  0.87682411  1
  U  U3  1  0.00000000  0.80354756  0.12317589  1
  U  U4  1  0.00000000  0.32619295  0.21579991  1
  U  U5  1  -0.00000000  0.67380705  0.78420009  1
  U  U6  1  0.00000000  0.17380705  0.71579991  1
  U  U7  1  -0.00000000  0.82619295  0.28420009  1
  W  W8  1  -0.00000000  0.32513258  0.04781968  1
  W  W9  1  0.00000000  0.67486742  0.95218032  1
  W  W10  1  0.00000000  0.17486742  0.54781968  1
  W  W11  1  -0.00000000  0.82513258  0.45218032  1
  O  O12  1  -0.00000000  0.13913582  0.46540030  1
  O  O13  1  -0.00000000  0.86086418  0.53459970  1
  O  O14  1  -0.00000000  0.36086418  0.96540030  1
  O  O15  1  0.00000000  0.63913582  0.03459970  1
  O  O16  1  -0.00000000  0.41850192  0.12310398  1
  O  O17  1  0.00000000  0.58149808  0.87689602  1
  O  O18  1  -0.00000000  0.08149808  0.62310398  1
  O  O19  1  -0.00000000  0.91850192  0.37689602  1
  O  O20  1  0.50000000  0.32100136  0.21618199  1
  O  O21  1  0.50000000  0.67899864  0.78381801  1
  O  O22  1  0.50000000  0.17899864  0.71618199  1
  O  O23  1  0.50000000  0.82100136  0.28381801  1
  O  O24  1  -0.00000000  0.15242280  0.29373004  1
  O  O25  1  0.00000000  0.84757720  0.70626996  1
  O  O26  1  0.00000000  0.34757720  0.79373004  1
  O  O27  1  -0.00000000  0.65242280  0.20626996  1
  O  O28  1  0.50000000  0.30155021  0.37799849  1
  O  O29  1  0.50000000  0.69844979  0.62200151  1
  O  O30  1  0.50000000  0.19844979  0.87799849  1
  O  O31  1  0.50000000  0.80155021  0.12200151  1
  O  O32  1  0.50000000  0.33217468  0.04607908  1
  O  O33  1  0.50000000  0.66782532  0.95392092  1
  O  O34  1  0.50000000  0.16782532  0.54607908  1
  O  O35  1  0.50000000  0.83217468  0.45392092  1
  O  O36  1  0.00000000  0.02532999  0.18761301  1
  O  O37  1  0.00000000  0.97467001  0.81238699  1
  O  O38  1  0.00000000  0.47467001  0.68761301  1
  O  O39  1  -0.00000000  0.52532999  0.31238699  1
  O  O40  1  0.00000000  0.06187723  0.06126948  1
  O  O41  1  -0.00000000  0.93812277  0.93873052  1
  O  O42  1  0.00000000  0.43812277  0.56126948  1
  O  O43  1  0.00000000  0.56187723  0.43873052  1
