# generated using pymatgen
data_La3CoSiS7
_symmetry_space_group_name_H-M   'P 1'
_cell_length_a   5.73918714
_cell_length_b   10.32604801
_cell_length_c   10.32623762
_cell_angle_alpha   120.00008283
_cell_angle_beta   90.00130498
_cell_angle_gamma   89.99921380
_symmetry_Int_Tables_number   1
_chemical_formula_structural   La3CoSiS7
_chemical_formula_sum   'La6 Co2 Si2 S14'
_cell_volume   529.97686277
_cell_formula_units_Z   2
loop_
 _symmetry_equiv_pos_site_id
 _symmetry_equiv_pos_as_xyz
  1  'x, y, z'
loop_
 _atom_site_type_symbol
 _atom_site_label
 _atom_site_symmetry_multiplicity
 _atom_site_fract_x
 _atom_site_fract_y
 _atom_site_fract_z
 _atom_site_occupancy
  La  La0  1  0.76641670  0.64586809  0.76744341  1
  La  La1  1  0.76641874  0.12157578  0.35412708  1
  La  La2  1  0.26641775  0.35412377  0.23255752  1
  La  La3  1  0.76642380  0.23255876  0.87843384  1
  La  La4  1  0.26643081  0.87843146  0.64587362  1
  La  La5  1  0.26642554  0.76743646  0.12156056  1
  Co  Co6  1  0.00224562  0.00000038  0.99999773  1
  Co  Co7  1  0.50224692  0.00000229  0.00000229  1
  Si  Si8  1  0.85066903  0.66667010  0.33333742  1
  Si  Si9  1  0.35066557  0.33333012  0.66666484  1
  S  S10  1  0.48508983  0.66666236  0.33333068  1
  S  S11  1  0.98507962  0.33333250  0.66666949  1
  S  S12  1  0.99076711  0.88513537  0.40889229  1
  S  S13  1  0.99077154  0.52374886  0.11486003  1
  S  S14  1  0.49076638  0.11486935  0.59110926  1
  S  S15  1  0.99076612  0.59110385  0.47624083  1
  S  S16  1  0.49076651  0.47624111  0.88513712  1
  S  S17  1  0.49076096  0.40889089  0.52375635  1
  S  S18  1  0.75314807  0.84532371  0.07949574  1
  S  S19  1  0.75315106  0.23417607  0.15467335  1
  S  S20  1  0.25314421  0.15466507  0.92048860  1
  S  S21  1  0.75314756  0.92051215  0.76583447  1
  S  S22  1  0.25314033  0.76582030  0.84534011  1
  S  S23  1  0.25314021  0.07952119  0.23417337  1
