# generated using pymatgen
data_ThCrSb3
_symmetry_space_group_name_H-M   'P 1'
_cell_length_a   6.19999170
_cell_length_b   6.31517115
_cell_length_c   12.95584903
_cell_angle_alpha   90.00000000
_cell_angle_beta   90.00000000
_cell_angle_gamma   90.00000000
_symmetry_Int_Tables_number   1
_chemical_formula_structural   ThCrSb3
_chemical_formula_sum   'Th4 Cr4 Sb12'
_cell_volume   507.27342582
_cell_formula_units_Z   4
loop_
 _symmetry_equiv_pos_site_id
 _symmetry_equiv_pos_as_xyz
  1  'x, y, z'
loop_
 _atom_site_type_symbol
 _atom_site_label
 _atom_site_symmetry_multiplicity
 _atom_site_fract_x
 _atom_site_fract_y
 _atom_site_fract_z
 _atom_site_occupancy
  Th  Th0  1  0.75000000  0.99643086  0.69232906  1
  Th  Th1  1  0.25000000  0.00356914  0.30767094  1
  Th  Th2  1  0.75000000  0.49643086  0.30767094  1
  Th  Th3  1  0.25000000  0.50356914  0.69232906  1
  Cr  Cr4  1  -0.00000000  0.75000000  0.09328653  1
  Cr  Cr5  1  0.00000000  0.25000000  0.90671347  1
  Cr  Cr6  1  0.50000000  0.25000000  0.90671347  1
  Cr  Cr7  1  0.50000000  0.75000000  0.09328653  1
  Sb  Sb8  1  0.00000000  0.75000000  0.49855543  1
  Sb  Sb9  1  0.00000000  0.25000000  0.50144457  1
  Sb  Sb10  1  0.50000000  0.25000000  0.50144457  1
  Sb  Sb11  1  0.50000000  0.75000000  0.49855543  1
  Sb  Sb12  1  0.75000000  0.90478886  0.93876502  1
  Sb  Sb13  1  0.25000000  0.09521114  0.06123498  1
  Sb  Sb14  1  0.75000000  0.40478886  0.06123498  1
  Sb  Sb15  1  0.25000000  0.59521114  0.93876502  1
  Sb  Sb16  1  0.75000000  0.49547873  0.76961149  1
  Sb  Sb17  1  0.25000000  0.50452127  0.23038851  1
  Sb  Sb18  1  0.75000000  0.99547873  0.23038851  1
  Sb  Sb19  1  0.25000000  0.00452127  0.76961149  1
