# generated using pymatgen
data_GdInO3
_symmetry_space_group_name_H-M   'P 1'
_cell_length_a   5.60347619
_cell_length_b   5.93298554
_cell_length_c   8.21589467
_cell_angle_alpha   90.00000000
_cell_angle_beta   90.00000000
_cell_angle_gamma   90.00000000
_symmetry_Int_Tables_number   1
_chemical_formula_structural   GdInO3
_chemical_formula_sum   'Gd4 In4 O12'
_cell_volume   273.14023807
_cell_formula_units_Z   4
loop_
 _symmetry_equiv_pos_site_id
 _symmetry_equiv_pos_as_xyz
  1  'x, y, z'
loop_
 _atom_site_type_symbol
 _atom_site_label
 _atom_site_symmetry_multiplicity
 _atom_site_fract_x
 _atom_site_fract_y
 _atom_site_fract_z
 _atom_site_occupancy
  Gd  Gd0  1  0.02023983  0.43658860  0.25000000  1
  Gd  Gd1  1  0.97976017  0.56341140  0.75000000  1
  Gd  Gd2  1  0.52023983  0.06341140  0.75000000  1
  Gd  Gd3  1  0.47976017  0.93658860  0.25000000  1
  In  In4  1  -0.00000000  -0.00000000  -0.00000000  1
  In  In5  1  0.50000000  0.50000000  -0.00000000  1
  In  In6  1  -0.00000000  0.00000000  0.50000000  1
  In  In7  1  0.50000000  0.50000000  0.50000000  1
  O  O8  1  0.31444518  0.18954228  0.07057027  1
  O  O9  1  0.68555482  0.81045772  0.92942973  1
  O  O10  1  0.81444518  0.31045772  0.92942973  1
  O  O11  1  0.68555482  0.81045772  0.57057027  1
  O  O12  1  0.18555482  0.68954228  0.07057027  1
  O  O13  1  0.31444518  0.18954228  0.42942973  1
  O  O14  1  0.18555482  0.68954228  0.42942973  1
  O  O15  1  0.81444518  0.31045772  0.57057027  1
  O  O16  1  0.63880760  0.56590744  0.25000000  1
  O  O17  1  0.36119240  0.43409256  0.75000000  1
  O  O18  1  0.13880760  0.93409256  0.75000000  1
  O  O19  1  0.86119240  0.06590744  0.25000000  1
