# generated using pymatgen
data_BaCuRu5O11
_symmetry_space_group_name_H-M   'P 1'
_cell_length_a   5.93724965
_cell_length_b   5.93724965
_cell_length_c   14.05172038
_cell_angle_alpha   90.00000000
_cell_angle_beta   90.00000000
_cell_angle_gamma   119.99999615
_symmetry_Int_Tables_number   1
_chemical_formula_structural   BaCuRu5O11
_chemical_formula_sum   'Ba2 Cu2 Ru10 O22'
_cell_volume   428.97380134
_cell_formula_units_Z   2
loop_
 _symmetry_equiv_pos_site_id
 _symmetry_equiv_pos_as_xyz
  1  'x, y, z'
loop_
 _atom_site_type_symbol
 _atom_site_label
 _atom_site_symmetry_multiplicity
 _atom_site_fract_x
 _atom_site_fract_y
 _atom_site_fract_z
 _atom_site_occupancy
  Ba  Ba0  1  0.66666700  0.33333300  0.25000000  1
  Ba  Ba1  1  0.33333300  0.66666700  0.75000000  1
  Cu  Cu2  1  0.66666700  0.33333300  0.75000000  1
  Cu  Cu3  1  0.33333300  0.66666700  0.25000000  1
  Ru  Ru4  1  0.00000000  0.00000000  0.84698618  1
  Ru  Ru5  1  0.00000000  0.00000000  0.15301382  1
  Ru  Ru6  1  0.00000000  0.00000000  0.34698618  1
  Ru  Ru7  1  0.00000000  0.00000000  0.65301382  1
  Ru  Ru8  1  0.50000000  0.50000000  0.00000000  1
  Ru  Ru9  1  0.00000000  0.50000000  0.00000000  1
  Ru  Ru10  1  0.50000000  0.50000000  0.50000000  1
  Ru  Ru11  1  0.50000000  0.00000000  0.00000000  1
  Ru  Ru12  1  0.00000000  0.50000000  0.50000000  1
  Ru  Ru13  1  0.50000000  0.00000000  0.50000000  1
  O  O14  1  0.85279863  0.14720137  0.75000000  1
  O  O15  1  0.14720137  0.85279863  0.25000000  1
  O  O16  1  0.29440274  0.14720137  0.75000000  1
  O  O17  1  0.70559726  0.85279863  0.25000000  1
  O  O18  1  0.85279863  0.70559726  0.75000000  1
  O  O19  1  0.14720137  0.29440274  0.25000000  1
  O  O20  1  0.66666700  0.33333300  0.91755214  1
  O  O21  1  0.33333300  0.66666700  0.08244786  1
  O  O22  1  0.33333300  0.66666700  0.41755214  1
  O  O23  1  0.66666700  0.33333300  0.58244786  1
  O  O24  1  0.83062161  0.16937839  0.41971268  1
  O  O25  1  0.16937839  0.83062161  0.58028732  1
  O  O26  1  0.33875678  0.16937839  0.41971268  1
  O  O27  1  0.16937839  0.83062161  0.91971268  1
  O  O28  1  0.66124322  0.83062161  0.58028732  1
  O  O29  1  0.83062161  0.16937839  0.08028732  1
  O  O30  1  0.83062161  0.66124322  0.41971268  1
  O  O31  1  0.66124322  0.83062161  0.91971268  1
  O  O32  1  0.16937839  0.33875678  0.58028732  1
  O  O33  1  0.33875678  0.16937839  0.08028732  1
  O  O34  1  0.16937839  0.33875678  0.91971268  1
  O  O35  1  0.83062161  0.66124322  0.08028732  1
