# generated using pymatgen
data_HoTa5Ag2O15
_symmetry_space_group_name_H-M   'P 1'
_cell_length_a   3.91571321
_cell_length_b   12.57960542
_cell_length_c   12.57960542
_cell_angle_alpha   90.00000000
_cell_angle_beta   90.00000000
_cell_angle_gamma   90.00000000
_symmetry_Int_Tables_number   1
_chemical_formula_structural   HoTa5Ag2O15
_chemical_formula_sum   'Ho2 Ta10 Ag4 O30'
_cell_volume   619.64780289
_cell_formula_units_Z   2
loop_
 _symmetry_equiv_pos_site_id
 _symmetry_equiv_pos_as_xyz
  1  'x, y, z'
loop_
 _atom_site_type_symbol
 _atom_site_label
 _atom_site_symmetry_multiplicity
 _atom_site_fract_x
 _atom_site_fract_y
 _atom_site_fract_z
 _atom_site_occupancy
  Ho  Ho0  1  0.50000000  0.00000000  0.00000000  1
  Ho  Ho1  1  0.50000000  0.50000000  0.50000000  1
  Ta  Ta2  1  0.00000000  0.00000000  0.50000000  1
  Ta  Ta3  1  0.00000000  0.50000000  0.00000000  1
  Ta  Ta4  1  0.00000000  0.07854000  0.21091232  1
  Ta  Ta5  1  -0.00000000  0.92146000  0.78908768  1
  Ta  Ta6  1  -0.00000000  0.78908768  0.07854000  1
  Ta  Ta7  1  0.00000000  0.42146000  0.71091232  1
  Ta  Ta8  1  0.00000000  0.21091232  0.92146000  1
  Ta  Ta9  1  -0.00000000  0.57854000  0.28908768  1
  Ta  Ta10  1  -0.00000000  0.71091232  0.57854000  1
  Ta  Ta11  1  0.00000000  0.28908768  0.42146000  1
  Ag  Ag12  1  0.50000000  0.17221834  0.67221834  1
  Ag  Ag13  1  0.50000000  0.82778166  0.32778166  1
  Ag  Ag14  1  0.50000000  0.32778166  0.17221834  1
  Ag  Ag15  1  0.50000000  0.67221834  0.82778166  1
  O  O16  1  0.50000000  0.07996139  0.18998533  1
  O  O17  1  0.50000000  0.92003861  0.81001467  1
  O  O18  1  0.50000000  0.81001467  0.07996139  1
  O  O19  1  0.50000000  0.42003861  0.68998533  1
  O  O20  1  0.50000000  0.18998533  0.92003861  1
  O  O21  1  0.50000000  0.57996139  0.31001467  1
  O  O22  1  0.50000000  0.68998533  0.57996139  1
  O  O23  1  0.50000000  0.31001467  0.42003861  1
  O  O24  1  0.00000000  0.72566040  0.22566040  1
  O  O25  1  -0.00000000  0.27433960  0.77433960  1
  O  O26  1  0.00000000  0.77433960  0.72566040  1
  O  O27  1  -0.00000000  0.22566040  0.27433960  1
  O  O28  1  0.50000000  0.00000000  0.50000000  1
  O  O29  1  0.50000000  0.50000000  0.00000000  1
  O  O30  1  0.00000000  0.12904007  0.05670408  1
  O  O31  1  -0.00000000  0.87095993  0.94329592  1
  O  O32  1  -0.00000000  0.94329592  0.12904007  1
  O  O33  1  0.00000000  0.37095993  0.55670408  1
  O  O34  1  0.00000000  0.05670408  0.87095993  1
  O  O35  1  -0.00000000  0.62904007  0.44329592  1
  O  O36  1  -0.00000000  0.55670408  0.62904007  1
  O  O37  1  0.00000000  0.44329592  0.37095993  1
  O  O38  1  -0.00000000  0.99774834  0.34102887  1
  O  O39  1  0.00000000  0.00225166  0.65897113  1
  O  O40  1  -0.00000000  0.65897113  0.99774834  1
  O  O41  1  -0.00000000  0.50225166  0.84102887  1
  O  O42  1  0.00000000  0.34102887  0.00225166  1
  O  O43  1  0.00000000  0.49774834  0.15897113  1
  O  O44  1  -0.00000000  0.84102887  0.49774834  1
  O  O45  1  0.00000000  0.15897113  0.50225166  1
