# generated using pymatgen
data_Ba5As3SO12
_symmetry_space_group_name_H-M   'P 1'
_cell_length_a   7.85372547
_cell_length_b   10.81492261
_cell_length_c   10.81492260
_cell_angle_alpha   119.99999955
_cell_angle_beta   90.00000000
_cell_angle_gamma   90.00000000
_symmetry_Int_Tables_number   1
_chemical_formula_structural   Ba5As3SO12
_chemical_formula_sum   'Ba10 As6 S2 O24'
_cell_volume   795.52380833
_cell_formula_units_Z   2
loop_
 _symmetry_equiv_pos_site_id
 _symmetry_equiv_pos_as_xyz
  1  'x, y, z'
loop_
 _atom_site_type_symbol
 _atom_site_label
 _atom_site_symmetry_multiplicity
 _atom_site_fract_x
 _atom_site_fract_y
 _atom_site_fract_z
 _atom_site_occupancy
  Ba  Ba0  1  0.00112073  0.66666700  0.33333300  1
  Ba  Ba1  1  0.99887927  0.33333300  0.66666700  1
  Ba  Ba2  1  0.50112073  0.33333300  0.66666700  1
  Ba  Ba3  1  0.49887927  0.66666700  0.33333300  1
  Ba  Ba4  1  0.75000000  0.74542110  0.99323026  1
  Ba  Ba5  1  0.25000000  0.25457890  0.00676974  1
  Ba  Ba6  1  0.75000000  0.24780916  0.25457890  1
  Ba  Ba7  1  0.25000000  0.75219084  0.74542110  1
  Ba  Ba8  1  0.75000000  0.00676974  0.75219084  1
  Ba  Ba9  1  0.25000000  0.99323026  0.24780916  1
  As  As10  1  0.75000000  0.96668578  0.37705864  1
  As  As11  1  0.25000000  0.03331422  0.62294136  1
  As  As12  1  0.75000000  0.41037286  0.03331422  1
  As  As13  1  0.25000000  0.58962714  0.96668578  1
  As  As14  1  0.75000000  0.62294136  0.58962714  1
  As  As15  1  0.25000000  0.37705864  0.41037286  1
  S  S16  1  -0.00000000  -0.00000000  -0.00000000  1
  S  S17  1  0.50000000  -0.00000000  -0.00000000  1
  O  O18  1  0.92742506  0.90932404  0.26808273  1
  O  O19  1  0.07257494  0.09067596  0.73191727  1
  O  O20  1  0.92742506  0.35875870  0.09067596  1
  O  O21  1  0.42742506  0.09067596  0.73191727  1
  O  O22  1  0.07257494  0.64124130  0.90932404  1
  O  O23  1  0.57257494  0.90932404  0.26808273  1
  O  O24  1  0.92742506  0.73191727  0.64124130  1
  O  O25  1  0.42742506  0.64124130  0.90932404  1
  O  O26  1  0.07257494  0.26808273  0.35875870  1
  O  O27  1  0.57257494  0.35875870  0.09067596  1
  O  O28  1  0.42742506  0.26808273  0.35875870  1
  O  O29  1  0.57257494  0.73191727  0.64124130  1
  O  O30  1  0.75000000  0.50996087  0.65950011  1
  O  O31  1  0.25000000  0.49003913  0.34049989  1
  O  O32  1  0.75000000  0.14953924  0.49003913  1
  O  O33  1  0.25000000  0.85046076  0.50996087  1
  O  O34  1  0.75000000  0.34049989  0.85046076  1
  O  O35  1  0.25000000  0.65950011  0.14953924  1
  O  O36  1  0.75000000  0.87585379  0.47165373  1
  O  O37  1  0.25000000  0.12414621  0.52834627  1
  O  O38  1  0.75000000  0.59579994  0.12414621  1
  O  O39  1  0.25000000  0.40420006  0.87585379  1
  O  O40  1  0.75000000  0.52834627  0.40420006  1
  O  O41  1  0.25000000  0.47165373  0.59579994  1
