# generated using pymatgen
data_Ce2Ta2O9
_symmetry_space_group_name_H-M   'P 1'
_cell_length_a   3.86411267
_cell_length_b   6.53846403
_cell_length_c   14.25878639
_cell_angle_alpha   89.52392474
_cell_angle_beta   90.00000000
_cell_angle_gamma   90.00000000
_symmetry_Int_Tables_number   1
_chemical_formula_structural   Ce2Ta2O9
_chemical_formula_sum   'Ce4 Ta4 O18'
_cell_volume   360.24095958
_cell_formula_units_Z   2
loop_
 _symmetry_equiv_pos_site_id
 _symmetry_equiv_pos_as_xyz
  1  'x, y, z'
loop_
 _atom_site_type_symbol
 _atom_site_label
 _atom_site_symmetry_multiplicity
 _atom_site_fract_x
 _atom_site_fract_y
 _atom_site_fract_z
 _atom_site_occupancy
  Ce  Ce0  1  0.00812113  0.98232605  0.71556933  1
  Ce  Ce1  1  0.99187887  0.01767395  0.28443067  1
  Ce  Ce2  1  0.50812113  0.51767395  0.78443067  1
  Ce  Ce3  1  0.49187887  0.48232605  0.21556933  1
  Ta  Ta4  1  0.00404922  0.27789673  0.95904778  1
  Ta  Ta5  1  0.99595078  0.72210327  0.04095222  1
  Ta  Ta6  1  0.50404922  0.22210327  0.54095222  1
  Ta  Ta7  1  0.49595078  0.77789673  0.45904778  1
  O  O8  1  0.99763104  0.59388580  0.91627289  1
  O  O9  1  0.00236896  0.40611420  0.08372711  1
  O  O10  1  0.49763104  0.90611420  0.58372711  1
  O  O11  1  0.50236896  0.09388580  0.41627289  1
  O  O12  1  0.50474544  0.86948143  0.78239269  1
  O  O13  1  0.49525456  0.13051857  0.21760731  1
  O  O14  1  0.00474544  0.63051857  0.71760731  1
  O  O15  1  0.99525456  0.36948143  0.28239269  1
  O  O16  1  0.00000000  0.00000000  -0.00000000  1
  O  O17  1  0.50000000  0.50000000  0.50000000  1
  O  O18  1  0.50147781  0.30984454  0.94218554  1
  O  O19  1  0.49852219  0.69015546  0.05781446  1
  O  O20  1  0.00147781  0.19015546  0.55781446  1
  O  O21  1  0.99852219  0.80984454  0.44218554  1
  O  O22  1  0.00170623  0.24347030  0.81912605  1
  O  O23  1  0.99829377  0.75652970  0.18087395  1
  O  O24  1  0.50170623  0.25652970  0.68087395  1
  O  O25  1  0.49829377  0.74347030  0.31912605  1
