# generated using pymatgen
data_Ti3Cr17Si12
_symmetry_space_group_name_H-M   'P 1'
_cell_length_a   4.63724684
_cell_length_b   6.88883581
_cell_length_c   12.97819484
_cell_angle_alpha   90.00000000
_cell_angle_beta   90.00000000
_cell_angle_gamma   109.66846067
_symmetry_Int_Tables_number   1
_chemical_formula_structural   Ti3Cr17Si12
_chemical_formula_sum   'Ti3 Cr17 Si12'
_cell_volume   390.40250709
_cell_formula_units_Z   1
loop_
 _symmetry_equiv_pos_site_id
 _symmetry_equiv_pos_as_xyz
  1  'x, y, z'
loop_
 _atom_site_type_symbol
 _atom_site_label
 _atom_site_symmetry_multiplicity
 _atom_site_fract_x
 _atom_site_fract_y
 _atom_site_fract_z
 _atom_site_occupancy
  Ti  Ti0  1  0.99971358  0.50000000  0.75000000  1
  Ti  Ti1  1  -0.00063622  0.50000000  0.25000000  1
  Ti  Ti2  1  0.49962572  0.50000000  0.75000000  1
  Cr  Cr3  1  0.92447131  0.84434100  0.35005985  1
  Cr  Cr4  1  0.42206756  0.84462512  0.85237020  1
  Cr  Cr5  1  0.58013031  0.15565900  0.14994015  1
  Cr  Cr6  1  0.07744245  0.15537488  0.64762980  1
  Cr  Cr7  1  0.14651639  0.29651642  0.07890940  1
  Cr  Cr8  1  0.64783180  0.29602026  0.57626300  1
  Cr  Cr9  1  0.34999997  0.70348358  0.42109060  1
  Cr  Cr10  1  0.85181154  0.70397974  0.92373700  1
  Cr  Cr11  1  0.34999997  0.70348358  0.07890940  1
  Cr  Cr12  1  0.85181154  0.70397974  0.57626300  1
  Cr  Cr13  1  0.14651639  0.29651642  0.42109060  1
  Cr  Cr14  1  0.64783180  0.29602026  0.92373700  1
  Cr  Cr15  1  0.58013031  0.15565900  0.35005985  1
  Cr  Cr16  1  0.07744245  0.15537488  0.85237020  1
  Cr  Cr17  1  0.92447131  0.84434100  0.14994015  1
  Cr  Cr18  1  0.42206756  0.84462512  0.64762980  1
  Cr  Cr19  1  0.50060032  0.50000000  0.25000000  1
  Si  Si20  1  0.25031333  0.00074699  0.00066429  1
  Si  Si21  1  0.74956635  0.99925301  0.49933571  1
  Si  Si22  1  0.74956635  0.99925301  0.00066429  1
  Si  Si23  1  0.25031333  0.00074699  0.49933571  1
  Si  Si24  1  0.74116731  0.50000000  0.07793569  1
  Si  Si25  1  0.24850432  0.50000000  0.57453332  1
  Si  Si26  1  0.74116731  0.50000000  0.42206431  1
  Si  Si27  1  0.24850432  0.50000000  0.92546668  1
  Si  Si28  1  0.43296853  0.84508532  0.25000000  1
  Si  Si29  1  0.92510513  0.85001066  0.75000000  1
  Si  Si30  1  0.08788322  0.15491468  0.25000000  1
  Si  Si31  1  0.57509447  0.14998934  0.75000000  1
