# generated using pymatgen
data_Er3(Co2Sn)4
_symmetry_space_group_name_H-M   'P 1'
_cell_length_a   7.50840650
_cell_length_b   8.77904082
_cell_length_c   8.77904082
_cell_angle_alpha   120.00000257
_cell_angle_beta   90.00000000
_cell_angle_gamma   90.00000000
_symmetry_Int_Tables_number   1
_chemical_formula_structural   Er3(Co2Sn)4
_chemical_formula_sum   'Er6 Co16 Sn8'
_cell_volume   501.15553846
_cell_formula_units_Z   2
loop_
 _symmetry_equiv_pos_site_id
 _symmetry_equiv_pos_as_xyz
  1  'x, y, z'
loop_
 _atom_site_type_symbol
 _atom_site_label
 _atom_site_symmetry_multiplicity
 _atom_site_fract_x
 _atom_site_fract_y
 _atom_site_fract_z
 _atom_site_occupancy
  Er  Er0  1  0.78503542  0.47533283  0.95066566  1
  Er  Er1  1  0.78503542  0.47533283  0.52466717  1
  Er  Er2  1  0.28503542  0.52466717  0.04933434  1
  Er  Er3  1  0.78503542  0.04933434  0.52466717  1
  Er  Er4  1  0.28503542  0.52466717  0.47533283  1
  Er  Er5  1  0.28503542  0.95066566  0.47533283  1
  Co  Co6  1  0.62878086  0.66666700  0.33333300  1
  Co  Co7  1  0.12878086  0.33333300  0.66666700  1
  Co  Co8  1  0.75455085  0.09945146  0.19890292  1
  Co  Co9  1  0.75455085  0.09945146  0.90054854  1
  Co  Co10  1  0.25455085  0.90054854  0.80109708  1
  Co  Co11  1  0.75455085  0.80109708  0.90054854  1
  Co  Co12  1  0.25455085  0.90054854  0.09945146  1
  Co  Co13  1  0.25455085  0.19890292  0.09945146  1
  Co  Co14  1  0.94147836  0.83918182  0.67836364  1
  Co  Co15  1  0.94147836  0.83918182  0.16081818  1
  Co  Co16  1  0.44147836  0.16081818  0.32163636  1
  Co  Co17  1  0.94147836  0.32163636  0.16081818  1
  Co  Co18  1  0.44147836  0.16081818  0.83918182  1
  Co  Co19  1  0.44147836  0.67836364  0.83918182  1
  Co  Co20  1  0.99716414  -0.00000000  -0.00000000  1
  Co  Co21  1  0.49716414  -0.00000000  -0.00000000  1
  Sn  Sn22  1  0.97879607  0.66666700  0.33333300  1
  Sn  Sn23  1  0.47879607  0.33333300  0.66666700  1
  Sn  Sn24  1  0.57238835  0.82891368  0.65782736  1
  Sn  Sn25  1  0.57238835  0.82891368  0.17108632  1
  Sn  Sn26  1  0.07238835  0.17108632  0.34217264  1
  Sn  Sn27  1  0.57238835  0.34217264  0.17108632  1
  Sn  Sn28  1  0.07238835  0.17108632  0.82891368  1
  Sn  Sn29  1  0.07238835  0.65782736  0.82891368  1
