# generated using pymatgen
data_Ba2Ca2NdTi2(CuO6)2
_symmetry_space_group_name_H-M   'P 1'
_cell_length_a   3.94866889
_cell_length_b   3.94866889
_cell_length_c   18.04785803
_cell_angle_alpha   96.28040449
_cell_angle_beta   96.28040449
_cell_angle_gamma   90.00000000
_symmetry_Int_Tables_number   1
_chemical_formula_structural   Ba2Ca2NdTi2(CuO6)2
_chemical_formula_sum   'Ba2 Ca2 Nd1 Ti2 Cu2 O12'
_cell_volume   278.01398211
_cell_formula_units_Z   1
loop_
 _symmetry_equiv_pos_site_id
 _symmetry_equiv_pos_as_xyz
  1  'x, y, z'
loop_
 _atom_site_type_symbol
 _atom_site_label
 _atom_site_symmetry_multiplicity
 _atom_site_fract_x
 _atom_site_fract_y
 _atom_site_fract_z
 _atom_site_occupancy
  Ba  Ba0  1  0.39231316  0.39231316  0.78462632  1
  Ba  Ba1  1  0.60768684  0.60768684  0.21537368  1
  Ca  Ca2  1  0.28625025  0.28625025  0.57250051  1
  Ca  Ca3  1  0.71374975  0.71374975  0.42749949  1
  Nd  Nd4  1  0.50000000  0.50000000  -0.00000000  1
  Ti  Ti5  1  0.16867677  0.16867677  0.33735355  1
  Ti  Ti6  1  0.83132323  0.83132323  0.66264645  1
  Cu  Cu7  1  0.05240570  0.05240570  0.10481141  1
  Cu  Cu8  1  0.94759430  0.94759430  0.89518859  1
  O  O9  1  0.22264665  0.22264665  0.44529331  1
  O  O10  1  0.77735335  0.77735335  0.55470669  1
  O  O11  1  0.11114882  0.11114882  0.22229763  1
  O  O12  1  0.88885118  0.88885118  0.77770237  1
  O  O13  1  0.04215773  0.54215773  0.08431546  1
  O  O14  1  0.95784227  0.45784227  0.91568454  1
  O  O15  1  0.54215773  0.04215773  0.08431546  1
  O  O16  1  0.45784227  0.95784227  0.91568454  1
  O  O17  1  0.16845115  0.66845115  0.33690230  1
  O  O18  1  0.83154885  0.33154885  0.66309770  1
  O  O19  1  0.66845115  0.16845115  0.33690230  1
  O  O20  1  0.33154885  0.83154885  0.66309770  1
