# generated using pymatgen
data_ZrCo3(BO4)2
_symmetry_space_group_name_H-M   'P 1'
_cell_length_a   3.33169270
_cell_length_b   9.37525247
_cell_length_c   9.56265634
_cell_angle_alpha   90.00000000
_cell_angle_beta   90.00000000
_cell_angle_gamma   90.00000000
_symmetry_Int_Tables_number   1
_chemical_formula_structural   ZrCo3(BO4)2
_chemical_formula_sum   'Zr2 Co6 B4 O16'
_cell_volume   298.69397166
_cell_formula_units_Z   2
loop_
 _symmetry_equiv_pos_site_id
 _symmetry_equiv_pos_as_xyz
  1  'x, y, z'
loop_
 _atom_site_type_symbol
 _atom_site_label
 _atom_site_symmetry_multiplicity
 _atom_site_fract_x
 _atom_site_fract_y
 _atom_site_fract_z
 _atom_site_occupancy
  Zr  Zr0  1  0.75000000  0.08537947  0.39862404  1
  Zr  Zr1  1  0.75000000  0.41462053  0.89862404  1
  Co  Co2  1  0.25000000  0.32762837  0.59306008  1
  Co  Co3  1  0.25000000  0.17237163  0.09306008  1
  Co  Co4  1  0.75000000  0.69052721  0.39958575  1
  Co  Co5  1  0.75000000  0.80947279  0.89958575  1
  Co  Co6  1  0.25000000  0.91700930  0.62333961  1
  Co  Co7  1  0.25000000  0.58299070  0.12333961  1
  B  B8  1  0.25000000  0.62356039  0.67148896  1
  B  B9  1  0.25000000  0.87643961  0.17148896  1
  B  B10  1  0.75000000  0.37225022  0.31864315  1
  B  B11  1  0.75000000  0.12774978  0.81864315  1
  O  O12  1  0.25000000  0.11976196  0.51818295  1
  O  O13  1  0.25000000  0.38023804  0.01818295  1
  O  O14  1  0.75000000  0.88743959  0.48829728  1
  O  O15  1  0.75000000  0.61256041  0.98829728  1
  O  O16  1  0.25000000  0.61997270  0.52913249  1
  O  O17  1  0.25000000  0.88002730  0.02913249  1
  O  O18  1  0.75000000  0.33377566  0.46007857  1
  O  O19  1  0.75000000  0.16622434  0.96007857  1
  O  O20  1  0.25000000  0.74601630  0.75162593  1
  O  O21  1  0.25000000  0.75398370  0.25162593  1
  O  O22  1  0.75000000  0.24936729  0.23223965  1
  O  O23  1  0.75000000  0.25063271  0.73223965  1
  O  O24  1  0.25000000  0.48908481  0.74504332  1
  O  O25  1  0.25000000  0.01091519  0.24504332  1
  O  O26  1  0.75000000  0.50835892  0.27065823  1
  O  O27  1  0.75000000  0.99164108  0.77065823  1
