# generated using pymatgen
data_Ba4Ti6Si4O25
_symmetry_space_group_name_H-M   'P 1'
_cell_length_a   5.93200435
_cell_length_b   10.95840944
_cell_length_c   16.94338227
_cell_angle_alpha   90.00000000
_cell_angle_beta   90.00000000
_cell_angle_gamma   105.50295058
_symmetry_Int_Tables_number   1
_chemical_formula_structural   Ba4Ti6Si4O25
_chemical_formula_sum   'Ba8 Ti12 Si8 O50'
_cell_volume   1061.33724840
_cell_formula_units_Z   2
loop_
 _symmetry_equiv_pos_site_id
 _symmetry_equiv_pos_as_xyz
  1  'x, y, z'
loop_
 _atom_site_type_symbol
 _atom_site_label
 _atom_site_symmetry_multiplicity
 _atom_site_fract_x
 _atom_site_fract_y
 _atom_site_fract_z
 _atom_site_occupancy
  Ba  Ba0  1  0.60130306  0.95278365  0.37795761  1
  Ba  Ba1  1  0.39869694  0.04721635  0.62204239  1
  Ba  Ba2  1  0.39869694  0.54721635  0.37795761  1
  Ba  Ba3  1  0.60130306  0.45278365  0.62204239  1
  Ba  Ba4  1  0.59382757  0.45184492  0.87770534  1
  Ba  Ba5  1  0.40617243  0.54815508  0.12229466  1
  Ba  Ba6  1  0.40617243  0.04815508  0.87770534  1
  Ba  Ba7  1  0.59382757  0.95184492  0.12229466  1
  Ti  Ti8  1  0.50000000  0.75000000  0.75174293  1
  Ti  Ti9  1  0.50000000  0.25000000  0.24825707  1
  Ti  Ti10  1  -0.00000000  0.75000000  0.74719756  1
  Ti  Ti11  1  -0.00000000  0.25000000  0.25280244  1
  Ti  Ti12  1  0.76329769  0.77222927  0.94849470  1
  Ti  Ti13  1  0.23670231  0.22777073  0.05150530  1
  Ti  Ti14  1  0.23670231  0.72777073  0.94849470  1
  Ti  Ti15  1  0.76329769  0.27222927  0.05150530  1
  Ti  Ti16  1  0.75808403  0.76968145  0.55127188  1
  Ti  Ti17  1  0.24191597  0.23031855  0.44872812  1
  Ti  Ti18  1  0.24191597  0.73031855  0.55127188  1
  Ti  Ti19  1  0.75808403  0.26968145  0.44872812  1
  Si  Si20  1  0.88742944  0.52739906  0.25104820  1
  Si  Si21  1  0.11257056  0.47260094  0.74895180  1
  Si  Si22  1  0.11257056  0.97260094  0.25104820  1
  Si  Si23  1  0.88742944  0.02739906  0.74895180  1
  Si  Si24  1  -0.00000000  0.75000000  0.38315696  1
  Si  Si25  1  -0.00000000  0.25000000  0.61684304  1
  Si  Si26  1  -0.00000000  0.75000000  0.11860720  1
  Si  Si27  1  -0.00000000  0.25000000  0.88139280  1
  O  O28  1  0.93908810  0.62069752  0.32876215  1
  O  O29  1  0.06091190  0.37930248  0.67123785  1
  O  O30  1  0.06091190  0.87930248  0.32876215  1
  O  O31  1  0.93908810  0.12069752  0.67123785  1
  O  O32  1  0.61605455  0.94337323  0.74728105  1
  O  O33  1  0.38394545  0.05662677  0.25271895  1
  O  O34  1  0.38394545  0.55662677  0.74728105  1
  O  O35  1  0.61605455  0.44337323  0.25271895  1
  O  O36  1  0.92382122  0.55645734  0.75074321  1
  O  O37  1  0.07617878  0.44354266  0.24925679  1
  O  O38  1  0.07617878  0.94354266  0.75074321  1
  O  O39  1  0.92382122  0.05645734  0.24925679  1
  O  O40  1  0.55902668  0.87254485  0.54752774  1
  O  O41  1  0.44097332  0.12745515  0.45247226  1
  O  O42  1  0.44097332  0.62745515  0.54752774  1
  O  O43  1  0.55902668  0.37254485  0.45247226  1
  O  O44  1  0.94018368  0.62990072  0.55524195  1
  O  O45  1  0.05981632  0.37009928  0.44475805  1
  O  O46  1  0.05981632  0.87009928  0.55524195  1
  O  O47  1  0.94018368  0.12990072  0.44475805  1
  O  O48  1  0.74441642  0.74398822  0.82498262  1
  O  O49  1  0.25558358  0.25601178  0.17501738  1
  O  O50  1  0.25558358  0.75601178  0.82498262  1
  O  O51  1  0.74441642  0.24398822  0.17501738  1
  O  O52  1  0.76619844  0.75069810  0.43248544  1
  O  O53  1  0.23380156  0.24930190  0.56751456  1
  O  O54  1  0.23380156  0.74930190  0.43248544  1
  O  O55  1  0.76619844  0.25069810  0.56751456  1
  O  O56  1  0.92206321  0.12153338  0.82629337  1
  O  O57  1  0.07793679  0.87846662  0.17370663  1
  O  O58  1  0.07793679  0.37846662  0.82629337  1
  O  O59  1  0.92206321  0.62153338  0.17370663  1
  O  O60  1  0.77072167  0.25610246  0.93173648  1
  O  O61  1  0.22927833  0.74389754  0.06826352  1
  O  O62  1  0.22927833  0.24389754  0.93173648  1
  O  O63  1  0.77072167  0.75610246  0.06826352  1
  O  O64  1  0.50000000  0.75000000  0.25182263  1
  O  O65  1  0.50000000  0.25000000  0.74817737  1
  O  O66  1  0.93557119  0.62932492  0.94352036  1
  O  O67  1  0.06442881  0.37067508  0.05647964  1
  O  O68  1  0.06442881  0.87067508  0.94352036  1
  O  O69  1  0.93557119  0.12932492  0.05647964  1
  O  O70  1  0.74552657  0.74094547  0.67321033  1
  O  O71  1  0.25447343  0.25905453  0.32678967  1
  O  O72  1  0.25447343  0.75905453  0.67321033  1
  O  O73  1  0.74552657  0.24094547  0.32678967  1
  O  O74  1  0.55819583  0.87233164  0.95229804  1
  O  O75  1  0.44180417  0.12766836  0.04770196  1
  O  O76  1  0.44180417  0.62766836  0.95229804  1
  O  O77  1  0.55819583  0.37233164  0.04770196  1
