# generated using pymatgen
data_Tc3Pd
_symmetry_space_group_name_H-M   'P 1'
_cell_length_a   2.74235447
_cell_length_b   2.74235447
_cell_length_c   9.20999170
_cell_angle_alpha   81.43801332
_cell_angle_beta   98.56198668
_cell_angle_gamma   120.00000000
_symmetry_Int_Tables_number   1
_chemical_formula_structural   Tc3Pd
_chemical_formula_sum   'Tc3 Pd1'
_cell_volume   59.09120832
_cell_formula_units_Z   1
loop_
 _symmetry_equiv_pos_site_id
 _symmetry_equiv_pos_as_xyz
  1  'x, y, z'
loop_
 _atom_site_type_symbol
 _atom_site_label
 _atom_site_symmetry_multiplicity
 _atom_site_fract_x
 _atom_site_fract_y
 _atom_site_fract_z
 _atom_site_occupancy
  Tc  Tc0  1  0.75209618  0.24790382  0.25628853  1
  Tc  Tc1  1  0.50000000  0.50000000  0.50000000  1
  Tc  Tc2  1  0.24790382  0.75209618  0.74371147  1
  Pd  Pd3  1  -0.00000000  -0.00000000  -0.00000000  1
