# generated using pymatgen
data_ZrNbV
_symmetry_space_group_name_H-M   'P 1'
_cell_length_a   5.40862308
_cell_length_b   5.40768946
_cell_length_c   8.69585936
_cell_angle_alpha   90.00000000
_cell_angle_beta   90.00000000
_cell_angle_gamma   60.76481356
_symmetry_Int_Tables_number   1
_chemical_formula_structural   ZrNbV
_chemical_formula_sum   'Zr4 Nb4 V4'
_cell_volume   221.94086766
_cell_formula_units_Z   4
loop_
 _symmetry_equiv_pos_site_id
 _symmetry_equiv_pos_as_xyz
  1  'x, y, z'
loop_
 _atom_site_type_symbol
 _atom_site_label
 _atom_site_symmetry_multiplicity
 _atom_site_fract_x
 _atom_site_fract_y
 _atom_site_fract_z
 _atom_site_occupancy
  Zr  Zr0  1  0.33314791  0.33315610  0.55737139  1
  Zr  Zr1  1  0.66730903  0.66731019  0.42957667  1
  Zr  Zr2  1  0.66730903  0.66731019  0.07042333  1
  Zr  Zr3  1  0.33314791  0.33315610  0.94262861  1
  Nb  Nb4  1  0.99761357  0.99754125  0.48723682  1
  Nb  Nb5  1  0.99761357  0.99754125  0.01276318  1
  Nb  Nb6  1  0.82920194  0.34442560  0.75000000  1
  Nb  Nb7  1  0.34444829  0.82919607  0.75000000  1
  V  V8  1  0.83076509  0.83078913  0.75000000  1
  V  V9  1  0.17675416  0.64637235  0.25000000  1
  V  V10  1  0.64633480  0.17680062  0.25000000  1
  V  V11  1  0.17635470  0.17640114  0.25000000  1
