# generated using pymatgen
data_Zr5AlNi4
_symmetry_space_group_name_H-M   'P 1'
_cell_length_a   6.61255064
_cell_length_b   7.24026748
_cell_length_c   7.24026748
_cell_angle_alpha   90.00000000
_cell_angle_beta   90.00000000
_cell_angle_gamma   90.00000000
_symmetry_Int_Tables_number   1
_chemical_formula_structural   Zr5AlNi4
_chemical_formula_sum   'Zr10 Al2 Ni8'
_cell_volume   346.63964604
_cell_formula_units_Z   2
loop_
 _symmetry_equiv_pos_site_id
 _symmetry_equiv_pos_as_xyz
  1  'x, y, z'
loop_
 _atom_site_type_symbol
 _atom_site_label
 _atom_site_symmetry_multiplicity
 _atom_site_fract_x
 _atom_site_fract_y
 _atom_site_fract_z
 _atom_site_occupancy
  Zr  Zr0  1  0.50000000  0.32042192  0.67957808  1
  Zr  Zr1  1  0.50000000  0.67957808  0.32042192  1
  Zr  Zr2  1  0.00000000  0.17957808  0.17957808  1
  Zr  Zr3  1  0.00000000  0.82042192  0.82042192  1
  Zr  Zr4  1  0.50000000  0.83873824  0.83873824  1
  Zr  Zr5  1  0.50000000  0.16126176  0.16126176  1
  Zr  Zr6  1  0.00000000  0.66126176  0.33873824  1
  Zr  Zr7  1  0.00000000  0.33873824  0.66126176  1
  Zr  Zr8  1  0.25000000  -0.00000000  0.50000000  1
  Zr  Zr9  1  0.75000000  0.50000000  0.00000000  1
  Al  Al10  1  0.75000000  -0.00000000  0.50000000  1
  Al  Al11  1  0.25000000  0.50000000  0.00000000  1
  Ni  Ni12  1  0.22609490  0.12481529  0.87544952  1
  Ni  Ni13  1  0.22609490  0.87518471  0.12455048  1
  Ni  Ni14  1  0.72609490  0.37518471  0.37544952  1
  Ni  Ni15  1  0.72609490  0.62481529  0.62455048  1
  Ni  Ni16  1  0.77390510  0.87544952  0.12481529  1
  Ni  Ni17  1  0.77390510  0.12455048  0.87518471  1
  Ni  Ni18  1  0.27390510  0.62455048  0.62481529  1
  Ni  Ni19  1  0.27390510  0.37544952  0.37518471  1
