# generated using pymatgen
data_Zn2GaAgSe4
_symmetry_space_group_name_H-M   'P 1'
_cell_length_a   4.08502782
_cell_length_b   7.19859121
_cell_length_c   6.78496467
_cell_angle_alpha   90.15995647
_cell_angle_beta   90.00025615
_cell_angle_gamma   89.99907941
_symmetry_Int_Tables_number   1
_chemical_formula_structural   Zn2GaAgSe4
_chemical_formula_sum   'Zn2 Ga1 Ag1 Se4'
_cell_volume   199.52091542
_cell_formula_units_Z   1
loop_
 _symmetry_equiv_pos_site_id
 _symmetry_equiv_pos_as_xyz
  1  'x, y, z'
loop_
 _atom_site_type_symbol
 _atom_site_label
 _atom_site_symmetry_multiplicity
 _atom_site_fract_x
 _atom_site_fract_y
 _atom_site_fract_z
 _atom_site_occupancy
  Zn  Zn0  1  0.49999269  0.83355753  0.51491421  1
  Zn  Zn1  1  0.00000444  0.67349477  0.98554750  1
  Ga  Ga2  1  0.50000319  0.15789879  0.98550678  1
  Ag  Ag3  1  0.99999942  0.33704311  0.50394801  1
  Se  Se4  1  0.99999619  0.33191015  0.11194026  1
  Se  Se5  1  0.49999829  0.83592915  0.13311539  1
  Se  Se6  1  0.50000674  0.15200235  0.63475283  1
  Se  Se7  1  -0.00000096  0.67816416  0.62627503  1
