# generated using pymatgen
data_YThC3
_symmetry_space_group_name_H-M   'P 1'
_cell_length_a   7.29896215
_cell_length_b   7.29896215
_cell_length_c   7.29896215
_cell_angle_alpha   70.52877937
_cell_angle_beta   70.52877937
_cell_angle_gamma   109.47122063
_symmetry_Int_Tables_number   1
_chemical_formula_structural   YThC3
_chemical_formula_sum   'Y4 Th4 C12'
_cell_volume   299.33771783
_cell_formula_units_Z   4
loop_
 _symmetry_equiv_pos_site_id
 _symmetry_equiv_pos_as_xyz
  1  'x, y, z'
loop_
 _atom_site_type_symbol
 _atom_site_label
 _atom_site_symmetry_multiplicity
 _atom_site_fract_x
 _atom_site_fract_y
 _atom_site_fract_z
 _atom_site_occupancy
  Y  Y0  1  0.50000000  0.59630332  -0.00000000  1
  Y  Y1  1  0.40369668  0.90369668  0.59630332  1
  Y  Y2  1  0.09630332  0.50000000  0.50000000  1
  Y  Y3  1  -0.00000000  -0.00000000  0.90369668  1
  Th  Th4  1  0.90528297  0.40528297  0.09471703  1
  Th  Th5  1  0.50000000  0.09471703  -0.00000000  1
  Th  Th6  1  0.59471703  0.50000000  0.50000000  1
  Th  Th7  1  0.00000000  0.00000000  0.40528297  1
  C  C8  1  0.45132447  0.25000000  0.29867553  1
  C  C9  1  0.04867553  0.75000000  0.20132447  1
  C  C10  1  0.21229381  0.75000000  0.03770619  1
  C  C11  1  0.28770619  0.25000000  0.46229381  1
  C  C12  1  0.79867553  0.54867553  0.75000000  1
  C  C13  1  0.70132447  0.95132447  0.25000000  1
  C  C14  1  0.53770619  0.78770619  0.25000000  1
  C  C15  1  0.96229381  0.71229381  0.75000000  1
  C  C16  1  0.75000000  0.20132447  0.54867553  1
  C  C17  1  0.25000000  0.29867553  0.95132447  1
  C  C18  1  0.25000000  0.46229381  0.78770619  1
  C  C19  1  0.75000000  0.03770619  0.71229381  1
