# generated using pymatgen
data_VPO5
_symmetry_space_group_name_H-M   'P 1'
_cell_length_a   5.19809080
_cell_length_b   5.19809080
_cell_length_c   7.06525384
_cell_angle_alpha   71.91077649
_cell_angle_beta   71.91077649
_cell_angle_gamma   94.59275727
_symmetry_Int_Tables_number   1
_chemical_formula_structural   VPO5
_chemical_formula_sum   'V2 P2 O10'
_cell_volume   169.17724258
_cell_formula_units_Z   2
loop_
 _symmetry_equiv_pos_site_id
 _symmetry_equiv_pos_as_xyz
  1  'x, y, z'
loop_
 _atom_site_type_symbol
 _atom_site_label
 _atom_site_symmetry_multiplicity
 _atom_site_fract_x
 _atom_site_fract_y
 _atom_site_fract_z
 _atom_site_occupancy
  V  V0  1  0.50000000  0.00000000  0.50000000  1
  V  V1  1  0.50000000  0.00000000  -0.00000000  1
  P  P2  1  0.85706020  0.64293980  0.25000000  1
  P  P3  1  0.14293980  0.35706020  0.75000000  1
  O  O4  1  0.71086027  0.73006036  0.08504311  1
  O  O5  1  0.23006036  0.21086027  0.58504311  1
  O  O6  1  0.21790157  0.67078114  0.63372749  1
  O  O7  1  0.17078114  0.71790157  0.13372749  1
  O  O8  1  0.28913973  0.26993964  0.91495689  1
  O  O9  1  0.76993964  0.78913973  0.41495689  1
  O  O10  1  0.78209843  0.32921886  0.36627251  1
  O  O11  1  0.82921886  0.28209843  0.86627251  1
  O  O12  1  0.55807990  0.94192010  0.75000000  1
  O  O13  1  0.44192010  0.05807990  0.25000000  1
