# generated using pymatgen
data_Tm2FeSi4
_symmetry_space_group_name_H-M   'P 1'
_cell_length_a   3.95863343
_cell_length_b   4.06532433
_cell_length_c   7.72297759
_cell_angle_alpha   74.74017554
_cell_angle_beta   90.00000000
_cell_angle_gamma   90.00000000
_symmetry_Int_Tables_number   1
_chemical_formula_structural   Tm2FeSi4
_chemical_formula_sum   'Tm2 Fe1 Si4'
_cell_volume   119.90479229
_cell_formula_units_Z   1
loop_
 _symmetry_equiv_pos_site_id
 _symmetry_equiv_pos_as_xyz
  1  'x, y, z'
loop_
 _atom_site_type_symbol
 _atom_site_label
 _atom_site_symmetry_multiplicity
 _atom_site_fract_x
 _atom_site_fract_y
 _atom_site_fract_z
 _atom_site_occupancy
  Tm  Tm0  1  0.25000000  0.89734086  0.20531828  1
  Tm  Tm1  1  0.75000000  0.09994032  0.80011936  1
  Fe  Fe2  1  0.25000000  0.69364534  0.61270932  1
  Si  Si3  1  0.25000000  0.54301578  0.91396844  1
  Si  Si4  1  0.75000000  0.43542613  0.12914773  1
  Si  Si5  1  0.25000000  0.25694974  0.48610052  1
  Si  Si6  1  0.75000000  0.75768183  0.48463635  1
