# generated using pymatgen
data_V2FeSe4
_symmetry_space_group_name_H-M   'P 1'
_cell_length_a   3.42384447
_cell_length_b   6.27690573
_cell_length_c   6.88487808
_cell_angle_alpha   116.43199604
_cell_angle_beta   75.60237833
_cell_angle_gamma   90.00000000
_symmetry_Int_Tables_number   1
_chemical_formula_structural   V2FeSe4
_chemical_formula_sum   'V2 Fe1 Se4'
_cell_volume   127.28579331
_cell_formula_units_Z   1
loop_
 _symmetry_equiv_pos_site_id
 _symmetry_equiv_pos_as_xyz
  1  'x, y, z'
loop_
 _atom_site_type_symbol
 _atom_site_label
 _atom_site_symmetry_multiplicity
 _atom_site_fract_x
 _atom_site_fract_y
 _atom_site_fract_z
 _atom_site_occupancy
  V  V0  1  0.00048495  0.00274085  0.99903010  1
  V  V1  1  0.74980192  0.31452537  0.50039616  1
  Fe  Fe2  1  0.25174247  0.67964468  0.49651507  1
  Se  Se3  1  0.11004115  0.54611870  0.77991770  1
  Se  Se4  1  0.88922071  0.45615347  0.22155858  1
  Se  Se5  1  0.36058899  0.97881366  0.27882201  1
  Se  Se6  1  0.63811981  0.02200326  0.72376039  1
