# generated using pymatgen
data_YZrCo6
_symmetry_space_group_name_H-M   'P 1'
_cell_length_a   4.85132329
_cell_length_b   4.85132329
_cell_length_c   16.40017801
_cell_angle_alpha   98.50551332
_cell_angle_beta   98.50551332
_cell_angle_gamma   59.99999027
_symmetry_Int_Tables_number   1
_chemical_formula_structural   YZrCo6
_chemical_formula_sum   'Y3 Zr3 Co18'
_cell_volume   329.36063982
_cell_formula_units_Z   3
loop_
 _symmetry_equiv_pos_site_id
 _symmetry_equiv_pos_as_xyz
  1  'x, y, z'
loop_
 _atom_site_type_symbol
 _atom_site_label
 _atom_site_symmetry_multiplicity
 _atom_site_fract_x
 _atom_site_fract_y
 _atom_site_fract_z
 _atom_site_occupancy
  Y  Y0  1  0.43050414  0.43050414  0.29151241  1
  Y  Y1  1  0.92989441  0.92989441  0.78968323  1
  Y  Y2  1  0.06947197  0.06947197  0.20841591  1
  Zr  Zr3  1  0.56822659  0.56822659  0.70467976  1
  Zr  Zr4  1  0.99983940  0.99983940  0.99951819  1
  Zr  Zr5  1  0.50034024  0.50034024  0.50102071  1
  Co  Co6  1  0.46211003  0.95984897  0.38180797  1
  Co  Co7  1  0.95900074  0.45979968  0.87860009  1
  Co  Co8  1  0.95984897  0.95984897  0.38180797  1
  Co  Co9  1  0.45979968  0.45979968  0.87860009  1
  Co  Co10  1  0.95984897  0.46211003  0.38180797  1
  Co  Co11  1  0.45979968  0.95900074  0.87860009  1
  Co  Co12  1  0.03834995  0.54027160  0.11889314  1
  Co  Co13  1  0.53967916  0.04120407  0.62208730  1
  Co  Co14  1  0.54027160  0.54027160  0.11889314  1
  Co  Co15  1  0.04120407  0.04120407  0.62208730  1
  Co  Co16  1  0.54027160  0.03834995  0.11889314  1
  Co  Co17  1  0.04120407  0.53967916  0.62208730  1
  Co  Co18  1  0.33303522  0.33303522  -0.00089435  1
  Co  Co19  1  0.83412477  0.83412477  0.50237432  1
  Co  Co20  1  0.16710256  0.16710256  0.50130767  1
  Co  Co21  1  0.66623592  0.66623592  0.99870776  1
  Co  Co22  1  0.75001801  0.75001801  0.25005404  1
  Co  Co23  1  0.24981828  0.24981828  0.74945484  1
