# generated using pymatgen
data_U5SiS4
_symmetry_space_group_name_H-M   'P 1'
_cell_length_a   5.51691538
_cell_length_b   6.75963465
_cell_length_c   6.75963465
_cell_angle_alpha   99.58599118
_cell_angle_beta   114.08415561
_cell_angle_gamma   65.91584437
_symmetry_Int_Tables_number   1
_chemical_formula_structural   U5SiS4
_chemical_formula_sum   'U5 Si1 S4'
_cell_volume   210.10382513
_cell_formula_units_Z   1
loop_
 _symmetry_equiv_pos_site_id
 _symmetry_equiv_pos_as_xyz
  1  'x, y, z'
loop_
 _atom_site_type_symbol
 _atom_site_label
 _atom_site_symmetry_multiplicity
 _atom_site_fract_x
 _atom_site_fract_y
 _atom_site_fract_z
 _atom_site_occupancy
  U  U0  1  0.79888101  0.59667522  0.19443725  1
  U  U1  1  0.40000000  0.80000000  0.60000000  1
  U  U2  1  0.00111899  0.00332478  0.00556275  1
  U  U3  1  0.59555624  0.20556275  0.39667522  1
  U  U4  1  0.20444376  0.39443725  0.80332478  1
  Si  Si5  1  0.90000000  0.80000000  0.60000000  1
  S  S6  1  0.50247891  0.99662456  0.00158239  1
  S  S7  1  0.10089653  0.20158239  0.40337544  1
  S  S8  1  0.69910347  0.39841761  0.79662456  1
  S  S9  1  0.29752109  0.60337544  0.19841761  1
