# generated using pymatgen
data_Tb3Mn3Ga2Ge
_symmetry_space_group_name_H-M   'P 1'
_cell_length_a   4.17051397
_cell_length_b   7.05109019
_cell_length_c   7.04483350
_cell_angle_alpha   59.94029347
_cell_angle_beta   90.00000000
_cell_angle_gamma   90.00000000
_symmetry_Int_Tables_number   1
_chemical_formula_structural   Tb3Mn3Ga2Ge
_chemical_formula_sum   'Tb3 Mn3 Ga2 Ge1'
_cell_volume   179.30219666
_cell_formula_units_Z   1
loop_
 _symmetry_equiv_pos_site_id
 _symmetry_equiv_pos_as_xyz
  1  'x, y, z'
loop_
 _atom_site_type_symbol
 _atom_site_label
 _atom_site_symmetry_multiplicity
 _atom_site_fract_x
 _atom_site_fract_y
 _atom_site_fract_z
 _atom_site_occupancy
  Tb  Tb0  1  0.50000000  0.58109041  0.41751596  1
  Tb  Tb1  1  0.50000000  0.41688218  0.00124182  1
  Tb  Tb2  1  0.50000000  0.00129036  0.58145616  1
  Mn  Mn3  1  -0.00000000  0.23202244  0.76406027  1
  Mn  Mn4  1  -0.00000000  0.76388316  0.00425039  1
  Mn  Mn5  1  0.00000000  0.00448006  0.23149091  1
  Ga  Ga6  1  -0.00000000  0.66659308  0.66670890  1
  Ga  Ga7  1  0.50000000  0.00046971  0.99974858  1
  Ge  Ge8  1  0.00000000  0.33318861  0.33362701  1
