# generated using pymatgen
data_Ti3Fe3(BiO3)7
_symmetry_space_group_name_H-M   'P 1'
_cell_length_a   4.04050199
_cell_length_b   4.04050199
_cell_length_c   28.39943672
_cell_angle_alpha   85.80550427
_cell_angle_beta   86.31916429
_cell_angle_gamma   91.98703202
_symmetry_Int_Tables_number   1
_chemical_formula_structural   Ti3Fe3(BiO3)7
_chemical_formula_sum   'Ti3 Fe3 Bi7 O21'
_cell_volume   461.08258025
_cell_formula_units_Z   1
loop_
 _symmetry_equiv_pos_site_id
 _symmetry_equiv_pos_as_xyz
  1  'x, y, z'
loop_
 _atom_site_type_symbol
 _atom_site_label
 _atom_site_symmetry_multiplicity
 _atom_site_fract_x
 _atom_site_fract_y
 _atom_site_fract_z
 _atom_site_occupancy
  Ti  Ti0  1  0.43245505  0.49586576  0.07167918  1
  Ti  Ti1  1  0.67124986  0.68823894  0.64051120  1
  Ti  Ti2  1  0.31037638  0.33164978  0.35797384  1
  Fe  Fe3  1  0.48839222  0.58148706  0.93012072  1
  Fe  Fe4  1  0.57604811  0.63756978  0.78638212  1
  Fe  Fe5  1  0.35661370  0.43059840  0.21278789  1
  Bi  Bi6  1  0.90679674  0.80351393  0.28968933  1
  Bi  Bi7  1  0.20243073  0.08965081  0.70791846  1
  Bi  Bi8  1  0.02764959  0.97871261  0.99363780  1
  Bi  Bi9  1  0.95652973  0.89499842  0.14847185  1
  Bi  Bi10  1  0.11694843  0.03350573  0.84954584  1
  Bi  Bi11  1  0.85963906  0.68559932  0.45476161  1
  Bi  Bi12  1  0.31220828  0.14523651  0.54255521  1
  O  O13  1  0.23951817  0.33990370  0.42057812  1
  O  O14  1  0.66208679  0.75933289  0.57858032  1
  O  O15  1  0.40092429  0.59572712  0.00334860  1
  O  O16  1  0.61634183  0.21681491  0.65151010  1
  O  O17  1  0.77795194  0.39096996  0.34757764  1
  O  O18  1  0.13167499  0.73214808  0.65151010  1
  O  O19  1  0.26145240  0.87447043  0.34757764  1
  O  O20  1  0.48579959  0.65420233  0.85999808  1
  O  O21  1  0.33722338  0.52256685  0.14020977  1
  O  O22  1  0.96471769  0.63225387  0.93542219  1
  O  O23  1  0.36699625  0.04533509  0.07232851  1
  O  O24  1  0.43232394  0.09986012  0.93542219  1
  O  O25  1  0.88233641  0.56067525  0.07232851  1
  O  O26  1  0.27827563  0.72097336  0.49943029  1
  O  O27  1  0.77959635  0.22229408  0.49943029  1
  O  O28  1  0.51765866  0.15678641  0.79137597  1
  O  O29  1  0.83671072  0.48988393  0.20821982  1
  O  O30  1  0.05183762  0.69096538  0.79137597  1
  O  O31  1  0.30189624  0.95506945  0.20821982  1
  O  O32  1  0.57211805  0.71070148  0.71718047  1
  O  O33  1  0.28422118  0.43343827  0.28234055  1
