# generated using pymatgen
data_Th3U3P8
_symmetry_space_group_name_H-M   'P 1'
_cell_length_a   7.31604900
_cell_length_b   7.31604900
_cell_length_c   7.28533185
_cell_angle_alpha   70.36292986
_cell_angle_beta   70.76739876
_cell_angle_gamma   109.71422989
_symmetry_Int_Tables_number   1
_chemical_formula_structural   Th3U3P8
_chemical_formula_sum   'Th3 U3 P8'
_cell_volume   299.54234111
_cell_formula_units_Z   1
loop_
 _symmetry_equiv_pos_site_id
 _symmetry_equiv_pos_as_xyz
  1  'x, y, z'
loop_
 _atom_site_type_symbol
 _atom_site_label
 _atom_site_symmetry_multiplicity
 _atom_site_fract_x
 _atom_site_fract_y
 _atom_site_fract_z
 _atom_site_occupancy
  Th  Th0  1  0.37456132  0.24699067  0.37405256  1
  Th  Th1  1  0.12104323  0.74861388  0.12594744  1
  Th  Th2  1  0.87803614  0.62803614  0.75000000  1
  U  U3  1  0.62214506  0.87214506  0.25000000  1
  U  U4  1  0.75161021  0.12831062  0.62368110  1
  U  U5  1  0.25199172  0.37529131  0.87631890  1
  P  P6  1  0.84573470  0.32736417  0.16289068  1
  P  P7  1  0.50501897  0.15761624  0.99383371  1
  P  P8  1  0.65144995  0.49885268  0.50616629  1
  P  P9  1  0.99025485  0.00862539  0.33710932  1
  P  P10  1  0.50089130  0.66577142  0.99399326  1
  P  P11  1  0.35513485  0.83716896  0.65519405  1
  P  P12  1  0.15976468  0.49488456  0.50600674  1
  P  P13  1  0.99236301  0.01032890  0.84480595  1
