# generated using pymatgen
data_ThFeNi4
_symmetry_space_group_name_H-M   'P 1'
_cell_length_a   4.01316522
_cell_length_b   4.95243310
_cell_length_c   4.95742601
_cell_angle_alpha   59.96663885
_cell_angle_beta   90.00000004
_cell_angle_gamma   90.00319475
_symmetry_Int_Tables_number   1
_chemical_formula_structural   ThFeNi4
_chemical_formula_sum   'Th1 Fe1 Ni4'
_cell_volume   85.29949009
_cell_formula_units_Z   1
loop_
 _symmetry_equiv_pos_site_id
 _symmetry_equiv_pos_as_xyz
  1  'x, y, z'
loop_
 _atom_site_type_symbol
 _atom_site_label
 _atom_site_symmetry_multiplicity
 _atom_site_fract_x
 _atom_site_fract_y
 _atom_site_fract_z
 _atom_site_occupancy
  Th  Th0  1  0.99716990  0.99996981  0.00001509  1
  Fe  Fe1  1  0.00102739  0.33344496  0.33327752  1
  Ni  Ni2  1  -0.00042019  0.66661355  0.66669323  1
  Ni  Ni3  1  0.50074580  0.49984915  0.00028457  1
  Ni  Ni4  1  0.50074580  0.49984915  0.49986628  1
  Ni  Ni5  1  0.50073132  0.00027337  0.49986331  1
