# generated using pymatgen
data_Tb2Si3
_symmetry_space_group_name_H-M   'P 1'
_cell_length_a   4.02283065
_cell_length_b   3.89961654
_cell_length_c   7.43847571
_cell_angle_alpha   74.80383185
_cell_angle_beta   74.31152172
_cell_angle_gamma   90.00000000
_symmetry_Int_Tables_number   1
_chemical_formula_structural   Tb2Si3
_chemical_formula_sum   'Tb2 Si3'
_cell_volume   108.09969586
_cell_formula_units_Z   1
loop_
 _symmetry_equiv_pos_site_id
 _symmetry_equiv_pos_as_xyz
  1  'x, y, z'
loop_
 _atom_site_type_symbol
 _atom_site_label
 _atom_site_symmetry_multiplicity
 _atom_site_fract_x
 _atom_site_fract_y
 _atom_site_fract_z
 _atom_site_occupancy
  Tb  Tb0  1  0.87695522  0.62695522  0.74608955  1
  Tb  Tb1  1  0.12311854  0.37311854  0.25376292  1
  Si  Si2  1  0.45133503  0.20133503  0.59732993  1
  Si  Si3  1  0.55116544  0.80116544  0.39766911  1
  Si  Si4  1  0.28222576  0.03222576  0.93554848  1
