# generated using pymatgen
data_Te15W2(Br6O)2
_symmetry_space_group_name_H-M   'P 1'
_cell_length_a   7.92830738
_cell_length_b   15.49122245
_cell_length_c   8.83759758
_cell_angle_alpha   84.61526936
_cell_angle_beta   103.01366756
_cell_angle_gamma   82.60812345
_symmetry_Int_Tables_number   1
_chemical_formula_structural   Te15W2(Br6O)2
_chemical_formula_sum   'Te15 W2 Br12 O2'
_cell_volume   1040.25331138
_cell_formula_units_Z   1
loop_
 _symmetry_equiv_pos_site_id
 _symmetry_equiv_pos_as_xyz
  1  'x, y, z'
loop_
 _atom_site_type_symbol
 _atom_site_label
 _atom_site_symmetry_multiplicity
 _atom_site_fract_x
 _atom_site_fract_y
 _atom_site_fract_z
 _atom_site_occupancy
  Te  Te0  1  0.05902960  0.64873399  0.88973773  1
  Te  Te1  1  0.55966720  0.65046315  0.88616319  1
  Te  Te2  1  0.94840908  0.34327907  0.12944537  1
  Te  Te3  1  0.44518544  0.34299321  0.12916745  1
  Te  Te4  1  0.95364105  0.80640022  0.62567424  1
  Te  Te5  1  0.45399932  0.80778752  0.62219464  1
  Te  Te6  1  0.05296795  0.20054071  0.37634415  1
  Te  Te7  1  0.53346184  0.20099648  0.37710097  1
  Te  Te8  1  0.18948647  0.46383066  0.22084320  1
  Te  Te9  1  0.69518467  0.45358981  0.23479555  1
  Te  Te10  1  0.80664837  0.54016904  0.77065472  1
  Te  Te11  1  0.30895915  0.54026216  0.77102113  1
  Te  Te12  1  0.17784403  0.73455861  0.44829922  1
  Te  Te13  1  0.67871256  0.73177708  0.44730031  1
  Te  Te14  1  0.82334657  0.25402503  0.54731271  1
  W  W15  1  0.22551237  0.00034593  0.99980936  1
  W  W16  1  0.72340124  0.00022416  0.99818473  1
  Br  Br17  1  0.79442745  0.83148928  0.02068992  1
  Br  Br18  1  0.29412998  0.83201443  0.02300937  1
  Br  Br19  1  0.19740690  0.16899004  0.97211336  1
  Br  Br20  1  0.69360141  0.16713969  0.95941476  1
  Br  Br21  1  0.82510847  0.99124522  0.29439577  1
  Br  Br22  1  0.32452698  0.99421730  0.29742208  1
  Br  Br23  1  0.17220375  0.00568441  0.69991651  1
  Br  Br24  1  0.66978538  0.00371616  0.69787284  1
  Br  Br25  1  0.92097161  0.60391400  0.30409788  1
  Br  Br26  1  0.42945484  0.60433460  0.30355516  1
  Br  Br27  1  0.07503730  0.41135934  0.69797318  1
  Br  Br28  1  0.56627067  0.41185308  0.69460602  1
  O  O29  1  0.99066700  0.99987890  0.99806518  1
  O  O30  1  0.49022635  0.99970672  0.99883930  1
