# generated using pymatgen
data_Tl3Mo15Se19
_symmetry_space_group_name_H-M   'P 1'
_cell_length_a   10.12538235
_cell_length_b   9.95673355
_cell_length_c   19.76585786
_cell_angle_alpha   90.00000000
_cell_angle_beta   90.00000000
_cell_angle_gamma   119.88166213
_symmetry_Int_Tables_number   1
_chemical_formula_structural   Tl3Mo15Se19
_chemical_formula_sum   'Tl6 Mo30 Se38'
_cell_volume   1727.79119902
_cell_formula_units_Z   2
loop_
 _symmetry_equiv_pos_site_id
 _symmetry_equiv_pos_as_xyz
  1  'x, y, z'
loop_
 _atom_site_type_symbol
 _atom_site_label
 _atom_site_symmetry_multiplicity
 _atom_site_fract_x
 _atom_site_fract_y
 _atom_site_fract_z
 _atom_site_occupancy
  Tl  Tl0  1  0.66590181  0.32617783  0.62747650  1
  Tl  Tl1  1  0.33409819  0.67382217  0.12747650  1
  Tl  Tl2  1  0.33409819  0.67382217  0.37252350  1
  Tl  Tl3  1  0.66590181  0.32617783  0.87252350  1
  Tl  Tl4  1  0.81893713  0.76828205  0.75000000  1
  Tl  Tl5  1  0.18106287  0.23171795  0.25000000  1
  Mo  Mo6  1  0.34411221  0.82696316  0.75000000  1
  Mo  Mo7  1  0.17396619  0.50893422  0.75000000  1
  Mo  Mo8  1  0.49168071  0.65571039  0.75000000  1
  Mo  Mo9  1  0.65588779  0.17303684  0.25000000  1
  Mo  Mo10  1  0.82603381  0.49106578  0.25000000  1
  Mo  Mo11  1  0.50831929  0.34428961  0.25000000  1
  Mo  Mo12  1  0.18834782  0.68137205  0.63442094  1
  Mo  Mo13  1  0.31379158  0.50432208  0.63554959  1
  Mo  Mo14  1  0.48955632  0.81292937  0.63506803  1
  Mo  Mo15  1  0.81165218  0.31862795  0.13442094  1
  Mo  Mo16  1  0.68620842  0.49567792  0.13554959  1
  Mo  Mo17  1  0.51044368  0.18707063  0.13506803  1
  Mo  Mo18  1  0.81165218  0.31862795  0.36557906  1
  Mo  Mo19  1  0.68620842  0.49567792  0.36445041  1
  Mo  Mo20  1  0.51044368  0.18707063  0.36493197  1
  Mo  Mo21  1  0.18834782  0.68137205  0.86557906  1
  Mo  Mo22  1  0.31379158  0.50432208  0.86445041  1
  Mo  Mo23  1  0.48955632  0.81292937  0.86493197  1
  Mo  Mo24  1  0.14761312  0.98441180  0.55624314  1
  Mo  Mo25  1  0.01427614  0.16397146  0.55471262  1
  Mo  Mo26  1  0.84125849  0.85445331  0.55739345  1
  Mo  Mo27  1  0.85238688  0.01558820  0.05624314  1
  Mo  Mo28  1  0.98572386  0.83602854  0.05471262  1
  Mo  Mo29  1  0.15874151  0.14554669  0.05739345  1
  Mo  Mo30  1  0.85238688  0.01558820  0.44375686  1
  Mo  Mo31  1  0.98572386  0.83602854  0.44528738  1
  Mo  Mo32  1  0.15874151  0.14554669  0.44260655  1
  Mo  Mo33  1  0.14761312  0.98441180  0.94375686  1
  Mo  Mo34  1  0.01427614  0.16397146  0.94528738  1
  Mo  Mo35  1  0.84125849  0.85445331  0.94260655  1
  Se  Se36  1  0.05036121  0.68255235  0.75000000  1
  Se  Se37  1  0.31953254  0.35692903  0.75000000  1
  Se  Se38  1  0.63756866  0.96057628  0.75000000  1
  Se  Se39  1  0.94963879  0.31744765  0.25000000  1
  Se  Se40  1  0.68046746  0.64307097  0.25000000  1
  Se  Se41  1  0.36243134  0.03942372  0.25000000  1
  Se  Se42  1  0.01515721  0.01316202  0.65875087  1
  Se  Se43  1  0.98484279  0.98683798  0.15875087  1
  Se  Se44  1  0.98484279  0.98683798  0.34124913  1
  Se  Se45  1  0.01515721  0.01316202  0.84124913  1
  Se  Se46  1  0.96870618  0.68252823  0.55426650  1
  Se  Se47  1  0.31133946  0.28648698  0.54966859  1
  Se  Se48  1  0.71503869  0.02776048  0.55277685  1
  Se  Se49  1  0.03129382  0.31747177  0.05426650  1
  Se  Se50  1  0.68866054  0.71351302  0.04966859  1
  Se  Se51  1  0.28496131  0.97223952  0.05277685  1
  Se  Se52  1  0.03129382  0.31747177  0.44573350  1
  Se  Se53  1  0.68866054  0.71351302  0.45033141  1
  Se  Se54  1  0.28496131  0.97223952  0.44722315  1
  Se  Se55  1  0.96870618  0.68252823  0.94573350  1
  Se  Se56  1  0.31133946  0.28648698  0.95033141  1
  Se  Se57  1  0.71503869  0.02776048  0.94722315  1
  Se  Se58  1  0.36198911  0.98598901  0.64210398  1
  Se  Se59  1  0.01459728  0.37725285  0.64246415  1
  Se  Se60  1  0.60515882  0.62760637  0.63107012  1
  Se  Se61  1  0.63801089  0.01401099  0.14210398  1
  Se  Se62  1  0.98540272  0.62274715  0.14246415  1
  Se  Se63  1  0.39484118  0.37239363  0.13107012  1
  Se  Se64  1  0.63801089  0.01401099  0.35789602  1
  Se  Se65  1  0.98540272  0.62274715  0.35753585  1
  Se  Se66  1  0.39484118  0.37239363  0.36892988  1
  Se  Se67  1  0.36198911  0.98598901  0.85789602  1
  Se  Se68  1  0.01459728  0.37725285  0.85753585  1
  Se  Se69  1  0.60515882  0.62760637  0.86892988  1
  Se  Se70  1  0.66915586  0.33131782  0.03202917  1
  Se  Se71  1  0.33084414  0.66868218  0.53202917  1
  Se  Se72  1  0.33084414  0.66868218  0.96797083  1
  Se  Se73  1  0.66915586  0.33131782  0.46797083  1
