# generated using pymatgen
data_TaVCN
_symmetry_space_group_name_H-M   'P 1'
_cell_length_a   3.06977015
_cell_length_b   3.06977014
_cell_length_c   5.28244139
_cell_angle_alpha   73.10830976
_cell_angle_beta   90.00000000
_cell_angle_gamma   120.00000008
_symmetry_Int_Tables_number   1
_chemical_formula_structural   TaVCN
_chemical_formula_sum   'Ta1 V1 C1 N1'
_cell_volume   40.61105001
_cell_formula_units_Z   1
loop_
 _symmetry_equiv_pos_site_id
 _symmetry_equiv_pos_as_xyz
  1  'x, y, z'
loop_
 _atom_site_type_symbol
 _atom_site_label
 _atom_site_symmetry_multiplicity
 _atom_site_fract_x
 _atom_site_fract_y
 _atom_site_fract_z
 _atom_site_occupancy
  Ta  Ta0  1  0.25415724  0.50831448  0.23752828  1
  V  V1  1  0.74093778  0.48187556  0.77718665  1
  C  C2  1  0.00542805  0.01085610  0.98371585  1
  N  N3  1  0.49947693  0.99895385  0.50156922  1
