# generated using pymatgen
data_U2(Mo3Se4)5
_symmetry_space_group_name_H-M   'P 1'
_cell_length_a   9.68917227
_cell_length_b   11.65903556
_cell_length_c   15.04881407
_cell_angle_alpha   105.15814327
_cell_angle_beta   72.85062978
_cell_angle_gamma   89.03900797
_symmetry_Int_Tables_number   1
_chemical_formula_structural   U2(Mo3Se4)5
_chemical_formula_sum   'U4 Mo30 Se40'
_cell_volume   1559.76657853
_cell_formula_units_Z   2
loop_
 _symmetry_equiv_pos_site_id
 _symmetry_equiv_pos_as_xyz
  1  'x, y, z'
loop_
 _atom_site_type_symbol
 _atom_site_label
 _atom_site_symmetry_multiplicity
 _atom_site_fract_x
 _atom_site_fract_y
 _atom_site_fract_z
 _atom_site_occupancy
  U  U0  1  0.99953391  0.99956824  0.99838480  1
  U  U1  1  0.40029045  0.40074322  0.20031800  1
  U  U2  1  0.79970955  0.79925678  0.39968200  1
  U  U3  1  0.20046609  0.20043176  0.60161520  1
  Mo  Mo4  1  0.64887678  0.20895300  0.72045275  1
  Mo  Mo5  1  0.04867840  0.60723730  0.92097146  1
  Mo  Mo6  1  0.44677327  0.00789277  0.12018756  1
  Mo  Mo7  1  0.84789861  0.40807133  0.32049585  1
  Mo  Mo8  1  0.24781243  0.80797109  0.52021397  1
  Mo  Mo9  1  0.73956008  0.16521403  0.86297797  1
  Mo  Mo10  1  0.14152619  0.56476714  0.06080047  1
  Mo  Mo11  1  0.54057614  0.96471825  0.26217775  1
  Mo  Mo12  1  0.93976638  0.36336571  0.46239230  1
  Mo  Mo13  1  0.34212676  0.76425665  0.66178648  1
  Mo  Mo14  1  0.75089356  0.98400202  0.70375815  1
  Mo  Mo15  1  0.15358001  0.38562747  0.90405478  1
  Mo  Mo16  1  0.55318207  0.78416179  0.10281133  1
  Mo  Mo17  1  0.95188346  0.18403194  0.30407913  1
  Mo  Mo18  1  0.35192244  0.58322349  0.50428228  1
  Mo  Mo19  1  0.55112322  0.99104700  0.87954725  1
  Mo  Mo20  1  0.95218757  0.39202891  0.07978603  1
  Mo  Mo21  1  0.35210139  0.79192867  0.27950415  1
  Mo  Mo22  1  0.75322673  0.19210723  0.47981244  1
  Mo  Mo23  1  0.15132160  0.59276270  0.67902854  1
  Mo  Mo24  1  0.46043992  0.03478597  0.73702203  1
  Mo  Mo25  1  0.85787324  0.43574335  0.93821352  1
  Mo  Mo26  1  0.26023362  0.83663429  0.13760770  1
  Mo  Mo27  1  0.65942386  0.23528175  0.33782225  1
  Mo  Mo28  1  0.05847381  0.63523286  0.53919953  1
  Mo  Mo29  1  0.44910644  0.21599798  0.89624185  1
  Mo  Mo30  1  0.84807756  0.61677651  0.09571772  1
  Mo  Mo31  1  0.24811654  0.01596806  0.29592087  1
  Mo  Mo32  1  0.64681793  0.41583821  0.49718867  1
  Mo  Mo33  1  0.04641999  0.81437253  0.69594522  1
  Se  Se34  1  0.11420503  0.35269872  0.29505250  1
  Se  Se35  1  0.51448555  0.75188181  0.49444846  1
  Se  Se36  1  0.91447216  0.15277712  0.69580519  1
  Se  Se37  1  0.31714147  0.55217104  0.89423445  1
  Se  Se38  1  0.71396812  0.95293554  0.09503471  1
  Se  Se39  1  0.48603188  0.24706446  0.50496529  1
  Se  Se40  1  0.88285853  0.64782896  0.70576555  1
  Se  Se41  1  0.28552784  0.04722288  0.90419481  1
  Se  Se42  1  0.68551445  0.44811819  0.10555154  1
  Se  Se43  1  0.08579497  0.84730128  0.30494750  1
  Se  Se44  1  0.81986221  0.58082324  0.47706824  1
  Se  Se45  1  0.21997052  0.98131883  0.67555990  1
  Se  Se46  1  0.62461444  0.37710588  0.87461643  1
  Se  Se47  1  0.02133765  0.78139909  0.07586141  1
  Se  Se48  1  0.42084453  0.18157664  0.27625534  1
  Se  Se49  1  0.02724131  0.14816260  0.45414465  1
  Se  Se50  1  0.42660163  0.55017899  0.65060365  1
  Se  Se51  1  0.82577266  0.94660505  0.85378263  1
  Se  Se52  1  0.22694569  0.34844502  0.05398565  1
  Se  Se53  1  0.62624786  0.74912139  0.25479337  1
  Se  Se54  1  0.84943889  0.21954248  0.17099377  1
  Se  Se55  1  0.24896038  0.61976310  0.37084021  1
  Se  Se56  1  0.64953860  0.01903621  0.57053196  1
  Se  Se57  1  0.04681686  0.42021419  0.77148766  1
  Se  Se58  1  0.45104670  0.82328468  0.97359093  1
  Se  Se59  1  0.77915547  0.01842336  0.32374466  1
  Se  Se60  1  0.17866235  0.41860091  0.52413859  1
  Se  Se61  1  0.57538556  0.82289412  0.72538357  1
  Se  Se62  1  0.98002948  0.21868117  0.92444010  1
  Se  Se63  1  0.38013779  0.61917676  0.12293176  1
  Se  Se64  1  0.57375214  0.45087861  0.34520663  1
  Se  Se65  1  0.97305431  0.85155498  0.54601435  1
  Se  Se66  1  0.37422734  0.25339495  0.74621737  1
  Se  Se67  1  0.77339837  0.64982101  0.94939635  1
  Se  Se68  1  0.17275869  0.05183740  0.14585535  1
  Se  Se69  1  0.74895330  0.37671532  0.62640907  1
  Se  Se70  1  0.15318314  0.77978581  0.82851234  1
  Se  Se71  1  0.55046140  0.18096379  0.02946804  1
  Se  Se72  1  0.95103962  0.58023690  0.22915979  1
  Se  Se73  1  0.35056111  0.98045752  0.42900623  1
