# generated using pymatgen
data_Te15Mo2(Cl6O)2
_symmetry_space_group_name_H-M   'P 1'
_cell_length_a   8.42518548
_cell_length_b   8.13312188
_cell_length_c   14.87105554
_cell_angle_alpha   82.08259760
_cell_angle_beta   86.24075365
_cell_angle_gamma   104.10606035
_symmetry_Int_Tables_number   1
_chemical_formula_structural   Te15Mo2(Cl6O)2
_chemical_formula_sum   'Te15 Mo2 Cl12 O2'
_cell_volume   973.63597907
_cell_formula_units_Z   1
loop_
 _symmetry_equiv_pos_site_id
 _symmetry_equiv_pos_as_xyz
  1  'x, y, z'
loop_
 _atom_site_type_symbol
 _atom_site_label
 _atom_site_symmetry_multiplicity
 _atom_site_fract_x
 _atom_site_fract_y
 _atom_site_fract_z
 _atom_site_occupancy
  Te  Te0  1  0.88880930  0.79706200  0.69608888  1
  Te  Te1  1  0.89006403  0.29937771  0.69635976  1
  Te  Te2  1  0.10909039  0.19986264  0.31108006  1
  Te  Te3  1  0.10676710  0.69892169  0.31204992  1
  Te  Te4  1  0.62940080  0.69549336  0.84082559  1
  Te  Te5  1  0.63074507  0.19850858  0.84099245  1
  Te  Te6  1  0.38734056  0.30808979  0.15053870  1
  Te  Te7  1  0.38394153  0.80860803  0.15208472  1
  Te  Te8  1  0.73584212  0.94500996  0.95700294  1
  Te  Te9  1  0.72675678  0.44233592  0.96340274  1
  Te  Te10  1  0.26685126  0.05605638  0.03828666  1
  Te  Te11  1  0.26728039  0.55801654  0.03755560  1
  Te  Te12  1  0.06710822  0.07755581  0.75675732  1
  Te  Te13  1  0.92750839  0.42269371  0.23552899  1
  Te  Te14  1  0.92750548  0.92311367  0.23310782  1
  Mo  Mo15  1  0.50002794  0.54303699  0.50037107  1
  Mo  Mo16  1  0.49875626  0.04367019  0.50002636  1
  Cl  Cl17  1  0.47461491  0.95143590  0.66022207  1
  Cl  Cl18  1  0.48419394  0.45495472  0.66236463  1
  Cl  Cl19  1  0.51122098  0.04312979  0.33750728  1
  Cl  Cl20  1  0.51318513  0.54359187  0.33810022  1
  Cl  Cl21  1  0.79971817  0.17036974  0.09984061  1
  Cl  Cl22  1  0.79945341  0.68031948  0.09992688  1
  Cl  Cl23  1  0.19996868  0.81885813  0.91513296  1
  Cl  Cl24  1  0.20227185  0.32464462  0.91471933  1
  Cl  Cl25  1  0.78710675  0.07311646  0.49054898  1
  Cl  Cl26  1  0.79015998  0.57334938  0.49395597  1
  Cl  Cl27  1  0.20631802  0.92338260  0.50435344  1
  Cl  Cl28  1  0.20778164  0.42509431  0.50597490  1
  O  O29  1  0.49934274  0.75593903  0.49943092  1
  O  O30  1  0.49896816  0.25805098  0.49976223  1
