# generated using pymatgen
data_Tb2MnS4
_symmetry_space_group_name_H-M   'P 1'
_cell_length_a   3.81024217
_cell_length_b   6.47579869
_cell_length_c   12.90925004
_cell_angle_alpha   90.00000000
_cell_angle_beta   90.00000000
_cell_angle_gamma   72.89097708
_symmetry_Int_Tables_number   1
_chemical_formula_structural   Tb2MnS4
_chemical_formula_sum   'Tb4 Mn2 S8'
_cell_volume   304.43160514
_cell_formula_units_Z   2
loop_
 _symmetry_equiv_pos_site_id
 _symmetry_equiv_pos_as_xyz
  1  'x, y, z'
loop_
 _atom_site_type_symbol
 _atom_site_label
 _atom_site_symmetry_multiplicity
 _atom_site_fract_x
 _atom_site_fract_y
 _atom_site_fract_z
 _atom_site_occupancy
  Tb  Tb0  1  0.38090928  0.23818144  0.78421223  1
  Tb  Tb1  1  0.61909072  0.76181856  0.28421223  1
  Tb  Tb2  1  0.13722548  0.72554904  0.58179559  1
  Tb  Tb3  1  0.86277452  0.27445096  0.08179559  1
  Mn  Mn4  1  0.12617249  0.74765502  0.94544679  1
  Mn  Mn5  1  0.87382751  0.25234498  0.44544679  1
  S  S6  1  0.79129347  0.41741305  0.63441278  1
  S  S7  1  0.20870653  0.58258695  0.13441278  1
  S  S8  1  0.49092839  0.01814322  0.99629269  1
  S  S9  1  0.50907161  0.98185678  0.49629269  1
  S  S10  1  0.75953395  0.48093210  0.89523528  1
  S  S11  1  0.24046605  0.51906790  0.39523528  1
  S  S12  1  0.03885054  0.92229892  0.77060463  1
  S  S13  1  0.96114946  0.07770108  0.27060463  1
