# generated using pymatgen
data_SrLaNd(CuO3)2
_symmetry_space_group_name_H-M   'P 1'
_cell_length_a   3.87302124
_cell_length_b   3.87302124
_cell_length_c   10.34835467
_cell_angle_alpha   79.21452886
_cell_angle_beta   79.21452886
_cell_angle_gamma   90.00000000
_symmetry_Int_Tables_number   1
_chemical_formula_structural   SrLaNd(CuO3)2
_chemical_formula_sum   'Sr1 La1 Nd1 Cu2 O6'
_cell_volume   149.69383396
_cell_formula_units_Z   1
loop_
 _symmetry_equiv_pos_site_id
 _symmetry_equiv_pos_as_xyz
  1  'x, y, z'
loop_
 _atom_site_type_symbol
 _atom_site_label
 _atom_site_symmetry_multiplicity
 _atom_site_fract_x
 _atom_site_fract_y
 _atom_site_fract_z
 _atom_site_occupancy
  Sr  Sr0  1  0.17909970  0.17909970  0.64180059  1
  La  La1  1  0.81782341  0.81782341  0.36435318  1
  Nd  Nd2  1  0.00059015  0.00059015  0.99881969  1
  Cu  Cu3  1  0.59034035  0.59034035  0.81931929  1
  Cu  Cu4  1  0.41151006  0.41151006  0.17697987  1
  O  O5  1  0.70692103  0.70692103  0.58615795  1
  O  O6  1  0.30102583  0.30102583  0.39794834  1
  O  O7  1  0.57654300  0.07654300  0.84691399  1
  O  O8  1  0.07654300  0.57654300  0.84691399  1
  O  O9  1  0.41980173  0.91980173  0.16039655  1
  O  O10  1  0.91980173  0.41980173  0.16039655  1
