# generated using pymatgen
data_Ta2Ni3Ge
_symmetry_space_group_name_H-M   'P 1'
_cell_length_a   4.89265327
_cell_length_b   4.89265327
_cell_length_c   7.74251674
_cell_angle_alpha   90.00000000
_cell_angle_beta   90.00000000
_cell_angle_gamma   119.98116117
_symmetry_Int_Tables_number   1
_chemical_formula_structural   Ta2Ni3Ge
_chemical_formula_sum   'Ta4 Ni6 Ge2'
_cell_volume   160.54030194
_cell_formula_units_Z   2
loop_
 _symmetry_equiv_pos_site_id
 _symmetry_equiv_pos_as_xyz
  1  'x, y, z'
loop_
 _atom_site_type_symbol
 _atom_site_label
 _atom_site_symmetry_multiplicity
 _atom_site_fract_x
 _atom_site_fract_y
 _atom_site_fract_z
 _atom_site_occupancy
  Ta  Ta0  1  0.66669777  0.33330223  0.55843272  1
  Ta  Ta1  1  0.33330223  0.66669777  0.44156728  1
  Ta  Ta2  1  0.33330223  0.66669777  0.05843272  1
  Ta  Ta3  1  0.66669777  0.33330223  0.94156728  1
  Ni  Ni4  1  0.17145262  0.34290050  0.75000000  1
  Ni  Ni5  1  0.17140986  0.82859014  0.75000000  1
  Ni  Ni6  1  0.65709950  0.82854738  0.75000000  1
  Ni  Ni7  1  0.82854738  0.65709950  0.25000000  1
  Ni  Ni8  1  0.82859014  0.17140986  0.25000000  1
  Ni  Ni9  1  0.34290050  0.17145262  0.25000000  1
  Ge  Ge10  1  0.00000000  0.00000000  0.50000000  1
  Ge  Ge11  1  0.00000000  0.00000000  -0.00000000  1
