# generated using pymatgen
data_SrBi3I3O4
_symmetry_space_group_name_H-M   'P 1'
_cell_length_a   4.06266226
_cell_length_b   4.06266226
_cell_length_c   16.64435283
_cell_angle_alpha   82.98996020
_cell_angle_beta   82.98996020
_cell_angle_gamma   90.00000000
_symmetry_Int_Tables_number   1
_chemical_formula_structural   SrBi3I3O4
_chemical_formula_sum   'Sr1 Bi3 I3 O4'
_cell_volume   270.59603215
_cell_formula_units_Z   1
loop_
 _symmetry_equiv_pos_site_id
 _symmetry_equiv_pos_as_xyz
  1  'x, y, z'
loop_
 _atom_site_type_symbol
 _atom_site_label
 _atom_site_symmetry_multiplicity
 _atom_site_fract_x
 _atom_site_fract_y
 _atom_site_fract_z
 _atom_site_occupancy
  Sr  Sr0  1  0.35161331  0.35161331  0.29677338  1
  Bi  Bi1  1  0.07043158  0.07043158  0.85913685  1
  Bi  Bi2  1  0.92499724  0.92499724  0.15000551  1
  Bi  Bi3  1  0.64505663  0.64505663  0.70988674  1
  I  I4  1  0.51028674  0.51028674  0.97942651  1
  I  I5  1  0.19914401  0.19914401  0.60171197  1
  I  I6  1  0.79367018  0.79367018  0.41265964  1
  O  O7  1  0.60591229  0.10591229  0.78817543  1
  O  O8  1  0.10591229  0.60591229  0.78817543  1
  O  O9  1  0.39648786  0.89648786  0.20702427  1
  O  O10  1  0.89648786  0.39648786  0.20702427  1
