# generated using pymatgen
data_SrLaTiMnO6
_symmetry_space_group_name_H-M   'P 1'
_cell_length_a   5.57666718
_cell_length_b   5.57666736
_cell_length_c   5.57666718
_cell_angle_alpha   60.43048152
_cell_angle_beta   60.43048867
_cell_angle_gamma   60.43048155
_symmetry_Int_Tables_number   1
_chemical_formula_structural   SrLaTiMnO6
_chemical_formula_sum   'Sr1 La1 Ti1 Mn1 O6'
_cell_volume   123.82714866
_cell_formula_units_Z   1
loop_
 _symmetry_equiv_pos_site_id
 _symmetry_equiv_pos_as_xyz
  1  'x, y, z'
loop_
 _atom_site_type_symbol
 _atom_site_label
 _atom_site_symmetry_multiplicity
 _atom_site_fract_x
 _atom_site_fract_y
 _atom_site_fract_z
 _atom_site_occupancy
  Sr  Sr0  1  0.24982735  0.24982735  0.24982735  1
  La  La1  1  0.74937876  0.74937876  0.74937876  1
  Ti  Ti2  1  0.99890936  0.99890936  0.99890936  1
  Mn  Mn3  1  0.49964211  0.49964211  0.49964211  1
  O  O4  1  0.79763046  0.24607873  0.71045350  1
  O  O5  1  0.24607873  0.71045350  0.79763046  1
  O  O6  1  0.71045350  0.79763046  0.24607873  1
  O  O7  1  0.75521537  0.30809609  0.18476829  1
  O  O8  1  0.30809609  0.18476829  0.75521537  1
  O  O9  1  0.18476829  0.75521537  0.30809609  1
