# generated using pymatgen
data_SrLa3CoNiO8
_symmetry_space_group_name_H-M   'P 1'
_cell_length_a   5.51235974
_cell_length_b   5.46400954
_cell_length_c   6.92519331
_cell_angle_alpha   90.00000000
_cell_angle_beta   66.54721633
_cell_angle_gamma   90.00000000
_symmetry_Int_Tables_number   1
_chemical_formula_structural   SrLa3CoNiO8
_chemical_formula_sum   'Sr1 La3 Co1 Ni1 O8'
_cell_volume   191.35249491
_cell_formula_units_Z   1
loop_
 _symmetry_equiv_pos_site_id
 _symmetry_equiv_pos_as_xyz
  1  'x, y, z'
loop_
 _atom_site_type_symbol
 _atom_site_label
 _atom_site_symmetry_multiplicity
 _atom_site_fract_x
 _atom_site_fract_y
 _atom_site_fract_z
 _atom_site_occupancy
  Sr  Sr0  1  0.85816413  0.50000000  0.28367174  1
  La  La1  1  0.36216765  -0.00000000  0.27566471  1
  La  La2  1  0.64136745  -0.00000000  0.71726511  1
  La  La3  1  0.13771392  0.50000000  0.72457215  1
  Co  Co4  1  0.99666713  -0.00000000  0.00666574  1
  Ni  Ni5  1  0.49816303  0.50000000  0.00367395  1
  O  O6  1  0.17859672  0.00000000  0.64280657  1
  O  O7  1  0.66824731  0.50000000  0.66350538  1
  O  O8  1  0.32094951  0.50000000  0.35810098  1
  O  O9  1  0.82601862  -0.00000000  0.34796276  1
  O  O10  1  0.75240230  0.23967103  0.99402773  1
  O  O11  1  0.25356997  0.76032897  0.99402773  1
  O  O12  1  0.25356997  0.23967103  0.99402773  1
  O  O13  1  0.75240230  0.76032897  0.99402773  1
