# generated using pymatgen
data_Ta3Zn2Bi3O14
_symmetry_space_group_name_H-M   'P 1'
_cell_length_a   7.56171144
_cell_length_b   7.56171144
_cell_length_c   7.31623146
_cell_angle_alpha   90.00000000
_cell_angle_beta   58.88373416
_cell_angle_gamma   120.00000000
_symmetry_Int_Tables_number   1
_chemical_formula_structural   Ta3Zn2Bi3O14
_chemical_formula_sum   'Ta3 Zn2 Bi3 O14'
_cell_volume   290.72019168
_cell_formula_units_Z   1
loop_
 _symmetry_equiv_pos_site_id
 _symmetry_equiv_pos_as_xyz
  1  'x, y, z'
loop_
 _atom_site_type_symbol
 _atom_site_label
 _atom_site_symmetry_multiplicity
 _atom_site_fract_x
 _atom_site_fract_y
 _atom_site_fract_z
 _atom_site_occupancy
  Ta  Ta0  1  0.25000000  0.87500000  0.87500000  1
  Ta  Ta1  1  0.25000000  0.37500000  0.87500000  1
  Ta  Ta2  1  0.75000000  0.87500000  0.87500000  1
  Zn  Zn3  1  0.75000000  0.87500000  0.37500000  1
  Zn  Zn4  1  0.75000000  0.37500000  0.87500000  1
  Bi  Bi5  1  0.25000000  0.37500000  0.37500000  1
  Bi  Bi6  1  0.25000000  0.87500000  0.37500000  1
  Bi  Bi7  1  0.75000000  0.37500000  0.37500000  1
  O  O8  1  0.93754071  0.96877036  0.53864259  1
  O  O9  1  0.49258705  0.52381670  0.53864259  1
  O  O10  1  0.49258705  0.96877036  0.53864259  1
  O  O11  1  0.12828826  0.56414413  0.92561640  1
  O  O12  1  0.51023947  0.94609534  0.92561640  1
  O  O13  1  0.51023947  0.56414413  0.92561640  1
  O  O14  1  0.56245929  0.78122964  0.21135741  1
  O  O15  1  0.00741295  0.22618330  0.21135741  1
  O  O16  1  0.00741295  0.78122964  0.21135741  1
  O  O17  1  0.37171174  0.18585587  0.82438360  1
  O  O18  1  0.98976053  0.80390466  0.82438360  1
  O  O19  1  0.98976053  0.18585587  0.82438360  1
  O  O20  1  0.53515553  0.26757776  0.19726671  1
  O  O21  1  0.96484447  0.48242224  0.55273329  1
