# generated using pymatgen
data_ReBMo
_symmetry_space_group_name_H-M   'P 1'
_cell_length_a   4.59631838
_cell_length_b   4.53854278
_cell_length_c   4.53854278
_cell_angle_alpha   62.30188665
_cell_angle_beta   74.67880101
_cell_angle_gamma   105.32119899
_symmetry_Int_Tables_number   1
_chemical_formula_structural   ReBMo
_chemical_formula_sum   'Re2 B2 Mo2'
_cell_volume   72.06691966
_cell_formula_units_Z   2
loop_
 _symmetry_equiv_pos_site_id
 _symmetry_equiv_pos_as_xyz
  1  'x, y, z'
loop_
 _atom_site_type_symbol
 _atom_site_label
 _atom_site_symmetry_multiplicity
 _atom_site_fract_x
 _atom_site_fract_y
 _atom_site_fract_z
 _atom_site_occupancy
  Re  Re0  1  0.16217799  0.83108899  0.66891101  1
  Re  Re1  1  0.83782201  0.16891101  0.33108899  1
  B  B2  1  0.00000000  0.25000000  0.75000000  1
  B  B3  1  0.00000000  0.75000000  0.25000000  1
  Mo  Mo4  1  0.50000000  0.33242384  0.83242384  1
  Mo  Mo5  1  0.50000000  0.66757616  0.16757616  1
