# generated using pymatgen
data_SbPb2S2I3
_symmetry_space_group_name_H-M   'P 1'
_cell_length_a   4.52368534
_cell_length_b   7.74378530
_cell_length_c   16.48976755
_cell_angle_alpha   90.00000000
_cell_angle_beta   90.00000000
_cell_angle_gamma   73.01718342
_symmetry_Int_Tables_number   1
_chemical_formula_structural   SbPb2S2I3
_chemical_formula_sum   'Sb2 Pb4 S4 I6'
_cell_volume   552.45427785
_cell_formula_units_Z   2
loop_
 _symmetry_equiv_pos_site_id
 _symmetry_equiv_pos_as_xyz
  1  'x, y, z'
loop_
 _atom_site_type_symbol
 _atom_site_label
 _atom_site_symmetry_multiplicity
 _atom_site_fract_x
 _atom_site_fract_y
 _atom_site_fract_z
 _atom_site_occupancy
  Sb  Sb0  1  0.65532995  0.68934010  0.01678398  1
  Sb  Sb1  1  0.34467005  0.31065990  0.51678398  1
  Pb  Pb2  1  0.30431330  0.39137339  0.23909319  1
  Pb  Pb3  1  0.69568670  0.60862661  0.73909319  1
  Pb  Pb4  1  0.37550386  0.24899229  0.97142105  1
  Pb  Pb5  1  0.62449614  0.75100771  0.47142105  1
  S  S6  1  0.77437574  0.45124851  0.91437253  1
  S  S7  1  0.22342043  0.55315913  0.07596684  1
  S  S8  1  0.77657957  0.44684087  0.57596684  1
  S  S9  1  0.22562426  0.54875149  0.41437253  1
  I  I10  1  0.65448876  0.69102247  0.24727552  1
  I  I11  1  0.34551124  0.30897753  0.74727552  1
  I  I12  1  0.93483245  0.13033510  0.12470473  1
  I  I13  1  0.05897931  0.88204137  0.89018214  1
  I  I14  1  0.94102069  0.11795863  0.39018214  1
  I  I15  1  0.06516755  0.86966490  0.62470473  1
