# generated using pymatgen
data_Pr2Mn22C3
_symmetry_space_group_name_H-M   'P 1'
_cell_length_a   6.50784817
_cell_length_b   7.77473697
_cell_length_c   7.82387394
_cell_angle_alpha   99.23809243
_cell_angle_beta   115.05092028
_cell_angle_gamma   65.73540635
_symmetry_Int_Tables_number   1
_chemical_formula_structural   Pr2Mn22C3
_chemical_formula_sum   'Pr2 Mn22 C3'
_cell_volume   326.89959783
_cell_formula_units_Z   1
loop_
 _symmetry_equiv_pos_site_id
 _symmetry_equiv_pos_as_xyz
  1  'x, y, z'
loop_
 _atom_site_type_symbol
 _atom_site_label
 _atom_site_symmetry_multiplicity
 _atom_site_fract_x
 _atom_site_fract_y
 _atom_site_fract_z
 _atom_site_occupancy
  Pr  Pr0  1  0.37497746  0.74850040  0.24850040  1
  Pr  Pr1  1  0.62502254  0.25149960  0.75149960  1
  Mn  Mn2  1  0.17692255  0.17677580  0.41908323  1
  Mn  Mn3  1  0.43461511  0.91908323  0.67677580  1
  Mn  Mn4  1  0.85434573  0.82187200  0.92087411  1
  Mn  Mn5  1  0.25534361  0.42087411  0.32187200  1
  Mn  Mn6  1  0.18715663  0.57201315  0.82999008  1
  Mn  Mn7  1  0.42917971  0.32999008  0.07201315  1
  Mn  Mn8  1  0.85033237  0.08771055  0.17269127  1
  Mn  Mn9  1  0.26535165  0.67269127  0.58771055  1
  Mn  Mn10  1  0.82307745  0.82322420  0.58091677  1
  Mn  Mn11  1  0.56538489  0.08091677  0.32322420  1
  Mn  Mn12  1  0.14565427  0.17812800  0.07912589  1
  Mn  Mn13  1  0.74465639  0.57912589  0.67812800  1
  Mn  Mn14  1  0.81284337  0.42798685  0.17000992  1
  Mn  Mn15  1  0.57082029  0.67000992  0.92798685  1
  Mn  Mn16  1  0.14966763  0.91228945  0.82730873  1
  Mn  Mn17  1  0.73464835  0.32730873  0.41228945  1
  Mn  Mn18  1  -0.00000000  0.50000000  -0.00000000  1
  Mn  Mn19  1  -0.00000000  0.50000000  0.50000000  1
  Mn  Mn20  1  0.50000000  0.00000000  -0.00000000  1
  Mn  Mn21  1  -0.00000000  0.00000000  0.50000000  1
  Mn  Mn22  1  0.13234926  0.24876321  0.74876321  1
  Mn  Mn23  1  0.86765074  0.75123679  0.25123679  1
  C  C24  1  0.50000000  0.50000000  0.50000000  1
  C  C25  1  -0.00000000  0.00000000  -0.00000000  1
  C  C26  1  0.50000000  0.00000000  0.50000000  1
