# generated using pymatgen
data_Sc3Te4
_symmetry_space_group_name_H-M   'P 1'
_cell_length_a   4.15689539
_cell_length_b   4.15689539
_cell_length_c   14.22082892
_cell_angle_alpha   81.59582294
_cell_angle_beta   81.59582294
_cell_angle_gamma   60.00000109
_symmetry_Int_Tables_number   1
_chemical_formula_structural   Sc3Te4
_chemical_formula_sum   'Sc3 Te4'
_cell_volume   209.75832994
_cell_formula_units_Z   1
loop_
 _symmetry_equiv_pos_site_id
 _symmetry_equiv_pos_as_xyz
  1  'x, y, z'
loop_
 _atom_site_type_symbol
 _atom_site_label
 _atom_site_symmetry_multiplicity
 _atom_site_fract_x
 _atom_site_fract_y
 _atom_site_fract_z
 _atom_site_occupancy
  Sc  Sc0  1  0.99697973  0.99697973  0.00906081  1
  Sc  Sc1  1  0.50331073  0.50331073  0.49006780  1
  Sc  Sc2  1  0.41626458  0.41626458  0.75120625  1
  Te  Te3  1  0.29334560  0.29334560  0.11996321  1
  Te  Te4  1  0.70812482  0.70812482  0.87562555  1
  Te  Te5  1  0.12415646  0.12415646  0.62753062  1
  Te  Te6  1  0.87281808  0.87281808  0.38154576  1
