# generated using pymatgen
data_Sm2Mn2Al2Fe13C
_symmetry_space_group_name_H-M   'P 1'
_cell_length_a   6.48603950
_cell_length_b   6.43857521
_cell_length_c   6.42147370
_cell_angle_alpha   83.24272868
_cell_angle_beta   83.31143686
_cell_angle_gamma   82.82851926
_symmetry_Int_Tables_number   1
_chemical_formula_structural   Sm2Mn2Al2Fe13C
_chemical_formula_sum   'Sm2 Mn2 Al2 Fe13 C1'
_cell_volume   262.80649972
_cell_formula_units_Z   1
loop_
 _symmetry_equiv_pos_site_id
 _symmetry_equiv_pos_as_xyz
  1  'x, y, z'
loop_
 _atom_site_type_symbol
 _atom_site_label
 _atom_site_symmetry_multiplicity
 _atom_site_fract_x
 _atom_site_fract_y
 _atom_site_fract_z
 _atom_site_occupancy
  Sm  Sm0  1  0.65497888  0.65509901  0.63993743  1
  Sm  Sm1  1  0.34502112  0.34490099  0.36006257  1
  Mn  Mn2  1  -0.00000000  0.00000000  0.50000000  1
  Mn  Mn3  1  -0.00000000  0.50000000  -0.00000000  1
  Al  Al4  1  0.89490415  0.89864399  0.89732167  1
  Al  Al5  1  0.10509585  0.10135601  0.10267833  1
  Fe  Fe6  1  0.34312237  0.34359754  0.85151946  1
  Fe  Fe7  1  0.34042630  0.85171332  0.34475685  1
  Fe  Fe8  1  0.85436426  0.34040616  0.34487164  1
  Fe  Fe9  1  0.65687763  0.65640246  0.14848054  1
  Fe  Fe10  1  0.65957370  0.14828668  0.65524315  1
  Fe  Fe11  1  0.14563574  0.65959384  0.65512836  1
  Fe  Fe12  1  0.28328643  0.71323221  0.99925822  1
  Fe  Fe13  1  0.72156009  0.00261123  0.28229359  1
  Fe  Fe14  1  0.99751663  0.28365047  0.71409178  1
  Fe  Fe15  1  0.27843991  0.99738877  0.71770641  1
  Fe  Fe16  1  0.00248337  0.71634953  0.28590822  1
  Fe  Fe17  1  0.71671357  0.28676779  0.00074178  1
  Fe  Fe18  1  0.50000000  0.00000000  -0.00000000  1
  C  C19  1  0.50000000  0.50000000  -0.00000000  1
