# generated using pymatgen
data_Sr6Fe5Ag3(Se2O5)2
_symmetry_space_group_name_H-M   'P 1'
_cell_length_a   5.72839965
_cell_length_b   5.73032854
_cell_length_c   14.69295956
_cell_angle_alpha   90.00000000
_cell_angle_beta   78.75896046
_cell_angle_gamma   90.00000000
_symmetry_Int_Tables_number   1
_chemical_formula_structural   Sr6Fe5Ag3(Se2O5)2
_chemical_formula_sum   'Sr6 Fe5 Ag3 Se4 O10'
_cell_volume   473.05273665
_cell_formula_units_Z   1
loop_
 _symmetry_equiv_pos_site_id
 _symmetry_equiv_pos_as_xyz
  1  'x, y, z'
loop_
 _atom_site_type_symbol
 _atom_site_label
 _atom_site_symmetry_multiplicity
 _atom_site_fract_x
 _atom_site_fract_y
 _atom_site_fract_z
 _atom_site_occupancy
  Sr  Sr0  1  0.50000000  0.99785102  0.00000000  1
  Sr  Sr1  1  0.00000000  0.50214898  0.00000000  1
  Sr  Sr2  1  0.13014368  0.49874365  0.74367531  1
  Sr  Sr3  1  0.62618101  0.00125635  0.74367531  1
  Sr  Sr4  1  0.37381899  0.00125635  0.25632469  1
  Sr  Sr5  1  0.86985632  0.49874365  0.25632469  1
  Fe  Fe6  1  0.06633921  -0.00000494  0.86560748  1
  Fe  Fe7  1  0.56805330  0.50000494  0.86560748  1
  Fe  Fe8  1  0.43194670  0.50000494  0.13439252  1
  Fe  Fe9  1  0.93366079  -0.00000494  0.13439252  1
  Fe  Fe10  1  -0.00000000  0.75000000  0.50000000  1
  Ag  Ag11  1  0.50000000  0.25000000  0.50000000  1
  Ag  Ag12  1  0.50000000  0.75000000  0.50000000  1
  Ag  Ag13  1  -0.00000000  0.25000000  0.50000000  1
  Se  Se14  1  0.17370938  0.98679246  0.62513666  1
  Se  Se15  1  0.70115397  0.51320754  0.62513666  1
  Se  Se16  1  0.29884603  0.51320754  0.37486334  1
  Se  Se17  1  0.82629062  0.98679246  0.37486334  1
  O  O18  1  0.50000000  0.50279472  0.00000000  1
  O  O19  1  0.00000000  -0.00279472  0.00000000  1
  O  O20  1  0.32771140  0.25000000  0.84457719  1
  O  O21  1  0.82760490  0.75000000  0.84479019  1
  O  O22  1  0.82788647  0.25000000  0.84422706  1
  O  O23  1  0.32772686  0.75000000  0.84454627  1
  O  O24  1  0.17211353  0.25000000  0.15577294  1
  O  O25  1  0.67227314  0.75000000  0.15545373  1
  O  O26  1  0.67228860  0.25000000  0.15542281  1
  O  O27  1  0.17239510  0.75000000  0.15520981  1
