# generated using pymatgen
data_Sr2CaPr3(CuO3)4
_symmetry_space_group_name_H-M   'P 1'
_cell_length_a   5.41978098
_cell_length_b   5.41069745
_cell_length_c   10.21132912
_cell_angle_alpha   90.00000000
_cell_angle_beta   74.61041620
_cell_angle_gamma   90.00000000
_symmetry_Int_Tables_number   1
_chemical_formula_structural   Sr2CaPr3(CuO3)4
_chemical_formula_sum   'Sr2 Ca1 Pr3 Cu4 O12'
_cell_volume   288.70812935
_cell_formula_units_Z   1
loop_
 _symmetry_equiv_pos_site_id
 _symmetry_equiv_pos_as_xyz
  1  'x, y, z'
loop_
 _atom_site_type_symbol
 _atom_site_label
 _atom_site_symmetry_multiplicity
 _atom_site_fract_x
 _atom_site_fract_y
 _atom_site_fract_z
 _atom_site_occupancy
  Sr  Sr0  1  0.67859097  0.50000000  0.64281805  1
  Sr  Sr1  1  0.99894237  -0.00000000  0.00211525  1
  Ca  Ca2  1  0.50264951  0.50000000  0.99470099  1
  Pr  Pr3  1  0.17647328  -0.00000000  0.64705345  1
  Pr  Pr4  1  0.82181607  -0.00000000  0.35636786  1
  Pr  Pr5  1  0.32315318  0.50000000  0.35369364  1
  Cu  Cu6  1  0.08868636  0.50000000  0.82262728  1
  Cu  Cu7  1  0.58832475  -0.00000000  0.82335050  1
  Cu  Cu8  1  0.41493361  -0.00000000  0.17013277  1
  Cu  Cu9  1  0.91119794  0.50000000  0.17760412  1
  O  O10  1  0.33396967  0.24972514  0.83160225  1
  O  O11  1  0.83442807  0.75027486  0.83160225  1
  O  O12  1  0.83442807  0.24972514  0.83160225  1
  O  O13  1  0.33396967  0.75027486  0.83160225  1
  O  O14  1  0.16943229  0.25278137  0.17500740  1
  O  O15  1  0.65556030  0.74721863  0.17500740  1
  O  O16  1  0.65556030  0.25278137  0.17500740  1
  O  O17  1  0.16943229  0.74721863  0.17500740  1
  O  O18  1  0.20508231  0.50000000  0.58983538  1
  O  O19  1  0.70557506  -0.00000000  0.58884988  1
  O  O20  1  0.29441955  -0.00000000  0.41116090  1
  O  O21  1  0.80337436  0.50000000  0.39325129  1
