# generated using pymatgen
data_SmAlFe
_symmetry_space_group_name_H-M   'P 1'
_cell_length_a   5.48335575
_cell_length_b   5.47187254
_cell_length_c   8.71880508
_cell_angle_alpha   90.00000000
_cell_angle_beta   90.00000000
_cell_angle_gamma   119.93555936
_symmetry_Int_Tables_number   1
_chemical_formula_structural   SmAlFe
_chemical_formula_sum   'Sm4 Al4 Fe4'
_cell_volume   226.70006121
_cell_formula_units_Z   4
loop_
 _symmetry_equiv_pos_site_id
 _symmetry_equiv_pos_as_xyz
  1  'x, y, z'
loop_
 _atom_site_type_symbol
 _atom_site_label
 _atom_site_symmetry_multiplicity
 _atom_site_fract_x
 _atom_site_fract_y
 _atom_site_fract_z
 _atom_site_occupancy
  Sm  Sm0  1  0.66550092  0.33269315  0.56350093  1
  Sm  Sm1  1  0.32495187  0.66251662  0.44956359  1
  Sm  Sm2  1  0.32495187  0.66251662  0.05043641  1
  Sm  Sm3  1  0.66550092  0.33269315  0.93649907  1
  Al  Al4  1  0.67848074  0.83919596  0.75000000  1
  Al  Al5  1  0.83677261  0.67478986  0.25000000  1
  Al  Al6  1  0.83675860  0.16196968  0.25000000  1
  Al  Al7  1  0.32544539  0.16272127  0.25000000  1
  Fe  Fe8  1  0.01445185  0.00726086  0.51228030  1
  Fe  Fe9  1  0.01445185  0.00726086  0.98771970  1
  Fe  Fe10  1  0.15640108  0.31918654  0.75000000  1
  Fe  Fe11  1  0.15633230  0.83719543  0.75000000  1
