# generated using pymatgen
data_NdFe5Co5Mo2
_symmetry_space_group_name_H-M   'P 1'
_cell_length_a   4.72544645
_cell_length_b   6.52999455
_cell_length_c   6.57747844
_cell_angle_alpha   97.36202860
_cell_angle_beta   111.65298804
_cell_angle_gamma   68.91405153
_symmetry_Int_Tables_number   1
_chemical_formula_structural   NdFe5Co5Mo2
_chemical_formula_sum   'Nd1 Fe5 Co5 Mo2'
_cell_volume   176.00677316
_cell_formula_units_Z   1
loop_
 _symmetry_equiv_pos_site_id
 _symmetry_equiv_pos_as_xyz
  1  'x, y, z'
loop_
 _atom_site_type_symbol
 _atom_site_label
 _atom_site_symmetry_multiplicity
 _atom_site_fract_x
 _atom_site_fract_y
 _atom_site_fract_z
 _atom_site_occupancy
  Nd  Nd0  1  -0.00000000  0.00000000  -0.00000000  1
  Fe  Fe1  1  0.64109140  0.35569515  0.64086322  1
  Fe  Fe2  1  0.35890860  0.64430485  0.35913678  1
  Fe  Fe3  1  -0.00000000  0.00000000  0.50000000  1
  Fe  Fe4  1  0.50000000  0.50000000  -0.00000000  1
  Fe  Fe5  1  -0.00000000  0.50000000  -0.00000000  1
  Co  Co6  1  0.72330909  0.77823508  0.22201087  1
  Co  Co7  1  0.27669091  0.22176492  0.77798913  1
  Co  Co8  1  0.49968602  0.77160474  0.77059830  1
  Co  Co9  1  0.50031398  0.22839526  0.22940170  1
  Co  Co10  1  0.50000000  0.00000000  0.50000000  1
  Mo  Mo11  1  0.00204652  0.35767844  0.35971379  1
  Mo  Mo12  1  0.99795348  0.64232156  0.64028621  1
