# generated using pymatgen
data_Nb3AlCo8
_symmetry_space_group_name_H-M   'P 1'
_cell_length_a   4.74313191
_cell_length_b   4.74313191
_cell_length_c   8.20628436
_cell_angle_alpha   73.20226934
_cell_angle_beta   90.00000000
_cell_angle_gamma   120.00000000
_symmetry_Int_Tables_number   1
_chemical_formula_structural   Nb3AlCo8
_chemical_formula_sum   'Nb3 Al1 Co8'
_cell_volume   150.72016323
_cell_formula_units_Z   1
loop_
 _symmetry_equiv_pos_site_id
 _symmetry_equiv_pos_as_xyz
  1  'x, y, z'
loop_
 _atom_site_type_symbol
 _atom_site_label
 _atom_site_symmetry_multiplicity
 _atom_site_fract_x
 _atom_site_fract_y
 _atom_site_fract_z
 _atom_site_occupancy
  Nb  Nb0  1  0.37714728  0.75429457  0.86855815  1
  Nb  Nb1  1  0.99653214  0.99306428  0.01040358  1
  Nb  Nb2  1  0.50222293  0.00444586  0.49333121  1
  Al  Al3  1  0.87392809  0.74785618  0.37821572  1
  Co  Co4  1  0.43631912  0.37613231  0.18754857  1
  Co  Co5  1  0.93616603  0.37559436  0.68823961  1
  Co  Co6  1  0.43631912  0.87263824  0.18754857  1
  Co  Co7  1  0.93616603  0.87233205  0.68823961  1
  Co  Co8  1  0.18834146  0.37668292  0.43497562  1
  Co  Co9  1  0.68761627  0.37523255  0.93715118  1
  Co  Co10  1  0.93981320  0.37613231  0.18754857  1
  Co  Co11  1  0.43942834  0.37559436  0.68823961  1
