# generated using pymatgen
data_Pr2UTe5
_symmetry_space_group_name_H-M   'P 1'
_cell_length_a   6.27337921
_cell_length_b   9.86548812
_cell_length_c   8.90381869
_cell_angle_alpha   89.14565076
_cell_angle_beta   90.00000000
_cell_angle_gamma   71.46126458
_symmetry_Int_Tables_number   1
_chemical_formula_structural   Pr2UTe5
_chemical_formula_sum   'Pr4 U2 Te10'
_cell_volume   522.39732607
_cell_formula_units_Z   2
loop_
 _symmetry_equiv_pos_site_id
 _symmetry_equiv_pos_as_xyz
  1  'x, y, z'
loop_
 _atom_site_type_symbol
 _atom_site_label
 _atom_site_symmetry_multiplicity
 _atom_site_fract_x
 _atom_site_fract_y
 _atom_site_fract_z
 _atom_site_occupancy
  Pr  Pr0  1  0.74973476  0.00003795  0.26629642  1
  Pr  Pr1  1  0.42006896  0.67116391  0.26190963  1
  Pr  Pr2  1  0.24977270  -0.00003795  0.73370358  1
  Pr  Pr3  1  0.59123187  0.32883609  0.73809037  1
  U  U4  1  0.06898212  0.33823322  0.26143009  1
  U  U5  1  0.90721634  0.66176678  0.73856991  1
  Te  Te6  1  0.75364661  0.99304688  0.63915239  1
  Te  Te7  1  0.08543220  0.33672258  0.62830326  1
  Te  Te8  1  0.40958814  0.66831281  0.63690845  1
  Te  Te9  1  0.24669350  0.00695312  0.36084761  1
  Te  Te10  1  0.57789995  0.33168719  0.36309155  1
  Te  Te11  1  0.92215578  0.66327742  0.37169674  1
  Te  Te12  1  0.57906927  0.85590866  0.99861314  1
  Te  Te13  1  0.93497893  0.14409134  0.00138686  1
  Te  Te14  1  0.24980768  0.50000000  -0.00000000  1
  Te  Te15  1  0.75372120  0.50000000  -0.00000000  1
