# generated using pymatgen
data_Nb4C3
_symmetry_space_group_name_H-M   'P 1'
_cell_length_a   3.15767475
_cell_length_b   3.15767475
_cell_length_c   10.44535660
_cell_angle_alpha   81.30630283
_cell_angle_beta   98.69369717
_cell_angle_gamma   120.00000000
_symmetry_Int_Tables_number   1
_chemical_formula_structural   Nb4C3
_chemical_formula_sum   'Nb4 C3'
_cell_volume   88.81186197
_cell_formula_units_Z   1
loop_
 _symmetry_equiv_pos_site_id
 _symmetry_equiv_pos_as_xyz
  1  'x, y, z'
loop_
 _atom_site_type_symbol
 _atom_site_label
 _atom_site_symmetry_multiplicity
 _atom_site_fract_x
 _atom_site_fract_y
 _atom_site_fract_z
 _atom_site_occupancy
  Nb  Nb0  1  0.25195533  0.74804467  0.75586600  1
  Nb  Nb1  1  0.49804467  0.50195533  0.49413400  1
  Nb  Nb2  1  0.99924063  0.00075937  0.99772190  1
  Nb  Nb3  1  0.75075937  0.24924063  0.25227810  1
  C  C4  1  0.12242551  0.87757449  0.36727653  1
  C  C5  1  0.87500000  0.12500000  0.62500000  1
  C  C6  1  0.62757449  0.37242551  0.88272347  1
