# generated using pymatgen
data_NdAlCo4
_symmetry_space_group_name_H-M   'P 1'
_cell_length_a   3.82130088
_cell_length_b   5.17655755
_cell_length_c   5.16583005
_cell_angle_alpha   59.96278634
_cell_angle_beta   90.00000000
_cell_angle_gamma   90.00000000
_symmetry_Int_Tables_number   1
_chemical_formula_structural   NdAlCo4
_chemical_formula_sum   'Nd1 Al1 Co4'
_cell_volume   88.46267102
_cell_formula_units_Z   1
loop_
 _symmetry_equiv_pos_site_id
 _symmetry_equiv_pos_as_xyz
  1  'x, y, z'
loop_
 _atom_site_type_symbol
 _atom_site_label
 _atom_site_symmetry_multiplicity
 _atom_site_fract_x
 _atom_site_fract_y
 _atom_site_fract_z
 _atom_site_occupancy
  Nd  Nd0  1  0.00000000  0.00004520  -0.00014457  1
  Al  Al1  1  0.00000000  0.33408371  0.33307654  1
  Co  Co2  1  0.00000000  0.66644670  0.66688470  1
  Co  Co3  1  0.50000000  0.50422642  0.50421467  1
  Co  Co4  1  0.50000000  0.50429409  0.99145830  1
  Co  Co5  1  0.50000000  0.99080389  0.50461035  1
