# generated using pymatgen
data_Rb2V6CdCu9O26
_symmetry_space_group_name_H-M   'P 1'
_cell_length_a   6.25166654
_cell_length_b   8.37870084
_cell_length_c   10.99345719
_cell_angle_alpha   97.66877577
_cell_angle_beta   90.00000000
_cell_angle_gamma   90.00000000
_symmetry_Int_Tables_number   1
_chemical_formula_structural   Rb2V6CdCu9O26
_chemical_formula_sum   'Rb2 V6 Cd1 Cu9 O26'
_cell_volume   570.69623173
_cell_formula_units_Z   1
loop_
 _symmetry_equiv_pos_site_id
 _symmetry_equiv_pos_as_xyz
  1  'x, y, z'
loop_
 _atom_site_type_symbol
 _atom_site_label
 _atom_site_symmetry_multiplicity
 _atom_site_fract_x
 _atom_site_fract_y
 _atom_site_fract_z
 _atom_site_occupancy
  Rb  Rb0  1  0.25000000  0.98934496  0.60776081  1
  Rb  Rb1  1  0.75000000  0.01658149  0.39642127  1
  V  V2  1  0.25000000  0.03557636  0.20397943  1
  V  V3  1  0.75000000  0.97102730  0.79100153  1
  V  V4  1  0.25000000  0.32100874  0.88184302  1
  V  V5  1  0.75000000  0.67827305  0.11747693  1
  V  V6  1  0.25000000  0.37038024  0.50299822  1
  V  V7  1  0.75000000  0.62245099  0.50195640  1
  Cd  Cd8  1  0.25000000  0.69514859  0.36019028  1
  Cu  Cu9  1  0.25000000  0.89483814  0.89539110  1
  Cu  Cu10  1  0.75000000  0.10364721  0.10242567  1
  Cu  Cu11  1  0.25000000  0.64348352  0.05822768  1
  Cu  Cu12  1  0.75000000  0.35525786  0.93748046  1
  Cu  Cu13  1  0.50426917  0.39281881  0.22566832  1
  Cu  Cu14  1  0.99947585  0.60418523  0.77351844  1
  Cu  Cu15  1  0.50052415  0.60418523  0.77351844  1
  Cu  Cu16  1  0.99573083  0.39281881  0.22566832  1
  Cu  Cu17  1  0.75000000  0.30165243  0.63548596  1
  O  O18  1  0.25000000  0.65676429  0.87667170  1
  O  O19  1  0.75000000  0.34285128  0.11723725  1
  O  O20  1  0.25000000  0.41187182  0.03380252  1
  O  O21  1  0.75000000  0.58736705  0.96511229  1
  O  O22  1  0.25000000  0.53595195  0.61037730  1
  O  O23  1  0.75000000  0.46774370  0.38527111  1
  O  O24  1  0.25000000  0.42332565  0.33589818  1
  O  O25  1  0.75000000  0.54356604  0.66287467  1
  O  O26  1  0.48020342  0.15834775  0.20856669  1
  O  O27  1  0.97529829  0.84145709  0.78559239  1
  O  O28  1  0.52470171  0.84145709  0.78559239  1
  O  O29  1  0.01979658  0.15834775  0.20856669  1
  O  O30  1  0.49082889  0.37828251  0.80895396  1
  O  O31  1  0.99071440  0.62302149  0.19210943  1
  O  O32  1  0.50928560  0.62302149  0.19210943  1
  O  O33  1  0.00917111  0.37828251  0.80895396  1
  O  O34  1  0.25000000  0.95144604  0.33657611  1
  O  O35  1  0.75000000  0.07661268  0.66728789  1
  O  O36  1  0.25000000  0.87953606  0.07750484  1
  O  O37  1  0.75000000  0.11978970  0.92174729  1
  O  O38  1  0.25000000  0.11746114  0.88270674  1
  O  O39  1  0.75000000  0.88107500  0.11641027  1
  O  O40  1  0.47604102  0.26222403  0.52926505  1
  O  O41  1  0.96668715  0.74264644  0.48526727  1
  O  O42  1  0.53331285  0.74264644  0.48526727  1
  O  O43  1  0.02395898  0.26222403  0.52926505  1
