# generated using pymatgen
data_NbCrNi
_symmetry_space_group_name_H-M   'P 1'
_cell_length_a   4.91643366
_cell_length_b   4.79398392
_cell_length_c   7.88458500
_cell_angle_alpha   90.00000000
_cell_angle_beta   90.00000000
_cell_angle_gamma   119.18706029
_symmetry_Int_Tables_number   1
_chemical_formula_structural   NbCrNi
_chemical_formula_sum   'Nb4 Cr4 Ni4'
_cell_volume   162.23922926
_cell_formula_units_Z   4
loop_
 _symmetry_equiv_pos_site_id
 _symmetry_equiv_pos_as_xyz
  1  'x, y, z'
loop_
 _atom_site_type_symbol
 _atom_site_label
 _atom_site_symmetry_multiplicity
 _atom_site_fract_x
 _atom_site_fract_y
 _atom_site_fract_z
 _atom_site_occupancy
  Nb  Nb0  1  0.67424866  0.33710828  0.56124975  1
  Nb  Nb1  1  0.32709311  0.66356766  0.43951411  1
  Nb  Nb2  1  0.32709311  0.66356766  0.06048589  1
  Nb  Nb3  1  0.67424866  0.33710828  0.93875025  1
  Cr  Cr4  1  0.00217097  0.00097168  0.50125743  1
  Cr  Cr5  1  0.00217097  0.00097168  0.99874257  1
  Cr  Cr6  1  0.16705953  0.33266669  0.75000000  1
  Cr  Cr7  1  0.16712689  0.83456019  0.75000000  1
  Ni  Ni8  1  0.65199382  0.82597471  0.75000000  1
  Ni  Ni9  1  0.83410320  0.66453905  0.25000000  1
  Ni  Ni10  1  0.83411780  0.16964163  0.25000000  1
  Ni  Ni11  1  0.33857329  0.16932250  0.25000000  1
