# generated using pymatgen
data_PuAlFe
_symmetry_space_group_name_H-M   'P 1'
_cell_length_a   5.24182339
_cell_length_b   5.24551585
_cell_length_c   8.54590900
_cell_angle_alpha   90.00000000
_cell_angle_beta   90.00000000
_cell_angle_gamma   62.60583964
_symmetry_Int_Tables_number   1
_chemical_formula_structural   PuAlFe
_chemical_formula_sum   'Pu4 Al4 Fe4'
_cell_volume   208.62889622
_cell_formula_units_Z   4
loop_
 _symmetry_equiv_pos_site_id
 _symmetry_equiv_pos_as_xyz
  1  'x, y, z'
loop_
 _atom_site_type_symbol
 _atom_site_label
 _atom_site_symmetry_multiplicity
 _atom_site_fract_x
 _atom_site_fract_y
 _atom_site_fract_z
 _atom_site_occupancy
  Pu  Pu0  1  0.33864194  0.33900716  0.54433252  1
  Pu  Pu1  1  0.66336241  0.66320458  0.42113190  1
  Pu  Pu2  1  0.66336241  0.66320458  0.07886810  1
  Pu  Pu3  1  0.33864194  0.33900716  0.95566748  1
  Al  Al4  1  0.99442160  0.99396495  0.49449494  1
  Al  Al5  1  0.99442160  0.99396495  0.00550506  1
  Al  Al6  1  0.83851407  0.34977728  0.75000000  1
  Al  Al7  1  0.34970871  0.83862400  0.75000000  1
  Fe  Fe8  1  0.84163062  0.84180395  0.75000000  1
  Fe  Fe9  1  0.15398405  0.66459558  0.25000000  1
  Fe  Fe10  1  0.66442058  0.15403299  0.25000000  1
  Fe  Fe11  1  0.15889006  0.15881283  0.25000000  1
