# generated using pymatgen
data_Na4(Fe2O3)5
_symmetry_space_group_name_H-M   'P 1'
_cell_length_a   5.32300162
_cell_length_b   8.55296710
_cell_length_c   8.14546057
_cell_angle_alpha   109.48729101
_cell_angle_beta   108.84823168
_cell_angle_gamma   90.08356072
_symmetry_Int_Tables_number   1
_chemical_formula_structural   Na4(Fe2O3)5
_chemical_formula_sum   'Na4 Fe10 O15'
_cell_volume   328.36319297
_cell_formula_units_Z   1
loop_
 _symmetry_equiv_pos_site_id
 _symmetry_equiv_pos_as_xyz
  1  'x, y, z'
loop_
 _atom_site_type_symbol
 _atom_site_label
 _atom_site_symmetry_multiplicity
 _atom_site_fract_x
 _atom_site_fract_y
 _atom_site_fract_z
 _atom_site_occupancy
  Na  Na0  1  0.09216154  0.50089284  0.19322010  1
  Na  Na1  1  0.30749933  0.50199086  0.61270757  1
  Na  Na2  1  0.49250067  0.49800914  0.98729243  1
  Na  Na3  1  0.70783846  0.49910716  0.40677990  1
  Fe  Fe4  1  0.69794371  0.16162643  0.06431671  1
  Fe  Fe5  1  0.89485104  0.17413750  0.47332450  1
  Fe  Fe6  1  0.09852605  0.17120019  0.86778856  1
  Fe  Fe7  1  0.29055466  0.16713556  0.26695975  1
  Fe  Fe8  1  0.50853705  0.16750207  0.67045541  1
  Fe  Fe9  1  0.90514896  0.82586250  0.12667550  1
  Fe  Fe10  1  0.10205629  0.83837357  0.53568329  1
  Fe  Fe11  1  0.29146295  0.83249793  0.92954459  1
  Fe  Fe12  1  0.50944534  0.83286444  0.33304025  1
  Fe  Fe13  1  0.70147395  0.82879981  0.73221144  1
  O  O14  1  0.61835927  0.71222408  0.88414658  1
  O  O15  1  0.21705706  0.71318220  0.10245816  1
  O  O16  1  0.42925154  0.70937645  0.48416914  1
  O  O17  1  0.99624469  0.70852002  0.67511475  1
  O  O18  1  0.79268555  0.70389544  0.26684300  1
  O  O19  1  0.58294294  0.28681780  0.49754184  1
  O  O20  1  0.18164073  0.28777592  0.71585342  1
  O  O21  1  0.37074846  0.29062355  0.11583086  1
  O  O22  1  0.00731445  0.29610456  0.33315700  1
  O  O23  1  0.80375531  0.29147998  0.92488525  1
  O  O24  1  0.79474744  0.00279460  0.59786844  1
  O  O25  1  0.40000000  0.00000000  0.80000000  1
  O  O26  1  0.61106846  0.00308190  0.21618269  1
  O  O27  1  0.18893154  0.99691810  0.38381731  1
  O  O28  1  0.00525256  0.99720540  0.00213156  1
