# generated using pymatgen
data_Nb3(CuS3)2
_symmetry_space_group_name_H-M   'P 1'
_cell_length_a   3.38469601
_cell_length_b   3.38469601
_cell_length_c   40.71447554
_cell_angle_alpha   90.00005383
_cell_angle_beta   89.99994617
_cell_angle_gamma   120.00025696
_symmetry_Int_Tables_number   1
_chemical_formula_structural   Nb3(CuS3)2
_chemical_formula_sum   'Nb6 Cu4 S12'
_cell_volume   403.94077078
_cell_formula_units_Z   2
loop_
 _symmetry_equiv_pos_site_id
 _symmetry_equiv_pos_as_xyz
  1  'x, y, z'
loop_
 _atom_site_type_symbol
 _atom_site_label
 _atom_site_symmetry_multiplicity
 _atom_site_fract_x
 _atom_site_fract_y
 _atom_site_fract_z
 _atom_site_occupancy
  Nb  Nb0  1  0.66665063  0.33334937  0.08332389  1
  Nb  Nb1  1  0.66666009  0.33333991  0.42527487  1
  Nb  Nb2  1  0.66666936  0.33333064  0.75039834  1
  Nb  Nb3  1  0.33335331  0.66664669  0.24156174  1
  Nb  Nb4  1  0.33334768  0.66665232  0.58631410  1
  Nb  Nb5  1  0.33334226  0.66665774  0.91945492  1
  Cu  Cu6  1  0.66666057  0.33333943  0.01224746  1
  Cu  Cu7  1  0.66667352  0.33332648  0.35347106  1
  Cu  Cu8  1  0.66665007  0.33334993  0.67918704  1
  Cu  Cu9  1  0.33336194  0.66663806  0.31330891  1
  S  S10  1  0.66668510  0.33331490  0.20374997  1
  S  S11  1  0.66668617  0.33331383  0.54893126  1
  S  S12  1  0.66667089  0.33332911  0.88209856  1
  S  S13  1  0.33332037  0.66667963  0.12078982  1
  S  S14  1  0.33332399  0.66667601  0.46309126  1
  S  S15  1  0.33333732  0.66666268  0.78793948  1
  S  S16  1  0.33330772  0.66669228  0.04371041  1
  S  S17  1  0.33332936  0.66667064  0.38632936  1
  S  S18  1  0.33332506  0.66667494  0.71079131  1
  S  S19  1  0.66668291  0.33331709  0.28046950  1
  S  S20  1  0.66668784  0.33331216  0.62487881  1
  S  S21  1  0.66667383  0.33332617  0.95801092  1
