# generated using pymatgen
data_NaZn3H3S2O9
_symmetry_space_group_name_H-M   'P 1'
_cell_length_a   5.94324859
_cell_length_b   5.94324950
_cell_length_c   13.80149778
_cell_angle_alpha   90.00077319
_cell_angle_beta   90.00077163
_cell_angle_gamma   60.00017577
_symmetry_Int_Tables_number   1
_chemical_formula_structural   NaZn3H3S2O9
_chemical_formula_sum   'Na2 Zn6 H6 S4 O18'
_cell_volume   422.18760586
_cell_formula_units_Z   2
loop_
 _symmetry_equiv_pos_site_id
 _symmetry_equiv_pos_as_xyz
  1  'x, y, z'
loop_
 _atom_site_type_symbol
 _atom_site_label
 _atom_site_symmetry_multiplicity
 _atom_site_fract_x
 _atom_site_fract_y
 _atom_site_fract_z
 _atom_site_occupancy
  Na  Na0  1  0.99999964  0.99999797  0.99004190  1
  Na  Na1  1  0.99999737  0.00000048  0.49004394  1
  Zn  Zn2  1  0.34341363  0.00172148  0.25400029  1
  Zn  Zn3  1  0.65485778  0.34341921  0.25399628  1
  Zn  Zn4  1  0.00172821  0.65486079  0.25399394  1
  Zn  Zn5  1  0.00172138  0.34341381  0.75400029  1
  Zn  Zn6  1  0.65486080  0.00172830  0.75399396  1
  Zn  Zn7  1  0.34341901  0.65485780  0.75399629  1
  H  H8  1  0.99999581  0.00000586  0.17143613  1
  H  H9  1  0.00000583  0.99999586  0.67143614  1
  H  H10  1  0.33331818  0.33331710  0.13254832  1
  H  H11  1  0.33331715  0.33331816  0.63254828  1
  H  H12  1  0.66668048  0.66668247  0.87039379  1
  H  H13  1  0.66668247  0.66668047  0.37039378  1
  S  S14  1  0.33333249  0.33333080  0.43960746  1
  S  S15  1  0.33333143  0.33333260  0.93960742  1
  S  S16  1  0.66666751  0.66666795  0.56372801  1
  S  S17  1  0.66666753  0.66666751  0.06372793  1
  O  O18  1  0.99999786  0.00000339  0.24219924  1
  O  O19  1  0.00000347  0.99999756  0.74219922  1
  O  O20  1  0.33333130  0.33332824  0.20395585  1
  O  O21  1  0.33332820  0.33333120  0.70395576  1
  O  O22  1  0.66666921  0.66667197  0.79908415  1
  O  O23  1  0.66667269  0.66666879  0.29908424  1
  O  O24  1  0.24544787  0.15025590  0.39479904  1
  O  O25  1  0.60428040  0.24544939  0.39479423  1
  O  O26  1  0.15025327  0.60428370  0.39479816  1
  O  O27  1  0.15025538  0.24544777  0.89479902  1
  O  O28  1  0.60428385  0.15025307  0.89479825  1
  O  O29  1  0.24544944  0.60428032  0.89479421  1
  O  O30  1  0.75358020  0.85089840  0.60830521  1
  O  O31  1  0.39553908  0.75357850  0.60831071  1
  O  O32  1  0.85089953  0.39553447  0.60830642  1
  O  O33  1  0.85089821  0.75358004  0.10830511  1
  O  O34  1  0.39553470  0.85089919  0.10830635  1
  O  O35  1  0.75357864  0.39553946  0.10831068  1
