# generated using pymatgen
data_NaCd3(RhO2)8
_symmetry_space_group_name_H-M   'P 1'
_cell_length_a   3.11807097
_cell_length_b   9.22677659
_cell_length_c   11.00448789
_cell_angle_alpha   90.25069316
_cell_angle_beta   90.00000000
_cell_angle_gamma   90.00000000
_symmetry_Int_Tables_number   1
_chemical_formula_structural   NaCd3(RhO2)8
_chemical_formula_sum   'Na1 Cd3 Rh8 O16'
_cell_volume   316.59327150
_cell_formula_units_Z   1
loop_
 _symmetry_equiv_pos_site_id
 _symmetry_equiv_pos_as_xyz
  1  'x, y, z'
loop_
 _atom_site_type_symbol
 _atom_site_label
 _atom_site_symmetry_multiplicity
 _atom_site_fract_x
 _atom_site_fract_y
 _atom_site_fract_z
 _atom_site_occupancy
  Na  Na0  1  0.75000000  0.73466045  0.15850666  1
  Cd  Cd1  1  0.75000000  0.23569015  0.33836958  1
  Cd  Cd2  1  0.25000000  0.26443637  0.83903016  1
  Cd  Cd3  1  0.25000000  0.76350039  0.66202233  1
  Rh  Rh4  1  0.75000000  0.09113948  0.59682778  1
  Rh  Rh5  1  0.75000000  0.59268973  0.90330204  1
  Rh  Rh6  1  0.25000000  0.90586933  0.39827915  1
  Rh  Rh7  1  0.25000000  0.41138085  0.09965047  1
  Rh  Rh8  1  0.75000000  0.04957531  0.11749761  1
  Rh  Rh9  1  0.75000000  0.55637592  0.38216345  1
  Rh  Rh10  1  0.25000000  0.94614111  0.88474402  1
  Rh  Rh11  1  0.25000000  0.44624800  0.61586597  1
  O  O12  1  0.75000000  0.08578269  0.93225679  1
  O  O13  1  0.75000000  0.58588528  0.56876815  1
  O  O14  1  0.25000000  0.91501798  0.06909554  1
  O  O15  1  0.25000000  0.41333840  0.42921338  1
  O  O16  1  0.75000000  0.96399199  0.29091277  1
  O  O17  1  0.75000000  0.44820998  0.21499624  1
  O  O18  1  0.25000000  0.04957035  0.71190757  1
  O  O19  1  0.25000000  0.54940835  0.78716038  1
  O  O20  1  0.75000000  0.30401348  0.66355299  1
  O  O21  1  0.75000000  0.80423033  0.83743488  1
  O  O22  1  0.25000000  0.69285010  0.33940616  1
  O  O23  1  0.25000000  0.19482430  0.16541450  1
  O  O24  1  0.75000000  0.38542299  0.96983784  1
  O  O25  1  0.75000000  0.88185200  0.52874651  1
  O  O26  1  0.25000000  0.61517539  0.02573647  1
  O  O27  1  0.25000000  0.11271929  0.46930062  1
