# generated using pymatgen
data_NaSi34
_symmetry_space_group_name_H-M   'P 1'
_cell_length_a   10.40934957
_cell_length_b   10.40934957
_cell_length_c   10.40934957
_cell_angle_alpha   90.00000000
_cell_angle_beta   60.00000000
_cell_angle_gamma   120.00000000
_symmetry_Int_Tables_number   1
_chemical_formula_structural   NaSi34
_chemical_formula_sum   'Na1 Si34'
_cell_volume   797.54607595
_cell_formula_units_Z   1
loop_
 _symmetry_equiv_pos_site_id
 _symmetry_equiv_pos_as_xyz
  1  'x, y, z'
loop_
 _atom_site_type_symbol
 _atom_site_label
 _atom_site_symmetry_multiplicity
 _atom_site_fract_x
 _atom_site_fract_y
 _atom_site_fract_z
 _atom_site_occupancy
  Na  Na0  1  0.75000000  0.37500000  0.37500000  1
  Si  Si1  1  0.25000000  0.12500000  0.12500000  1
  Si  Si2  1  0.75000000  0.87500000  0.87500000  1
  Si  Si3  1  0.13454696  0.76389995  0.37064701  1
  Si  Si4  1  0.13454696  0.37064701  0.99480602  1
  Si  Si5  1  0.36545304  0.37064701  0.76389995  1
  Si  Si6  1  0.36545304  0.99480602  0.37064701  1
  Si  Si7  1  0.74129403  0.37064701  0.76389995  1
  Si  Si8  1  0.75870597  0.76389995  0.37064701  1
  Si  Si9  1  0.75870597  0.99480602  0.37064701  1
  Si  Si10  1  0.74129403  0.37064701  0.99480602  1
  Si  Si11  1  0.13454696  0.37064701  0.37064701  1
  Si  Si12  1  0.36545304  0.99480602  0.76389995  1
  Si  Si13  1  0.13454696  0.76389995  0.99480602  1
  Si  Si14  1  0.36545304  0.37064701  0.37064701  1
  Si  Si15  1  0.86512728  0.23587286  0.62925442  1
  Si  Si16  1  0.86512728  0.62925442  0.00561829  1
  Si  Si17  1  0.63487272  0.62925442  0.23587286  1
  Si  Si18  1  0.63487272  0.00561829  0.62925442  1
  Si  Si19  1  0.25850885  0.62925442  0.23587286  1
  Si  Si20  1  0.24149115  0.23587286  0.62925442  1
  Si  Si21  1  0.24149115  0.00561829  0.62925442  1
  Si  Si22  1  0.25850885  0.62925442  0.00561829  1
  Si  Si23  1  0.86512728  0.62925442  0.62925442  1
  Si  Si24  1  0.63487272  0.00561829  0.23587286  1
  Si  Si25  1  0.86512728  0.23587286  0.00561829  1
  Si  Si26  1  0.63487272  0.62925442  0.62925442  1
  Si  Si27  1  0.06543663  0.84815494  0.21728169  1
  Si  Si28  1  0.06543663  0.21728169  0.21728169  1
  Si  Si29  1  0.43456337  0.21728169  0.84815494  1
  Si  Si30  1  0.43456337  0.21728169  0.21728169  1
  Si  Si31  1  0.93433596  0.15150394  0.78283202  1
  Si  Si32  1  0.93433596  0.78283202  0.78283202  1
  Si  Si33  1  0.56566404  0.78283202  0.15150394  1
  Si  Si34  1  0.56566404  0.78283202  0.78283202  1
