# generated using pymatgen
data_Na4Si5Sn2O17
_symmetry_space_group_name_H-M   'P 1'
_cell_length_a   5.29706296
_cell_length_b   10.88510420
_cell_length_c   13.97379298
_cell_angle_alpha   109.48247293
_cell_angle_beta   90.00000000
_cell_angle_gamma   75.91760139
_symmetry_Int_Tables_number   1
_chemical_formula_structural   Na4Si5Sn2O17
_chemical_formula_sum   'Na8 Si10 Sn4 O34'
_cell_volume   733.84867799
_cell_formula_units_Z   2
loop_
 _symmetry_equiv_pos_site_id
 _symmetry_equiv_pos_as_xyz
  1  'x, y, z'
loop_
 _atom_site_type_symbol
 _atom_site_label
 _atom_site_symmetry_multiplicity
 _atom_site_fract_x
 _atom_site_fract_y
 _atom_site_fract_z
 _atom_site_occupancy
  Na  Na0  1  0.76841899  0.43782198  0.66393972  1
  Na  Na1  1  0.20624097  0.56217802  0.83606028  1
  Na  Na2  1  0.23151433  0.56118749  0.33514717  1
  Na  Na3  1  0.79270182  0.43881251  0.16485283  1
  Na  Na4  1  0.30601179  0.92973759  0.57776272  1
  Na  Na5  1  0.23574938  0.07026241  0.92223728  1
  Na  Na6  1  0.69374481  0.06812371  0.42172661  1
  Na  Na7  1  0.76186852  0.93187629  0.07827339  1
  Si  Si8  1  0.38244319  0.23254947  0.69805261  1
  Si  Si9  1  0.61499266  0.76745053  0.80194739  1
  Si  Si10  1  0.61974835  0.76567819  0.30069572  1
  Si  Si11  1  0.38542654  0.23432181  0.19930428  1
  Si  Si12  1  0.75237692  -0.00000000  0.75000000  1
  Si  Si13  1  0.25075182  -0.00000000  0.25000000  1
  Si  Si14  1  0.31667912  0.34448973  0.52418917  1
  Si  Si15  1  0.66116885  0.65551027  0.97581083  1
  Si  Si16  1  0.68187518  0.65645878  0.47553190  1
  Si  Si17  1  0.33833396  0.34354122  0.02446810  1
  Sn  Sn18  1  0.83751368  0.31514530  0.86270878  1
  Sn  Sn19  1  0.15265898  0.68485470  0.63729122  1
  Sn  Sn20  1  0.15828078  0.68484642  0.13876431  1
  Sn  Sn21  1  0.84312720  0.31515358  0.36123569  1
  O  O22  1  0.64604132  0.77303301  0.92071318  1
  O  O23  1  0.41907433  0.22696699  0.57928682  1
  O  O24  1  0.35490582  0.22508527  0.07894313  1
  O  O25  1  0.57999109  0.77491473  0.42105687  1
  O  O26  1  0.52515885  0.34117069  0.77291282  1
  O  O27  1  0.86632954  0.65882931  0.72708718  1
  O  O28  1  0.47303278  0.65843926  0.22691409  1
  O  O29  1  0.13147203  0.34156074  0.27308591  1
  O  O30  1  0.34150877  0.72504772  0.77412004  1
  O  O31  1  0.06655649  0.27495228  0.72587996  1
  O  O32  1  0.65977923  0.27432805  0.22585988  1
  O  O33  1  0.93410728  0.72567195  0.27414012  1
  O  O34  1  0.86684291  0.11151744  0.83367615  1
  O  O35  1  0.97836035  0.88848256  0.66632385  1
  O  O36  1  0.13283791  0.88929568  0.16665624  1
  O  O37  1  0.02213360  0.11070432  0.33334376  1
  O  O38  1  0.52133309  0.07514898  0.69222580  1
  O  O39  1  0.59648207  0.92485102  0.80777420  1
  O  O40  1  0.48054037  0.92386546  0.30760944  1
  O  O41  1  0.40440583  0.07613454  0.19239056  1
  O  O42  1  0.34107303  0.48535037  0.61030683  1
  O  O43  1  0.82642340  0.51464963  0.88969317  1
  O  O44  1  0.65727265  0.51577750  0.38990012  1
  O  O45  1  0.17305016  0.48422250  0.11009988  1
  O  O46  1  0.47637807  0.71519216  0.57667492  1
  O  O47  1  0.19157024  0.28480784  0.92332508  1
  O  O48  1  0.52228591  0.28501274  0.42346593  1
  O  O49  1  0.80729865  0.71498726  0.07653407  1
  O  O50  1  0.36735473  0.64589868  0.00155119  1
  O  O51  1  0.01325341  0.35410132  0.49844881  1
  O  O52  1  0.63181241  0.35428402  0.99910736  1
  O  O53  1  0.98609643  0.64571598  0.50089264  1
  O  O54  1  0.10855818  0.90469303  0.96244853  1
  O  O55  1  0.01325121  0.09530697  0.53755147  1
