# generated using pymatgen
data_Nd3ErFe34
_symmetry_space_group_name_H-M   'P 1'
_cell_length_a   6.41110686
_cell_length_b   6.41110686
_cell_length_c   12.80930065
_cell_angle_alpha   83.01692772
_cell_angle_beta   83.01692772
_cell_angle_gamma   82.85459200
_symmetry_Int_Tables_number   1
_chemical_formula_structural   Nd3ErFe34
_chemical_formula_sum   'Nd3 Er1 Fe34'
_cell_volume   515.48966337
_cell_formula_units_Z   1
loop_
 _symmetry_equiv_pos_site_id
 _symmetry_equiv_pos_as_xyz
  1  'x, y, z'
loop_
 _atom_site_type_symbol
 _atom_site_label
 _atom_site_symmetry_multiplicity
 _atom_site_fract_x
 _atom_site_fract_y
 _atom_site_fract_z
 _atom_site_occupancy
  Nd  Nd0  1  0.65748647  0.65748647  0.83045473  1
  Nd  Nd1  1  0.34234854  0.34234854  0.17299818  1
  Nd  Nd2  1  0.34154008  0.34154008  0.67097870  1
  Er  Er3  1  0.65737875  0.65737875  0.32929403  1
  Fe  Fe4  1  0.90253121  0.90253121  0.44998168  1
  Fe  Fe5  1  0.90603155  0.90603155  0.95117028  1
  Fe  Fe6  1  0.09790564  0.09790564  0.04653984  1
  Fe  Fe7  1  0.09658727  0.09658727  0.54687308  1
  Fe  Fe8  1  0.99891192  0.99891192  0.24860147  1
  Fe  Fe9  1  0.00013170  0.00013170  0.75033537  1
  Fe  Fe10  1  0.99805598  0.50119991  0.00200820  1
  Fe  Fe11  1  0.99966789  0.50143430  0.49818438  1
  Fe  Fe12  1  0.50143430  0.99966789  0.49818438  1
  Fe  Fe13  1  0.50119991  0.99805598  0.00200820  1
  Fe  Fe14  1  0.28565437  0.71126544  0.00440431  1
  Fe  Fe15  1  0.29246070  0.70896766  0.49828459  1
  Fe  Fe16  1  0.72147863  0.98951900  0.14301342  1
  Fe  Fe17  1  0.71020747  0.00058323  0.64450143  1
  Fe  Fe18  1  0.99817016  0.28884763  0.35518843  1
  Fe  Fe19  1  0.99804133  0.29049430  0.85562915  1
  Fe  Fe20  1  0.28884763  0.99817016  0.35518843  1
  Fe  Fe21  1  0.29049430  0.99804133  0.85562915  1
  Fe  Fe22  1  0.98951900  0.72147863  0.14301342  1
  Fe  Fe23  1  0.00058323  0.71020747  0.64450143  1
  Fe  Fe24  1  0.71126544  0.28565437  0.00440431  1
  Fe  Fe25  1  0.70896766  0.29246070  0.49828459  1
  Fe  Fe26  1  0.84771113  0.34268951  0.17187094  1
  Fe  Fe27  1  0.84564237  0.34191272  0.67063570  1
  Fe  Fe28  1  0.34526903  0.34526903  0.42069643  1
  Fe  Fe29  1  0.34116514  0.34116514  0.92472257  1
  Fe  Fe30  1  0.34268951  0.84771113  0.17187094  1
  Fe  Fe31  1  0.34191272  0.84564237  0.67063570  1
  Fe  Fe32  1  0.15187863  0.65952129  0.32656159  1
  Fe  Fe33  1  0.15364712  0.65636957  0.83097296  1
  Fe  Fe34  1  0.65987826  0.65987826  0.07969825  1
  Fe  Fe35  1  0.65741411  0.65741411  0.57514519  1
  Fe  Fe36  1  0.65952129  0.15187863  0.32656159  1
  Fe  Fe37  1  0.65636957  0.15364712  0.83097296  1
