# generated using pymatgen
data_SrCd4S5
_symmetry_space_group_name_H-M   'P 1'
_cell_length_a   3.99013881
_cell_length_b   3.99013881
_cell_length_c   16.23424572
_cell_angle_alpha   82.94092505
_cell_angle_beta   90.00000000
_cell_angle_gamma   120.00000000
_symmetry_Int_Tables_number   1
_chemical_formula_structural   SrCd4S5
_chemical_formula_sum   'Sr1 Cd4 S5'
_cell_volume   221.57536749
_cell_formula_units_Z   1
loop_
 _symmetry_equiv_pos_site_id
 _symmetry_equiv_pos_as_xyz
  1  'x, y, z'
loop_
 _atom_site_type_symbol
 _atom_site_label
 _atom_site_symmetry_multiplicity
 _atom_site_fract_x
 _atom_site_fract_y
 _atom_site_fract_z
 _atom_site_occupancy
  Sr  Sr0  1  -0.00000000  0.00000000  -0.00000000  1
  Cd  Cd1  1  0.59699405  0.19398811  0.20901784  1
  Cd  Cd2  1  0.19894313  0.39788626  0.40317061  1
  Cd  Cd3  1  0.80105687  0.60211374  0.59682939  1
  Cd  Cd4  1  0.40300595  0.80601189  0.79098216  1
  S  S5  1  0.70476673  0.40953346  0.88569982  1
  S  S6  1  0.50000000  0.00000000  0.50000000  1
  S  S7  1  0.10201393  0.20402787  0.69395820  1
  S  S8  1  0.29523327  0.59046654  0.11430018  1
  S  S9  1  0.89798607  0.79597213  0.30604180  1
