# generated using pymatgen
data_MoPd2Rh
_symmetry_space_group_name_H-M   'P 1'
_cell_length_a   2.77944004
_cell_length_b   2.77944004
_cell_length_c   9.22763690
_cell_angle_alpha   81.33806291
_cell_angle_beta   98.66193709
_cell_angle_gamma   120.00000000
_symmetry_Int_Tables_number   1
_chemical_formula_structural   MoPd2Rh
_chemical_formula_sum   'Mo1 Pd2 Rh1'
_cell_volume   60.79493579
_cell_formula_units_Z   1
loop_
 _symmetry_equiv_pos_site_id
 _symmetry_equiv_pos_as_xyz
  1  'x, y, z'
loop_
 _atom_site_type_symbol
 _atom_site_label
 _atom_site_symmetry_multiplicity
 _atom_site_fract_x
 _atom_site_fract_y
 _atom_site_fract_z
 _atom_site_occupancy
  Mo  Mo0  1  0.00180790  0.99819210  0.00542371  1
  Pd  Pd1  1  0.49934468  0.50065532  0.49803404  1
  Pd  Pd2  1  0.25197390  0.74802610  0.75592171  1
  Rh  Rh3  1  0.74687351  0.25312649  0.24062053  1
