# generated using pymatgen
data_Mn2SbAs
_symmetry_space_group_name_H-M   'P 1'
_cell_length_a   3.84665680
_cell_length_b   3.84952860
_cell_length_c   5.66690564
_cell_angle_alpha   90.00000000
_cell_angle_beta   90.00000000
_cell_angle_gamma   59.97529198
_symmetry_Int_Tables_number   1
_chemical_formula_structural   Mn2SbAs
_chemical_formula_sum   'Mn2 Sb1 As1'
_cell_volume   72.65398194
_cell_formula_units_Z   1
loop_
 _symmetry_equiv_pos_site_id
 _symmetry_equiv_pos_as_xyz
  1  'x, y, z'
loop_
 _atom_site_type_symbol
 _atom_site_label
 _atom_site_symmetry_multiplicity
 _atom_site_fract_x
 _atom_site_fract_y
 _atom_site_fract_z
 _atom_site_occupancy
  Mn  Mn0  1  0.99994257  0.00002871  0.52014725  1
  Mn  Mn1  1  0.99994257  0.00002871  0.97985275  1
  Sb  Sb2  1  0.66684662  0.66657669  0.25000000  1
  As  As3  1  0.33326823  0.33336588  0.75000000  1
