# generated using pymatgen
data_SrNdNiRuO6
_symmetry_space_group_name_H-M   'P 1'
_cell_length_a   5.47312532
_cell_length_b   5.53686160
_cell_length_c   8.06216430
_cell_angle_alpha   90.00000000
_cell_angle_beta   89.96139553
_cell_angle_gamma   90.00000000
_symmetry_Int_Tables_number   1
_chemical_formula_structural   SrNdNiRuO6
_chemical_formula_sum   'Sr2 Nd2 Ni2 Ru2 O12'
_cell_volume   244.31526692
_cell_formula_units_Z   2
loop_
 _symmetry_equiv_pos_site_id
 _symmetry_equiv_pos_as_xyz
  1  'x, y, z'
loop_
 _atom_site_type_symbol
 _atom_site_label
 _atom_site_symmetry_multiplicity
 _atom_site_fract_x
 _atom_site_fract_y
 _atom_site_fract_z
 _atom_site_occupancy
  Sr  Sr0  1  0.50612983  0.96890183  0.75059609  1
  Sr  Sr1  1  0.00612983  0.53109817  0.25059609  1
  Nd  Nd2  1  0.48587022  0.04871649  0.24820309  1
  Nd  Nd3  1  0.98587022  0.45128351  0.74820309  1
  Ni  Ni4  1  0.49942220  0.50745416  0.99919497  1
  Ni  Ni5  1  -0.00057780  0.99254584  0.49919497  1
  Ru  Ru6  1  0.49734439  0.50411898  0.50029725  1
  Ru  Ru7  1  0.99734439  0.99588102  0.00029725  1
  O  O8  1  0.79396331  0.70608251  0.54648192  1
  O  O9  1  0.29396331  0.79391749  0.04648192  1
  O  O10  1  0.22195502  0.27865952  0.45986824  1
  O  O11  1  0.72195502  0.22134048  0.95986824  1
  O  O12  1  0.29816181  0.79519048  0.45443401  1
  O  O13  1  0.79816181  0.70480952  0.95443401  1
  O  O14  1  0.72249586  0.22159791  0.54144226  1
  O  O15  1  0.22249586  0.27840209  0.04144226  1
  O  O16  1  0.41061580  0.51207818  0.74231790  1
  O  O17  1  0.91061580  0.98792182  0.24231790  1
  O  O18  1  0.56404156  0.47890516  0.25716427  1
  O  O19  1  0.06404156  0.02109484  0.75716427  1
