# generated using pymatgen
data_Na2CaMn3(SiO3)6
_symmetry_space_group_name_H-M   'P 1'
_cell_length_a   6.62458024
_cell_length_b   7.20496006
_cell_length_c   7.58951781
_cell_angle_alpha   100.85005245
_cell_angle_beta   94.01902103
_cell_angle_gamma   89.27858743
_symmetry_Int_Tables_number   1
_chemical_formula_structural   Na2CaMn3(SiO3)6
_chemical_formula_sum   'Na2 Ca1 Mn3 Si6 O18'
_cell_volume   354.89566286
_cell_formula_units_Z   1
loop_
 _symmetry_equiv_pos_site_id
 _symmetry_equiv_pos_as_xyz
  1  'x, y, z'
loop_
 _atom_site_type_symbol
 _atom_site_label
 _atom_site_symmetry_multiplicity
 _atom_site_fract_x
 _atom_site_fract_y
 _atom_site_fract_z
 _atom_site_occupancy
  Na  Na0  1  0.12878253  0.23452293  0.92027200  1
  Na  Na1  1  0.86763026  0.75430049  0.08065157  1
  Ca  Ca2  1  0.64742955  0.09249058  0.35049904  1
  Mn  Mn3  1  0.36165090  0.42296923  0.65164037  1
  Mn  Mn4  1  0.62707573  0.57817464  0.35118614  1
  Mn  Mn5  1  0.35138384  0.92228201  0.64662113  1
  Si  Si6  1  0.16060008  0.09181760  0.28694781  1
  Si  Si7  1  0.84707623  0.90385368  0.72532376  1
  Si  Si8  1  0.13952031  0.53451020  0.28864329  1
  Si  Si9  1  0.85558303  0.47102086  0.70504657  1
  Si  Si10  1  0.35303716  0.75675326  0.04405982  1
  Si  Si11  1  0.64484125  0.24350693  0.95139404  1
  O  O12  1  0.14531982  0.30409059  0.23395602  1
  O  O13  1  0.87216912  0.69768264  0.78090445  1
  O  O14  1  0.44205118  0.21260531  0.81472241  1
  O  O15  1  0.55868127  0.74566532  0.17668466  1
  O  O16  1  0.26648613  0.97392310  0.10242563  1
  O  O17  1  0.78307560  0.04502247  0.91434088  1
  O  O18  1  0.18783833  0.60481944  0.09587845  1
  O  O19  1  0.79042996  0.40167807  0.88919100  1
  O  O20  1  0.94931176  0.00169839  0.30022258  1
  O  O21  1  0.06943834  0.97041697  0.68509982  1
  O  O22  1  0.38202279  0.72130459  0.82658517  1
  O  O23  1  0.60967936  0.30908556  0.16205898  1
  O  O24  1  0.91920148  0.61035508  0.34605936  1
  O  O25  1  0.06473031  0.37712503  0.64877262  1
  O  O26  1  0.64728175  0.89471802  0.57980413  1
  O  O27  1  0.32958120  0.09379536  0.45756223  1
  O  O28  1  0.66319582  0.42402835  0.54874197  1
  O  O29  1  0.33489490  0.60578330  0.43470413  1
