# generated using pymatgen
data_MnCrSb2
_symmetry_space_group_name_H-M   'P 1'
_cell_length_a   4.04816697
_cell_length_b   4.05125475
_cell_length_c   5.67857382
_cell_angle_alpha   90.00000000
_cell_angle_beta   89.99432662
_cell_angle_gamma   59.97477359
_symmetry_Int_Tables_number   1
_chemical_formula_structural   MnCrSb2
_chemical_formula_sum   'Mn1 Cr1 Sb2'
_cell_volume   80.63199804
_cell_formula_units_Z   1
loop_
 _symmetry_equiv_pos_site_id
 _symmetry_equiv_pos_as_xyz
  1  'x, y, z'
loop_
 _atom_site_type_symbol
 _atom_site_label
 _atom_site_symmetry_multiplicity
 _atom_site_fract_x
 _atom_site_fract_y
 _atom_site_fract_z
 _atom_site_occupancy
  Mn  Mn0  1  0.00000000  -0.00000000  0.00000000  1
  Cr  Cr1  1  0.00000000  -0.00000000  0.50000000  1
  Sb  Sb2  1  0.33248642  0.33375679  0.75068127  1
  Sb  Sb3  1  0.66751358  0.66624321  0.24931873  1
