# generated using pymatgen
data_MnCdS2
_symmetry_space_group_name_H-M   'P 1'
_cell_length_a   4.09197890
_cell_length_b   4.09197890
_cell_length_c   7.04624601
_cell_angle_alpha   73.12013778
_cell_angle_beta   90.00000000
_cell_angle_gamma   120.00000000
_symmetry_Int_Tables_number   1
_chemical_formula_structural   MnCdS2
_chemical_formula_sum   'Mn1 Cd1 S2'
_cell_volume   96.26309589
_cell_formula_units_Z   1
loop_
 _symmetry_equiv_pos_site_id
 _symmetry_equiv_pos_as_xyz
  1  'x, y, z'
loop_
 _atom_site_type_symbol
 _atom_site_label
 _atom_site_symmetry_multiplicity
 _atom_site_fract_x
 _atom_site_fract_y
 _atom_site_fract_z
 _atom_site_occupancy
  Mn  Mn0  1  0.50061808  0.00123616  0.49814576  1
  Cd  Cd1  1  0.99908363  0.99816726  0.00274911  1
  S  S2  1  0.87006123  0.74012246  0.38981631  1
  S  S3  1  0.38023706  0.76047412  0.85928883  1
