# generated using pymatgen
data_Na4Co12P8H4O37
_symmetry_space_group_name_H-M   'P 1'
_cell_length_a   7.99290468
_cell_length_b   9.88030284
_cell_length_c   10.28890104
_cell_angle_alpha   99.55252409
_cell_angle_beta   89.98008928
_cell_angle_gamma   90.11666577
_symmetry_Int_Tables_number   1
_chemical_formula_structural   Na4Co12P8H4O37
_chemical_formula_sum   'Na4 Co12 P8 H4 O37'
_cell_volume   801.26996098
_cell_formula_units_Z   1
loop_
 _symmetry_equiv_pos_site_id
 _symmetry_equiv_pos_as_xyz
  1  'x, y, z'
loop_
 _atom_site_type_symbol
 _atom_site_label
 _atom_site_symmetry_multiplicity
 _atom_site_fract_x
 _atom_site_fract_y
 _atom_site_fract_z
 _atom_site_occupancy
  Na  Na0  1  0.52377178  0.93148007  0.31457339  1
  Na  Na1  1  0.02420940  0.06850529  0.18653979  1
  Na  Na2  1  0.47622822  0.06851993  0.68542661  1
  Na  Na3  1  0.97579060  0.93149471  0.81346021  1
  Co  Co4  1  0.51326894  0.61884805  0.43196826  1
  Co  Co5  1  0.01247327  0.37993042  0.06888940  1
  Co  Co6  1  0.48673106  0.38115195  0.56803174  1
  Co  Co7  1  0.98752673  0.62006958  0.93111060  1
  Co  Co8  1  0.84317485  0.18763232  0.51617342  1
  Co  Co9  1  0.34280829  0.81433227  0.98291869  1
  Co  Co10  1  0.15682515  0.81236768  0.48382658  1
  Co  Co11  1  0.65719171  0.18566773  0.01708131  1
  Co  Co12  1  0.66838229  0.68410296  0.76658330  1
  Co  Co13  1  0.16732529  0.31524775  0.73018730  1
  Co  Co14  1  0.33161771  0.31589704  0.23341670  1
  Co  Co15  1  0.83267471  0.68475225  0.26981270  1
  P  P16  1  0.75896315  0.88194312  0.55365624  1
  P  P17  1  0.25921743  0.11838772  0.94601715  1
  P  P18  1  0.24103685  0.11805688  0.44634376  1
  P  P19  1  0.74078257  0.88161228  0.05398285  1
  P  P20  1  0.27407172  0.64579166  0.71684608  1
  P  P21  1  0.77253480  0.35525137  0.78396999  1
  P  P22  1  0.72592828  0.35420834  0.28315392  1
  P  P23  1  0.22746520  0.64474863  0.21603001  1
  H  H24  1  0.74255141  0.53317311  0.55319739  1
  H  H25  1  0.23641986  0.46680527  0.94703295  1
  H  H26  1  0.25744859  0.46682689  0.44680261  1
  H  H27  1  0.76358014  0.53319473  0.05296705  1
  O  O28  1  0.78482591  0.51402107  0.81617113  1
  O  O29  1  0.28658317  0.48687837  0.68633136  1
  O  O30  1  0.21517409  0.48597893  0.18382887  1
  O  O31  1  0.71341683  0.51312163  0.31366864  1
  O  O32  1  0.05012675  0.12336146  0.42574879  1
  O  O33  1  0.54972344  0.87602413  0.07529081  1
  O  O34  1  0.94987325  0.87663854  0.57425121  1
  O  O35  1  0.45027656  0.12397587  0.92470919  1
  O  O36  1  0.67192009  0.85740219  0.68157078  1
  O  O37  1  0.17178134  0.14290286  0.81807446  1
  O  O38  1  0.32807991  0.14259781  0.31842922  1
  O  O39  1  0.82821866  0.85709714  0.18192554  1
  O  O40  1  0.39230679  0.69654279  0.28516496  1
  O  O41  1  0.89003594  0.30175030  0.21395778  1
  O  O42  1  0.60769321  0.30345721  0.71483504  1
  O  O43  1  0.10996406  0.69824970  0.78604222  1
  O  O44  1  0.62883733  0.55699548  0.58626497  1
  O  O45  1  0.12526417  0.44084429  0.91210425  1
  O  O46  1  0.37116267  0.44300452  0.41373503  1
  O  O47  1  0.87473583  0.55915571  0.08789575  1
  O  O48  1  0.69937160  0.29489322  0.41263430  1
  O  O49  1  0.20268456  0.70282073  0.08571736  1
  O  O50  1  0.30062840  0.70510678  0.58736570  1
  O  O51  1  0.79731544  0.29717927  0.91428264  1
  O  O52  1  0.42110906  0.69846956  0.81586415  1
  O  O53  1  0.91918480  0.30108719  0.68560521  1
  O  O54  1  0.57889094  0.30153044  0.18413585  1
  O  O55  1  0.08081520  0.69891281  0.31439479  1
  O  O56  1  0.79901146  0.77504074  0.93225974  1
  O  O57  1  0.30113366  0.22484667  0.56781853  1
  O  O58  1  0.20098854  0.22495926  0.06774026  1
  O  O59  1  0.69886634  0.77515333  0.43218147  1
  O  O60  1  0.70276702  0.02537770  0.52512863  1
  O  O61  1  0.20235247  0.97487440  0.97430006  1
  O  O62  1  0.29723298  0.97462230  0.47487137  1
  O  O63  1  0.79764753  0.02512560  0.02569994  1
  O  O64  1  -0.00000000  0.50000000  0.50000000  1
