# generated using pymatgen
data_Mn10(SiGe)3
_symmetry_space_group_name_H-M   'P 1'
_cell_length_a   4.88496448
_cell_length_b   7.01700801
_cell_length_c   7.01700825
_cell_angle_alpha   60.03203895
_cell_angle_beta   90.00277543
_cell_angle_gamma   89.99722451
_symmetry_Int_Tables_number   1
_chemical_formula_structural   Mn10(SiGe)3
_chemical_formula_sum   'Mn10 Si3 Ge3'
_cell_volume   208.37044441
_cell_formula_units_Z   1
loop_
 _symmetry_equiv_pos_site_id
 _symmetry_equiv_pos_as_xyz
  1  'x, y, z'
loop_
 _atom_site_type_symbol
 _atom_site_label
 _atom_site_symmetry_multiplicity
 _atom_site_fract_x
 _atom_site_fract_y
 _atom_site_fract_z
 _atom_site_occupancy
  Mn  Mn0  1  0.75018762  0.24345802  0.75654198  1
  Mn  Mn1  1  0.75011992  0.75669247  0.00016964  1
  Mn  Mn2  1  0.75011992  -0.00016964  0.24330753  1
  Mn  Mn3  1  0.24984720  0.75688696  0.24311304  1
  Mn  Mn4  1  0.24992429  0.24283169  0.00004087  1
  Mn  Mn5  1  0.24992429  0.99995913  0.75716831  1
  Mn  Mn6  1  0.49406293  0.33341850  0.33324464  1
  Mn  Mn7  1  0.49406293  0.66675536  0.66658150  1
  Mn  Mn8  1  0.00587653  0.66674094  0.66658544  1
  Mn  Mn9  1  0.00587653  0.33341456  0.33325906  1
  Si  Si10  1  0.24981316  0.39501968  0.60498032  1
  Si  Si11  1  0.24982557  0.60493724  0.00001314  1
  Si  Si12  1  0.24982557  -0.00001314  0.39506276  1
  Ge  Ge13  1  0.75018085  0.60175590  0.39824410  1
  Ge  Ge14  1  0.75017634  0.39829568  -0.00001666  1
  Ge  Ge15  1  0.75017634  0.00001666  0.60170432  1
