# generated using pymatgen
data_MoCl3
_symmetry_space_group_name_H-M   'P 1'
_cell_length_a   5.82929874
_cell_length_b   5.82929874
_cell_length_c   13.09367870
_cell_angle_alpha   91.26031783
_cell_angle_beta   91.26031783
_cell_angle_gamma   120.13679944
_symmetry_Int_Tables_number   1
_chemical_formula_structural   MoCl3
_chemical_formula_sum   'Mo4 Cl12'
_cell_volume   384.41671312
_cell_formula_units_Z   4
loop_
 _symmetry_equiv_pos_site_id
 _symmetry_equiv_pos_as_xyz
  1  'x, y, z'
loop_
 _atom_site_type_symbol
 _atom_site_label
 _atom_site_symmetry_multiplicity
 _atom_site_fract_x
 _atom_site_fract_y
 _atom_site_fract_z
 _atom_site_occupancy
  Mo  Mo0  1  0.87040137  0.12959863  0.00000000  1
  Mo  Mo1  1  0.12959863  0.87040137  0.00000000  1
  Mo  Mo2  1  0.81336746  0.18663254  0.50000000  1
  Mo  Mo3  1  0.18663254  0.81336746  0.50000000  1
  Cl  Cl4  1  0.83578635  0.83578635  0.59700571  1
  Cl  Cl5  1  0.16421365  0.16421365  0.40299429  1
  Cl  Cl6  1  0.15524449  0.15524449  0.86749595  1
  Cl  Cl7  1  0.84475551  0.84475551  0.13250405  1
  Cl  Cl8  1  0.16848036  0.52141184  0.10466353  1
  Cl  Cl9  1  0.52141184  0.16848036  0.10466353  1
  Cl  Cl10  1  0.83151964  0.47858816  0.89533647  1
  Cl  Cl11  1  0.47858816  0.83151964  0.89533647  1
  Cl  Cl12  1  0.16999304  0.49841827  0.61947406  1
  Cl  Cl13  1  0.49841827  0.16999304  0.61947406  1
  Cl  Cl14  1  0.83000696  0.50158173  0.38052594  1
  Cl  Cl15  1  0.50158173  0.83000696  0.38052594  1
