# generated using pymatgen
data_LiMo6(SeS3)2
_symmetry_space_group_name_H-M   'P 1'
_cell_length_a   6.56211339
_cell_length_b   6.56211339
_cell_length_c   6.56211295
_cell_angle_alpha   90.95856586
_cell_angle_beta   90.95856586
_cell_angle_gamma   90.95856371
_symmetry_Int_Tables_number   1
_chemical_formula_structural   LiMo6(SeS3)2
_chemical_formula_sum   'Li1 Mo6 Se2 S6'
_cell_volume   282.45335090
_cell_formula_units_Z   1
loop_
 _symmetry_equiv_pos_site_id
 _symmetry_equiv_pos_as_xyz
  1  'x, y, z'
loop_
 _atom_site_type_symbol
 _atom_site_label
 _atom_site_symmetry_multiplicity
 _atom_site_fract_x
 _atom_site_fract_y
 _atom_site_fract_z
 _atom_site_occupancy
  Li  Li0  1  0.00000000  0.00000000  0.00000000  1
  Mo  Mo1  1  0.58919983  0.78276201  0.44387890  1
  Mo  Mo2  1  0.78276201  0.44387890  0.58919983  1
  Mo  Mo3  1  0.44387890  0.58919983  0.78276201  1
  Mo  Mo4  1  0.41080017  0.21723799  0.55612110  1
  Mo  Mo5  1  0.21723799  0.55612110  0.41080017  1
  Mo  Mo6  1  0.55612110  0.41080017  0.21723799  1
  Se  Se7  1  0.78282130  0.78282130  0.78282130  1
  Se  Se8  1  0.21717870  0.21717870  0.21717870  1
  S  S9  1  0.61613553  0.26874337  0.86829808  1
  S  S10  1  0.26874337  0.86829808  0.61613553  1
  S  S11  1  0.86829808  0.61613553  0.26874337  1
  S  S12  1  0.38386447  0.73125663  0.13170192  1
  S  S13  1  0.73125663  0.13170192  0.38386447  1
  S  S14  1  0.13170192  0.38386447  0.73125663  1
