# generated using pymatgen
data_LiAg2(NO2)3
_symmetry_space_group_name_H-M   'P 1'
_cell_length_a   6.45337959
_cell_length_b   6.45337959
_cell_length_c   8.70252187
_cell_angle_alpha   89.45264384
_cell_angle_beta   89.45264384
_cell_angle_gamma   72.31636047
_symmetry_Int_Tables_number   1
_chemical_formula_structural   LiAg2(NO2)3
_chemical_formula_sum   'Li2 Ag4 N6 O12'
_cell_volume   345.27672729
_cell_formula_units_Z   2
loop_
 _symmetry_equiv_pos_site_id
 _symmetry_equiv_pos_as_xyz
  1  'x, y, z'
loop_
 _atom_site_type_symbol
 _atom_site_label
 _atom_site_symmetry_multiplicity
 _atom_site_fract_x
 _atom_site_fract_y
 _atom_site_fract_z
 _atom_site_occupancy
  Li  Li0  1  0.00034232  0.51428092  0.00174179  1
  Li  Li1  1  0.51428092  0.00034232  0.50174179  1
  Ag  Ag2  1  0.11067623  0.66779178  0.44412482  1
  Ag  Ag3  1  0.32920612  0.92562973  0.06335260  1
  Ag  Ag4  1  0.92562973  0.32920612  0.56335260  1
  Ag  Ag5  1  0.66779178  0.11067623  0.94412482  1
  N  N6  1  0.16521043  0.16525819  0.25268796  1
  N  N7  1  0.84672248  0.83900263  0.24959868  1
  N  N8  1  0.83900263  0.84672248  0.74959868  1
  N  N9  1  0.16525819  0.16521043  0.75268796  1
  N  N10  1  0.47096326  0.57654328  0.01481576  1
  N  N11  1  0.57654328  0.47096326  0.51481576  1
  O  O12  1  0.19221387  0.10158448  0.39218117  1
  O  O13  1  0.89953131  0.82044815  0.10747082  1
  O  O14  1  0.82044815  0.89953131  0.60747082  1
  O  O15  1  0.10158448  0.19221387  0.89218117  1
  O  O16  1  0.03132885  0.34805982  0.22805826  1
  O  O17  1  0.66571590  0.97204564  0.28089151  1
  O  O18  1  0.97204564  0.66571590  0.78089151  1
  O  O19  1  0.34805982  0.03132885  0.72805826  1
  O  O20  1  0.48239116  0.67107383  0.49258289  1
  O  O21  1  0.67107383  0.48239116  0.99258289  1
  O  O22  1  0.45852548  0.34845413  0.50109373  1
  O  O23  1  0.34845413  0.45852548  0.00109373  1
