# generated using pymatgen
data_LaTa2AgO7
_symmetry_space_group_name_H-M   'P 1'
_cell_length_a   3.91004198
_cell_length_b   3.91004198
_cell_length_c   11.28787881
_cell_angle_alpha   80.02628015
_cell_angle_beta   80.02628015
_cell_angle_gamma   90.00000000
_symmetry_Int_Tables_number   1
_chemical_formula_structural   LaTa2AgO7
_chemical_formula_sum   'La1 Ta2 Ag1 O7'
_cell_volume   167.31716075
_cell_formula_units_Z   1
loop_
 _symmetry_equiv_pos_site_id
 _symmetry_equiv_pos_as_xyz
  1  'x, y, z'
loop_
 _atom_site_type_symbol
 _atom_site_label
 _atom_site_symmetry_multiplicity
 _atom_site_fract_x
 _atom_site_fract_y
 _atom_site_fract_z
 _atom_site_occupancy
  La  La0  1  -0.00000000  0.00000000  0.00000000  1
  Ta  Ta1  1  0.39578845  0.39578845  0.20842310  1
  Ta  Ta2  1  0.60421155  0.60421155  0.79157690  1
  Ag  Ag3  1  0.75000000  0.25000000  0.50000000  1
  O  O4  1  0.58489574  0.08489574  0.83020852  1
  O  O5  1  0.08415900  0.58415900  0.83168200  1
  O  O6  1  0.41584100  0.91584100  0.16831800  1
  O  O7  1  0.91510426  0.41510426  0.16979148  1
  O  O8  1  0.31290445  0.31290445  0.37419110  1
  O  O9  1  0.68709555  0.68709555  0.62580890  1
  O  O10  1  0.50000000  0.50000000  0.00000000  1
