# generated using pymatgen
data_La(YC3)2
_symmetry_space_group_name_H-M   'P 1'
_cell_length_a   3.74473711
_cell_length_b   4.13942293
_cell_length_c   9.92200806
_cell_angle_alpha   82.38669576
_cell_angle_beta   89.99999984
_cell_angle_gamma   63.10699240
_symmetry_Int_Tables_number   1
_chemical_formula_structural   La(YC3)2
_chemical_formula_sum   'La1 Y2 C6'
_cell_volume   135.64639418
_cell_formula_units_Z   1
loop_
 _symmetry_equiv_pos_site_id
 _symmetry_equiv_pos_as_xyz
  1  'x, y, z'
loop_
 _atom_site_type_symbol
 _atom_site_label
 _atom_site_symmetry_multiplicity
 _atom_site_fract_x
 _atom_site_fract_y
 _atom_site_fract_z
 _atom_site_occupancy
  La  La0  1  -0.00000000  0.00000000  0.00000000  1
  Y  Y1  1  0.33121510  0.33756880  0.33595374  1
  Y  Y2  1  0.66878490  0.66243120  0.66404626  1
  C  C3  1  0.73505822  0.52988357  0.14934463  1
  C  C4  1  0.07005225  0.85989450  0.46769984  1
  C  C5  1  0.40231469  0.19537161  0.78200732  1
  C  C6  1  0.26494178  0.47011643  0.85065537  1
  C  C7  1  0.59768531  0.80462839  0.21799268  1
  C  C8  1  0.92994775  0.14010550  0.53230016  1
