# generated using pymatgen
data_LaC2
_symmetry_space_group_name_H-M   'P 1'
_cell_length_a   4.16261275
_cell_length_b   4.16261275
_cell_length_c   4.16261275
_cell_angle_alpha   81.62291467
_cell_angle_beta   71.60312740
_cell_angle_gamma   122.59623233
_symmetry_Int_Tables_number   1
_chemical_formula_structural   LaC2
_chemical_formula_sum   'La1 C2'
_cell_volume   52.97388227
_cell_formula_units_Z   1
loop_
 _symmetry_equiv_pos_site_id
 _symmetry_equiv_pos_as_xyz
  1  'x, y, z'
loop_
 _atom_site_type_symbol
 _atom_site_label
 _atom_site_symmetry_multiplicity
 _atom_site_fract_x
 _atom_site_fract_y
 _atom_site_fract_z
 _atom_site_occupancy
  La  La0  1  0.00000000  0.54039147  0.45960853  1
  C  C1  1  0.13321615  0.04080426  0.82597959  1
  C  C2  1  0.86678385  0.04080426  0.09241188  1
