# generated using pymatgen
data_LiTiFeO4
_symmetry_space_group_name_H-M   'P 1'
_cell_length_a   2.94836901
_cell_length_b   8.99922465
_cell_length_c   10.78537697
_cell_angle_alpha   90.00000000
_cell_angle_beta   90.00000000
_cell_angle_gamma   90.00000000
_symmetry_Int_Tables_number   1
_chemical_formula_structural   LiTiFeO4
_chemical_formula_sum   'Li4 Ti4 Fe4 O16'
_cell_volume   286.16878541
_cell_formula_units_Z   4
loop_
 _symmetry_equiv_pos_site_id
 _symmetry_equiv_pos_as_xyz
  1  'x, y, z'
loop_
 _atom_site_type_symbol
 _atom_site_label
 _atom_site_symmetry_multiplicity
 _atom_site_fract_x
 _atom_site_fract_y
 _atom_site_fract_z
 _atom_site_occupancy
  Li  Li0  1  0.75000000  0.25437011  0.86693939  1
  Li  Li1  1  0.75000000  0.75437011  0.63306061  1
  Li  Li2  1  0.25000000  0.74562989  0.13306061  1
  Li  Li3  1  0.25000000  0.24562989  0.36693939  1
  Ti  Ti4  1  0.75000000  0.41388744  0.10706801  1
  Ti  Ti5  1  0.75000000  0.91388744  0.39293199  1
  Ti  Ti6  1  0.25000000  0.58611256  0.89293199  1
  Ti  Ti7  1  0.25000000  0.08611256  0.60706801  1
  Fe  Fe8  1  0.75000000  0.43830003  0.61095488  1
  Fe  Fe9  1  0.75000000  0.93830003  0.88904512  1
  Fe  Fe10  1  0.25000000  0.56169997  0.38904512  1
  Fe  Fe11  1  0.25000000  0.06169997  0.11095488  1
  O  O12  1  0.75000000  0.21184392  0.15460285  1
  O  O13  1  0.75000000  0.71184392  0.34539715  1
  O  O14  1  0.25000000  0.78815608  0.84539715  1
  O  O15  1  0.25000000  0.28815608  0.65460285  1
  O  O16  1  0.75000000  0.11851286  0.48258616  1
  O  O17  1  0.75000000  0.61851286  0.01741384  1
  O  O18  1  0.25000000  0.88148714  0.51741384  1
  O  O19  1  0.25000000  0.38148714  0.98258616  1
  O  O20  1  0.75000000  0.01520471  0.70869471  1
  O  O21  1  0.75000000  0.51520471  0.79130529  1
  O  O22  1  0.25000000  0.98479529  0.29130529  1
  O  O23  1  0.25000000  0.48479529  0.20869471  1
  O  O24  1  0.75000000  0.41274172  0.42344503  1
  O  O25  1  0.75000000  0.91274172  0.07655497  1
  O  O26  1  0.25000000  0.58725828  0.57655497  1
  O  O27  1  0.25000000  0.08725828  0.92344503  1
