# generated using pymatgen
data_LaYC3
_symmetry_space_group_name_H-M   'P 1'
_cell_length_a   7.40105483
_cell_length_b   7.40105483
_cell_length_c   7.40105483
_cell_angle_alpha   70.52877937
_cell_angle_beta   70.52877937
_cell_angle_gamma   109.47122063
_symmetry_Int_Tables_number   1
_chemical_formula_structural   LaYC3
_chemical_formula_sum   'La4 Y4 C12'
_cell_volume   312.07499677
_cell_formula_units_Z   4
loop_
 _symmetry_equiv_pos_site_id
 _symmetry_equiv_pos_as_xyz
  1  'x, y, z'
loop_
 _atom_site_type_symbol
 _atom_site_label
 _atom_site_symmetry_multiplicity
 _atom_site_fract_x
 _atom_site_fract_y
 _atom_site_fract_z
 _atom_site_occupancy
  La  La0  1  0.89293763  0.39293763  0.10706237  1
  La  La1  1  0.50000000  0.10706237  0.00000000  1
  La  La2  1  0.60706237  0.50000000  0.50000000  1
  La  La3  1  0.00000000  -0.00000000  0.39293763  1
  Y  Y4  1  0.50000000  0.60081713  -0.00000000  1
  Y  Y5  1  0.39918287  0.89918287  0.60081713  1
  Y  Y6  1  0.10081713  0.50000000  0.50000000  1
  Y  Y7  1  0.00000000  -0.00000000  0.89918287  1
  C  C8  1  0.44554745  0.25000000  0.30445255  1
  C  C9  1  0.05445255  0.75000000  0.19554745  1
  C  C10  1  0.21079233  0.75000000  0.03920767  1
  C  C11  1  0.28920767  0.25000000  0.46079233  1
  C  C12  1  0.80445255  0.55445255  0.75000000  1
  C  C13  1  0.69554745  0.94554745  0.25000000  1
  C  C14  1  0.53920767  0.78920767  0.25000000  1
  C  C15  1  0.96079233  0.71079233  0.75000000  1
  C  C16  1  0.75000000  0.19554745  0.55445255  1
  C  C17  1  0.25000000  0.30445255  0.94554745  1
  C  C18  1  0.25000000  0.46079233  0.78920767  1
  C  C19  1  0.75000000  0.03920767  0.71079233  1
