# generated using pymatgen
data_Hf20Si12B
_symmetry_space_group_name_H-M   'P 1'
_cell_length_a   5.53646063
_cell_length_b   7.90846044
_cell_length_c   13.69439087
_cell_angle_alpha   89.99999589
_cell_angle_beta   89.99999997
_cell_angle_gamma   89.91529448
_symmetry_Int_Tables_number   1
_chemical_formula_structural   Hf20Si12B
_chemical_formula_sum   'Hf20 Si12 B1'
_cell_volume   599.60660315
_cell_formula_units_Z   1
loop_
 _symmetry_equiv_pos_site_id
 _symmetry_equiv_pos_as_xyz
  1  'x, y, z'
loop_
 _atom_site_type_symbol
 _atom_site_label
 _atom_site_symmetry_multiplicity
 _atom_site_fract_x
 _atom_site_fract_y
 _atom_site_fract_z
 _atom_site_occupancy
  Hf  Hf0  1  0.49999964  0.99999629  0.33453640  1
  Hf  Hf1  1  0.50000047  0.49999105  0.83254826  1
  Hf  Hf2  1  0.50000047  0.49999105  0.16745174  1
  Hf  Hf3  1  0.49999964  0.99999629  0.66546360  1
  Hf  Hf4  1  0.00000289  0.50000776  0.16484564  1
  Hf  Hf5  1  0.99999815  0.00000180  0.66723722  1
  Hf  Hf6  1  0.99999815  0.00000180  0.33276278  1
  Hf  Hf7  1  0.00000289  0.50000776  0.83515436  1
  Hf  Hf8  1  0.75583209  0.24766535  0.00000000  1
  Hf  Hf9  1  0.75059366  0.75114661  0.50000000  1
  Hf  Hf10  1  0.74954727  0.37523217  0.37423807  1
  Hf  Hf11  1  0.75564887  0.87557342  0.87540800  1
  Hf  Hf12  1  0.75564887  0.87557342  0.12459200  1
  Hf  Hf13  1  0.74954727  0.37523217  0.62576193  1
  Hf  Hf14  1  0.24416209  0.75233550  1.00000000  1
  Hf  Hf15  1  0.24940199  0.24885451  0.50000000  1
  Hf  Hf16  1  0.24435285  0.12442880  0.12459263  1
  Hf  Hf17  1  0.25045060  0.62476742  0.62576041  1
  Hf  Hf18  1  0.25045060  0.62476742  0.37423959  1
  Hf  Hf19  1  0.24435285  0.12442880  0.87540737  1
  Si  Si20  1  0.74784992  0.60668611  0.00000000  1
  Si  Si21  1  0.75246891  0.10978953  0.50000000  1
  Si  Si22  1  0.75087832  0.19742019  0.19728068  1
  Si  Si23  1  0.74990754  0.69584265  0.69551831  1
  Si  Si24  1  0.74990754  0.69584265  0.30448169  1
  Si  Si25  1  0.75087832  0.19742019  0.80271932  1
  Si  Si26  1  0.25214204  0.39331660  1.00000000  1
  Si  Si27  1  0.24752480  0.89021029  0.50000000  1
  Si  Si28  1  0.25009829  0.30415691  0.30448209  1
  Si  Si29  1  0.24912771  0.80257841  0.80272117  1
  Si  Si30  1  0.24912771  0.80257841  0.19727883  1
  Si  Si31  1  0.25009829  0.30415691  0.69551791  1
  B  B32  1  0.99999927  0.00000179  0.00000000  1
