# generated using pymatgen
data_SrDyCoO4
_symmetry_space_group_name_H-M   'P 1'
_cell_length_a   5.32224689
_cell_length_b   5.36944663
_cell_length_c   6.68811832
_cell_angle_alpha   90.00000000
_cell_angle_beta   66.55377323
_cell_angle_gamma   90.00000000
_symmetry_Int_Tables_number   1
_chemical_formula_structural   SrDyCoO4
_chemical_formula_sum   'Sr2 Dy2 Co2 O8'
_cell_volume   175.34899456
_cell_formula_units_Z   2
loop_
 _symmetry_equiv_pos_site_id
 _symmetry_equiv_pos_as_xyz
  1  'x, y, z'
loop_
 _atom_site_type_symbol
 _atom_site_label
 _atom_site_symmetry_multiplicity
 _atom_site_fract_x
 _atom_site_fract_y
 _atom_site_fract_z
 _atom_site_occupancy
  Sr  Sr0  1  0.85360170  0.50000000  0.29279660  1
  Sr  Sr1  1  0.64639830  0.00000000  0.70720340  1
  Dy  Dy2  1  0.36393122  0.00000000  0.27213757  1
  Dy  Dy3  1  0.13606878  0.50000000  0.72786243  1
  Co  Co4  1  0.50003080  0.50000000  -0.00006159  1
  Co  Co5  1  -0.00003080  -0.00000000  0.00006159  1
  O  O6  1  0.75000000  0.75000000  -0.00000000  1
  O  O7  1  0.25000000  0.25000000  -0.00000000  1
  O  O8  1  0.75000000  0.25000000  -0.00000000  1
  O  O9  1  0.25000000  0.75000000  -0.00000000  1
  O  O10  1  0.18355085  -0.00000000  0.63289831  1
  O  O11  1  0.66017665  0.50000000  0.67964670  1
  O  O12  1  0.31644915  0.50000000  0.36710169  1
  O  O13  1  0.83982335  0.00000000  0.32035330  1
