# generated using pymatgen
data_K5Yb(MoO4)4
_symmetry_space_group_name_H-M   'P 1'
_cell_length_a   6.13814748
_cell_length_b   9.99298235
_cell_length_c   7.82123800
_cell_angle_alpha   73.42889085
_cell_angle_beta   89.99999933
_cell_angle_gamma   90.00000105
_symmetry_Int_Tables_number   1
_chemical_formula_structural   K5Yb(MoO4)4
_chemical_formula_sum   'K5 Yb1 Mo4 O16'
_cell_volume   459.81685116
_cell_formula_units_Z   1
loop_
 _symmetry_equiv_pos_site_id
 _symmetry_equiv_pos_as_xyz
  1  'x, y, z'
loop_
 _atom_site_type_symbol
 _atom_site_label
 _atom_site_symmetry_multiplicity
 _atom_site_fract_x
 _atom_site_fract_y
 _atom_site_fract_z
 _atom_site_occupancy
  K  K0  1  0.50000000  0.31027844  0.12780528  1
  K  K1  1  1.00000000  0.81399596  0.62188094  1
  K  K2  1  0.50000000  0.68972156  0.87219472  1
  K  K3  1  0.00000000  0.18600404  0.37811906  1
  K  K4  1  0.00000000  -0.00000000  0.00000000  1
  Yb  Yb5  1  0.50000000  0.50000000  0.50000000  1
  Mo  Mo6  1  0.00000000  0.59817001  0.21800446  1
  Mo  Mo7  1  0.50000000  0.11043748  0.69574996  1
  Mo  Mo8  1  1.00000000  0.40182999  0.78199554  1
  Mo  Mo9  1  0.50000000  0.88956252  0.30425004  1
  O  O10  1  0.50000000  0.17307139  0.88732756  1
  O  O11  1  1.00000000  0.70546647  0.36158225  1
  O  O12  1  0.50000000  0.82692861  0.11267244  1
  O  O13  1  0.00000000  0.29453353  0.63841775  1
  O  O14  1  0.24768836  0.49393764  0.26528177  1
  O  O15  1  0.73619566  0.00266555  0.70175304  1
  O  O16  1  0.75231164  0.49393764  0.26528177  1
  O  O17  1  0.26380434  0.00266555  0.70175304  1
  O  O18  1  1.00000000  0.70745811  0.99113749  1
  O  O19  1  0.50000000  0.26002415  0.49839275  1
  O  O20  1  0.75231164  0.50606236  0.73471823  1
  O  O21  1  0.26380434  0.99733445  0.29824696  1
  O  O22  1  0.24768836  0.50606236  0.73471823  1
  O  O23  1  0.73619566  0.99733445  0.29824696  1
  O  O24  1  0.00000000  0.29254189  0.00886251  1
  O  O25  1  0.50000000  0.73997585  0.50160725  1
