# generated using pymatgen
data_InMo6(SeS)4
_symmetry_space_group_name_H-M   'P 1'
_cell_length_a   6.80200485
_cell_length_b   6.70757572
_cell_length_c   6.74600352
_cell_angle_alpha   90.25037534
_cell_angle_beta   90.02208709
_cell_angle_gamma   90.00893818
_symmetry_Int_Tables_number   1
_chemical_formula_structural   InMo6(SeS)4
_chemical_formula_sum   'In1 Mo6 Se4 S4'
_cell_volume   307.78319280
_cell_formula_units_Z   1
loop_
 _symmetry_equiv_pos_site_id
 _symmetry_equiv_pos_as_xyz
  1  'x, y, z'
loop_
 _atom_site_type_symbol
 _atom_site_label
 _atom_site_symmetry_multiplicity
 _atom_site_fract_x
 _atom_site_fract_y
 _atom_site_fract_z
 _atom_site_occupancy
  In  In0  1  0.00060213  0.00138215  0.99750018  1
  Mo  Mo1  1  0.58071349  0.76669387  0.44601882  1
  Mo  Mo2  1  0.76199369  0.44272935  0.58421318  1
  Mo  Mo3  1  0.44208272  0.58258016  0.76969148  1
  Mo  Mo4  1  0.41897313  0.22908990  0.55893312  1
  Mo  Mo5  1  0.23647273  0.55543791  0.42231859  1
  Mo  Mo6  1  0.55319289  0.41584336  0.22773385  1
  Se  Se7  1  0.87665878  0.61949626  0.25261449  1
  Se  Se8  1  0.37429312  0.75142589  0.12441326  1
  Se  Se9  1  0.74869542  0.12092401  0.37417272  1
  Se  Se10  1  0.12074427  0.37497705  0.75106522  1
  S  S11  1  0.75027695  0.75802863  0.75797280  1
  S  S12  1  0.24807467  0.24039239  0.24699080  1
  S  S13  1  0.61281590  0.27198014  0.86892677  1
  S  S14  1  0.27441011  0.86901891  0.61743472  1
