# generated using pymatgen
data_Ho4CdS7
_symmetry_space_group_name_H-M   'P 1'
_cell_length_a   3.82556160
_cell_length_b   6.64256344
_cell_length_c   11.56696219
_cell_angle_alpha   104.19148842
_cell_angle_beta   90.00000000
_cell_angle_gamma   73.26424246
_symmetry_Int_Tables_number   1
_chemical_formula_structural   Ho4CdS7
_chemical_formula_sum   'Ho4 Cd1 S7'
_cell_volume   272.10360667
_cell_formula_units_Z   1
loop_
 _symmetry_equiv_pos_site_id
 _symmetry_equiv_pos_as_xyz
  1  'x, y, z'
loop_
 _atom_site_type_symbol
 _atom_site_label
 _atom_site_symmetry_multiplicity
 _atom_site_fract_x
 _atom_site_fract_y
 _atom_site_fract_z
 _atom_site_occupancy
  Ho  Ho0  1  0.69371123  0.61257754  0.19909556  1
  Ho  Ho1  1  0.30724358  0.38551285  0.80417759  1
  Ho  Ho2  1  0.00006709  0.99986582  0.00251502  1
  Ho  Ho3  1  0.11488412  0.77023175  0.57150886  1
  Cd  Cd4  1  0.88461048  0.23077905  0.42078557  1
  S  S5  1  0.74087594  0.51824812  0.64769147  1
  S  S6  1  0.25755589  0.48488822  0.35072576  1
  S  S7  1  0.34070095  0.31859811  0.04946583  1
  S  S8  1  0.65965849  0.68068302  0.94873761  1
  S  S9  1  0.03952083  0.92095833  0.21679161  1
  S  S10  1  0.96053863  0.07892274  0.78572786  1
  S  S11  1  0.50063277  0.99873447  0.50277727  1
