# generated using pymatgen
data_KMg3AlSi3O11F
_symmetry_space_group_name_H-M   'P 1'
_cell_length_a   5.40331442
_cell_length_b   5.37204286
_cell_length_c   10.27904863
_cell_angle_alpha   95.77404584
_cell_angle_beta   94.52253282
_cell_angle_gamma   119.77367475
_symmetry_Int_Tables_number   1
_chemical_formula_structural   KMg3AlSi3O11F
_chemical_formula_sum   'K1 Mg3 Al1 Si3 O11 F1'
_cell_volume   254.78545525
_cell_formula_units_Z   1
loop_
 _symmetry_equiv_pos_site_id
 _symmetry_equiv_pos_as_xyz
  1  'x, y, z'
loop_
 _atom_site_type_symbol
 _atom_site_label
 _atom_site_symmetry_multiplicity
 _atom_site_fract_x
 _atom_site_fract_y
 _atom_site_fract_z
 _atom_site_occupancy
  K  K0  1  0.06129956  0.06186773  0.18677057  1
  Mg  Mg1  1  0.55177997  0.55197262  0.65901856  1
  Mg  Mg2  1  0.88360284  0.21870285  0.65686651  1
  Mg  Mg3  1  0.22549285  0.88441359  0.66007295  1
  Al  Al4  1  0.79885960  0.46961610  0.38599254  1
  Si  Si5  1  0.46044400  0.79621931  0.38083490  1
  Si  Si6  1  0.31002275  0.64364275  0.93312998  1
  Si  Si7  1  0.64345767  0.30991384  0.93297783  1
  O  O8  1  0.85605027  0.52425309  0.56149821  1
  O  O9  1  0.51129542  0.84885057  0.54606139  1
  O  O10  1  0.99527292  0.49493115  0.99012499  1
  O  O11  1  0.49467996  0.99773191  0.99216039  1
  O  O12  1  0.26005736  0.58830906  0.77258642  1
  O  O13  1  0.58862403  0.25070482  0.77250021  1
  O  O14  1  0.12024607  0.62045400  0.32082338  1
  O  O15  1  0.60953092  0.10087615  0.32397772  1
  O  O16  1  0.59993583  0.61188256  0.32061468  1
  O  O17  1  0.49721019  0.49877910  0.99147072  1
  O  O18  1  0.91670196  0.91439609  0.75162685  1
  F  F19  1  0.19543583  0.19248271  0.56089119  1
