# generated using pymatgen
data_KMg3AlSi3O11F
_symmetry_space_group_name_H-M   'P 1'
_cell_length_a   5.39649168
_cell_length_b   5.38678731
_cell_length_c   20.69065291
_cell_angle_alpha   92.60914624
_cell_angle_beta   84.78569687
_cell_angle_gamma   120.05961151
_symmetry_Int_Tables_number   1
_chemical_formula_structural   KMg3AlSi3O11F
_chemical_formula_sum   'K2 Mg6 Al2 Si6 O22 F2'
_cell_volume   518.42272245
_cell_formula_units_Z   2
loop_
 _symmetry_equiv_pos_site_id
 _symmetry_equiv_pos_as_xyz
  1  'x, y, z'
loop_
 _atom_site_type_symbol
 _atom_site_label
 _atom_site_symmetry_multiplicity
 _atom_site_fract_x
 _atom_site_fract_y
 _atom_site_fract_z
 _atom_site_occupancy
  K  K0  1  0.08449280  0.17433916  0.26305397  1
  K  K1  1  0.91015365  0.82566084  0.76305397  1
  Mg  Mg2  1  0.33574501  0.16675156  0.49797124  1
  Mg  Mg3  1  0.82701333  0.16833121  0.99979955  1
  Mg  Mg4  1  0.65868212  0.83166879  0.49979955  1
  Mg  Mg5  1  0.16899344  0.83324844  0.99797124  1
  Mg  Mg6  1  0.00039725  0.49962455  0.49960138  1
  Mg  Mg7  1  0.50077270  0.50037545  0.99960138  1
  Al  Al8  1  0.72556535  0.51400888  0.36601505  1
  Al  Al9  1  0.21155647  0.48599112  0.86601505  1
  Si  Si10  1  0.78893959  0.50982550  0.13377675  1
  Si  Si11  1  0.27911409  0.49017450  0.63377675  1
  Si  Si12  1  0.38999115  0.84113354  0.36323203  1
  Si  Si13  1  0.45677723  0.84444795  0.13380264  1
  Si  Si14  1  0.61232928  0.15555205  0.63380264  1
  Si  Si15  1  0.54885760  0.15886646  0.86323203  1
  O  O16  1  0.55941944  0.16747750  0.33575618  1
  O  O17  1  0.61286346  0.17735896  0.16323194  1
  O  O18  1  0.43550450  0.82264104  0.66323194  1
  O  O19  1  0.39194194  0.83252250  0.83575618  1
  O  O20  1  0.56749358  0.68798232  0.33339079  1
  O  O21  1  0.11279944  0.68050057  0.16212317  1
  O  O22  1  0.43229887  0.31949943  0.66212317  1
  O  O23  1  0.87951127  0.31201768  0.83339079  1
  O  O24  1  0.07992681  0.68171403  0.33355995  1
  O  O25  1  0.61346138  0.67790737  0.16235735  1
  O  O26  1  0.93555401  0.32209263  0.66235735  1
  O  O27  1  0.39821278  0.31828597  0.83355995  1
  O  O28  1  0.68878622  0.50670717  0.45189389  1
  O  O29  1  0.81138875  0.50417643  0.05513260  1
  O  O30  1  0.30721231  0.49582357  0.55513260  1
  O  O31  1  0.18207905  0.49329283  0.95189389  1
  O  O32  1  0.35725783  0.83377285  0.44435663  1
  O  O33  1  0.48384348  0.84257920  0.05511059  1
  O  O34  1  0.64126428  0.15742080  0.55511059  1
  O  O35  1  0.52348498  0.16622715  0.94435663  1
  O  O36  1  0.14810956  0.16751159  0.04489714  1
  O  O37  1  0.98059797  0.83248841  0.54489714  1
  F  F38  1  0.01564203  0.17367703  0.45093715  1
  F  F39  1  0.84196500  0.82632297  0.95093715  1
