# generated using pymatgen
data_FeCo(NiS2)4
_symmetry_space_group_name_H-M   'P 1'
_cell_length_a   6.63001175
_cell_length_b   6.63001175
_cell_length_c   6.63001175
_cell_angle_alpha   90.00000000
_cell_angle_beta   60.00000000
_cell_angle_gamma   120.00000000
_symmetry_Int_Tables_number   1
_chemical_formula_structural   FeCo(NiS2)4
_chemical_formula_sum   'Fe1 Co1 Ni4 S8'
_cell_volume   206.07622827
_cell_formula_units_Z   1
loop_
 _symmetry_equiv_pos_site_id
 _symmetry_equiv_pos_as_xyz
  1  'x, y, z'
loop_
 _atom_site_type_symbol
 _atom_site_label
 _atom_site_symmetry_multiplicity
 _atom_site_fract_x
 _atom_site_fract_y
 _atom_site_fract_z
 _atom_site_occupancy
  Fe  Fe0  1  0.25000000  0.62500000  0.62500000  1
  Co  Co1  1  0.75000000  0.37500000  0.37500000  1
  Ni  Ni2  1  0.49970035  0.49955053  0.00014982  1
  Ni  Ni3  1  0.49970035  0.00014982  0.00014982  1
  Ni  Ni4  1  0.00029965  0.00014982  0.49955053  1
  Ni  Ni5  1  0.00029965  0.00014982  0.00014982  1
  S  S6  1  0.01204818  0.76807226  0.24397591  1
  S  S7  1  0.01204818  0.24397591  0.24397591  1
  S  S8  1  0.48795182  0.24397591  0.76807226  1
  S  S9  1  0.48795182  0.24397591  0.24397591  1
  S  S10  1  0.99024387  0.23536581  0.75487806  1
  S  S11  1  0.99024387  0.75487806  0.75487806  1
  S  S12  1  0.50975613  0.75487806  0.23536581  1
  S  S13  1  0.50975613  0.75487806  0.75487806  1
