# generated using pymatgen
data_FeMo3PdN
_symmetry_space_group_name_H-M   'P 1'
_cell_length_a   6.77847558
_cell_length_b   6.77847558
_cell_length_c   6.77847558
_cell_angle_alpha   90.00000000
_cell_angle_beta   90.00000000
_cell_angle_gamma   90.00000000
_symmetry_Int_Tables_number   1
_chemical_formula_structural   FeMo3PdN
_chemical_formula_sum   'Fe4 Mo12 Pd4 N4'
_cell_volume   311.45557382
_cell_formula_units_Z   4
loop_
 _symmetry_equiv_pos_site_id
 _symmetry_equiv_pos_as_xyz
  1  'x, y, z'
loop_
 _atom_site_type_symbol
 _atom_site_label
 _atom_site_symmetry_multiplicity
 _atom_site_fract_x
 _atom_site_fract_y
 _atom_site_fract_z
 _atom_site_occupancy
  Fe  Fe0  1  0.81710118  0.31710118  0.18289882  1
  Fe  Fe1  1  0.18289882  0.81710118  0.31710118  1
  Fe  Fe2  1  0.31710118  0.18289882  0.81710118  1
  Fe  Fe3  1  0.68289882  0.68289882  0.68289882  1
  Mo  Mo4  1  0.95833003  0.37009588  0.80390186  1
  Mo  Mo5  1  0.04166997  0.87009588  0.69609814  1
  Mo  Mo6  1  0.45833003  0.12990412  0.19609814  1
  Mo  Mo7  1  0.54166997  0.62990412  0.30390186  1
  Mo  Mo8  1  0.37009588  0.80390186  0.95833003  1
  Mo  Mo9  1  0.87009588  0.69609814  0.04166997  1
  Mo  Mo10  1  0.12990412  0.19609814  0.45833003  1
  Mo  Mo11  1  0.62990412  0.30390186  0.54166997  1
  Mo  Mo12  1  0.80390186  0.95833003  0.37009588  1
  Mo  Mo13  1  0.69609814  0.04166997  0.87009588  1
  Mo  Mo14  1  0.19609814  0.45833003  0.12990412  1
  Mo  Mo15  1  0.30390186  0.54166997  0.62990412  1
  Pd  Pd16  1  0.43787798  0.93787798  0.56212202  1
  Pd  Pd17  1  0.93787798  0.56212202  0.43787798  1
  Pd  Pd18  1  0.56212202  0.43787798  0.93787798  1
  Pd  Pd19  1  0.06212202  0.06212202  0.06212202  1
  N  N20  1  0.12564102  0.62564102  0.87435898  1
  N  N21  1  0.87435898  0.12564102  0.62564102  1
  N  N22  1  0.62564102  0.87435898  0.12564102  1
  N  N23  1  0.37435898  0.37435898  0.37435898  1
