# generated using pymatgen
data_Gd2CoNi3
_symmetry_space_group_name_H-M   'P 1'
_cell_length_a   3.96214461
_cell_length_b   3.96179197
_cell_length_c   7.78253485
_cell_angle_alpha   89.95156419
_cell_angle_beta   90.00913691
_cell_angle_gamma   119.95609306
_symmetry_Int_Tables_number   1
_chemical_formula_structural   Gd2CoNi3
_chemical_formula_sum   'Gd2 Co1 Ni3'
_cell_volume   105.84381805
_cell_formula_units_Z   1
loop_
 _symmetry_equiv_pos_site_id
 _symmetry_equiv_pos_as_xyz
  1  'x, y, z'
loop_
 _atom_site_type_symbol
 _atom_site_label
 _atom_site_symmetry_multiplicity
 _atom_site_fract_x
 _atom_site_fract_y
 _atom_site_fract_z
 _atom_site_occupancy
  Gd  Gd0  1  0.00000149  0.99998870  0.00213725  1
  Gd  Gd1  1  0.99998790  0.99998615  0.49779990  1
  Co  Co2  1  0.33327108  0.66666190  0.24995221  1
  Ni  Ni3  1  0.33335588  0.66667774  0.75010427  1
  Ni  Ni4  1  0.66654969  0.33333789  0.24993773  1
  Ni  Ni5  1  0.66663395  0.33334762  0.75006865  1
