# generated using pymatgen
data_K2V6CdCu9O26
_symmetry_space_group_name_H-M   'P 1'
_cell_length_a   6.22257288
_cell_length_b   8.36389980
_cell_length_c   10.92518967
_cell_angle_alpha   97.67239819
_cell_angle_beta   90.00000000
_cell_angle_gamma   90.00000000
_symmetry_Int_Tables_number   1
_chemical_formula_structural   K2V6CdCu9O26
_chemical_formula_sum   'K2 V6 Cd1 Cu9 O26'
_cell_volume   563.51090691
_cell_formula_units_Z   1
loop_
 _symmetry_equiv_pos_site_id
 _symmetry_equiv_pos_as_xyz
  1  'x, y, z'
loop_
 _atom_site_type_symbol
 _atom_site_label
 _atom_site_symmetry_multiplicity
 _atom_site_fract_x
 _atom_site_fract_y
 _atom_site_fract_z
 _atom_site_occupancy
  K  K0  1  0.25000000  0.98847710  0.60567429  1
  K  K1  1  0.75000000  0.01733651  0.39854606  1
  V  V2  1  0.25000000  0.36151350  0.50006694  1
  V  V3  1  0.75000000  0.63304196  0.50471944  1
  V  V4  1  0.25000000  0.03461655  0.20702388  1
  V  V5  1  0.75000000  0.97155706  0.78911811  1
  V  V6  1  0.25000000  0.32111034  0.87984364  1
  V  V7  1  0.75000000  0.67847960  0.11968873  1
  Cd  Cd8  1  0.25000000  0.69342490  0.36420106  1
  Cu  Cu9  1  0.25000000  0.64267104  0.05991841  1
  Cu  Cu10  1  0.75000000  0.35637251  0.93552048  1
  Cu  Cu11  1  0.25000000  0.89600521  0.89601299  1
  Cu  Cu12  1  0.75000000  0.10379260  0.10368536  1
  Cu  Cu13  1  0.50391988  0.39005726  0.22461712  1
  Cu  Cu14  1  0.99899501  0.60588427  0.77405661  1
  Cu  Cu15  1  0.50100499  0.60588427  0.77405661  1
  Cu  Cu16  1  0.99608012  0.39005726  0.22461712  1
  Cu  Cu17  1  0.75000000  0.30097816  0.63058398  1
  O  O18  1  0.25000000  0.42143452  0.33506070  1
  O  O19  1  0.75000000  0.54669471  0.66317091  1
  O  O20  1  0.25000000  0.11699647  0.87757157  1
  O  O21  1  0.75000000  0.88134605  0.12042140  1
  O  O22  1  0.49179330  0.37952065  0.80696263  1
  O  O23  1  0.99172021  0.62159738  0.19352399  1
  O  O24  1  0.50827979  0.62159738  0.19352399  1
  O  O25  1  0.00820670  0.37952065  0.80696263  1
  O  O26  1  0.25000000  0.52834524  0.60646898  1
  O  O27  1  0.75000000  0.47609434  0.38939255  1
  O  O28  1  0.47703189  0.25195972  0.52546202  1
  O  O29  1  0.96733801  0.75422484  0.48814737  1
  O  O30  1  0.53266199  0.75422484  0.48814737  1
  O  O31  1  0.02296811  0.25195972  0.52546202  1
  O  O32  1  0.25000000  0.41020908  0.03327472  1
  O  O33  1  0.75000000  0.58796538  0.96581232  1
  O  O34  1  0.25000000  0.87955980  0.07868567  1
  O  O35  1  0.75000000  0.12089012  0.92131457  1
  O  O36  1  0.48285654  0.15630721  0.21195027  1
  O  O37  1  0.97714409  0.84221455  0.78392365  1
  O  O38  1  0.52285591  0.84221455  0.78392365  1
  O  O39  1  0.01714346  0.15630721  0.21195027  1
  O  O40  1  0.25000000  0.65803193  0.87754918  1
  O  O41  1  0.75000000  0.34362445  0.11527698  1
  O  O42  1  0.25000000  0.95068258  0.33975714  1
  O  O43  1  0.75000000  0.07521655  0.66435260  1
