# generated using pymatgen
data_SrCaCr2O6
_symmetry_space_group_name_H-M   'P 1'
_cell_length_a   3.79101419
_cell_length_b   5.49118399
_cell_length_c   5.49118399
_cell_angle_alpha   88.17939889
_cell_angle_beta   90.00000000
_cell_angle_gamma   90.00000000
_symmetry_Int_Tables_number   1
_chemical_formula_structural   SrCaCr2O6
_chemical_formula_sum   'Sr1 Ca1 Cr2 O6'
_cell_volume   114.25313221
_cell_formula_units_Z   1
loop_
 _symmetry_equiv_pos_site_id
 _symmetry_equiv_pos_as_xyz
  1  'x, y, z'
loop_
 _atom_site_type_symbol
 _atom_site_label
 _atom_site_symmetry_multiplicity
 _atom_site_fract_x
 _atom_site_fract_y
 _atom_site_fract_z
 _atom_site_occupancy
  Sr  Sr0  1  0.50000000  0.50000000  0.00000000  1
  Ca  Ca1  1  0.50000000  0.00000000  0.50000000  1
  Cr  Cr2  1  -0.00000000  0.00000000  0.00000000  1
  Cr  Cr3  1  -0.00000000  0.50000000  0.50000000  1
  O  O4  1  0.00000000  0.24545573  0.25454427  1
  O  O5  1  -0.00000000  0.75454427  0.74545573  1
  O  O6  1  -0.00000000  0.24638564  0.74638564  1
  O  O7  1  0.00000000  0.75361436  0.25361436  1
  O  O8  1  0.50000000  0.00000000  0.00000000  1
  O  O9  1  0.50000000  0.50000000  0.50000000  1
