# generated using pymatgen
data_Dy3TmMn8
_symmetry_space_group_name_H-M   'P 1'
_cell_length_a   5.37658614
_cell_length_b   5.37658613
_cell_length_c   8.59598242
_cell_angle_alpha   71.77566408
_cell_angle_beta   90.00000000
_cell_angle_gamma   120.00000004
_symmetry_Int_Tables_number   1
_chemical_formula_structural   Dy3TmMn8
_chemical_formula_sum   'Dy3 Tm1 Mn8'
_cell_volume   200.67689295
_cell_formula_units_Z   1
loop_
 _symmetry_equiv_pos_site_id
 _symmetry_equiv_pos_as_xyz
  1  'x, y, z'
loop_
 _atom_site_type_symbol
 _atom_site_label
 _atom_site_symmetry_multiplicity
 _atom_site_fract_x
 _atom_site_fract_y
 _atom_site_fract_z
 _atom_site_occupancy
  Dy  Dy0  1  0.37415290  0.74830579  0.87754131  1
  Dy  Dy1  1  0.00085109  0.00170219  0.99744672  1
  Dy  Dy2  1  0.50115617  0.00231235  0.49653148  1
  Tm  Tm3  1  0.87414426  0.74828852  0.37756722  1
  Mn  Mn4  1  0.43706874  0.37396195  0.18896931  1
  Mn  Mn5  1  0.93735186  0.37632089  0.68632725  1
  Mn  Mn6  1  0.43706874  0.87413748  0.18896931  1
  Mn  Mn7  1  0.93735186  0.87470371  0.68632725  1
  Mn  Mn8  1  0.18755299  0.37510597  0.43734104  1
  Mn  Mn9  1  0.68743915  0.37487830  0.93768255  1
  Mn  Mn10  1  0.93689322  0.37396195  0.18896931  1
  Mn  Mn11  1  0.43896904  0.37632089  0.68632725  1
