# generated using pymatgen
data_FeCu2BO5
_symmetry_space_group_name_H-M   'P 1'
_cell_length_a   3.13521505
_cell_length_b   9.65138983
_cell_length_c   12.18888399
_cell_angle_alpha   90.00000000
_cell_angle_beta   90.00000000
_cell_angle_gamma   97.67390898
_symmetry_Int_Tables_number   1
_chemical_formula_structural   FeCu2BO5
_chemical_formula_sum   'Fe4 Cu8 B4 O20'
_cell_volume   365.52250528
_cell_formula_units_Z   4
loop_
 _symmetry_equiv_pos_site_id
 _symmetry_equiv_pos_as_xyz
  1  'x, y, z'
loop_
 _atom_site_type_symbol
 _atom_site_label
 _atom_site_symmetry_multiplicity
 _atom_site_fract_x
 _atom_site_fract_y
 _atom_site_fract_z
 _atom_site_occupancy
  Fe  Fe0  1  0.94436786  0.76550588  0.11778465  1
  Fe  Fe1  1  0.05563214  0.73449412  0.61778465  1
  Fe  Fe2  1  0.05563214  0.23449412  0.88221535  1
  Fe  Fe3  1  0.94436786  0.26550588  0.38221535  1
  Cu  Cu4  1  0.50000000  -0.00000000  0.00000000  1
  Cu  Cu5  1  0.50000000  0.50000000  0.50000000  1
  Cu  Cu6  1  0.54490386  0.49047251  0.77746593  1
  Cu  Cu7  1  0.45509614  0.00952749  0.27746593  1
  Cu  Cu8  1  0.45509614  0.50952749  0.22253407  1
  Cu  Cu9  1  0.54490386  0.99047251  0.72253407  1
  Cu  Cu10  1  -0.00000000  0.50000000  0.00000000  1
  Cu  Cu11  1  -0.00000000  -0.00000000  0.50000000  1
  B  B12  1  0.04811402  0.76324631  0.86636295  1
  B  B13  1  0.95188598  0.73675369  0.36636295  1
  B  B14  1  0.95188598  0.23675369  0.13363705  1
  B  B15  1  0.04811402  0.26324631  0.63363705  1
  O  O16  1  0.60175010  0.37286931  0.91199354  1
  O  O17  1  0.39824990  0.12713069  0.41199354  1
  O  O18  1  0.39824990  0.62713069  0.08800646  1
  O  O19  1  0.60175010  0.87286931  0.58800646  1
  O  O20  1  0.49133542  0.90071065  0.14506163  1
  O  O21  1  0.50866458  0.59928935  0.64506163  1
  O  O22  1  0.50866458  0.09928935  0.85493837  1
  O  O23  1  0.49133542  0.40071065  0.35493837  1
  O  O24  1  0.96228636  0.61905694  0.86910229  1
  O  O25  1  0.03771364  0.88094306  0.36910229  1
  O  O26  1  0.03771364  0.38094306  0.13089771  1
  O  O27  1  0.96228636  0.11905694  0.63089771  1
  O  O28  1  0.11706624  0.32835283  0.73367830  1
  O  O29  1  0.88293376  0.17164717  0.23367830  1
  O  O30  1  0.88293376  0.67164717  0.26632170  1
  O  O31  1  0.11706624  0.82835283  0.76632170  1
  O  O32  1  0.05305915  0.84011144  0.96203407  1
  O  O33  1  0.94694085  0.65988856  0.46203407  1
  O  O34  1  0.94694085  0.15988856  0.03796593  1
  O  O35  1  0.05305915  0.34011144  0.53796593  1
