# generated using pymatgen
data_Er2FeSi4
_symmetry_space_group_name_H-M   'P 1'
_cell_length_a   3.97195517
_cell_length_b   4.08084967
_cell_length_c   7.77064743
_cell_angle_alpha   74.77672867
_cell_angle_beta   90.00000000
_cell_angle_gamma   90.00000000
_symmetry_Int_Tables_number   1
_chemical_formula_structural   Er2FeSi4
_chemical_formula_sum   'Er2 Fe1 Si4'
_cell_volume   121.53431354
_cell_formula_units_Z   1
loop_
 _symmetry_equiv_pos_site_id
 _symmetry_equiv_pos_as_xyz
  1  'x, y, z'
loop_
 _atom_site_type_symbol
 _atom_site_label
 _atom_site_symmetry_multiplicity
 _atom_site_fract_x
 _atom_site_fract_y
 _atom_site_fract_z
 _atom_site_occupancy
  Er  Er0  1  0.25000000  0.89705161  0.20589678  1
  Er  Er1  1  0.75000000  0.09979389  0.80041221  1
  Fe  Fe2  1  0.25000000  0.69355594  0.61288813  1
  Si  Si3  1  0.25000000  0.54324377  0.91351246  1
  Si  Si4  1  0.75000000  0.43686286  0.12627428  1
  Si  Si5  1  0.25000000  0.25646133  0.48707734  1
  Si  Si6  1  0.75000000  0.75703060  0.48593880  1
