# generated using pymatgen
data_HgAs3H12C4S6N
_symmetry_space_group_name_H-M   'P 1'
_cell_length_a   7.42350714
_cell_length_b   10.53579514
_cell_length_c   27.28467243
_cell_angle_alpha   91.06758587
_cell_angle_beta   90.00000000
_cell_angle_gamma   69.37198294
_symmetry_Int_Tables_number   1
_chemical_formula_structural   HgAs3H12C4S6N
_chemical_formula_sum   'Hg4 As12 H48 C16 S24 N4'
_cell_volume   1996.79142009
_cell_formula_units_Z   4
loop_
 _symmetry_equiv_pos_site_id
 _symmetry_equiv_pos_as_xyz
  1  'x, y, z'
loop_
 _atom_site_type_symbol
 _atom_site_label
 _atom_site_symmetry_multiplicity
 _atom_site_fract_x
 _atom_site_fract_y
 _atom_site_fract_z
 _atom_site_occupancy
  Hg  Hg0  1  0.85662658  0.46701496  0.94633676  1
  Hg  Hg1  1  0.32364154  0.53298504  0.55366324  1
  Hg  Hg2  1  0.14337342  0.53298504  0.05366324  1
  Hg  Hg3  1  0.67635846  0.46701496  0.44633676  1
  As  As4  1  0.68241732  0.58037038  0.69180948  1
  As  As5  1  0.26278770  0.41962962  0.80819052  1
  As  As6  1  0.31758268  0.41962962  0.30819052  1
  As  As7  1  0.73721230  0.58037038  0.19180948  1
  As  As8  1  0.75508502  0.52106116  0.81463655  1
  As  As9  1  0.27614618  0.47893884  0.68536345  1
  As  As10  1  0.24491498  0.47893884  0.18536345  1
  As  As11  1  0.72385382  0.52106116  0.31463655  1
  As  As12  1  0.40064366  0.41860037  0.93073756  1
  As  As13  1  0.81924403  0.58139963  0.56926244  1
  As  As14  1  0.59935634  0.58139963  0.06926244  1
  As  As15  1  0.18075597  0.41860037  0.43073756  1
  H  H16  1  0.88759502  0.97024417  0.87759868  1
  H  H17  1  0.85783918  0.02975583  0.62240132  1
  H  H18  1  0.11240498  0.02975583  0.12240132  1
  H  H19  1  0.14216082  0.97024417  0.37759868  1
  H  H20  1  0.28610838  0.03613852  0.81809744  1
  H  H21  1  0.32224690  0.96386148  0.68190256  1
  H  H22  1  0.71389162  0.96386148  0.18190256  1
  H  H23  1  0.67775310  0.03613852  0.31809744  1
  H  H24  1  0.25017588  0.71467300  0.85693083  1
  H  H25  1  0.96484888  0.28532700  0.64306917  1
  H  H26  1  0.74982412  0.28532700  0.14306917  1
  H  H27  1  0.03515112  0.71467300  0.35693083  1
  H  H28  1  0.08388145  0.01608497  0.93810131  1
  H  H29  1  0.09996642  0.98391503  0.56189869  1
  H  H30  1  0.91611855  0.98391503  0.06189869  1
  H  H31  1  0.90003358  0.01608497  0.43810131  1
  H  H32  1  0.14770757  0.12341490  0.89619628  1
  H  H33  1  0.27112248  0.87658510  0.60380372  1
  H  H34  1  0.85229243  0.87658510  0.10380372  1
  H  H35  1  0.72887752  0.12341490  0.39619628  1
  H  H36  1  0.95310445  0.06448259  0.83118633  1
  H  H37  1  0.01758705  0.93551741  0.66881367  1
  H  H38  1  0.04689555  0.93551741  0.16881367  1
  H  H39  1  0.98241295  0.06448259  0.33118633  1
  H  H40  1  0.98767712  0.88747241  0.82071573  1
  H  H41  1  0.87514953  0.11252759  0.67928427  1
  H  H42  1  0.01232288  0.11252759  0.17928427  1
  H  H43  1  0.12485047  0.88747241  0.32071573  1
  H  H44  1  0.39004608  0.75733413  0.90413027  1
  H  H45  1  0.14738021  0.24266587  0.59586973  1
  H  H46  1  0.60995392  0.24266587  0.09586973  1
  H  H47  1  0.85261979  0.75733413  0.40413027  1
  H  H48  1  0.33309330  0.98860324  0.92559362  1
  H  H49  1  0.32169654  0.01139676  0.57440638  1
  H  H50  1  0.66690670  0.01139676  0.07440638  1
  H  H51  1  0.67830346  0.98860324  0.42559362  1
  H  H52  1  0.32373022  0.86279701  0.79977233  1
  H  H53  1  0.18652723  0.13720299  0.70022767  1
  H  H54  1  0.67626978  0.13720299  0.20022767  1
  H  H55  1  0.81347277  0.86279701  0.29977233  1
  H  H56  1  0.47180246  0.89752517  0.84601792  1
  H  H57  1  0.36932763  0.10247483  0.65398208  1
  H  H58  1  0.52819754  0.10247483  0.15398208  1
  H  H59  1  0.63067237  0.89752517  0.34601792  1
  H  H60  1  0.14185901  0.77903038  0.91512953  1
  H  H61  1  0.92088940  0.22096962  0.58487047  1
  H  H62  1  0.85814099  0.22096962  0.08487047  1
  H  H63  1  0.07911060  0.77903038  0.41512953  1
  C  C64  1  0.98901489  0.96495191  0.84790802  1
  C  C65  1  0.95396680  0.03504809  0.65209198  1
  C  C66  1  0.01098511  0.03504809  0.15209198  1
  C  C67  1  0.04603320  0.96495191  0.34790802  1
  C  C68  1  0.32759741  0.93085265  0.83011398  1
  C  C69  1  0.25845006  0.06914735  0.66988602  1
  C  C70  1  0.67240259  0.06914735  0.16988602  1
  C  C71  1  0.74154994  0.93085265  0.33011398  1
  C  C72  1  0.18812302  0.02081497  0.91036235  1
  C  C73  1  0.20893799  0.97918503  0.58963765  1
  C  C74  1  0.81187698  0.97918503  0.08963765  1
  C  C75  1  0.79106201  0.02081497  0.41036235  1
  C  C76  1  0.24712841  0.78351956  0.88785840  1
  C  C77  1  0.03064798  0.21648044  0.61214160  1
  C  C78  1  0.75287159  0.21648044  0.11214160  1
  C  C79  1  0.96935202  0.78351956  0.38785840  1
  S  S80  1  0.02434675  0.33135573  0.79418525  1
  S  S81  1  0.35570249  0.66864427  0.70581475  1
  S  S82  1  0.97565325  0.66864427  0.20581475  1
  S  S83  1  0.64429751  0.33135573  0.29418525  1
  S  S84  1  0.45491754  0.27062511  0.86138037  1
  S  S85  1  0.72554265  0.72937489  0.63861963  1
  S  S86  1  0.54508246  0.72937489  0.13861963  1
  S  S87  1  0.27445735  0.27062511  0.36138037  1
  S  S88  1  0.84969026  0.62348445  0.87647189  1
  S  S89  1  0.47317471  0.37651555  0.62352811  1
  S  S90  1  0.15030974  0.37651555  0.12352811  1
  S  S91  1  0.52682529  0.62348445  0.37647189  1
  S  S92  1  0.77958766  0.67586250  0.75836210  1
  S  S93  1  0.45545016  0.32413750  0.74163790  1
  S  S94  1  0.22041234  0.32413750  0.24163790  1
  S  S95  1  0.54454984  0.67586250  0.25836210  1
  S  S96  1  0.21654068  0.33856118  0.97811495  1
  S  S97  1  0.55510186  0.66143882  0.52188505  1
  S  S98  1  0.78345932  0.66143882  0.02188505  1
  S  S99  1  0.44489814  0.33856118  0.47811495  1
  S  S100  1  0.68284736  0.31040567  0.96677551  1
  S  S101  1  0.99325303  0.68959433  0.53322449  1
  S  S102  1  0.31715264  0.68959433  0.03322449  1
  S  S103  1  0.00674697  0.31040567  0.46677551  1
  N  N104  1  0.18751691  0.92513337  0.86901052  1
  N  N105  1  0.11265029  0.07486663  0.63098948  1
  N  N106  1  0.81248309  0.07486663  0.13098948  1
  N  N107  1  0.88734971  0.92513337  0.36901052  1
