# generated using pymatgen
data_Dy3Si4
_symmetry_space_group_name_H-M   'P 1'
_cell_length_a   3.93582847
_cell_length_b   4.14235968
_cell_length_c   36.11158470
_cell_angle_alpha   86.71199634
_cell_angle_beta   90.08997481
_cell_angle_gamma   90.00000000
_symmetry_Int_Tables_number   1
_chemical_formula_structural   Dy3Si4
_chemical_formula_sum   'Dy12 Si16'
_cell_volume   587.77955337
_cell_formula_units_Z   4
loop_
 _symmetry_equiv_pos_site_id
 _symmetry_equiv_pos_as_xyz
  1  'x, y, z'
loop_
 _atom_site_type_symbol
 _atom_site_label
 _atom_site_symmetry_multiplicity
 _atom_site_fract_x
 _atom_site_fract_y
 _atom_site_fract_z
 _atom_site_occupancy
  Dy  Dy0  1  0.24843018  0.89952827  0.20094346  1
  Dy  Dy1  1  0.24746648  0.23244005  0.53511890  1
  Dy  Dy2  1  0.24995324  0.56644581  0.86710939  1
  Dy  Dy3  1  0.74827287  0.43323166  0.13353567  1
  Dy  Dy4  1  0.74919241  0.76688691  0.46622717  1
  Dy  Dy5  1  0.74974428  0.10016612  0.79966775  1
  Dy  Dy6  1  0.25233595  0.47751464  0.04496972  1
  Dy  Dy7  1  0.24778233  0.80903947  0.38192206  1
  Dy  Dy8  1  0.24732404  0.14215369  0.71569261  1
  Dy  Dy9  1  0.75752148  0.85780067  0.28439866  1
  Dy  Dy10  1  0.75571118  0.19086841  0.61826219  1
  Dy  Dy11  1  0.74778456  0.52230862  0.95538376  1
  Si  Si12  1  0.25711002  0.37108127  0.25783745  1
  Si  Si13  1  0.25634460  0.70428701  0.59142498  1
  Si  Si14  1  0.24971413  0.04002906  0.91994288  1
  Si  Si15  1  0.74990556  0.95983017  0.08033866  1
  Si  Si16  1  0.75018867  0.29540844  0.40918412  1
  Si  Si17  1  0.75022757  0.62886404  0.74227193  1
  Si  Si18  1  0.24923922  0.94191793  0.11616314  1
  Si  Si19  1  0.25013506  0.27561836  0.44876428  1
  Si  Si20  1  0.25034782  0.60898650  0.78202701  1
  Si  Si21  1  0.74743258  0.39152504  0.21694993  1
  Si  Si22  1  0.74695166  0.72479803  0.55040294  1
  Si  Si23  1  0.74994413  0.05791785  0.88416529  1
  Si  Si24  1  0.32338782  0.33879795  0.32240310  1
  Si  Si25  1  0.32576348  0.67205188  0.65589724  1
  Si  Si26  1  0.24989983  0.00718478  0.98563045  1
  Si  Si27  1  0.74988885  0.99271737  0.01456525  1
