# generated using pymatgen
data_Cr12Ga2(CoS8)3
_symmetry_space_group_name_H-M   'P 1'
_cell_length_a   7.00491594
_cell_length_b   15.62151246
_cell_length_c   7.00491594
_cell_angle_alpha   77.04372791
_cell_angle_beta   90.00000000
_cell_angle_gamma   77.04372791
_symmetry_Int_Tables_number   1
_chemical_formula_structural   Cr12Ga2(CoS8)3
_chemical_formula_sum   'Cr12 Ga2 Co3 S24'
_cell_volume   726.97650569
_cell_formula_units_Z   1
loop_
 _symmetry_equiv_pos_site_id
 _symmetry_equiv_pos_as_xyz
  1  'x, y, z'
loop_
 _atom_site_type_symbol
 _atom_site_label
 _atom_site_symmetry_multiplicity
 _atom_site_fract_x
 _atom_site_fract_y
 _atom_site_fract_z
 _atom_site_occupancy
  Cr  Cr0  1  0.50089337  0.49821326  0.49435704  1
  Cr  Cr1  1  0.83435588  0.83128724  0.83418658  1
  Cr  Cr2  1  0.16792417  0.16415266  0.15391609  1
  Cr  Cr3  1  0.16792417  0.16415266  0.68193224  1
  Cr  Cr4  1  0.50089337  0.49821326  0.00742970  1
  Cr  Cr5  1  0.83435588  0.83128724  0.33452518  1
  Cr  Cr6  1  0.49257030  0.00178674  0.99910663  1
  Cr  Cr7  1  0.81806776  0.33584734  0.33207583  1
  Cr  Cr8  1  0.16547482  0.66871276  0.66564412  1
  Cr  Cr9  1  0.00564296  0.00178674  0.99910663  1
  Cr  Cr10  1  0.34608391  0.33584734  0.33207583  1
  Cr  Cr11  1  0.66581342  0.66871276  0.66564412  1
  Ga  Ga12  1  0.04259804  0.41480493  0.79259804  1
  Ga  Ga13  1  0.70740196  0.08519507  0.45740196  1
  Co  Co14  1  0.95731254  0.58537392  0.20731254  1
  Co  Co15  1  0.29268746  0.91462608  0.54268746  1
  Co  Co16  1  0.37500000  0.75000000  0.12500000  1
  S  S17  1  0.58005019  0.33989963  0.09635715  1
  S  S18  1  0.91431316  0.67137268  0.42936662  1
  S  S19  1  0.24830902  0.00338296  0.76072086  1
  S  S20  1  0.58005019  0.33989963  0.56374322  1
  S  S21  1  0.91431316  0.67137268  0.89925970  1
  S  S22  1  0.24830902  0.00338296  0.23589718  1
  S  S23  1  0.93625678  0.16010037  0.91994981  1
  S  S24  1  0.26410282  0.49661704  0.25169098  1
  S  S25  1  0.60074030  0.82862732  0.58568684  1
  S  S26  1  0.40364285  0.16010037  0.91994981  1
  S  S27  1  0.73927914  0.49661704  0.25169098  1
  S  S28  1  0.07063338  0.82862732  0.58568684  1
  S  S29  1  0.08670799  0.32658503  0.56712897  1
  S  S30  1  0.41865872  0.66268256  0.90474292  1
  S  S31  1  0.75320180  0.99359541  0.23352679  1
  S  S32  1  0.08670799  0.32658503  0.10628701  1
  S  S33  1  0.41865872  0.66268256  0.43257453  1
  S  S34  1  0.75320180  0.99359541  0.77287680  1
  S  S35  1  0.72712320  0.50640459  0.74679820  1
  S  S36  1  0.06742547  0.83731744  0.08134128  1
  S  S37  1  0.39371299  0.17341497  0.41329201  1
  S  S38  1  0.26647321  0.50640459  0.74679820  1
  S  S39  1  0.59525708  0.83731744  0.08134128  1
  S  S40  1  0.93287103  0.17341497  0.41329201  1
