# generated using pymatgen
data_Cs12Sn2Sb6O
_symmetry_space_group_name_H-M   'P 1'
_cell_length_a   6.51746445
_cell_length_b   13.29343247
_cell_length_c   13.29343247
_cell_angle_alpha   120.02262344
_cell_angle_beta   90.00812407
_cell_angle_gamma   89.99187593
_symmetry_Int_Tables_number   1
_chemical_formula_structural   Cs12Sn2Sb6O
_chemical_formula_sum   'Cs12 Sn2 Sb6 O1'
_cell_volume   997.20515223
_cell_formula_units_Z   1
loop_
 _symmetry_equiv_pos_site_id
 _symmetry_equiv_pos_as_xyz
  1  'x, y, z'
loop_
 _atom_site_type_symbol
 _atom_site_label
 _atom_site_symmetry_multiplicity
 _atom_site_fract_x
 _atom_site_fract_y
 _atom_site_fract_z
 _atom_site_occupancy
  Cs  Cs0  1  0.75050613  0.54643200  0.09287163  1
  Cs  Cs1  1  0.75050248  0.54644000  0.45356000  1
  Cs  Cs2  1  0.75050613  0.90712837  0.45356800  1
  Cs  Cs3  1  0.24949387  0.45356800  0.90712837  1
  Cs  Cs4  1  0.24949752  0.45356000  0.54644000  1
  Cs  Cs5  1  0.24949387  0.09287163  0.54643200  1
  Cs  Cs6  1  0.72841369  0.88518742  0.77038370  1
  Cs  Cs7  1  0.72841320  0.88519753  0.11480247  1
  Cs  Cs8  1  0.72841369  0.22961630  0.11481258  1
  Cs  Cs9  1  0.27158631  0.11481258  0.22961630  1
  Cs  Cs10  1  0.27158680  0.11480247  0.88519753  1
  Cs  Cs11  1  0.27158631  0.77038370  0.88518742  1
  Sn  Sn12  1  0.25070766  0.66665608  0.33334392  1
  Sn  Sn13  1  0.74929234  0.33334392  0.66665608  1
  Sb  Sb14  1  0.74996832  0.21261620  0.42526085  1
  Sb  Sb15  1  0.74996052  0.21251042  0.78748958  1
  Sb  Sb16  1  0.74996832  0.57473915  0.78738380  1
  Sb  Sb17  1  0.25003168  0.78738380  0.57473915  1
  Sb  Sb18  1  0.25003948  0.78748958  0.21251042  1
  Sb  Sb19  1  0.25003168  0.42526085  0.21261620  1
  O  O20  1  0.50000000  -0.00000000  -0.00000000  1
