# generated using pymatgen
data_Dy2MnGe4
_symmetry_space_group_name_H-M   'P 1'
_cell_length_a   4.23941629
_cell_length_b   4.26912695
_cell_length_c   7.99043858
_cell_angle_alpha   74.50586367
_cell_angle_beta   90.00000000
_cell_angle_gamma   90.00000000
_symmetry_Int_Tables_number   1
_chemical_formula_structural   Dy2MnGe4
_chemical_formula_sum   'Dy2 Mn1 Ge4'
_cell_volume   139.36014557
_cell_formula_units_Z   1
loop_
 _symmetry_equiv_pos_site_id
 _symmetry_equiv_pos_as_xyz
  1  'x, y, z'
loop_
 _atom_site_type_symbol
 _atom_site_label
 _atom_site_symmetry_multiplicity
 _atom_site_fract_x
 _atom_site_fract_y
 _atom_site_fract_z
 _atom_site_occupancy
  Dy  Dy0  1  0.25000000  0.89845357  0.20309286  1
  Dy  Dy1  1  0.75000000  0.10082691  0.79834618  1
  Mn  Mn2  1  0.25000000  0.69896401  0.60207198  1
  Ge  Ge3  1  0.25000000  0.54691111  0.90617778  1
  Ge  Ge4  1  0.75000000  0.43625625  0.12748750  1
  Ge  Ge5  1  0.25000000  0.25890943  0.48218113  1
  Ge  Ge6  1  0.75000000  0.75367872  0.49264256  1
