# generated using pymatgen
data_Cr5Te6
_symmetry_space_group_name_H-M   'P 1'
_cell_length_a   7.51905163
_cell_length_b   8.14961454
_cell_length_c   9.42174077
_cell_angle_alpha   90.38800478
_cell_angle_beta   78.23836932
_cell_angle_gamma   106.34849880
_symmetry_Int_Tables_number   1
_chemical_formula_structural   Cr5Te6
_chemical_formula_sum   'Cr10 Te12'
_cell_volume   541.57704050
_cell_formula_units_Z   2
loop_
 _symmetry_equiv_pos_site_id
 _symmetry_equiv_pos_as_xyz
  1  'x, y, z'
loop_
 _atom_site_type_symbol
 _atom_site_label
 _atom_site_symmetry_multiplicity
 _atom_site_fract_x
 _atom_site_fract_y
 _atom_site_fract_z
 _atom_site_occupancy
  Cr  Cr0  1  0.34487948  0.57357677  0.17354650  1
  Cr  Cr1  1  0.01897728  0.24772338  0.49945338  1
  Cr  Cr2  1  0.68013619  0.90522789  0.82460685  1
  Cr  Cr3  1  0.31986381  0.09477211  0.17539315  1
  Cr  Cr4  1  0.98102272  0.75227662  0.50054662  1
  Cr  Cr5  1  0.65512052  0.42642323  0.82645350  1
  Cr  Cr6  1  0.00000000  0.50000000  -0.00000000  1
  Cr  Cr7  1  0.66324385  0.16826641  0.33778956  1
  Cr  Cr8  1  0.33675615  0.83173359  0.66221044  1
  Cr  Cr9  1  0.00000000  0.00000000  -0.00000000  1
  Te  Te10  1  0.27641800  0.32196923  0.97056204  1
  Te  Te11  1  0.93602495  0.98608166  0.30676071  1
  Te  Te12  1  0.60541081  0.65112125  0.63423245  1
  Te  Te13  1  0.39458919  0.34887875  0.36576755  1
  Te  Te14  1  0.06397505  0.01391834  0.69323929  1
  Te  Te15  1  0.72358200  0.67803077  0.02943796  1
  Te  Te16  1  0.28581842  0.81933607  0.97516645  1
  Te  Te17  1  0.95654785  0.48416602  0.30916788  1
  Te  Te18  1  0.62521357  0.15123956  0.64149421  1
  Te  Te19  1  0.37478643  0.84876044  0.35850579  1
  Te  Te20  1  0.04345215  0.51583398  0.69083212  1
  Te  Te21  1  0.71418158  0.18066393  0.02483355  1
