# generated using pymatgen
data_Ce2ZrO6
_symmetry_space_group_name_H-M   'P 1'
_cell_length_a   5.36672868
_cell_length_b   7.61240368
_cell_length_c   6.60246548
_cell_angle_alpha   72.88452447
_cell_angle_beta   66.01994967
_cell_angle_gamma   90.00000000
_symmetry_Int_Tables_number   1
_chemical_formula_structural   Ce2ZrO6
_chemical_formula_sum   'Ce4 Zr2 O12'
_cell_volume   233.31896200
_cell_formula_units_Z   2
loop_
 _symmetry_equiv_pos_site_id
 _symmetry_equiv_pos_as_xyz
  1  'x, y, z'
loop_
 _atom_site_type_symbol
 _atom_site_label
 _atom_site_symmetry_multiplicity
 _atom_site_fract_x
 _atom_site_fract_y
 _atom_site_fract_z
 _atom_site_occupancy
  Ce  Ce0  1  0.83266547  0.41666700  0.83333300  1
  Ce  Ce1  1  0.83934373  0.91666700  0.83333300  1
  Ce  Ce2  1  0.49729258  0.24868891  0.50005655  1
  Ce  Ce3  1  0.16401613  0.58464409  0.16661045  1
  Zr  Zr4  1  0.50269567  0.75382090  0.49477607  1
  Zr  Zr5  1  0.16413874  0.07951210  0.17189093  1
  O  O6  1  0.72720379  0.51761113  0.51216808  1
  O  O7  1  0.40092413  0.84795908  0.19613186  1
  O  O8  1  0.08760113  0.16774436  0.86024766  1
  O  O9  1  0.58240189  0.67335122  0.84761402  1
  O  O10  1  0.24324551  0.00704025  0.50941853  1
  O  O11  1  0.90656984  0.33741911  0.17837496  1
  O  O12  1  0.59668191  0.15998178  0.81905298  1
  O  O13  1  0.25161180  0.49591389  0.48829204  1
  O  O14  1  0.91933104  0.82629375  0.15724747  1
  O  O15  1  0.76372299  0.98537392  0.47053514  1
  O  O16  1  0.40603887  0.31572287  0.15449792  1
  O  O17  1  0.11451479  0.66558864  0.80641934  1
