# generated using pymatgen
data_CaUTi2O7
_symmetry_space_group_name_H-M   'P 1'
_cell_length_a   7.22735251
_cell_length_b   7.14750320
_cell_length_c   7.30270226
_cell_angle_alpha   90.00000000
_cell_angle_beta   59.65451931
_cell_angle_gamma   119.63519620
_symmetry_Int_Tables_number   1
_chemical_formula_structural   CaUTi2O7
_chemical_formula_sum   'Ca2 U2 Ti4 O14'
_cell_volume   266.81626524
_cell_formula_units_Z   2
loop_
 _symmetry_equiv_pos_site_id
 _symmetry_equiv_pos_as_xyz
  1  'x, y, z'
loop_
 _atom_site_type_symbol
 _atom_site_label
 _atom_site_symmetry_multiplicity
 _atom_site_fract_x
 _atom_site_fract_y
 _atom_site_fract_z
 _atom_site_occupancy
  Ca  Ca0  1  0.50000000  0.50000000  0.00000000  1
  Ca  Ca1  1  0.50000000  -0.00000000  0.00000000  1
  U  U2  1  0.00000000  -0.00000000  0.50000000  1
  U  U3  1  0.00000000  -0.00000000  0.00000000  1
  Ti  Ti4  1  0.50000000  -0.00000000  0.50000000  1
  Ti  Ti5  1  0.50000000  0.50000000  0.50000000  1
  Ti  Ti6  1  0.00000000  0.50000000  0.00000000  1
  Ti  Ti7  1  -0.00000000  0.50000000  0.50000000  1
  O  O8  1  0.23034787  0.11517394  0.13482606  1
  O  O9  1  0.76965213  0.88482606  0.86517394  1
  O  O10  1  0.66549537  0.83274768  0.41725232  1
  O  O11  1  0.85679839  0.42839919  0.82160081  1
  O  O12  1  0.24435285  0.83244007  0.82724839  1
  O  O13  1  0.24435285  0.41191278  0.42839876  1
  O  O14  1  0.24435285  0.41191278  0.82724839  1
  O  O15  1  0.24435285  0.83244007  0.42839876  1
  O  O16  1  0.33450463  0.16725232  0.58274768  1
  O  O17  1  0.14320161  0.57160081  0.17839919  1
  O  O18  1  0.75564715  0.16755993  0.17275161  1
  O  O19  1  0.75564715  0.58808722  0.57160124  1
  O  O20  1  0.75564715  0.58808722  0.17275161  1
  O  O21  1  0.75564715  0.16755993  0.57160124  1
