# generated using pymatgen
data_CaSmCrO4
_symmetry_space_group_name_H-M   'P 1'
_cell_length_a   5.42212444
_cell_length_b   5.63009427
_cell_length_c   6.49279226
_cell_angle_alpha   90.00000000
_cell_angle_beta   65.32003021
_cell_angle_gamma   90.00000000
_symmetry_Int_Tables_number   1
_chemical_formula_structural   CaSmCrO4
_chemical_formula_sum   'Ca2 Sm2 Cr2 O8'
_cell_volume   180.10065643
_cell_formula_units_Z   2
loop_
 _symmetry_equiv_pos_site_id
 _symmetry_equiv_pos_as_xyz
  1  'x, y, z'
loop_
 _atom_site_type_symbol
 _atom_site_label
 _atom_site_symmetry_multiplicity
 _atom_site_fract_x
 _atom_site_fract_y
 _atom_site_fract_z
 _atom_site_occupancy
  Ca  Ca0  1  0.85343523  0.51809214  0.29312953  1
  Ca  Ca1  1  0.64656477  0.01809214  0.70687047  1
  Sm  Sm2  1  0.13839578  0.48043958  0.72320844  1
  Sm  Sm3  1  0.36160422  0.98043958  0.27679156  1
  Cr  Cr4  1  0.50031167  0.49796923  0.99937666  1
  Cr  Cr5  1  0.99968833  0.99796923  0.00062334  1
  O  O6  1  0.72823189  0.24922608  0.04449880  1
  O  O7  1  0.77176811  0.74922608  0.95550120  1
  O  O8  1  0.27273069  0.74922608  0.95550120  1
  O  O9  1  0.22726931  0.24922608  0.04449880  1
  O  O10  1  0.66790523  0.43725396  0.66418954  1
  O  O11  1  0.32509417  0.56779293  0.34981166  1
  O  O12  1  0.83209477  0.93725396  0.33581046  1
  O  O13  1  0.17490583  0.06779293  0.65018834  1
