# generated using pymatgen
data_CrH15N6Cl2O
_symmetry_space_group_name_H-M   'P 1'
_cell_length_a   7.02308858
_cell_length_b   7.03874422
_cell_length_c   10.68245436
_cell_angle_alpha   90.00000000
_cell_angle_beta   90.00000000
_cell_angle_gamma   95.05778936
_symmetry_Int_Tables_number   1
_chemical_formula_structural   CrH15N6Cl2O
_chemical_formula_sum   'Cr2 H30 N12 Cl4 O2'
_cell_volume   526.01733473
_cell_formula_units_Z   2
loop_
 _symmetry_equiv_pos_site_id
 _symmetry_equiv_pos_as_xyz
  1  'x, y, z'
loop_
 _atom_site_type_symbol
 _atom_site_label
 _atom_site_symmetry_multiplicity
 _atom_site_fract_x
 _atom_site_fract_y
 _atom_site_fract_z
 _atom_site_occupancy
  Cr  Cr0  1  0.79772083  0.79785023  0.75000000  1
  Cr  Cr1  1  0.20227917  0.20214977  0.25000000  1
  H  H2  1  0.92391725  0.44420576  0.75000000  1
  H  H3  1  0.55635043  0.07202868  0.25000000  1
  H  H4  1  0.07608275  0.55579424  0.25000000  1
  H  H5  1  0.44364957  0.92797132  0.75000000  1
  H  H6  1  0.68747034  0.68948232  0.51619657  1
  H  H7  1  0.31252966  0.31051768  0.48380343  1
  H  H8  1  0.68747034  0.68948232  0.98380343  1
  H  H9  1  0.31252966  0.31051768  0.01619657  1
  H  H10  1  0.07502139  0.59509098  0.67215718  1
  H  H11  1  0.40288614  0.92341379  0.32765352  1
  H  H12  1  0.07502139  0.59509098  0.82784282  1
  H  H13  1  0.40288614  0.92341379  0.17234648  1
  H  H14  1  0.92497861  0.40490902  0.32784282  1
  H  H15  1  0.59711386  0.07658621  0.67234648  1
  H  H16  1  0.92497861  0.40490902  0.17215718  1
  H  H17  1  0.59711386  0.07658621  0.82765352  1
  H  H18  1  0.91918563  0.75981871  0.51672944  1
  H  H19  1  0.24006023  0.08011341  0.48281263  1
  H  H20  1  0.91918563  0.75981871  0.98327056  1
  H  H21  1  0.24006023  0.08011341  0.01718737  1
  H  H22  1  0.08081437  0.24018129  0.48327056  1
  H  H23  1  0.75993977  0.91988659  0.51718737  1
  H  H24  1  0.08081437  0.24018129  0.01672944  1
  H  H25  1  0.75993977  0.91988659  0.98281263  1
  H  H26  1  0.58482940  0.48243319  0.67236147  1
  H  H27  1  0.58482940  0.48243319  0.82763853  1
  H  H28  1  0.41517060  0.51756681  0.32763853  1
  H  H29  1  0.41517060  0.51756681  0.17236147  1
  H  H30  1  0.44187876  0.61480116  0.75000000  1
  H  H31  1  0.55812124  0.38519884  0.25000000  1
  N  N32  1  0.78847449  0.78901832  0.55166511  1
  N  N33  1  0.21152551  0.21098168  0.44833489  1
  N  N34  1  0.78847449  0.78901832  0.94833489  1
  N  N35  1  0.21152551  0.21098168  0.05166511  1
  N  N36  1  0.98801464  0.98803534  0.75000000  1
  N  N37  1  0.01198536  0.01196466  0.25000000  1
  N  N38  1  0.98834392  0.58038095  0.75000000  1
  N  N39  1  0.41888855  0.01038519  0.25000000  1
  N  N40  1  0.01165608  0.41961905  0.25000000  1
  N  N41  1  0.58111145  0.98961481  0.75000000  1
  N  N42  1  0.57556508  0.56798077  0.75000000  1
  N  N43  1  0.42443492  0.43201923  0.25000000  1
  Cl  Cl44  1  0.28372059  0.71533608  0.49762681  1
  Cl  Cl45  1  0.28372059  0.71533608  0.00237319  1
  Cl  Cl46  1  0.71627941  0.28466392  0.50237319  1
  Cl  Cl47  1  0.71627941  0.28466392  0.99762681  1
  O  O48  1  0.11649441  0.11557009  0.75000000  1
  O  O49  1  0.88350559  0.88442991  0.25000000  1
