# generated using pymatgen
data_Cd5P3O13
_symmetry_space_group_name_H-M   'P 1'
_cell_length_a   6.69728536
_cell_length_b   9.56151791
_cell_length_c   9.56156520
_cell_angle_alpha   120.00053051
_cell_angle_beta   90.00000000
_cell_angle_gamma   90.00000000
_symmetry_Int_Tables_number   1
_chemical_formula_structural   Cd5P3O13
_chemical_formula_sum   'Cd10 P6 O26'
_cell_volume   530.25277158
_cell_formula_units_Z   2
loop_
 _symmetry_equiv_pos_site_id
 _symmetry_equiv_pos_as_xyz
  1  'x, y, z'
loop_
 _atom_site_type_symbol
 _atom_site_label
 _atom_site_symmetry_multiplicity
 _atom_site_fract_x
 _atom_site_fract_y
 _atom_site_fract_z
 _atom_site_occupancy
  Cd  Cd0  1  0.50041025  0.66666879  0.33333564  1
  Cd  Cd1  1  0.00041025  0.33333121  0.66666436  1
  Cd  Cd2  1  0.49777647  0.33333121  0.66666441  1
  Cd  Cd3  1  0.99777647  0.66666879  0.33333559  1
  Cd  Cd4  1  0.74673504  0.00262417  0.75780097  1
  Cd  Cd5  1  0.74673546  0.24219148  0.24481539  1
  Cd  Cd6  1  0.74673471  0.75518297  0.99737048  1
  Cd  Cd7  1  0.24673504  0.99737583  0.24219903  1
  Cd  Cd8  1  0.24673546  0.75780852  0.75518461  1
  Cd  Cd9  1  0.24673471  0.24481703  0.00262952  1
  P  P10  1  0.74712468  0.36990936  0.97518699  1
  P  P11  1  0.74712436  0.02481500  0.39472052  1
  P  P12  1  0.74712517  0.60527634  0.63009339  1
  P  P13  1  0.24712468  0.63009064  0.02481301  1
  P  P14  1  0.24712436  0.97518500  0.60527948  1
  P  P15  1  0.24712517  0.39472366  0.36990661  1
  O  O16  1  0.74743798  0.48906376  0.16047272  1
  O  O17  1  0.74743870  0.83952561  0.32860103  1
  O  O18  1  0.74743822  0.67140733  0.51093854  1
  O  O19  1  0.24743798  0.51093624  0.83952728  1
  O  O20  1  0.24743870  0.16047439  0.67139897  1
  O  O21  1  0.24743822  0.32859267  0.48906146  1
  O  O22  1  0.55974788  0.25994886  0.91960498  1
  O  O23  1  0.55974818  0.08038539  0.34033693  1
  O  O24  1  0.55974832  0.65965544  0.74004735  1
  O  O25  1  0.05974788  0.74005114  0.08039502  1
  O  O26  1  0.05974818  0.91961461  0.65966307  1
  O  O27  1  0.05974832  0.34034456  0.25995265  1
  O  O28  1  0.43038411  0.74487656  0.07764527  1
  O  O29  1  0.43038240  0.92236363  0.66723752  1
  O  O30  1  0.43038347  0.33276757  0.25512485  1
  O  O31  1  0.93038411  0.25512344  0.92235473  1
  O  O32  1  0.93038240  0.07763637  0.33276248  1
  O  O33  1  0.93038347  0.66723243  0.74487515  1
  O  O34  1  0.75156416  0.46312639  0.87806465  1
  O  O35  1  0.75156388  0.12194449  0.58506568  1
  O  O36  1  0.75156422  0.41493366  0.53687518  1
  O  O37  1  0.25156416  0.53687361  0.12193535  1
  O  O38  1  0.25156388  0.87805551  0.41493432  1
  O  O39  1  0.25156422  0.58506634  0.46312482  1
  O  O40  1  0.74083236  0.99999896  0.99999085  1
  O  O41  1  0.24083236  0.00000104  0.00000915  1
