# generated using pymatgen
data_Cr12Fe3S20
_symmetry_space_group_name_H-M   'P 1'
_cell_length_a   7.78621245
_cell_length_b   8.64657215
_cell_length_c   7.97618415
_cell_angle_alpha   78.53926326
_cell_angle_beta   88.62155457
_cell_angle_gamma   75.72391693
_symmetry_Int_Tables_number   1
_chemical_formula_structural   Cr12Fe3S20
_chemical_formula_sum   'Cr12 Fe3 S20'
_cell_volume   509.85390228
_cell_formula_units_Z   1
loop_
 _symmetry_equiv_pos_site_id
 _symmetry_equiv_pos_as_xyz
  1  'x, y, z'
loop_
 _atom_site_type_symbol
 _atom_site_label
 _atom_site_symmetry_multiplicity
 _atom_site_fract_x
 _atom_site_fract_y
 _atom_site_fract_z
 _atom_site_occupancy
  Cr  Cr0  1  0.20117654  0.20019767  0.20295517  1
  Cr  Cr1  1  0.59882346  0.59980233  0.59704483  1
  Cr  Cr2  1  0.84127016  0.63079952  0.32204614  1
  Cr  Cr3  1  0.24349400  0.03270347  0.72333673  1
  Cr  Cr4  1  0.64039602  0.43679600  0.11801610  1
  Cr  Cr5  1  0.03541634  0.82147252  0.51601246  1
  Cr  Cr6  1  0.43363399  0.23522805  0.91592359  1
  Cr  Cr7  1  0.76458366  0.97852748  0.28398754  1
  Cr  Cr8  1  0.15960398  0.36320400  0.68198390  1
  Cr  Cr9  1  0.55650600  0.76729653  0.07666327  1
  Cr  Cr10  1  0.95872984  0.16920048  0.47795386  1
  Cr  Cr11  1  0.36636601  0.56477195  0.88407641  1
  Fe  Fe12  1  0.99218007  0.99131615  0.99097579  1
  Fe  Fe13  1  0.40000000  0.40000000  0.40000000  1
  Fe  Fe14  1  0.80781993  0.80868385  0.80902421  1
  S  S15  1  0.89715691  0.19942538  0.17235137  1
  S  S16  1  0.69300401  0.99630132  0.98010346  1
  S  S17  1  0.50015520  0.79555252  0.77514118  1
  S  S18  1  0.29506484  0.59067387  0.57562151  1
  S  S19  1  0.09966138  0.39740964  0.37677395  1
  S  S20  1  0.29984480  0.00444748  0.02485882  1
  S  S21  1  0.10699599  0.80369868  0.81989654  1
  S  S22  1  0.90284309  0.60057462  0.62764863  1
  S  S23  1  0.70033862  0.40259036  0.42322605  1
  S  S24  1  0.50493516  0.20932613  0.22437849  1
  S  S25  1  0.37482667  0.59820238  0.15827411  1
  S  S26  1  0.17305230  0.40638570  0.95237270  1
  S  S27  1  0.97576222  0.19696502  0.75799557  1
  S  S28  1  0.77729024  -0.00208845  0.56325636  1
  S  S29  1  0.57697644  0.80719838  0.35036169  1
  S  S30  1  0.82423778  0.60303498  0.04200443  1
  S  S31  1  0.62694770  0.39361430  0.84762730  1
  S  S32  1  0.42517333  0.20179762  0.64172589  1
  S  S33  1  0.22302356  0.99280162  0.44963831  1
  S  S34  1  0.02270976  0.80208845  0.23674364  1
