# generated using pymatgen
data_CeU4C5
_symmetry_space_group_name_H-M   'P 1'
_cell_length_a   3.53251517
_cell_length_b   3.53251517
_cell_length_c   12.64284616
_cell_angle_alpha   81.96927521
_cell_angle_beta   81.96927521
_cell_angle_gamma   90.00000000
_symmetry_Int_Tables_number   1
_chemical_formula_structural   CeU4C5
_chemical_formula_sum   'Ce1 U4 C5'
_cell_volume   154.65601922
_cell_formula_units_Z   1
loop_
 _symmetry_equiv_pos_site_id
 _symmetry_equiv_pos_as_xyz
  1  'x, y, z'
loop_
 _atom_site_type_symbol
 _atom_site_label
 _atom_site_symmetry_multiplicity
 _atom_site_fract_x
 _atom_site_fract_y
 _atom_site_fract_z
 _atom_site_occupancy
  Ce  Ce0  1  0.90000000  0.90000000  0.20000000  1
  U  U1  1  0.30048839  0.30048839  0.39902323  1
  U  U2  1  0.69936677  0.69936677  0.60126646  1
  U  U3  1  0.10063323  0.10063323  0.79873354  1
  U  U4  1  0.49951161  0.49951161  0.00097677  1
  C  C5  1  0.20000196  0.20000196  0.59999608  1
  C  C6  1  0.59999804  0.59999804  0.80000392  1
  C  C7  1  0.00512868  0.00512868  0.98974263  1
  C  C8  1  0.40000000  0.40000000  0.20000000  1
  C  C9  1  0.79487132  0.79487132  0.41025737  1
