# generated using pymatgen
data_Sr2LiN
_symmetry_space_group_name_H-M   'P 1'
_cell_length_a   3.92349559
_cell_length_b   3.92349559
_cell_length_c   7.45359381
_cell_angle_alpha   74.74027486
_cell_angle_beta   74.74027486
_cell_angle_gamma   90.00000000
_symmetry_Int_Tables_number   1
_chemical_formula_structural   Sr2LiN
_chemical_formula_sum   'Sr2 Li1 N1'
_cell_volume   106.49490121
_cell_formula_units_Z   1
loop_
 _symmetry_equiv_pos_site_id
 _symmetry_equiv_pos_as_xyz
  1  'x, y, z'
loop_
 _atom_site_type_symbol
 _atom_site_label
 _atom_site_symmetry_multiplicity
 _atom_site_fract_x
 _atom_site_fract_y
 _atom_site_fract_z
 _atom_site_occupancy
  Sr  Sr0  1  0.33583257  0.33583257  0.32833486  1
  Sr  Sr1  1  0.64993612  0.64993612  0.70012776  1
  Li  Li2  1  0.01926225  0.01926225  0.96147549  1
  N  N3  1  0.16196906  0.16196906  0.67606189  1
