# generated using pymatgen
data_Al4Si2Mo3
_symmetry_space_group_name_H-M   'P 1'
_cell_length_a   4.80390142
_cell_length_b   4.80390142
_cell_length_c   13.47573361
_cell_angle_alpha   84.68213053
_cell_angle_beta   84.68213053
_cell_angle_gamma   119.30886288
_symmetry_Int_Tables_number   1
_chemical_formula_structural   Al4Si2Mo3
_chemical_formula_sum   'Al8 Si4 Mo6'
_cell_volume   266.57553122
_cell_formula_units_Z   2
loop_
 _symmetry_equiv_pos_site_id
 _symmetry_equiv_pos_as_xyz
  1  'x, y, z'
loop_
 _atom_site_type_symbol
 _atom_site_label
 _atom_site_symmetry_multiplicity
 _atom_site_fract_x
 _atom_site_fract_y
 _atom_site_fract_z
 _atom_site_occupancy
  Al  Al0  1  0.12335566  0.04836349  0.58142872  1
  Al  Al1  1  0.45163651  0.37664434  0.91857128  1
  Al  Al2  1  0.87437184  0.29168560  0.08197824  1
  Al  Al3  1  0.20831440  0.62562816  0.41802176  1
  Al  Al4  1  0.54337518  0.95662482  0.75000000  1
  Al  Al5  1  0.54579532  0.62098476  0.08527844  1
  Al  Al6  1  0.87901524  0.95420468  0.41472156  1
  Al  Al7  1  0.21373359  0.28626641  0.75000000  1
  Si  Si8  1  0.46228527  0.03771473  0.25000000  1
  Si  Si9  1  0.78611079  0.37541418  0.58246990  1
  Si  Si10  1  0.12458582  0.71388921  0.91753010  1
  Si  Si11  1  0.78500298  0.71499702  0.25000000  1
  Mo  Mo12  1  0.11913857  0.38086143  0.25000000  1
  Mo  Mo13  1  0.45584646  0.71277552  0.58316494  1
  Mo  Mo14  1  0.78722448  0.04415354  0.91683506  1
  Mo  Mo15  1  0.20588018  0.94784141  0.08846098  1
  Mo  Mo16  1  0.55215859  0.29411982  0.41153902  1
  Mo  Mo17  1  0.88216911  0.61783089  0.75000000  1
