# generated using pymatgen
data_Ba3LaTa3O12
_symmetry_space_group_name_H-M   'P 1'
_cell_length_a   5.81169331
_cell_length_b   5.81169331
_cell_length_c   9.89948458
_cell_angle_alpha   72.93028315
_cell_angle_beta   72.93028315
_cell_angle_gamma   59.99999422
_symmetry_Int_Tables_number   1
_chemical_formula_structural   Ba3LaTa3O12
_chemical_formula_sum   'Ba3 La1 Ta3 O12'
_cell_volume   272.42609708
_cell_formula_units_Z   1
loop_
 _symmetry_equiv_pos_site_id
 _symmetry_equiv_pos_as_xyz
  1  'x, y, z'
loop_
 _atom_site_type_symbol
 _atom_site_label
 _atom_site_symmetry_multiplicity
 _atom_site_fract_x
 _atom_site_fract_y
 _atom_site_fract_z
 _atom_site_occupancy
  Ba  Ba0  1  0.28963673  0.28963673  0.13108980  1
  Ba  Ba1  1  0.71198015  0.71198015  0.86405956  1
  Ba  Ba2  1  0.86686011  0.86686011  0.39941968  1
  La  La3  1  0.14606171  0.14606171  0.56181488  1
  Ta  Ta4  1  0.42363850  0.42363850  0.72908451  1
  Ta  Ta5  1  0.57661460  0.57661460  0.27015620  1
  Ta  Ta6  1  0.00068460  0.00068460  0.99794619  1
  O  O7  1  0.28876912  0.79166936  0.12789216  1
  O  O8  1  0.79166936  0.79166936  0.12789216  1
  O  O9  1  0.79166936  0.28876912  0.12789216  1
  O  O10  1  0.71155448  0.20416933  0.88010686  1
  O  O11  1  0.20416933  0.20416933  0.88010686  1
  O  O12  1  0.20416933  0.71155448  0.88010686  1
  O  O13  1  0.12536101  0.62045115  0.63373670  1
  O  O14  1  0.62045115  0.62045115  0.63373670  1
  O  O15  1  0.62045115  0.12536101  0.63373670  1
  O  O16  1  0.87378969  0.37623482  0.37374067  1
  O  O17  1  0.37623482  0.37623482  0.37374067  1
  O  O18  1  0.37623482  0.87378969  0.37374067  1
