# generated using pymatgen
data_BaSn2S3
_symmetry_space_group_name_H-M   'P 1'
_cell_length_a   4.27357472
_cell_length_b   13.15565980
_cell_length_c   11.98474852
_cell_angle_alpha   90.60913339
_cell_angle_beta   90.00000000
_cell_angle_gamma   90.00000000
_symmetry_Int_Tables_number   1
_chemical_formula_structural   BaSn2S3
_chemical_formula_sum   'Ba4 Sn8 S12'
_cell_volume   673.76479924
_cell_formula_units_Z   4
loop_
 _symmetry_equiv_pos_site_id
 _symmetry_equiv_pos_as_xyz
  1  'x, y, z'
loop_
 _atom_site_type_symbol
 _atom_site_label
 _atom_site_symmetry_multiplicity
 _atom_site_fract_x
 _atom_site_fract_y
 _atom_site_fract_z
 _atom_site_occupancy
  Ba  Ba0  1  0.25000000  0.14646167  0.60823943  1
  Ba  Ba1  1  0.25000000  0.47703913  0.61413408  1
  Ba  Ba2  1  0.25000000  0.80908603  0.60995240  1
  Ba  Ba3  1  0.25000000  0.02357292  0.09523337  1
  Sn  Sn4  1  0.25000000  0.36624584  0.12511140  1
  Sn  Sn5  1  0.25000000  0.70046688  0.12158786  1
  Sn  Sn6  1  0.75000000  0.21083068  0.35696705  1
  Sn  Sn7  1  0.75000000  0.53961015  0.35887520  1
  Sn  Sn8  1  0.75000000  0.87153159  0.36721029  1
  Sn  Sn9  1  0.75000000  0.29546700  0.87188544  1
  Sn  Sn10  1  0.75000000  0.62495724  0.87311939  1
  Sn  Sn11  1  0.75000000  0.96173704  0.86205139  1
  S  S12  1  0.25000000  0.16488368  0.87369273  1
  S  S13  1  0.25000000  0.49713346  0.87573117  1
  S  S14  1  0.25000000  0.83597384  0.87848833  1
  S  S15  1  0.25000000  0.99575899  0.36899840  1
  S  S16  1  0.25000000  0.34229067  0.35797062  1
  S  S17  1  0.25000000  0.67038024  0.34835835  1
  S  S18  1  0.75000000  0.18956134  0.15303670  1
  S  S19  1  0.75000000  0.50391980  0.15327637  1
  S  S20  1  0.75000000  0.83740467  0.15651622  1
  S  S21  1  0.75000000  0.97837932  0.65477111  1
  S  S22  1  0.75000000  0.31172088  0.65703761  1
  S  S23  1  0.75000000  0.64558693  0.65775509  1
