# generated using pymatgen
data_Ba2PrPbO6
_symmetry_space_group_name_H-M   'P 1'
_cell_length_a   6.27994156
_cell_length_b   6.29810404
_cell_length_c   6.33636179
_cell_angle_alpha   90.01041042
_cell_angle_beta   119.70588599
_cell_angle_gamma   60.09534963
_symmetry_Int_Tables_number   1
_chemical_formula_structural   Ba2PrPbO6
_chemical_formula_sum   'Ba2 Pr1 Pb1 O6'
_cell_volume   178.26426135
_cell_formula_units_Z   1
loop_
 _symmetry_equiv_pos_site_id
 _symmetry_equiv_pos_as_xyz
  1  'x, y, z'
loop_
 _atom_site_type_symbol
 _atom_site_label
 _atom_site_symmetry_multiplicity
 _atom_site_fract_x
 _atom_site_fract_y
 _atom_site_fract_z
 _atom_site_occupancy
  Ba  Ba0  1  0.00869137  0.74281182  0.76019456  1
  Ba  Ba1  1  0.99130863  0.25718818  0.23980544  1
  Pr  Pr2  1  0.50000000  0.50000000  0.50000000  1
  Pb  Pb3  1  0.50000000  0.00000000  -0.00000000  1
  O  O4  1  0.50277430  0.28322556  0.80300925  1
  O  O5  1  0.98299061  0.71677444  0.19699075  1
  O  O6  1  0.49722570  0.71677444  0.19699075  1
  O  O7  1  0.01700939  0.28322556  0.80300925  1
  O  O8  1  0.42430793  0.83485370  0.68346955  1
  O  O9  1  0.57569207  0.16514630  0.31653045  1
