# generated using pymatgen
data_CaY2BeO5
_symmetry_space_group_name_H-M   'P 1'
_cell_length_a   6.37040440
_cell_length_b   6.97973980
_cell_length_c   9.28382371
_cell_angle_alpha   90.00000000
_cell_angle_beta   90.00000000
_cell_angle_gamma   90.00000000
_symmetry_Int_Tables_number   1
_chemical_formula_structural   CaY2BeO5
_chemical_formula_sum   'Ca4 Y8 Be4 O20'
_cell_volume   412.79375698
_cell_formula_units_Z   4
loop_
 _symmetry_equiv_pos_site_id
 _symmetry_equiv_pos_as_xyz
  1  'x, y, z'
loop_
 _atom_site_type_symbol
 _atom_site_label
 _atom_site_symmetry_multiplicity
 _atom_site_fract_x
 _atom_site_fract_y
 _atom_site_fract_z
 _atom_site_occupancy
  Ca  Ca0  1  0.58182196  0.98213086  0.67593793  1
  Ca  Ca1  1  0.41817804  0.48213086  0.32406207  1
  Ca  Ca2  1  0.08182196  0.48213086  0.82406207  1
  Ca  Ca3  1  0.91817804  0.98213086  0.17593793  1
  Y  Y4  1  0.09584904  0.74587052  0.52133912  1
  Y  Y5  1  0.40415096  0.74587052  0.02133912  1
  Y  Y6  1  0.90415096  0.24587052  0.47866088  1
  Y  Y7  1  0.59584904  0.24587052  0.97866088  1
  Y  Y8  1  0.92755347  0.52694837  0.17397980  1
  Y  Y9  1  0.07244653  0.02694837  0.82602020  1
  Y  Y10  1  0.42755347  0.02694837  0.32602020  1
  Y  Y11  1  0.57244653  0.52694837  0.67397980  1
  Be  Be12  1  0.69368658  0.74818287  0.39689547  1
  Be  Be13  1  0.80631342  0.74818287  0.89689547  1
  Be  Be14  1  0.30631342  0.24818287  0.60310453  1
  Be  Be15  1  0.19368658  0.24818287  0.10310453  1
  O  O16  1  0.02187723  0.75028602  0.99082776  1
  O  O17  1  0.47812277  0.75028602  0.49082776  1
  O  O18  1  0.97812277  0.25028602  0.00917224  1
  O  O19  1  0.52187723  0.25028602  0.50917224  1
  O  O20  1  0.63752085  0.74897501  0.21959901  1
  O  O21  1  0.86247915  0.74897501  0.71959901  1
  O  O22  1  0.36247915  0.24897501  0.78040099  1
  O  O23  1  0.13752085  0.24897501  0.28040099  1
  O  O24  1  0.31858295  0.05296601  0.07303793  1
  O  O25  1  0.19158896  0.44625259  0.57196440  1
  O  O26  1  0.68141705  0.55296601  0.92696207  1
  O  O27  1  0.80841104  0.94625259  0.42803560  1
  O  O28  1  0.69158896  0.94625259  0.92803560  1
  O  O29  1  0.81858295  0.55296601  0.42696207  1
  O  O30  1  0.30841104  0.44625259  0.07196440  1
  O  O31  1  0.18141705  0.05296601  0.57303793  1
  O  O32  1  0.16407657  0.74838775  0.27786167  1
  O  O33  1  0.33592343  0.74838775  0.77786167  1
  O  O34  1  0.83592343  0.24838775  0.72213833  1
  O  O35  1  0.66407657  0.24838775  0.22213833  1
