# generated using pymatgen
data_Al2SiAg7
_symmetry_space_group_name_H-M   'P 1'
_cell_length_a   7.01462872
_cell_length_b   6.97040279
_cell_length_c   7.04513032
_cell_angle_alpha   90.00000000
_cell_angle_beta   90.00000000
_cell_angle_gamma   91.18461256
_symmetry_Int_Tables_number   1
_chemical_formula_structural   Al2SiAg7
_chemical_formula_sum   'Al4 Si2 Ag14'
_cell_volume   344.39652776
_cell_formula_units_Z   2
loop_
 _symmetry_equiv_pos_site_id
 _symmetry_equiv_pos_as_xyz
  1  'x, y, z'
loop_
 _atom_site_type_symbol
 _atom_site_label
 _atom_site_symmetry_multiplicity
 _atom_site_fract_x
 _atom_site_fract_y
 _atom_site_fract_z
 _atom_site_occupancy
  Al  Al0  1  0.30769758  0.18935853  0.80784257  1
  Al  Al1  1  0.19230242  0.81064147  0.30784257  1
  Al  Al2  1  0.81463642  0.30962474  0.18518412  1
  Al  Al3  1  0.68536358  0.69037526  0.68518412  1
  Si  Si4  1  0.43784558  0.93657323  0.56286291  1
  Si  Si5  1  0.06215442  0.06342677  0.06286291  1
  Ag  Ag6  1  0.87587932  0.70488700  0.04229024  1
  Ag  Ag7  1  0.54270148  0.62619248  0.30023433  1
  Ag  Ag8  1  0.79558764  0.95670771  0.37898000  1
  Ag  Ag9  1  0.62412068  0.29511300  0.54229024  1
  Ag  Ag10  1  0.95729852  0.37380752  0.80023433  1
  Ag  Ag11  1  0.70441236  0.04329229  0.87898000  1
  Ag  Ag12  1  0.37378114  0.79839328  0.95526988  1
  Ag  Ag13  1  0.04617235  0.87685274  0.70375975  1
  Ag  Ag14  1  0.29956584  0.54452794  0.62860311  1
  Ag  Ag15  1  0.12621886  0.20160672  0.45526988  1
  Ag  Ag16  1  0.45382765  0.12314726  0.20375975  1
  Ag  Ag17  1  0.20043416  0.45547206  0.12860311  1
  Ag  Ag18  1  0.93372973  0.56704730  0.43497310  1
  Ag  Ag19  1  0.56627027  0.43295270  0.93497310  1
