# generated using pymatgen
data_Ce2VFeO6
_symmetry_space_group_name_H-M   'P 1'
_cell_length_a   5.45895026
_cell_length_b   5.82351910
_cell_length_c   7.82977053
_cell_angle_alpha   90.00000000
_cell_angle_beta   91.15185781
_cell_angle_gamma   90.00000000
_symmetry_Int_Tables_number   1
_chemical_formula_structural   Ce2VFeO6
_chemical_formula_sum   'Ce4 V2 Fe2 O12'
_cell_volume   248.86046439
_cell_formula_units_Z   2
loop_
 _symmetry_equiv_pos_site_id
 _symmetry_equiv_pos_as_xyz
  1  'x, y, z'
loop_
 _atom_site_type_symbol
 _atom_site_label
 _atom_site_symmetry_multiplicity
 _atom_site_fract_x
 _atom_site_fract_y
 _atom_site_fract_z
 _atom_site_occupancy
  Ce  Ce0  1  0.52083359  0.57559963  0.24843206  1
  Ce  Ce1  1  0.97916641  0.07559963  0.25156794  1
  Ce  Ce2  1  0.47916641  0.42440037  0.75156794  1
  Ce  Ce3  1  0.02083359  0.92440037  0.74843206  1
  V  V4  1  0.50000000  0.00000000  0.50000000  1
  V  V5  1  0.00000000  0.50000000  -0.00000000  1
  Fe  Fe6  1  0.50000000  0.00000000  -0.00000000  1
  Fe  Fe7  1  0.00000000  0.50000000  0.50000000  1
  O  O8  1  0.37600742  0.95623935  0.25194402  1
  O  O9  1  0.12399258  0.45623935  0.24805598  1
  O  O10  1  0.62399258  0.04376065  0.74805598  1
  O  O11  1  0.87600742  0.54376065  0.75194402  1
  O  O12  1  0.82154172  0.80189012  0.06382627  1
  O  O13  1  0.67845828  0.30189012  0.43617373  1
  O  O14  1  0.19894035  0.17885219  0.55937886  1
  O  O15  1  0.30105965  0.67885219  0.94062114  1
  O  O16  1  0.17845828  0.19810988  0.93617373  1
  O  O17  1  0.32154172  0.69810988  0.56382627  1
  O  O18  1  0.80105965  0.82114781  0.44062114  1
  O  O19  1  0.69894035  0.32114781  0.05937886  1
