# generated using pymatgen
data_LaMg6Cu
_symmetry_space_group_name_H-M   'P 1'
_cell_length_a   6.96257271
_cell_length_b   6.96257212
_cell_length_c   4.88021252
_cell_angle_alpha   90.00000000
_cell_angle_beta   90.00000000
_cell_angle_gamma   126.36386703
_symmetry_Int_Tables_number   1
_chemical_formula_structural   LaMg6Cu
_chemical_formula_sum   'La1 Mg6 Cu1'
_cell_volume   190.51034185
_cell_formula_units_Z   1
loop_
 _symmetry_equiv_pos_site_id
 _symmetry_equiv_pos_as_xyz
  1  'x, y, z'
loop_
 _atom_site_type_symbol
 _atom_site_label
 _atom_site_symmetry_multiplicity
 _atom_site_fract_x
 _atom_site_fract_y
 _atom_site_fract_z
 _atom_site_occupancy
  La  La0  1  0.29872826  0.20127174  0.75000000  1
  Mg  Mg1  1  0.19138989  0.80934222  0.25000000  1
  Mg  Mg2  1  0.69065778  0.30861011  0.25000000  1
  Mg  Mg3  1  0.69257931  0.80742069  0.25000000  1
  Mg  Mg4  1  0.32283220  0.67768974  0.75000000  1
  Mg  Mg5  1  0.82231026  0.17716780  0.75000000  1
  Mg  Mg6  1  0.84951301  0.65048699  0.75000000  1
  Cu  Cu7  1  0.13198929  0.36801071  0.25000000  1
