# generated using pymatgen
data_SmUAl4
_symmetry_space_group_name_H-M   'P 1'
_cell_length_a   5.56389437
_cell_length_b   5.56389437
_cell_length_c   5.56389437
_cell_angle_alpha   60.00000000
_cell_angle_beta   120.00000000
_cell_angle_gamma   120.00000000
_symmetry_Int_Tables_number   1
_chemical_formula_structural   SmUAl4
_chemical_formula_sum   'Sm1 U1 Al4'
_cell_volume   121.79280468
_cell_formula_units_Z   1
loop_
 _symmetry_equiv_pos_site_id
 _symmetry_equiv_pos_as_xyz
  1  'x, y, z'
loop_
 _atom_site_type_symbol
 _atom_site_label
 _atom_site_symmetry_multiplicity
 _atom_site_fract_x
 _atom_site_fract_y
 _atom_site_fract_z
 _atom_site_occupancy
  Sm  Sm0  1  0.25000000  0.75000000  0.75000000  1
  U  U1  1  -0.00000000  -0.00000000  -0.00000000  1
  Al  Al2  1  0.62559187  0.37440813  0.87677561  1
  Al  Al3  1  0.62559187  0.37440813  0.37440813  1
  Al  Al4  1  0.62559187  0.87677561  0.37440813  1
  Al  Al5  1  0.12322439  0.37440813  0.37440813  1
