# generated using pymatgen
data_Co5H78C12N18ClO36
_symmetry_space_group_name_H-M   'P 1'
_cell_length_a   9.88215752
_cell_length_b   12.50881220
_cell_length_c   12.49864984
_cell_angle_alpha   119.86456468
_cell_angle_beta   89.88594031
_cell_angle_gamma   90.12773411
_symmetry_Int_Tables_number   1
_chemical_formula_structural   Co5H78C12N18ClO36
_chemical_formula_sum   'Co5 H78 C12 N18 Cl1 O36'
_cell_volume   1339.83511368
_cell_formula_units_Z   1
loop_
 _symmetry_equiv_pos_site_id
 _symmetry_equiv_pos_as_xyz
  1  'x, y, z'
loop_
 _atom_site_type_symbol
 _atom_site_label
 _atom_site_symmetry_multiplicity
 _atom_site_fract_x
 _atom_site_fract_y
 _atom_site_fract_z
 _atom_site_occupancy
  Co  Co0  1  0.14440502  0.66522259  0.33362256  1
  Co  Co1  1  0.85559498  0.33477741  0.66637744  1
  Co  Co2  1  0.64786208  0.66664628  0.33323068  1
  Co  Co3  1  0.35213792  0.33335372  0.66676932  1
  Co  Co4  1  0.00000000  0.00000000  0.00000000  1
  H  H5  1  0.44660869  0.79618169  0.46003767  1
  H  H6  1  0.44679862  0.53973480  0.33567493  1
  H  H7  1  0.44690633  0.66436043  0.20428168  1
  H  H8  1  0.55339131  0.20381831  0.53996233  1
  H  H9  1  0.55320138  0.46026520  0.66432507  1
  H  H10  1  0.55309367  0.33563957  0.79571832  1
  H  H11  1  0.06249338  0.11568846  0.88730437  1
  H  H12  1  0.06190321  0.11088178  0.22839393  1
  H  H13  1  0.06074617  0.77297075  0.88486553  1
  H  H14  1  0.93750662  0.88431154  0.11269563  1
  H  H15  1  0.93809679  0.88911822  0.77160607  1
  H  H16  1  0.93925383  0.22702925  0.11513447  1
  H  H17  1  0.70590379  0.79864215  0.24127695  1
  H  H18  1  0.70606243  0.75860282  0.55686166  1
  H  H19  1  0.70607196  0.44256625  0.20140900  1
  H  H20  1  0.29409621  0.20135785  0.75872305  1
  H  H21  1  0.29393757  0.24139718  0.44313834  1
  H  H22  1  0.29392804  0.55743375  0.79859100  1
  H  H23  1  0.73517793  0.07511696  0.61738501  1
  H  H24  1  0.73471471  0.38263216  0.45719623  1
  H  H25  1  0.73440343  0.54244431  0.92552717  1
  H  H26  1  0.26482207  0.92488304  0.38261499  1
  H  H27  1  0.26528529  0.61736784  0.54280377  1
  H  H28  1  0.26559657  0.45755569  0.07447283  1
  H  H29  1  0.55680442  0.95648336  0.21930375  1
  H  H30  1  0.55811822  0.77902887  0.73582093  1
  H  H31  1  0.55738806  0.26430121  0.04304398  1
  H  H32  1  0.44319558  0.04351664  0.78069625  1
  H  H33  1  0.44188178  0.22097113  0.26417907  1
  H  H34  1  0.44261194  0.73569879  0.95695602  1
  H  H35  1  0.85338459  0.98315247  0.59295771  1
  H  H36  1  0.85333241  0.40797874  0.39031867  1
  H  H37  1  0.85262232  0.60979820  0.01774513  1
  H  H38  1  0.14661541  0.01684753  0.40704229  1
  H  H39  1  0.14666759  0.59202126  0.60968133  1
  H  H40  1  0.14737768  0.39020180  0.98225487  1
  H  H41  1  0.43667233  0.86443605  0.18648598  1
  H  H42  1  0.43787592  0.81317773  0.67796976  1
  H  H43  1  0.43699421  0.32219043  0.13509157  1
  H  H44  1  0.56332767  0.13556395  0.81351402  1
  H  H45  1  0.56212408  0.18682227  0.32203024  1
  H  H46  1  0.56300579  0.67780957  0.86490843  1
  H  H47  1  0.16173913  0.16344559  0.00757550  1
  H  H48  1  0.16130169  0.99134908  0.15496208  1
  H  H49  1  0.16080620  0.84625366  0.83772069  1
  H  H50  1  0.83826087  0.83655441  0.99242450  1
  H  H51  1  0.83869831  0.00865092  0.84503792  1
  H  H52  1  0.83919380  0.15374634  0.16227931  1
  H  H53  1  0.84907993  0.73139330  0.25226251  1
  H  H54  1  0.84907800  0.74820533  0.47834226  1
  H  H55  1  0.84888065  0.52087515  0.26864742  1
  H  H56  1  0.15092007  0.26860670  0.74773749  1
  H  H57  1  0.15092200  0.25179467  0.52165774  1
  H  H58  1  0.15111935  0.47912485  0.73135258  1
  H  H59  1  0.19284048  0.03106499  0.87978409  1
  H  H60  1  0.19209702  0.11992297  0.15124831  1
  H  H61  1  0.19099659  0.85007782  0.97040858  1
  H  H62  1  0.80715952  0.96893501  0.12021591  1
  H  H63  1  0.80790298  0.88007703  0.84875169  1
  H  H64  1  0.80900341  0.14992218  0.02959142  1
  H  H65  1  0.59070959  0.87919326  0.50516362  1
  H  H66  1  0.59045709  0.49467061  0.37386622  1
  H  H67  1  0.59111532  0.62595614  0.12085536  1
  H  H68  1  0.40929041  0.12080674  0.49483638  1
  H  H69  1  0.40954291  0.50532939  0.62613378  1
  H  H70  1  0.40888468  0.37404386  0.87914464  1
  H  H71  1  0.78380755  0.85314743  0.37566430  1
  H  H72  1  0.78422303  0.62437676  0.47707550  1
  H  H73  1  0.78402898  0.52229416  0.14650080  1
  H  H74  1  0.21619245  0.14685257  0.62433570  1
  H  H75  1  0.21577697  0.37562324  0.52292450  1
  H  H76  1  0.21597102  0.47770584  0.85349920  1
  H  H77  1  0.51487675  0.85322549  0.37621107  1
  H  H78  1  0.51423913  0.62338977  0.47656037  1
  H  H79  1  0.51427670  0.52350895  0.14756410  1
  H  H80  1  0.48512325  0.14677451  0.62378893  1
  H  H81  1  0.48576087  0.37661023  0.52343963  1
  H  H82  1  0.48572330  0.47649105  0.85243590  1
  C  C83  1  0.21429610  0.74925668  0.16106335  1
  C  C84  1  0.21311081  0.83920569  0.58835717  1
  C  C85  1  0.21404403  0.41085915  0.24964782  1
  C  C86  1  0.78570390  0.25074332  0.83893665  1
  C  C87  1  0.78688919  0.16079431  0.41164283  1
  C  C88  1  0.78595597  0.58914085  0.75035218  1
  C  C89  1  0.06986353  0.87748781  0.56621454  1
  C  C90  1  0.07039327  0.43263688  0.31030653  1
  C  C91  1  0.07062416  0.68990519  0.12319853  1
  C  C92  1  0.93013647  0.12251219  0.43378546  1
  C  C93  1  0.92960673  0.56736312  0.68969347  1
  C  C94  1  0.92937584  0.31009481  0.87680147  1
  N  N95  1  0.11712756  0.08618284  0.93730621  1
  N  N96  1  0.11649945  0.06199145  0.14863336  1
  N  N97  1  0.11590389  0.85224029  0.91465650  1
  N  N98  1  0.88287244  0.91381716  0.06269379  1
  N  N99  1  0.88350055  0.93800855  0.85136664  1
  N  N100  1  0.88409611  0.14775971  0.08534350  1
  N  N101  1  0.75999088  0.77358797  0.29534676  1
  N  N102  1  0.76024342  0.70470657  0.47776579  1
  N  N103  1  0.75996655  0.52183858  0.22641116  1
  N  N104  1  0.24000912  0.22641203  0.70465324  1
  N  N105  1  0.23975658  0.29529343  0.52223421  1
  N  N106  1  0.24003345  0.47816142  0.77358884  1
  N  N107  1  0.53618771  0.81490276  0.43057679  1
  N  N108  1  0.53591620  0.56918244  0.38410573  1
  N  N109  1  0.53606298  0.61590848  0.18531862  1
  N  N110  1  0.46381229  0.18509724  0.56942321  1
  N  N111  1  0.46408380  0.43081756  0.61589427  1
  N  N112  1  0.46393702  0.38409152  0.81468138  1
  Cl  Cl113  1  0.50000000  0.00000000  0.00000000  1
  O  O114  1  0.26793918  0.74484705  0.25267870  1
  O  O115  1  0.26734797  0.74733432  0.49255306  1
  O  O116  1  0.26797707  0.50563643  0.25098352  1
  O  O117  1  0.73206082  0.25515295  0.74732130  1
  O  O118  1  0.73265203  0.25266568  0.50744694  1
  O  O119  1  0.73202293  0.49436357  0.74901648  1
  O  O120  1  0.02152491  0.81052295  0.45777898  1
  O  O121  1  0.02108603  0.54103280  0.35150900  1
  O  O122  1  0.02123530  0.65110040  0.19265702  1
  O  O123  1  0.97847509  0.18947705  0.54222102  1
  O  O124  1  0.97891397  0.45896720  0.64849100  1
  O  O125  1  0.97876470  0.34889960  0.80734298  1
  O  O126  1  0.76132866  0.98893528  0.56356739  1
  O  O127  1  0.76144182  0.43744345  0.42586383  1
  O  O128  1  0.76041263  0.57474046  0.01189877  1
  O  O129  1  0.23867134  0.01106472  0.43643261  1
  O  O130  1  0.23855818  0.56255655  0.57413617  1
  O  O131  1  0.23958737  0.42525954  0.98810123  1
  O  O132  1  0.52355789  0.88992990  0.23181657  1
  O  O133  1  0.52450684  0.76768845  0.65738574  1
  O  O134  1  0.52398321  0.34261985  0.11012660  1
  O  O135  1  0.47644211  0.11007010  0.76818343  1
  O  O136  1  0.47549316  0.23231155  0.34261426  1
  O  O137  1  0.47601679  0.65738015  0.88987340  1
  O  O138  1  0.26777376  0.79992123  0.10618130  1
  O  O139  1  0.26588788  0.89330903  0.69342727  1
  O  O140  1  0.26708526  0.30599541  0.20092646  1
  O  O141  1  0.73222624  0.20007877  0.89381870  1
  O  O142  1  0.73411212  0.10669097  0.30657273  1
  O  O143  1  0.73291474  0.69400459  0.79907354  1
  O  O144  1  0.00935197  0.96577236  0.65435210  1
  O  O145  1  0.01023557  0.34487724  0.31130960  1
  O  O146  1  0.01057612  0.68746396  0.03364748  1
  O  O147  1  0.99064803  0.03422764  0.34564790  1
  O  O148  1  0.98976443  0.65512276  0.68869040  1
  O  O149  1  0.98942388  0.31253604  0.96635252  1
