# generated using pymatgen
data_Ba2SmNb4FeO15
_symmetry_space_group_name_H-M   'P 1'
_cell_length_a   4.07701689
_cell_length_b   12.71338313
_cell_length_c   12.60942605
_cell_angle_alpha   90.00000000
_cell_angle_beta   90.00000000
_cell_angle_gamma   90.21421088
_symmetry_Int_Tables_number   1
_chemical_formula_structural   Ba2SmNb4FeO15
_chemical_formula_sum   'Ba4 Sm2 Nb8 Fe2 O30'
_cell_volume   653.57574864
_cell_formula_units_Z   2
loop_
 _symmetry_equiv_pos_site_id
 _symmetry_equiv_pos_as_xyz
  1  'x, y, z'
loop_
 _atom_site_type_symbol
 _atom_site_label
 _atom_site_symmetry_multiplicity
 _atom_site_fract_x
 _atom_site_fract_y
 _atom_site_fract_z
 _atom_site_occupancy
  Ba  Ba0  1  0.35574092  0.67879940  0.84111656  1
  Ba  Ba1  1  0.35564655  0.32783584  0.17684660  1
  Ba  Ba2  1  0.35564655  0.82783584  0.32315340  1
  Ba  Ba3  1  0.35574092  0.17879940  0.65888344  1
  Sm  Sm4  1  0.37350839  0.47761416  0.48813380  1
  Sm  Sm5  1  0.37350839  0.97761416  0.01186620  1
  Nb  Nb6  1  0.87149045  0.50378640  0.99975037  1
  Nb  Nb7  1  0.87149045  0.00378640  0.50024963  1
  Nb  Nb8  1  0.86972720  0.07811561  0.21393628  1
  Nb  Nb9  1  0.86718179  0.92325029  0.79056998  1
  Nb  Nb10  1  0.86718179  0.42325029  0.70943002  1
  Nb  Nb11  1  0.86972720  0.57811561  0.28606372  1
  Nb  Nb12  1  0.86352561  0.21077444  0.92833085  1
  Nb  Nb13  1  0.86352561  0.71077444  0.57166915  1
  Fe  Fe14  1  0.84256267  0.78670160  0.07664653  1
  Fe  Fe15  1  0.84256267  0.28670160  0.42335347  1
  O  O16  1  0.82178692  0.98891129  0.33882143  1
  O  O17  1  0.81786182  0.00871948  0.65822809  1
  O  O18  1  0.81786182  0.50871948  0.84177191  1
  O  O19  1  0.82178692  0.48891129  0.16117857  1
  O  O20  1  0.81557788  0.85804988  0.92856317  1
  O  O21  1  0.80448833  0.14653261  0.06978232  1
  O  O22  1  0.80448833  0.64653261  0.43021768  1
  O  O23  1  0.81557788  0.35804988  0.57143683  1
  O  O24  1  0.82809715  0.65462036  0.99561745  1
  O  O25  1  0.81691572  0.34396167  0.00458105  1
  O  O26  1  0.81691572  0.84396167  0.49541895  1
  O  O27  1  0.82809715  0.15462036  0.50438255  1
  O  O28  1  0.82956186  0.78076293  0.71822632  1
  O  O29  1  0.84308853  0.21845552  0.27754551  1
  O  O30  1  0.84308853  0.71845552  0.22245449  1
  O  O31  1  0.82956186  0.28076293  0.78177368  1
  O  O32  1  0.32150289  0.69962688  0.57612276  1
  O  O33  1  0.33439025  0.31088482  0.42510517  1
  O  O34  1  0.33439025  0.81088482  0.07489483  1
  O  O35  1  0.32150289  0.19962688  0.92387724  1
  O  O36  1  0.32787173  0.49946375  0.00202212  1
  O  O37  1  0.32787173  0.99946375  0.49797788  1
  O  O38  1  0.83661797  0.94644157  0.11848204  1
  O  O39  1  0.80939675  0.06061004  0.87259106  1
  O  O40  1  0.80939675  0.56061004  0.62740894  1
  O  O41  1  0.83661797  0.44644157  0.38151796  1
  O  O42  1  0.33458205  0.57104774  0.30414248  1
  O  O43  1  0.32917656  0.42503369  0.69870673  1
  O  O44  1  0.32917656  0.92503369  0.80129327  1
  O  O45  1  0.33458205  0.07104774  0.19585752  1
