# generated using pymatgen
data_Ba10Y5(Fe5O12)3
_symmetry_space_group_name_H-M   'P 1'
_cell_length_a   8.86665311
_cell_length_b   8.93424445
_cell_length_c   12.55786199
_cell_angle_alpha   106.43775061
_cell_angle_beta   98.30495404
_cell_angle_gamma   89.23860458
_symmetry_Int_Tables_number   1
_chemical_formula_structural   Ba10Y5(Fe5O12)3
_chemical_formula_sum   'Ba10 Y5 Fe15 O36'
_cell_volume   943.73014161
_cell_formula_units_Z   1
loop_
 _symmetry_equiv_pos_site_id
 _symmetry_equiv_pos_as_xyz
  1  'x, y, z'
loop_
 _atom_site_type_symbol
 _atom_site_label
 _atom_site_symmetry_multiplicity
 _atom_site_fract_x
 _atom_site_fract_y
 _atom_site_fract_z
 _atom_site_occupancy
  Ba  Ba0  1  0.73333989  0.97965655  0.17492770  1
  Ba  Ba1  1  0.92816304  0.35967298  0.17379429  1
  Ba  Ba2  1  0.14038969  0.77214279  0.17903117  1
  Ba  Ba3  1  0.34002831  0.16887916  0.17902151  1
  Ba  Ba4  1  0.53510249  0.57486270  0.18100880  1
  Ba  Ba5  1  0.86666011  0.22034345  0.82507230  1
  Ba  Ba6  1  0.06489751  0.62513730  0.81899120  1
  Ba  Ba7  1  0.25997169  0.03112084  0.82097849  1
  Ba  Ba8  1  0.45961031  0.42785721  0.82096883  1
  Ba  Ba9  1  0.67183696  0.84032702  0.82620571  1
  Y  Y10  1  0.60038891  0.70157748  0.49968615  1
  Y  Y11  1  0.40071260  0.30174178  0.49991904  1
  Y  Y12  1  0.19928740  0.89825822  0.50008096  1
  Y  Y13  1  0.99961109  0.49842252  0.50031385  1
  Y  Y14  1  0.80000000  0.10000000  0.50000000  1
  Fe  Fe15  1  0.86910095  0.73570727  0.34067574  1
  Fe  Fe16  1  0.66997584  0.34156776  0.35024840  1
  Fe  Fe17  1  0.47048214  0.94380580  0.35033156  1
  Fe  Fe18  1  0.26711139  0.53600429  0.34038452  1
  Fe  Fe19  1  0.07011222  0.13493388  0.34161027  1
  Fe  Fe20  1  0.93002416  0.85843224  0.64975160  1
  Fe  Fe21  1  0.73089905  0.46429273  0.65932426  1
  Fe  Fe22  1  0.52988778  0.06506612  0.65838973  1
  Fe  Fe23  1  0.33288861  0.66399571  0.65961548  1
  Fe  Fe24  1  0.12951786  0.25619420  0.64966844  1
  Fe  Fe25  1  0.80000000  0.60000000  -0.00000000  1
  Fe  Fe26  1  0.60408761  0.19957452  0.00237695  1
  Fe  Fe27  1  0.39784672  0.80153236  0.00139495  1
  Fe  Fe28  1  0.20215328  0.39846764  0.99860505  1
  Fe  Fe29  1  0.99591239  0.00042548  0.99762305  1
  O  O30  1  0.77981944  0.55637389  0.38150252  1
  O  O31  1  0.57828445  0.15520756  0.38668434  1
  O  O32  1  0.37117306  0.74597563  0.38153393  1
  O  O33  1  0.17485316  0.35244316  0.37977532  1
  O  O34  1  0.97612835  0.94947190  0.37718604  1
  O  O35  1  0.82018056  0.64362611  0.61849748  1
  O  O36  1  0.62387165  0.25052810  0.62281396  1
  O  O37  1  0.42514684  0.84755684  0.62022468  1
  O  O38  1  0.22882694  0.45402437  0.61846607  1
  O  O39  1  0.02171555  0.04479244  0.61331566  1
  O  O40  1  0.83591617  0.66969265  0.17869907  1
  O  O41  1  0.62004344  0.27632739  0.17063349  1
  O  O42  1  0.43815274  0.86553744  0.17001002  1
  O  O43  1  0.23271437  0.47252550  0.17896315  1
  O  O44  1  0.04547009  0.06688970  0.18222550  1
  O  O45  1  0.97995656  0.92367261  0.82936651  1
  O  O46  1  0.76408383  0.53030735  0.82130093  1
  O  O47  1  0.55452991  0.13311030  0.81777450  1
  O  O48  1  0.36728563  0.72747450  0.82103685  1
  O  O49  1  0.16184726  0.33446256  0.82998998  1
  O  O50  1  0.68179039  0.41404165  0.99784155  1
  O  O51  1  0.47989662  0.00519127  0.99536098  1
  O  O52  1  0.30000000  0.60000000  -0.00000000  1
  O  O53  1  0.12010338  0.19480873  0.00463902  1
  O  O54  1  0.91820961  0.78595835  0.00215845  1
  O  O55  1  0.68412514  0.84992470  0.38385983  1
  O  O56  1  0.46851186  0.45691071  0.38221514  1
  O  O57  1  0.27202071  0.05548419  0.38399086  1
  O  O58  1  0.07565369  0.65233803  0.38082364  1
  O  O59  1  0.88085892  0.24804925  0.37674083  1
  O  O60  1  0.71914108  0.95195075  0.62325917  1
  O  O61  1  0.52434631  0.54766197  0.61917636  1
  O  O62  1  0.32797929  0.14451581  0.61600914  1
  O  O63  1  0.13148814  0.74308929  0.61778486  1
  O  O64  1  0.91587486  0.35007530  0.61614017  1
  O  O65  1  0.80000000  0.10000000  -0.00000000  1
