# generated using pymatgen
data_Ba3La3Pr3Cu9O22
_symmetry_space_group_name_H-M   'P 1'
_cell_length_a   5.55012666
_cell_length_b   8.84025830
_cell_length_c   12.17523175
_cell_angle_alpha   97.47185562
_cell_angle_beta   77.21659455
_cell_angle_gamma   70.34775127
_symmetry_Int_Tables_number   1
_chemical_formula_structural   Ba3La3Pr3Cu9O22
_chemical_formula_sum   'Ba3 La3 Pr3 Cu9 O22'
_cell_volume   534.86439148
_cell_formula_units_Z   1
loop_
 _symmetry_equiv_pos_site_id
 _symmetry_equiv_pos_as_xyz
  1  'x, y, z'
loop_
 _atom_site_type_symbol
 _atom_site_label
 _atom_site_symmetry_multiplicity
 _atom_site_fract_x
 _atom_site_fract_y
 _atom_site_fract_z
 _atom_site_occupancy
  Ba  Ba0  1  0.61021380  0.93330286  0.82616259  1
  Ba  Ba1  1  0.95743397  0.26762806  0.81824417  1
  Ba  Ba2  1  0.70881511  0.39571093  0.18045155  1
  La  La3  1  0.28175994  0.60481374  0.82635001  1
  La  La4  1  0.04953460  0.74835065  0.16995231  1
  La  La5  1  0.35778650  0.07170471  0.17944940  1
  Pr  Pr6  1  0.49760822  0.50010352  0.50001185  1
  Pr  Pr7  1  0.16907753  0.16687153  0.49798995  1
  Pr  Pr8  1  0.82995427  0.83000507  0.49986582  1
  Cu  Cu9  1  0.23058828  0.88201448  0.65161667  1
  Cu  Cu10  1  0.90042850  0.54673772  0.65060845  1
  Cu  Cu11  1  0.56704790  0.21381231  0.64741072  1
  Cu  Cu12  1  0.43931287  0.78150605  0.34395388  1
  Cu  Cu13  1  0.09991086  0.45295350  0.34665248  1
  Cu  Cu14  1  0.76216840  0.11806105  0.34776331  1
  Cu  Cu15  1  0.67743379  0.66569303  0.00286190  1
  Cu  Cu16  1  0.31747671  0.34623786  0.00426762  1
  Cu  Cu17  1  0.00599845  0.98798796  0.99822168  1
  O  O18  1  0.11994277  0.92680040  0.83694110  1
  O  O19  1  0.79761976  0.59970151  0.83945259  1
  O  O20  1  0.40489874  0.32007562  0.84300690  1
  O  O21  1  0.63534928  0.71308258  0.16386583  1
  O  O22  1  0.24269824  0.36829199  0.16323172  1
  O  O23  1  0.80657333  0.05651730  0.15603300  1
  O  O24  1  0.57757064  0.70969408  0.63663971  1
  O  O25  1  0.24513044  0.37166172  0.62887599  1
  O  O26  1  0.91550264  0.04077800  0.62208763  1
  O  O27  1  0.08435795  0.70434364  0.63443078  1
  O  O28  1  0.73772593  0.37963027  0.63317419  1
  O  O29  1  0.41047777  0.04249107  0.63382416  1
  O  O30  1  0.74836950  0.62263004  0.37546173  1
  O  O31  1  0.41698931  0.29499347  0.37130187  1
  O  O32  1  0.10607496  0.94869632  0.33741681  1
  O  O33  1  0.24895338  0.62952723  0.36080385  1
  O  O34  1  0.93585567  0.27784607  0.35703112  1
  O  O35  1  0.58915914  0.95695062  0.36468665  1
  O  O36  1  0.91222486  0.78279344  0.99013874  1
  O  O37  1  0.17614784  0.17782024  0.00514528  1
  O  O38  1  0.43433365  0.53039807  0.01171005  1
  O  O39  1  0.32482752  0.86511427  0.04290592  1
