# generated using pymatgen
data_Na2Sm2Ti3O10
_symmetry_space_group_name_H-M   'P 1'
_cell_length_a   3.83674590
_cell_length_b   3.83674590
_cell_length_c   14.60320831
_cell_angle_alpha   97.54856655
_cell_angle_beta   97.54856654
_cell_angle_gamma   90.00000004
_symmetry_Int_Tables_number   1
_chemical_formula_structural   Na2Sm2Ti3O10
_chemical_formula_sum   'Na2 Sm2 Ti3 O10'
_cell_volume   211.22594939
_cell_formula_units_Z   1
loop_
 _symmetry_equiv_pos_site_id
 _symmetry_equiv_pos_as_xyz
  1  'x, y, z'
loop_
 _atom_site_type_symbol
 _atom_site_label
 _atom_site_symmetry_multiplicity
 _atom_site_fract_x
 _atom_site_fract_y
 _atom_site_fract_z
 _atom_site_occupancy
  O  O0  1  0.86923250  0.36923250  0.73846501  1
  O  O1  1  0.36923250  0.86923250  0.73846501  1
  O  O2  1  0.13076750  0.63076750  0.26153499  1
  O  O3  1  0.63076750  0.13076750  0.26153499  1
  O  O4  1  0.79244197  0.79244197  0.58488394  1
  O  O5  1  0.20755803  0.20755803  0.41511606  1
  O  O6  1  0.00000000  0.50000000  0.00000000  1
  O  O7  1  0.06737668  0.06737668  0.13475336  1
  O  O8  1  0.93262332  0.93262332  0.86524664  1
  O  O9  1  0.50000000  0.00000000  0.00000000  1
  Na  Na10  1  0.71216604  0.71216604  0.42433208  1
  Na  Na11  1  0.28783396  0.28783396  0.57566792  1
  Ti  Ti12  1  0.85397551  0.85397551  0.70795101  1
  Ti  Ti13  1  0.14602449  0.14602449  0.29204899  1
  Ti  Ti14  1  0.00000000  0.00000000  0.00000000  1
  Sm  Sm15  1  0.57538311  0.57538311  0.15076621  1
  Sm  Sm16  1  0.42461689  0.42461689  0.84923379  1
