# generated using pymatgen
data_TmSnAu
_symmetry_space_group_name_H-M   'P 1'
_cell_length_a   4.68235077
_cell_length_b   4.68235078
_cell_length_c   7.40751466
_cell_angle_alpha   90.00000000
_cell_angle_beta   90.00000000
_cell_angle_gamma   120.00000003
_symmetry_Int_Tables_number   1
_chemical_formula_structural   TmSnAu
_chemical_formula_sum   'Tm2 Sn2 Au2'
_cell_volume   140.64718415
_cell_formula_units_Z   2
loop_
 _symmetry_equiv_pos_site_id
 _symmetry_equiv_pos_as_xyz
  1  'x, y, z'
loop_
 _atom_site_type_symbol
 _atom_site_label
 _atom_site_symmetry_multiplicity
 _atom_site_fract_x
 _atom_site_fract_y
 _atom_site_fract_z
 _atom_site_occupancy
  Sn  Sn0  1  0.33333333  0.66666667  0.70724421  1
  Sn  Sn1  1  0.66666667  0.33333333  0.20724421  1
  Tm  Tm2  1  0.00000000  0.00000000  0.47905378  1
  Tm  Tm3  1  0.00000000  0.00000000  0.97905378  1
  Au  Au4  1  0.66666667  0.33333333  0.81370201  1
  Au  Au5  1  0.33333333  0.66666667  0.31370201  1
