# generated using pymatgen
data_TiFe2O5
_symmetry_space_group_name_H-M   'P 1'
_cell_length_a   5.08650004
_cell_length_b   5.72538667
_cell_length_c   7.16924514
_cell_angle_alpha   109.12985636
_cell_angle_beta   90.00000000
_cell_angle_gamma   116.37253786
_symmetry_Int_Tables_number   1
_chemical_formula_structural   TiFe2O5
_chemical_formula_sum   'Ti2 Fe4 O10'
_cell_volume   174.09224199
_cell_formula_units_Z   2
loop_
 _symmetry_equiv_pos_site_id
 _symmetry_equiv_pos_as_xyz
  1  'x, y, z'
loop_
 _atom_site_type_symbol
 _atom_site_label
 _atom_site_symmetry_multiplicity
 _atom_site_fract_x
 _atom_site_fract_y
 _atom_site_fract_z
 _atom_site_occupancy
  O  O0  1  0.19066999  0.00000000  0.25000000  1
  O  O1  1  0.80933001  0.00000000  0.75000000  1
  O  O2  1  0.58832304  0.83891546  0.05165166  1
  O  O3  1  0.74940758  0.16108454  0.44834834  1
  O  O4  1  0.41167696  0.16108454  0.94834834  1
  O  O5  1  0.25059242  0.83891546  0.55165166  1
  O  O6  1  0.03544624  0.36753522  0.15006026  1
  O  O7  1  0.66791102  0.63246478  0.34993974  1
  O  O8  1  0.96455376  0.63246478  0.84993974  1
  O  O9  1  0.33208898  0.36753522  0.65006026  1
  Ti  Ti10  1  0.00000000  0.00000000  0.50000000  1
  Ti  Ti11  1  0.00000000  0.00000000  0.00000000  1
  Fe  Fe12  1  0.36340654  0.73435817  0.77414009  1
  Fe  Fe13  1  0.62904837  0.26564183  0.72585991  1
  Fe  Fe14  1  0.63659346  0.26564183  0.22585991  1
  Fe  Fe15  1  0.37095163  0.73435817  0.27414009  1
