# generated using pymatgen
data_SrCu3(SnO3)4
_symmetry_space_group_name_H-M   'P 1'
_cell_length_a   6.75532503
_cell_length_b   6.75532503
_cell_length_c   6.75532503
_cell_angle_alpha   109.47122063
_cell_angle_beta   109.47122063
_cell_angle_gamma   109.47122065
_symmetry_Int_Tables_number   1
_chemical_formula_structural   SrCu3(SnO3)4
_chemical_formula_sum   'Sr1 Cu3 Sn4 O12'
_cell_volume   237.31044777
_cell_formula_units_Z   1
loop_
 _symmetry_equiv_pos_site_id
 _symmetry_equiv_pos_as_xyz
  1  'x, y, z'
loop_
 _atom_site_type_symbol
 _atom_site_label
 _atom_site_symmetry_multiplicity
 _atom_site_fract_x
 _atom_site_fract_y
 _atom_site_fract_z
 _atom_site_occupancy
  O  O0  1  0.82862700  0.30935917  0.13798617  1
  O  O1  1  0.17137300  0.69064083  0.86201383  1
  O  O2  1  0.82862700  0.69064083  0.51926783  1
  O  O3  1  0.30935917  0.48073217  0.17137300  1
  O  O4  1  0.48073217  0.17137300  0.30935917  1
  O  O5  1  0.13798617  0.82862700  0.30935917  1
  O  O6  1  0.69064083  0.86201383  0.17137300  1
  O  O7  1  0.51926783  0.82862700  0.69064083  1
  O  O8  1  0.17137300  0.30935917  0.48073217  1
  O  O9  1  0.69064083  0.51926783  0.82862700  1
  O  O10  1  0.86201383  0.17137300  0.69064083  1
  O  O11  1  0.30935917  0.13798617  0.82862700  1
  Cu  Cu12  1  0.50000000  0.00000000  0.50000000  1
  Cu  Cu13  1  0.00000000  0.50000000  0.50000000  1
  Cu  Cu14  1  0.50000000  0.50000000  0.00000000  1
  Sr  Sr15  1  0.00000000  0.00000000  0.00000000  1
  Sn  Sn16  1  0.50000000  0.50000000  0.50000000  1
  Sn  Sn17  1  0.00000000  0.50000000  0.00000000  1
  Sn  Sn18  1  0.00000000  0.00000000  0.50000000  1
  Sn  Sn19  1  0.50000000  0.00000000  0.00000000  1
