# generated using pymatgen
data_Mg2Mo3O8
_symmetry_space_group_name_H-M   'P 1'
_cell_length_a   6.27658956
_cell_length_b   6.27658956
_cell_length_c   9.48467726
_cell_angle_alpha   90.00000000
_cell_angle_beta   90.00000000
_cell_angle_gamma   119.99999999
_symmetry_Int_Tables_number   1
_chemical_formula_structural   Mg2Mo3O8
_chemical_formula_sum   'Mg4 Mo6 O16'
_cell_volume   323.59414093
_cell_formula_units_Z   2
loop_
 _symmetry_equiv_pos_site_id
 _symmetry_equiv_pos_as_xyz
  1  'x, y, z'
loop_
 _atom_site_type_symbol
 _atom_site_label
 _atom_site_symmetry_multiplicity
 _atom_site_fract_x
 _atom_site_fract_y
 _atom_site_fract_z
 _atom_site_occupancy
  O  O0  1  0.83047152  0.16952879  0.14699258  1
  O  O1  1  0.66094316  0.83047171  0.64699222  1
  O  O2  1  0.16952879  0.33905759  0.64699222  1
  O  O3  1  0.83047128  0.66094291  0.14699258  1
  O  O4  1  0.33905692  0.16952879  0.14699258  1
  O  O5  1  0.16952855  0.83047171  0.64699222  1
  O  O6  1  0.51983022  0.48016894  0.86922957  1
  O  O7  1  0.03966072  0.51982958  0.36922893  1
  O  O8  1  0.48016993  0.96033986  0.36922893  1
  O  O9  1  0.51983015  0.03966064  0.86922957  1
  O  O10  1  0.00000000  0.00000000  0.35654934  1
  O  O11  1  0.00000000  0.00000000  0.85654898  1
  O  O12  1  0.33333317  0.66666634  0.12301611  1
  O  O13  1  0.96033837  0.48016894  0.86922957  1
  O  O14  1  0.48016886  0.51982958  0.36922893  1
  O  O15  1  0.66666691  0.33333416  0.62301574  1
  Mg  Mg16  1  0.66666691  0.33333416  0.02571604  1
  Mg  Mg17  1  0.33333317  0.66666634  0.52571667  1
  Mg  Mg18  1  0.66666691  0.33333416  0.41264005  1
  Mg  Mg19  1  0.33333317  0.66666634  0.91264068  1
  Mo  Mo20  1  0.67213251  0.83606662  0.24230442  1
  Mo  Mo21  1  0.83606768  0.16393388  0.74230406  1
  Mo  Mo22  1  0.16393388  0.32786777  0.24230442  1
  Mo  Mo23  1  0.83606619  0.67213273  0.74230406  1
  Mo  Mo24  1  0.32786757  0.16393388  0.74230406  1
  Mo  Mo25  1  0.16393411  0.83606662  0.24230442  1
