# generated using pymatgen
data_Sn4Te3Se
_symmetry_space_group_name_H-M   'P 1'
_cell_length_a   4.18817487
_cell_length_b   4.18817487
_cell_length_c   23.68981347
_cell_angle_alpha   84.92865663
_cell_angle_beta   95.07134337
_cell_angle_gamma   120.00000000
_symmetry_Int_Tables_number   1
_chemical_formula_structural   Sn4Te3Se
_chemical_formula_sum   'Sn4 Te3 Se1'
_cell_volume   357.98734151
_cell_formula_units_Z   1
loop_
 _symmetry_equiv_pos_site_id
 _symmetry_equiv_pos_as_xyz
  1  'x, y, z'
loop_
 _atom_site_type_symbol
 _atom_site_label
 _atom_site_symmetry_multiplicity
 _atom_site_fract_x
 _atom_site_fract_y
 _atom_site_fract_z
 _atom_site_occupancy
  Sn  Sn0  1  0.05505950  0.94494050  0.16517851  1
  Sn  Sn1  1  0.81064392  0.18935608  0.43193176  1
  Sn  Sn2  1  0.56639695  0.43360305  0.69919084  1
  Sn  Sn3  1  0.31312999  0.68687001  0.93938997  1
  Te  Te4  1  0.74587162  0.25412838  0.23761486  1
  Te  Te5  1  0.50149839  0.49850161  0.50449518  1
  Te  Te6  1  0.25727095  0.74272905  0.77181285  1
  Se  Se7  1  0.00012868  0.99987132  0.00038603  1
