# generated using pymatgen
data_UGa3Pd2
_symmetry_space_group_name_H-M   'P 1'
_cell_length_a   5.33552714
_cell_length_b   5.33552779
_cell_length_c   8.61545346
_cell_angle_alpha   90.00000000
_cell_angle_beta   90.00000000
_cell_angle_gamma   120.00000276
_symmetry_Int_Tables_number   1
_chemical_formula_structural   UGa3Pd2
_chemical_formula_sum   'U2 Ga6 Pd4'
_cell_volume   212.40438580
_cell_formula_units_Z   2
loop_
 _symmetry_equiv_pos_site_id
 _symmetry_equiv_pos_as_xyz
  1  'x, y, z'
loop_
 _atom_site_type_symbol
 _atom_site_label
 _atom_site_symmetry_multiplicity
 _atom_site_fract_x
 _atom_site_fract_y
 _atom_site_fract_z
 _atom_site_occupancy
  U  U0  1  -0.00000000  0.00000000  0.50000000  1
  U  U1  1  -0.00000000  0.00000000  0.00000000  1
  Ga  Ga2  1  0.49994641  0.99989282  0.75000000  1
  Ga  Ga3  1  0.50005359  0.49994641  0.25000000  1
  Ga  Ga4  1  0.99989282  0.49994641  0.25000000  1
  Ga  Ga5  1  0.00010718  0.50005359  0.75000000  1
  Ga  Ga6  1  0.50005359  0.00010718  0.25000000  1
  Ga  Ga7  1  0.49994641  0.50005359  0.75000000  1
  Pd  Pd8  1  0.33333300  0.66666700  0.00014330  1
  Pd  Pd9  1  0.66666700  0.33333300  0.99985670  1
  Pd  Pd10  1  0.66666700  0.33333300  0.50014330  1
  Pd  Pd11  1  0.33333300  0.66666700  0.49985670  1
