# generated using pymatgen
data_Er2CrS4
_symmetry_space_group_name_H-M   'P 1'
_cell_length_a   7.44033833
_cell_length_b   12.51851441
_cell_length_c   12.47331695
_cell_angle_alpha   90.00000000
_cell_angle_beta   90.00000000
_cell_angle_gamma   90.00000000
_symmetry_Int_Tables_number   1
_chemical_formula_structural   Er2CrS4
_chemical_formula_sum   'Er16 Cr8 S32'
_cell_volume   1161.78947031
_cell_formula_units_Z   8
loop_
 _symmetry_equiv_pos_site_id
 _symmetry_equiv_pos_as_xyz
  1  'x, y, z'
loop_
 _atom_site_type_symbol
 _atom_site_label
 _atom_site_symmetry_multiplicity
 _atom_site_fract_x
 _atom_site_fract_y
 _atom_site_fract_z
 _atom_site_occupancy
  S  S0  1  0.38155439  0.07285545  0.79073186  1
  S  S1  1  0.61844561  0.57285545  0.20926814  1
  S  S2  1  0.61844561  0.07285545  0.29073186  1
  S  S3  1  0.38155439  0.57285545  0.70926814  1
  S  S4  1  0.12579350  0.20380048  0.02489359  1
  S  S5  1  0.87420650  0.70380048  0.97510641  1
  S  S6  1  0.87420650  0.20380048  0.52489359  1
  S  S7  1  0.12579350  0.70380048  0.47510641  1
  S  S8  1  0.63855602  0.29818750  0.72897890  1
  S  S9  1  0.36144398  0.79818750  0.27102110  1
  S  S10  1  0.36144398  0.29818750  0.22897890  1
  S  S11  1  0.63855602  0.79818750  0.77102110  1
  S  S12  1  0.14167016  0.29373111  0.73512001  1
  S  S13  1  0.85832984  0.79373111  0.26487999  1
  S  S14  1  0.85832984  0.29373111  0.23512001  1
  S  S15  1  0.14167016  0.79373111  0.76487999  1
  S  S16  1  0.61699378  0.19224798  0.00902584  1
  S  S17  1  0.38300622  0.69224798  0.99097416  1
  S  S18  1  0.38300622  0.19224798  0.50902584  1
  S  S19  1  0.61699378  0.69224798  0.49097416  1
  S  S20  1  0.37587182  0.93106711  0.54941027  1
  S  S21  1  0.62412818  0.43106711  0.45058973  1
  S  S22  1  0.62412818  0.93106711  0.04941027  1
  S  S23  1  0.37587182  0.43106711  0.95058973  1
  S  S24  1  0.88187329  0.54809610  0.71073337  1
  S  S25  1  0.11812671  0.04809610  0.28926663  1
  S  S26  1  0.11812671  0.54809610  0.21073337  1
  S  S27  1  0.88187329  0.04809610  0.78926663  1
  S  S28  1  0.88369200  0.94089087  0.52890531  1
  S  S29  1  0.11630800  0.44089087  0.47109469  1
  S  S30  1  0.11630800  0.94089087  0.02890531  1
  S  S31  1  0.88369200  0.44089087  0.97109469  1
  Cr  Cr32  1  0.38048754  0.24825496  0.87288745  1
  Cr  Cr33  1  0.61951246  0.74825496  0.12711255  1
  Cr  Cr34  1  0.61951246  0.24825496  0.37288745  1
  Cr  Cr35  1  0.38048754  0.74825496  0.62711255  1
  Cr  Cr36  1  0.11610718  0.37769247  0.11077368  1
  Cr  Cr37  1  0.88389282  0.87769247  0.88922632  1
  Cr  Cr38  1  0.88389282  0.37769247  0.61077368  1
  Cr  Cr39  1  0.11610718  0.87769247  0.38922632  1
  Er  Er40  1  0.61371339  0.38478344  0.10742152  1
  Er  Er41  1  0.38628661  0.88478344  0.89257848  1
  Er  Er42  1  0.38628661  0.38478344  0.60742152  1
  Er  Er43  1  0.61371339  0.88478344  0.39257848  1
  Er  Er44  1  0.88452124  0.24549654  0.87222309  1
  Er  Er45  1  0.11547876  0.74549654  0.12777691  1
  Er  Er46  1  0.11547876  0.24549654  0.37222309  1
  Er  Er47  1  0.88452124  0.74549654  0.62777691  1
  Er  Er48  1  0.13085667  0.07858470  0.63375611  1
  Er  Er49  1  0.86914333  0.57858470  0.36624389  1
  Er  Er50  1  0.86914333  0.07858470  0.13375611  1
  Er  Er51  1  0.13085667  0.57858470  0.86624389  1
  Er  Er52  1  0.63126314  0.08002130  0.63437018  1
  Er  Er53  1  0.36873686  0.58002130  0.36562982  1
  Er  Er54  1  0.36873686  0.08002130  0.13437018  1
  Er  Er55  1  0.63126314  0.58002130  0.86562982  1
