# generated using pymatgen
data_NdGe2
_symmetry_space_group_name_H-M   'P 1'
_cell_length_a   4.27036526
_cell_length_b   4.27036526
_cell_length_c   8.31324957
_cell_angle_alpha   104.88269970
_cell_angle_beta   104.88269970
_cell_angle_gamma   90.00000000
_symmetry_Int_Tables_number   1
_chemical_formula_structural   NdGe2
_chemical_formula_sum   'Nd2 Ge4'
_cell_volume   141.24630398
_cell_formula_units_Z   2
loop_
 _symmetry_equiv_pos_site_id
 _symmetry_equiv_pos_as_xyz
  1  'x, y, z'
loop_
 _atom_site_type_symbol
 _atom_site_label
 _atom_site_symmetry_multiplicity
 _atom_site_fract_x
 _atom_site_fract_y
 _atom_site_fract_z
 _atom_site_occupancy
  Nd  Nd0  1  0.25000000  0.75000000  0.50000000  1
  Nd  Nd1  1  0.00000000  0.00000000  0.00000000  1
  Ge  Ge2  1  0.66734255  0.16734255  0.33468510  1
  Ge  Ge3  1  0.58265745  0.58265745  0.16531490  1
  Ge  Ge4  1  0.83265745  0.33265745  0.66531490  1
  Ge  Ge5  1  0.41734255  0.41734255  0.83468510  1
