# generated using pymatgen
data_In2Cu2O5
_symmetry_space_group_name_H-M   'P 1'
_cell_length_a   3.34853328
_cell_length_b   10.73283668
_cell_length_c   12.46229894
_cell_angle_alpha   90.00000000
_cell_angle_beta   90.00000000
_cell_angle_gamma   90.00000000
_symmetry_Int_Tables_number   1
_chemical_formula_structural   In2Cu2O5
_chemical_formula_sum   'In8 Cu8 O20'
_cell_volume   447.88581192
_cell_formula_units_Z   4
loop_
 _symmetry_equiv_pos_site_id
 _symmetry_equiv_pos_as_xyz
  1  'x, y, z'
loop_
 _atom_site_type_symbol
 _atom_site_label
 _atom_site_symmetry_multiplicity
 _atom_site_fract_x
 _atom_site_fract_y
 _atom_site_fract_z
 _atom_site_occupancy
  O  O0  1  0.27162395  0.92066097  0.02938890  1
  O  O1  1  0.72837605  0.07933903  0.52938890  1
  O  O2  1  0.22837605  0.42066097  0.02938890  1
  O  O3  1  0.77162395  0.57933903  0.52938890  1
  O  O4  1  0.72106311  0.93010714  0.23842271  1
  O  O5  1  0.27893689  0.06989286  0.73842271  1
  O  O6  1  0.77893689  0.43010714  0.23842271  1
  O  O7  1  0.22106311  0.56989286  0.73842271  1
  O  O8  1  0.17566085  0.62493305  0.33583994  1
  O  O9  1  0.82433915  0.37506695  0.83583994  1
  O  O10  1  0.32433915  0.12493305  0.33583994  1
  O  O11  1  0.67566085  0.87506695  0.83583994  1
  O  O12  1  0.79034433  0.82174901  0.43272393  1
  O  O13  1  0.20965567  0.17825099  0.93272393  1
  O  O14  1  0.70965567  0.32174901  0.43272393  1
  O  O15  1  0.29034433  0.67825099  0.93272393  1
  O  O16  1  0.28298583  0.82851968  0.64190660  1
  O  O17  1  0.71701417  0.17148032  0.14190660  1
  O  O18  1  0.21701417  0.32851968  0.64190660  1
  O  O19  1  0.78298583  0.67148032  0.14190660  1
  Cu  Cu20  1  0.84126517  0.76032267  0.28204703  1
  Cu  Cu21  1  0.15873483  0.23967733  0.78204703  1
  Cu  Cu22  1  0.65873483  0.26032267  0.28204703  1
  Cu  Cu23  1  0.34126517  0.73967733  0.78204703  1
  Cu  Cu24  1  0.82851175  0.49179742  0.38886678  1
  Cu  Cu25  1  0.17148825  0.50820258  0.88886678  1
  Cu  Cu26  1  0.67148825  0.99179742  0.38886678  1
  Cu  Cu27  1  0.32851175  0.00820258  0.88886678  1
  In  In28  1  0.28150165  0.53799285  0.17050072  1
  In  In29  1  0.71849835  0.46200715  0.67050072  1
  In  In30  1  0.21849835  0.03799285  0.17050072  1
  In  In31  1  0.78150165  0.96200715  0.67050072  1
  In  In32  1  0.28425226  0.71285691  0.49980340  1
  In  In33  1  0.71574774  0.28714309  0.99980340  1
  In  In34  1  0.21574774  0.21285691  0.49980340  1
  In  In35  1  0.78425226  0.78714309  0.99980340  1
