# generated using pymatgen
data_Li2CoPO4F
_symmetry_space_group_name_H-M   'P 1'
_cell_length_a   5.34268383
_cell_length_b   5.38028520
_cell_length_c   7.48785751
_cell_angle_alpha   71.64488015
_cell_angle_beta   71.32072371
_cell_angle_gamma   94.34309617
_symmetry_Int_Tables_number   1
_chemical_formula_structural   Li2CoPO4F
_chemical_formula_sum   'Li4 Co2 P2 O8 F2'
_cell_volume   189.75929114
_cell_formula_units_Z   2
loop_
 _symmetry_equiv_pos_site_id
 _symmetry_equiv_pos_as_xyz
  1  'x, y, z'
loop_
 _atom_site_type_symbol
 _atom_site_label
 _atom_site_symmetry_multiplicity
 _atom_site_fract_x
 _atom_site_fract_y
 _atom_site_fract_z
 _atom_site_occupancy
  Li  Li0  1  0.85104782  0.45725870  0.11274108  1
  Li  Li1  1  0.48135279  0.82904754  0.86162815  1
  Li  Li2  1  0.51173511  0.05641236  0.47708251  1
  Li  Li3  1  0.22385819  0.54915286  0.70417800  1
  O  O4  1  0.28473337  0.77193026  0.41734952  1
  O  O5  1  0.71320361  0.19265523  0.63358387  1
  O  O6  1  0.68394145  0.66963449  0.65161842  1
  O  O7  1  0.85464944  0.33516830  0.88361860  1
  O  O8  1  0.14351132  0.67550919  0.14425052  1
  O  O9  1  0.35418120  0.27361211  0.90825651  1
  O  O10  1  0.31758689  0.32814558  0.37375848  1
  O  O11  1  0.62994281  0.73992512  0.09590871  1
  F  F12  1  0.17221870  0.88554053  0.75111347  1
  F  F13  1  0.85428189  0.10721488  0.27267966  1
  P  P14  1  0.33989515  0.62948992  0.26144062  1
  P  P15  1  0.65500445  0.36554205  0.76858568  1
  Co  Co16  1  0.99319272  0.99973740  0.01924316  1
  Co  Co17  1  0.00778193  0.00239152  0.50437372  1
