# generated using pymatgen
data_Na2Li2FeO4
_symmetry_space_group_name_H-M   'P 1'
_cell_length_a   8.19776189
_cell_length_b   8.03326583
_cell_length_c   6.63691245
_cell_angle_alpha   89.94670719
_cell_angle_beta   90.00000000
_cell_angle_gamma   90.00000000
_symmetry_Int_Tables_number   1
_chemical_formula_structural   Na2Li2FeO4
_chemical_formula_sum   'Na8 Li8 Fe4 O16'
_cell_volume   437.07235653
_cell_formula_units_Z   4
loop_
 _symmetry_equiv_pos_site_id
 _symmetry_equiv_pos_as_xyz
  1  'x, y, z'
loop_
 _atom_site_type_symbol
 _atom_site_label
 _atom_site_symmetry_multiplicity
 _atom_site_fract_x
 _atom_site_fract_y
 _atom_site_fract_z
 _atom_site_occupancy
  Li  Li0  1  0.91503214  0.20121765  0.47097704  1
  Li  Li1  1  0.85849755  0.01099092  0.75326736  1
  Li  Li2  1  0.64150271  0.51099173  0.25326735  1
  Li  Li3  1  0.58496812  0.70121862  0.97097712  1
  Li  Li4  1  0.08496762  0.79878181  0.52902312  1
  Li  Li5  1  0.14150344  0.98900854  0.24673280  1
  Li  Li6  1  0.35849705  0.48900897  0.74673280  1
  Li  Li7  1  0.41503164  0.29878208  0.02902304  1
  O  O8  1  0.96075826  0.78877944  0.76739715  1
  O  O9  1  0.77495307  0.44789603  0.49196836  1
  O  O10  1  0.99105536  0.79865023  0.25479390  1
  O  O11  1  0.79084773  0.56849024  0.03253293  1
  O  O12  1  0.50894490  0.29864942  0.75479391  1
  O  O13  1  0.53924200  0.28877971  0.26739707  1
  O  O14  1  0.49105610  0.70135004  0.24520626  1
  O  O15  1  0.20915203  0.43150921  0.96746723  1
  O  O16  1  0.46075899  0.71121974  0.73260310  1
  O  O17  1  0.27495257  0.05210370  0.00803172  1
  O  O18  1  0.70915253  0.06849068  0.53253293  1
  O  O19  1  0.29084723  0.93150878  0.46746723  1
  O  O20  1  0.03924150  0.21122001  0.23260301  1
  O  O21  1  0.00894440  0.20135047  0.74520626  1
  O  O22  1  0.22504669  0.55210343  0.50803029  1
  O  O23  1  0.72504719  0.94789576  0.99196844  1
  Na  Na24  1  0.97383984  0.49694312  0.74272180  1
  Na  Na25  1  0.74581338  0.75401600  0.51344900  1
  Na  Na26  1  0.52616042  0.99694269  0.24272180  1
  Na  Na27  1  0.25418762  0.24598346  0.48655117  1
  Na  Na28  1  0.24581288  0.74598319  0.98655125  1
  Na  Na29  1  0.02615992  0.50305633  0.25727836  1
  Na  Na30  1  0.47383934  0.00305677  0.75727836  1
  Na  Na31  1  0.75418688  0.25401627  0.01344892  1
  Fe  Fe32  1  0.87460382  0.78137345  0.02218297  1
  Fe  Fe33  1  0.62539521  0.28137388  0.52218297  1
  Fe  Fe34  1  0.37460455  0.71862681  0.47781718  1
  Fe  Fe35  1  0.12539594  0.21862601  0.97781719  1
