# generated using pymatgen
data_LiCuPO4
_symmetry_space_group_name_H-M   'P 1'
_cell_length_a   4.74166843
_cell_length_b   6.03761328
_cell_length_c   10.10222790
_cell_angle_alpha   90.00000000
_cell_angle_beta   90.00000000
_cell_angle_gamma   90.00000000
_symmetry_Int_Tables_number   1
_chemical_formula_structural   LiCuPO4
_chemical_formula_sum   'Li4 Cu4 P4 O16'
_cell_volume   289.21021998
_cell_formula_units_Z   4
loop_
 _symmetry_equiv_pos_site_id
 _symmetry_equiv_pos_as_xyz
  1  'x, y, z'
loop_
 _atom_site_type_symbol
 _atom_site_label
 _atom_site_symmetry_multiplicity
 _atom_site_fract_x
 _atom_site_fract_y
 _atom_site_fract_z
 _atom_site_occupancy
  Li  Li0  1  -0.00000000  -0.00000000  -0.00000000  1
  Li  Li1  1  0.50000100  0.00000000  0.50000000  1
  Li  Li2  1  -0.00000000  0.49999900  -0.00000000  1
  Li  Li3  1  0.50000100  0.49999900  0.50000000  1
  Cu  Cu4  1  0.02238737  0.75000000  0.71813190  1
  Cu  Cu5  1  0.47761063  0.75000000  0.21813190  1
  Cu  Cu6  1  0.97761163  0.25000000  0.28186710  1
  Cu  Cu7  1  0.52238837  0.25000000  0.78186810  1
  P  P8  1  0.57485543  0.75000000  0.90384229  1
  P  P9  1  0.92514457  0.75000000  0.40384229  1
  P  P10  1  0.42514657  0.25000000  0.09615671  1
  P  P11  1  0.07485443  0.25000000  0.59615771  1
  O  O12  1  0.74979181  0.25000000  0.09892044  1
  O  O13  1  0.21240239  0.45498225  0.66680797  1
  O  O14  1  0.71240339  0.54501775  0.83319203  1
  O  O15  1  0.78759661  0.95498125  0.33319203  1
  O  O16  1  0.28759861  0.04501875  0.16680797  1
  O  O17  1  0.78759661  0.54501775  0.33319203  1
  O  O18  1  0.28759861  0.45498225  0.16680797  1
  O  O19  1  0.21240239  0.04501875  0.66680797  1
  O  O20  1  0.25020819  0.75000000  0.90108056  1
  O  O21  1  0.75020819  0.25000000  0.59891944  1
  O  O22  1  0.71240339  0.95498125  0.83319203  1
  O  O23  1  0.24979281  0.75000000  0.40108056  1
  O  O24  1  0.69827601  0.75000000  0.04742152  1
  O  O25  1  0.30172299  0.25000000  0.95257848  1
  O  O26  1  0.19827501  0.25000000  0.45257848  1
  O  O27  1  0.80172399  0.75000000  0.54742152  1
