# generated using pymatgen
data_SmFeCu
_symmetry_space_group_name_H-M   'P 1'
_cell_length_a   5.25750308
_cell_length_b   5.25750398
_cell_length_c   8.73279747
_cell_angle_alpha   90.00000000
_cell_angle_beta   90.00000000
_cell_angle_gamma   59.52886497
_symmetry_Int_Tables_number   1
_chemical_formula_structural   SmFeCu
_chemical_formula_sum   'Sm4 Fe4 Cu4'
_cell_volume   208.04712872
_cell_formula_units_Z   4
loop_
 _symmetry_equiv_pos_site_id
 _symmetry_equiv_pos_as_xyz
  1  'x, y, z'
loop_
 _atom_site_type_symbol
 _atom_site_label
 _atom_site_symmetry_multiplicity
 _atom_site_fract_x
 _atom_site_fract_y
 _atom_site_fract_z
 _atom_site_occupancy
  Sm  Sm0  1  0.33319762  0.33315342  0.56287230  1
  Sm  Sm1  1  0.66781723  0.66777881  0.43560428  1
  Sm  Sm2  1  0.66781723  0.66777881  0.06439572  1
  Sm  Sm3  1  0.33319762  0.33315342  0.93712770  1
  Fe  Fe4  1  0.83545797  0.83558101  0.75000000  1
  Fe  Fe5  1  0.16980634  0.66376816  0.25000000  1
  Fe  Fe6  1  0.66368739  0.16985388  0.25000000  1
  Fe  Fe7  1  0.16715516  0.16711331  0.25000000  1
  Cu  Cu8  1  0.99770437  0.99767295  0.49782040  1
  Cu  Cu9  1  0.99770437  0.99767295  0.00217960  1
  Cu  Cu10  1  0.83601935  0.33048757  0.75000000  1
  Cu  Cu11  1  0.33043535  0.83598571  0.75000000  1
