# generated using pymatgen
data_Li4Cu(PO4)2
_symmetry_space_group_name_H-M   'P 1'
_cell_length_a   6.38317132
_cell_length_b   5.24729247
_cell_length_c   9.94556582
_cell_angle_alpha   89.69987038
_cell_angle_beta   89.56417535
_cell_angle_gamma   90.45566880
_symmetry_Int_Tables_number   1
_chemical_formula_structural   Li4Cu(PO4)2
_chemical_formula_sum   'Li8 Cu2 P4 O16'
_cell_volume   333.09558100
_cell_formula_units_Z   2
loop_
 _symmetry_equiv_pos_site_id
 _symmetry_equiv_pos_as_xyz
  1  'x, y, z'
loop_
 _atom_site_type_symbol
 _atom_site_label
 _atom_site_symmetry_multiplicity
 _atom_site_fract_x
 _atom_site_fract_y
 _atom_site_fract_z
 _atom_site_occupancy
  Li  Li0  1  0.76298331  0.31795639  0.49124560  1
  Li  Li1  1  0.24649402  0.67148708  0.25147708  1
  Li  Li2  1  0.24328664  0.32599119  0.00389645  1
  Li  Li3  1  0.24256945  0.67047583  0.75035081  1
  Li  Li4  1  0.24094226  0.32318740  0.49722799  1
  Li  Li5  1  0.49024097  0.84307155  0.00434553  1
  Li  Li6  1  0.75337686  0.68407790  0.25402602  1
  Li  Li7  1  0.49718467  0.84218461  0.49132413  1
  Cu  Cu8  1  0.76736751  0.32166749  0.00950125  1
  Cu  Cu9  1  0.74747874  0.67743655  0.73961047  1
  P  P10  1  0.00176603  0.82268918  0.49997094  1
  P  P11  1  0.49371358  0.18475660  0.75077851  1
  P  P12  1  0.49714903  0.18059339  0.24916540  1
  P  P13  1  0.00470549  0.81974415  0.00987088  1
  O  O14  1  0.00082398  0.10444297  0.96588670  1
  O  O15  1  0.70456548  0.32134711  0.19879295  1
  O  O16  1  0.00257937  0.10640084  0.46623697  1
  O  O17  1  0.49634132  0.18308526  0.90864678  1
  O  O18  1  0.69806942  0.31647161  0.69639503  1
  O  O19  1  0.49603384  0.89763479  0.70175936  1
  O  O20  1  0.20067455  0.69229847  0.94700977  1
  O  O21  1  0.30263255  0.32166417  0.69666624  1
  O  O22  1  0.79346541  0.69191603  0.95109273  1
  O  O23  1  0.00007644  0.78636815  0.16130852  1
  O  O24  1  0.00250074  0.78724043  0.65831843  1
  O  O25  1  0.50279703  0.18826318  0.40559884  1
  O  O26  1  0.30920224  0.32497226  0.19335815  1
  O  O27  1  0.20407592  0.69004437  0.44813425  1
  O  O28  1  0.50082100  0.89773374  0.20114323  1
  O  O29  1  0.79756014  0.68886029  0.44947001  1
