# generated using pymatgen
data_Li6Bi3P8O29
_symmetry_space_group_name_H-M   'P 1'
_cell_length_a   10.36649829
_cell_length_b   10.34974873
_cell_length_c   14.28336045
_cell_angle_alpha   89.99940283
_cell_angle_beta   90.56519279
_cell_angle_gamma   60.05408226
_symmetry_Int_Tables_number   1
_chemical_formula_structural   Li6Bi3P8O29
_chemical_formula_sum   'Li12 Bi6 P16 O58'
_cell_volume   1327.79539914
_cell_formula_units_Z   2
loop_
 _symmetry_equiv_pos_site_id
 _symmetry_equiv_pos_as_xyz
  1  'x, y, z'
loop_
 _atom_site_type_symbol
 _atom_site_label
 _atom_site_symmetry_multiplicity
 _atom_site_fract_x
 _atom_site_fract_y
 _atom_site_fract_z
 _atom_site_occupancy
  Li  Li0  1  0.77990565  0.91035430  0.55629215  1
  Li  Li1  1  0.09684767  0.21879692  0.93870245  1
  Li  Li2  1  0.22170475  0.08970541  0.44827239  1
  Li  Li3  1  0.09681441  0.68436388  0.43870839  1
  Li  Li4  1  0.22169816  0.68859181  0.94825670  1
  Li  Li5  1  0.30748514  0.78199913  0.55774561  1
  Li  Li6  1  0.70999874  0.08004491  0.94624115  1
  Li  Li7  1  0.67521233  0.66273808  0.87694820  1
  Li  Li8  1  0.67519399  0.66205266  0.37689434  1
  Li  Li9  1  0.77990554  0.30979801  0.05632755  1
  Li  Li10  1  0.70998928  0.20996660  0.44625014  1
  Li  Li11  1  0.30754240  0.91045067  0.05777716  1
  O  O12  1  0.52547922  0.34747551  0.67356054  1
  O  O13  1  0.12701706  0.34467958  0.17113920  1
  O  O14  1  0.21772853  0.07299566  0.15221292  1
  O  O15  1  0.25479016  0.00715405  0.92909528  1
  O  O16  1  0.07282503  0.22073573  0.65598995  1
  O  O17  1  0.02902718  0.22986854  0.41117613  1
  O  O18  1  0.97145966  0.79147239  0.73564087  1
  O  O19  1  0.99002801  0.75573873  0.56084283  1
  O  O20  1  0.92424732  0.76256607  0.34902812  1
  O  O21  1  0.78140109  0.99467853  0.25065083  1
  O  O22  1  0.75886085  0.99384179  0.07022383  1
  O  O23  1  0.76932462  0.92247764  0.85183296  1
  O  O24  1  0.86726135  0.65044450  0.82634123  1
  O  O25  1  0.78627832  0.68287206  0.15745594  1
  O  O26  1  0.99004530  0.25431643  0.06084541  1
  O  O27  1  0.86727035  0.48228805  0.32633317  1
  O  O28  1  0.97141846  0.23707730  0.23562886  1
  O  O29  1  0.64918840  0.86787031  0.32881861  1
  O  O30  1  0.66704150  0.81666740  0.64144128  1
  O  O31  1  0.92428073  0.31314801  0.84901893  1
  O  O32  1  0.78623087  0.53082435  0.65744599  1
  O  O33  1  0.66553445  0.66891571  0.50584250  1
  O  O34  1  0.66546125  0.66555928  0.00589078  1
  O  O35  1  0.66696187  0.51632820  0.14150879  1
  O  O36  1  0.76932369  0.30820426  0.35185055  1
  O  O37  1  0.48958153  0.86064388  0.82889387  1
  O  O38  1  0.50543385  0.80629055  0.14192015  1
  O  O39  1  0.78136908  0.22389164  0.75068608  1
  O  O40  1  0.64921024  0.48292696  0.82884631  1
  O  O41  1  0.75916173  0.24705906  0.57023388  1
  O  O42  1  0.75028505  0.24478134  0.92817042  1
  O  O43  1  0.50541494  0.68834312  0.64186518  1
  O  O44  1  0.69818101  0.22843010  0.15343855  1
  O  O45  1  0.48956134  0.64977249  0.32888538  1
  O  O46  1  0.31722792  0.92163472  0.35649823  1
  O  O47  1  0.75025027  0.00495433  0.42813556  1
  O  O48  1  0.25306900  0.98804671  0.57327158  1
  O  O49  1  0.69812483  0.07342576  0.65343187  1
  O  O50  1  0.23028288  0.98546632  0.75176518  1
  O  O51  1  0.12692653  0.52831572  0.67106292  1
  O  O52  1  0.31722478  0.76113481  0.85648581  1
  O  O53  1  0.48424093  0.32303473  0.36119682  1
  O  O54  1  0.25312535  0.75879235  0.07327112  1
  O  O55  1  0.25475842  0.73805506  0.42907451  1
  O  O56  1  0.23027176  0.78428882  0.25174879  1
  O  O57  1  0.34545459  0.52620251  0.17727466  1
  O  O58  1  0.52538157  0.12728190  0.17372297  1
  O  O59  1  0.48428868  0.19279199  0.86101054  1
  O  O60  1  0.21775702  0.70922265  0.65220960  1
  O  O61  1  0.32672495  0.48001418  0.85969798  1
  O  O62  1  0.33131465  0.33450116  0.49883937  1
  O  O63  1  0.19590327  0.32134146  0.85627777  1
  O  O64  1  0.19584584  0.48271193  0.35637840  1
  O  O65  1  0.07277314  0.70649537  0.15599565  1
  O  O66  1  0.32682278  0.19319467  0.35983153  1
  O  O67  1  0.34555165  0.12823359  0.67720664  1
  O  O68  1  0.02899366  0.74112723  0.91120329  1
  O  O69  1  0.33141567  0.33410182  0.99870933  1
  P  P70  1  0.32425751  0.76983969  0.34610955  1
  P  P71  1  0.22817057  0.69114392  0.16010542  1
  P  P72  1  0.33375623  0.33460284  0.39173931  1
  P  P73  1  0.33378183  0.33161811  0.89160924  1
  P  P74  1  0.07685364  0.69304040  0.65111780  1
  P  P75  1  0.22819314  0.08064879  0.66009251  1
  P  P76  1  0.91438992  0.77080477  0.83825304  1
  P  P77  1  0.77290665  0.90948709  0.34296684  1
  P  P78  1  0.91439160  0.31480008  0.33824577  1
  P  P79  1  0.65788549  0.67426808  0.61159917  1
  P  P80  1  0.65786382  0.66784664  0.11165175  1
  P  P81  1  0.77292434  0.31759090  0.84298883  1
  P  P82  1  0.68902180  0.22863363  0.65621735  1
  P  P83  1  0.32427358  0.90589139  0.84612056  1
  P  P84  1  0.68893745  0.08240711  0.15622892  1
  P  P85  1  0.07686936  0.23010242  0.15113158  1
  Bi  Bi86  1  0.00136746  0.42992163  0.74061527  1
  Bi  Bi87  1  0.00138628  0.56869360  0.24063291  1
  Bi  Bi88  1  0.42763106  0.00662139  0.24731814  1
  Bi  Bi89  1  0.56661712  0.00566253  0.74961644  1
  Bi  Bi90  1  0.42768337  0.56576266  0.74728330  1
  Bi  Bi91  1  0.56657154  0.42768858  0.24965683  1
