# generated using pymatgen
data_BiP2O7
_symmetry_space_group_name_H-M   'P 1'
_cell_length_a   6.81224559
_cell_length_b   6.81175789
_cell_length_c   13.82404441
_cell_angle_alpha   78.59299549
_cell_angle_beta   77.75021082
_cell_angle_gamma   99.71335269
_symmetry_Int_Tables_number   1
_chemical_formula_structural   BiP2O7
_chemical_formula_sum   'Bi4 P8 O28'
_cell_volume   599.44796271
_cell_formula_units_Z   4
loop_
 _symmetry_equiv_pos_site_id
 _symmetry_equiv_pos_as_xyz
  1  'x, y, z'
loop_
 _atom_site_type_symbol
 _atom_site_label
 _atom_site_symmetry_multiplicity
 _atom_site_fract_x
 _atom_site_fract_y
 _atom_site_fract_z
 _atom_site_occupancy
  O  O0  1  0.58299946  0.67369316  0.62703282  1
  O  O1  1  0.80102036  0.21011903  0.87303622  1
  O  O2  1  0.90118219  0.54050424  0.64028786  1
  O  O3  1  0.90880703  0.98437548  0.69045558  1
  O  O4  1  0.19897964  0.78988097  0.12696378  1
  O  O5  1  0.09881781  0.45949576  0.35971214  1
  O  O6  1  0.09119297  0.01562452  0.30954442  1
  O  O7  1  0.09500128  0.21926265  0.52241256  1
  O  O8  1  0.31837946  0.45833460  0.14038473  1
  O  O9  1  0.07447523  0.88626199  0.89092142  1
  O  O10  1  0.27731125  0.96543589  0.60907846  1
  O  O11  1  0.31315248  0.58747836  0.47309135  1
  O  O12  1  0.17484164  0.59918755  0.80953086  1
  O  O13  1  0.56028879  0.78591193  0.02692846  1
  O  O14  1  0.22222893  0.27015763  0.67882608  1
  O  O15  1  0.41700054  0.32630684  0.37296718  1
  O  O16  1  0.24162549  0.61730148  0.97751051  1
  O  O17  1  0.68162054  0.54166540  0.85961527  1
  O  O18  1  0.44905190  0.90102264  0.82105092  1
  O  O19  1  0.75837451  0.38269852  0.02248949  1
  O  O20  1  0.55094810  0.09897736  0.17894908  1
  O  O21  1  0.77777107  0.72984237  0.32117392  1
  O  O22  1  0.43971121  0.21408807  0.97307154  1
  O  O23  1  0.82515836  0.40081245  0.19046914  1
  O  O24  1  0.68684752  0.41252164  0.52690865  1
  O  O25  1  0.72268875  0.03456411  0.39092154  1
  O  O26  1  0.92552477  0.11373801  0.10907858  1
  O  O27  1  0.90499872  0.78073735  0.47758744  1
  P  P28  1  0.23608845  0.75723004  0.86915129  1
  P  P29  1  0.76391155  0.24276996  0.13084871  1
  P  P30  1  0.87355124  0.89472142  0.36922868  1
  P  P31  1  0.76086586  0.59346442  0.57082826  1
  P  P32  1  0.33534831  0.66814550  0.07078300  1
  P  P33  1  0.23913414  0.40653558  0.42917174  1
  P  P34  1  0.66465169  0.33185450  0.92921700  1
  P  P35  1  0.12644876  0.10527858  0.63077132  1
  Bi  Bi36  1  0.75379703  0.88176424  0.86127012  1
  Bi  Bi37  1  0.75715838  0.38496793  0.36120647  1
  Bi  Bi38  1  0.24284162  0.61503207  0.63879353  1
  Bi  Bi39  1  0.24620297  0.11823576  0.13872988  1
