# generated using pymatgen
data_HS7N
_symmetry_space_group_name_H-M   'P 1'
_cell_length_a   8.12547014
_cell_length_b   8.50034981
_cell_length_c   13.87382888
_cell_angle_alpha   90.00000000
_cell_angle_beta   90.00000000
_cell_angle_gamma   90.00000000
_symmetry_Int_Tables_number   1
_chemical_formula_structural   HS7N
_chemical_formula_sum   'H4 S28 N4'
_cell_volume   958.25618405
_cell_formula_units_Z   4
loop_
 _symmetry_equiv_pos_site_id
 _symmetry_equiv_pos_as_xyz
  1  'x, y, z'
loop_
 _atom_site_type_symbol
 _atom_site_label
 _atom_site_symmetry_multiplicity
 _atom_site_fract_x
 _atom_site_fract_y
 _atom_site_fract_z
 _atom_site_occupancy
  H  H0  1  0.70662102  0.52634006  0.75000000  1
  H  H1  1  0.20662102  0.97365994  0.25000000  1
  H  H2  1  0.79337898  0.02634006  0.75000000  1
  H  H3  1  0.29337898  0.47365994  0.25000000  1
  N  N4  1  0.75637404  0.91095683  0.75000000  1
  N  N5  1  0.25637404  0.58904317  0.25000000  1
  N  N6  1  0.74362596  0.41095683  0.75000000  1
  N  N7  1  0.24362596  0.08904317  0.25000000  1
  S  S8  1  0.00768472  0.25095197  0.39438296  1
  S  S9  1  0.50768472  0.24904803  0.60561704  1
  S  S10  1  0.49231528  0.75095197  0.10561704  1
  S  S11  1  0.99231528  0.74904803  0.89438296  1
  S  S12  1  0.99231528  0.74904803  0.60561704  1
  S  S13  1  0.49231528  0.75095197  0.39438296  1
  S  S14  1  0.50768472  0.24904803  0.89438296  1
  S  S15  1  0.00768472  0.25095197  0.10561704  1
  S  S16  1  0.85719162  0.05829732  0.37353019  1
  S  S17  1  0.35719162  0.44170268  0.62646981  1
  S  S18  1  0.64280838  0.55829732  0.12646981  1
  S  S19  1  0.14280838  0.94170268  0.87353019  1
  S  S20  1  0.14280838  0.94170268  0.62646981  1
  S  S21  1  0.64280838  0.55829732  0.37353019  1
  S  S22  1  0.35719162  0.44170268  0.87353019  1
  S  S23  1  0.85719162  0.05829732  0.12646981  1
  S  S24  1  0.72796027  0.11382904  0.25000000  1
  S  S25  1  0.22796027  0.38617096  0.75000000  1
  S  S26  1  0.77203973  0.61382904  0.25000000  1
  S  S27  1  0.27203973  0.88617096  0.75000000  1
  S  S28  1  0.24700376  0.17232362  0.14046467  1
  S  S29  1  0.74700376  0.32767638  0.85953533  1
  S  S30  1  0.25299624  0.67232362  0.35953533  1
  S  S31  1  0.75299624  0.82767638  0.64046467  1
  S  S32  1  0.75299624  0.82767638  0.85953533  1
  S  S33  1  0.25299624  0.67232362  0.14046467  1
  S  S34  1  0.74700376  0.32767638  0.64046467  1
  S  S35  1  0.24700376  0.17232362  0.35953533  1
