# generated using pymatgen
data_Cs(BH)3
_symmetry_space_group_name_H-M   'P 1'
_cell_length_a   6.87983652
_cell_length_b   6.87983652
_cell_length_c   6.87983652
_cell_angle_alpha   60.00000001
_cell_angle_beta   60.00000000
_cell_angle_gamma   60.00000004
_symmetry_Int_Tables_number   1
_chemical_formula_structural   Cs(BH)3
_chemical_formula_sum   'Cs2 B6 H6'
_cell_volume   230.26045483
_cell_formula_units_Z   2
loop_
 _symmetry_equiv_pos_site_id
 _symmetry_equiv_pos_as_xyz
  1  'x, y, z'
loop_
 _atom_site_type_symbol
 _atom_site_label
 _atom_site_symmetry_multiplicity
 _atom_site_fract_x
 _atom_site_fract_y
 _atom_site_fract_z
 _atom_site_occupancy
  H  H0  1  0.25008488  0.74991512  0.74991512  1
  H  H1  1  0.25008488  0.74991512  0.25008488  1
  H  H2  1  0.74991512  0.74991512  0.25008488  1
  H  H3  1  0.74991512  0.25008488  0.25008488  1
  H  H4  1  0.74991512  0.25008488  0.74991512  1
  H  H5  1  0.25008488  0.25008488  0.74991512  1
  B  B6  1  0.12573880  0.87426120  0.12573880  1
  B  B7  1  0.12573880  0.87426120  0.87426120  1
  B  B8  1  0.87426120  0.87426120  0.12573880  1
  B  B9  1  0.87426120  0.12573880  0.12573880  1
  B  B10  1  0.87426120  0.12573880  0.87426120  1
  B  B11  1  0.12573880  0.12573880  0.87426120  1
  Cs  Cs12  1  0.75000000  0.75000000  0.75000000  1
  Cs  Cs13  1  0.25000000  0.25000000  0.25000000  1
