# generated using pymatgen
data_Li3Cu(PO4)2
_symmetry_space_group_name_H-M   'P 1'
_cell_length_a   6.67661732
_cell_length_b   10.18209075
_cell_length_c   5.01231910
_cell_angle_alpha   90.00000000
_cell_angle_beta   90.00000000
_cell_angle_gamma   89.75600270
_symmetry_Int_Tables_number   1
_chemical_formula_structural   Li3Cu(PO4)2
_chemical_formula_sum   'Li6 Cu2 P4 O16'
_cell_volume   340.74400372
_cell_formula_units_Z   2
loop_
 _symmetry_equiv_pos_site_id
 _symmetry_equiv_pos_as_xyz
  1  'x, y, z'
loop_
 _atom_site_type_symbol
 _atom_site_label
 _atom_site_symmetry_multiplicity
 _atom_site_fract_x
 _atom_site_fract_y
 _atom_site_fract_z
 _atom_site_occupancy
  Li  Li0  1  0.49898410  0.84522149  0.67981277  1
  Li  Li1  1  0.00151003  0.34694992  0.81692020  1
  Li  Li2  1  0.00151003  0.84694992  0.68307980  1
  Li  Li3  1  0.49898410  0.34522249  0.82018723  1
  Li  Li4  1  0.50151719  0.65978048  0.17671967  1
  Li  Li5  1  0.50151719  0.15978048  0.32328033  1
  Cu  Cu6  1  0.00251040  0.65281278  0.18098923  1
  Cu  Cu7  1  0.00251040  0.15281278  0.31901077  1
  P  P8  1  0.25236862  0.90463131  0.17267895  1
  P  P9  1  0.74553259  0.58988343  0.69036527  1
  P  P10  1  0.74553259  0.08988343  0.80963473  1
  P  P11  1  0.25236862  0.40463131  0.32732105  1
  O  O12  1  0.75960050  0.10706503  0.12221497  1
  O  O13  1  0.24641030  0.39702819  0.63109256  1
  O  O14  1  0.44175954  0.34297759  0.20843343  1
  O  O15  1  0.55816392  0.66107416  0.79070829  1
  O  O16  1  0.06222864  0.33401380  0.20815865  1
  O  O17  1  0.75960050  0.60706503  0.37778503  1
  O  O18  1  0.75186045  0.44482646  0.76571811  1
  O  O19  1  0.55816392  0.16107416  0.70929171  1
  O  O20  1  0.24144899  0.55238475  0.22908476  1
  O  O21  1  0.24641030  0.89702819  0.86890744  1
  O  O22  1  0.93774173  0.16182460  0.69723505  1
  O  O23  1  0.44175954  0.84297759  0.29156657  1
  O  O24  1  0.06222864  0.83401380  0.29184135  1
  O  O25  1  0.75186045  0.94482646  0.73428189  1
  O  O26  1  0.24144899  0.05238475  0.27091524  1
  O  O27  1  0.93774173  0.66182460  0.80276495  1
