# generated using pymatgen
data_Na8Si7O18
_symmetry_space_group_name_H-M   'P 1'
_cell_length_a   7.25900774
_cell_length_b   7.25900773
_cell_length_c   7.25900773
_cell_angle_alpha   87.18636540
_cell_angle_beta   87.18636533
_cell_angle_gamma   87.18636533
_symmetry_Int_Tables_number   1
_chemical_formula_structural   Na8Si7O18
_chemical_formula_sum   'Na8 Si7 O18'
_cell_volume   381.16069749
_cell_formula_units_Z   1
loop_
 _symmetry_equiv_pos_site_id
 _symmetry_equiv_pos_as_xyz
  1  'x, y, z'
loop_
 _atom_site_type_symbol
 _atom_site_label
 _atom_site_symmetry_multiplicity
 _atom_site_fract_x
 _atom_site_fract_y
 _atom_site_fract_z
 _atom_site_occupancy
  O  O0  1  0.50008769  0.76557736  0.23441314  1
  O  O1  1  0.76557736  0.23441314  0.50008769  1
  O  O2  1  0.23441314  0.50008769  0.76557736  1
  O  O3  1  0.49991231  0.23442264  0.76558686  1
  O  O4  1  0.23442264  0.76558686  0.49991231  1
  O  O5  1  0.76558686  0.49991231  0.23442264  1
  O  O6  1  0.83095730  0.83089326  0.08126525  1
  O  O7  1  0.83089326  0.08126525  0.83095730  1
  O  O8  1  0.08126525  0.83095730  0.83089326  1
  O  O9  1  0.16904270  0.16910674  0.91873475  1
  O  O10  1  0.16910674  0.91873475  0.16904270  1
  O  O11  1  0.91873475  0.16904270  0.16910674  1
  O  O12  1  0.78753103  0.78729245  0.45580738  1
  O  O13  1  0.78729245  0.45580738  0.78753103  1
  O  O14  1  0.45580738  0.78753103  0.78729245  1
  O  O15  1  0.54419262  0.21246897  0.21270755  1
  O  O16  1  0.21270755  0.54419262  0.21246897  1
  O  O17  1  0.21246897  0.21270755  0.54419262  1
  Na  Na18  1  0.23619474  0.23619474  0.23619474  1
  Na  Na19  1  0.76380526  0.76380526  0.76380526  1
  Na  Na20  1  0.50000000  0.50000000  0.00000000  1
  Na  Na21  1  0.00000000  0.50000000  0.50000000  1
  Na  Na22  1  0.50000000  0.00000000  0.50000000  1
  Na  Na23  1  0.00000000  0.00000000  0.50000000  1
  Na  Na24  1  0.50000000  0.00000000  0.00000000  1
  Na  Na25  1  0.00000000  0.50000000  0.00000000  1
  Si  Si26  1  0.00000000  0.00000000  0.00000000  1
  Si  Si27  1  0.73911045  0.27203323  0.27211527  1
  Si  Si28  1  0.27211527  0.73911045  0.27203323  1
  Si  Si29  1  0.27203323  0.27211527  0.73911045  1
  Si  Si30  1  0.26088955  0.72796677  0.72788473  1
  Si  Si31  1  0.72788473  0.26088955  0.72796677  1
  Si  Si32  1  0.72796677  0.72788473  0.26088955  1
