# generated using pymatgen
data_Tm2Cu2O5
_symmetry_space_group_name_H-M   'P 1'
_cell_length_a   3.45893769
_cell_length_b   10.81812762
_cell_length_c   12.43445839
_cell_angle_alpha   90.00000000
_cell_angle_beta   90.00000000
_cell_angle_gamma   90.00000000
_symmetry_Int_Tables_number   1
_chemical_formula_structural   Tm2Cu2O5
_chemical_formula_sum   'Tm8 Cu8 O20'
_cell_volume   465.28785046
_cell_formula_units_Z   4
loop_
 _symmetry_equiv_pos_site_id
 _symmetry_equiv_pos_as_xyz
  1  'x, y, z'
loop_
 _atom_site_type_symbol
 _atom_site_label
 _atom_site_symmetry_multiplicity
 _atom_site_fract_x
 _atom_site_fract_y
 _atom_site_fract_z
 _atom_site_occupancy
  O  O0  1  0.27202690  0.92237497  0.02800598  1
  O  O1  1  0.72797310  0.07762503  0.52800598  1
  O  O2  1  0.22797310  0.42237497  0.02800598  1
  O  O3  1  0.77202690  0.57762503  0.52800598  1
  O  O4  1  0.72443235  0.92926789  0.23572486  1
  O  O5  1  0.27556765  0.07073211  0.73572486  1
  O  O6  1  0.77556765  0.42926789  0.23572486  1
  O  O7  1  0.22443235  0.57073211  0.73572486  1
  O  O8  1  0.16586649  0.62462121  0.33436266  1
  O  O9  1  0.83413351  0.37537879  0.83436266  1
  O  O10  1  0.33413351  0.12462121  0.33436266  1
  O  O11  1  0.66586649  0.87537879  0.83436266  1
  O  O12  1  0.78089612  0.82105868  0.43357886  1
  O  O13  1  0.21910388  0.17894132  0.93357886  1
  O  O14  1  0.71910388  0.32105868  0.43357886  1
  O  O15  1  0.28089612  0.67894132  0.93357886  1
  O  O16  1  0.27562244  0.82750128  0.64101262  1
  O  O17  1  0.72437756  0.17249872  0.14101262  1
  O  O18  1  0.22437756  0.32750128  0.64101262  1
  O  O19  1  0.77562244  0.67249872  0.14101262  1
  Cu  Cu20  1  0.84481674  0.76160347  0.28103786  1
  Cu  Cu21  1  0.15518326  0.23839653  0.78103786  1
  Cu  Cu22  1  0.65518326  0.26160347  0.28103786  1
  Cu  Cu23  1  0.34481674  0.73839653  0.78103786  1
  Cu  Cu24  1  0.84035484  0.48858110  0.38792446  1
  Cu  Cu25  1  0.15964516  0.51141890  0.88792446  1
  Cu  Cu26  1  0.65964516  0.98858110  0.38792446  1
  Cu  Cu27  1  0.34035484  0.01141890  0.88792446  1
  Tm  Tm28  1  0.27648358  0.54243977  0.17033184  1
  Tm  Tm29  1  0.72351642  0.45756023  0.67033184  1
  Tm  Tm30  1  0.22351642  0.04243977  0.17033184  1
  Tm  Tm31  1  0.77648358  0.95756023  0.67033184  1
  Tm  Tm32  1  0.27755525  0.70762636  0.49822087  1
  Tm  Tm33  1  0.72244475  0.29237364  0.99822087  1
  Tm  Tm34  1  0.22244475  0.20762636  0.49822087  1
  Tm  Tm35  1  0.77755525  0.79237364  0.99822087  1
