# generated using pymatgen
data_U2AlCo3
_symmetry_space_group_name_H-M   'P 1'
_cell_length_a   5.15095538
_cell_length_b   5.15095538
_cell_length_c   7.63239586
_cell_angle_alpha   90.00000000
_cell_angle_beta   90.00000000
_cell_angle_gamma   120.00000002
_symmetry_Int_Tables_number   1
_chemical_formula_structural   U2AlCo3
_chemical_formula_sum   'U4 Al2 Co6'
_cell_volume   175.37476189
_cell_formula_units_Z   2
loop_
 _symmetry_equiv_pos_site_id
 _symmetry_equiv_pos_as_xyz
  1  'x, y, z'
loop_
 _atom_site_type_symbol
 _atom_site_label
 _atom_site_symmetry_multiplicity
 _atom_site_fract_x
 _atom_site_fract_y
 _atom_site_fract_z
 _atom_site_occupancy
  Al  Al0  1  0.00000000  0.00000000  0.00000000  1
  Al  Al1  1  0.00000000  0.00000000  0.50000000  1
  Co  Co2  1  0.82982906  0.65965811  0.25000000  1
  Co  Co3  1  0.17017094  0.82982906  0.75000000  1
  Co  Co4  1  0.65965811  0.82982906  0.75000000  1
  Co  Co5  1  0.34034189  0.17017094  0.25000000  1
  Co  Co6  1  0.82982906  0.17017094  0.25000000  1
  Co  Co7  1  0.17017094  0.34034189  0.75000000  1
  U  U8  1  0.33333333  0.66666667  0.06988317  1
  U  U9  1  0.66666667  0.33333333  0.56988317  1
  U  U10  1  0.66666667  0.33333333  0.93011683  1
  U  U11  1  0.33333333  0.66666667  0.43011683  1
