# generated using pymatgen
data_PrNb5O14
_symmetry_space_group_name_H-M   'P 1'
_cell_length_a   6.34844828
_cell_length_b   7.78965447
_cell_length_c   20.55868699
_cell_angle_alpha   90.00000000
_cell_angle_beta   90.00000000
_cell_angle_gamma   90.00000000
_symmetry_Int_Tables_number   1
_chemical_formula_structural   PrNb5O14
_chemical_formula_sum   'Pr4 Nb20 O56'
_cell_volume   1016.67268155
_cell_formula_units_Z   4
loop_
 _symmetry_equiv_pos_site_id
 _symmetry_equiv_pos_as_xyz
  1  'x, y, z'
loop_
 _atom_site_type_symbol
 _atom_site_label
 _atom_site_symmetry_multiplicity
 _atom_site_fract_x
 _atom_site_fract_y
 _atom_site_fract_z
 _atom_site_occupancy
  O  O0  1  0.32888604  0.25000000  0.56960466  1
  O  O1  1  0.32888604  0.25000000  0.93039534  1
  O  O2  1  0.67111396  0.75000000  0.43039534  1
  O  O3  1  0.67111396  0.75000000  0.06960466  1
  O  O4  1  0.33500778  0.96234275  0.47293115  1
  O  O5  1  0.33500778  0.53765725  0.02706885  1
  O  O6  1  0.66499222  0.46234275  0.52706885  1
  O  O7  1  0.66499222  0.03765725  0.97293115  1
  O  O8  1  0.66499222  0.03765725  0.52706885  1
  O  O9  1  0.66499222  0.46234275  0.97293115  1
  O  O10  1  0.33500778  0.53765725  0.47293115  1
  O  O11  1  0.33500778  0.96234275  0.02706885  1
  O  O12  1  0.61090891  0.25000000  0.42172662  1
  O  O13  1  0.61090891  0.25000000  0.07827338  1
  O  O14  1  0.38909109  0.75000000  0.57827338  1
  O  O15  1  0.38909109  0.75000000  0.92172662  1
  O  O16  1  0.91037375  0.75000000  0.65131742  1
  O  O17  1  0.91037375  0.75000000  0.84868258  1
  O  O18  1  0.08962625  0.25000000  0.34868258  1
  O  O19  1  0.23422653  0.49400520  0.68586934  1
  O  O20  1  0.08962625  0.25000000  0.15131742  1
  O  O21  1  0.49990498  0.25000000  0.25000000  1
  O  O22  1  0.76577347  0.99400520  0.31413066  1
  O  O23  1  0.76577347  0.50599480  0.18586934  1
  O  O24  1  0.92578716  0.01895478  0.06707078  1
  O  O25  1  0.92578716  0.48104522  0.43292922  1
  O  O26  1  0.07421284  0.51895478  0.93292922  1
  O  O27  1  0.07421284  0.98104522  0.56707078  1
  O  O28  1  0.07421284  0.98104522  0.93292922  1
  O  O29  1  0.07421284  0.51895478  0.56707078  1
  O  O30  1  0.92578716  0.48104522  0.06707078  1
  O  O31  1  0.92578716  0.01895478  0.43292922  1
  O  O32  1  0.15877502  0.98571370  0.25000000  1
  O  O33  1  0.15877502  0.51428630  0.25000000  1
  O  O34  1  0.84122498  0.48571370  0.75000000  1
  O  O35  1  0.84122498  0.01428630  0.75000000  1
  O  O36  1  0.60906696  0.00476587  0.84674039  1
  O  O37  1  0.60906696  0.49523413  0.65325961  1
  O  O38  1  0.39093304  0.50476587  0.15325961  1
  O  O39  1  0.39093304  0.99523413  0.34674039  1
  O  O40  1  0.39093304  0.99523413  0.15325961  1
  O  O41  1  0.39093304  0.50476587  0.34674039  1
  O  O42  1  0.60906696  0.49523413  0.84674039  1
  O  O43  1  0.60906696  0.00476587  0.65325961  1
  O  O44  1  0.50437490  0.75000000  0.25000000  1
  O  O45  1  0.49562510  0.25000000  0.75000000  1
  O  O46  1  0.08640766  0.75000000  0.13387361  1
  O  O47  1  0.08640766  0.75000000  0.36612639  1
  O  O48  1  0.91359234  0.25000000  0.86612639  1
  O  O49  1  0.91359234  0.25000000  0.63387361  1
  O  O50  1  0.76577347  0.99400520  0.18586934  1
  O  O51  1  0.76577347  0.50599480  0.31413066  1
  O  O52  1  0.23422653  0.49400520  0.81413066  1
  O  O53  1  0.23422653  0.00599480  0.68586934  1
  O  O54  1  0.23422653  0.00599480  0.81413066  1
  O  O55  1  0.50009502  0.75000000  0.75000000  1
  Nb  Nb56  1  0.49716077  0.00130671  0.75000000  1
  Nb  Nb57  1  0.49716077  0.49869329  0.75000000  1
  Nb  Nb58  1  0.50283923  0.50130671  0.25000000  1
  Nb  Nb59  1  0.50283923  0.99869329  0.25000000  1
  Nb  Nb60  1  0.05118156  0.00178857  0.34341075  1
  Nb  Nb61  1  0.05118156  0.49821143  0.15658925  1
  Nb  Nb62  1  0.94881844  0.50178857  0.65658925  1
  Nb  Nb63  1  0.94881844  0.99821143  0.84341075  1
  Nb  Nb64  1  0.94881844  0.99821143  0.65658925  1
  Nb  Nb65  1  0.94881844  0.50178857  0.84341075  1
  Nb  Nb66  1  0.05118156  0.49821143  0.34341075  1
  Nb  Nb67  1  0.05118156  0.00178857  0.15658925  1
  Nb  Nb68  1  0.41074430  0.00221925  0.57721175  1
  Nb  Nb69  1  0.41074430  0.49778075  0.92278825  1
  Nb  Nb70  1  0.58925570  0.50221925  0.42278825  1
  Nb  Nb71  1  0.58925570  0.99778075  0.07721175  1
  Nb  Nb72  1  0.58925570  0.99778075  0.42278825  1
  Nb  Nb73  1  0.58925570  0.50221925  0.07721175  1
  Nb  Nb74  1  0.41074430  0.49778075  0.57721175  1
  Nb  Nb75  1  0.41074430  0.00221925  0.92278825  1
  Pr  Pr76  1  0.95397304  0.25000000  0.51417601  1
  Pr  Pr77  1  0.95397304  0.25000000  0.98582399  1
  Pr  Pr78  1  0.04602696  0.75000000  0.48582399  1
  Pr  Pr79  1  0.04602696  0.75000000  0.01417601  1
