# generated using pymatgen
data_LiMoPO5
_symmetry_space_group_name_H-M   'P 1'
_cell_length_a   13.12885849
_cell_length_b   6.53695936
_cell_length_c   10.80641434
_cell_angle_alpha   90.00000000
_cell_angle_beta   90.00000000
_cell_angle_gamma   90.00000000
_symmetry_Int_Tables_number   1
_chemical_formula_structural   LiMoPO5
_chemical_formula_sum   'Li8 Mo8 P8 O40'
_cell_volume   927.43689215
_cell_formula_units_Z   8
loop_
 _symmetry_equiv_pos_site_id
 _symmetry_equiv_pos_as_xyz
  1  'x, y, z'
loop_
 _atom_site_type_symbol
 _atom_site_label
 _atom_site_symmetry_multiplicity
 _atom_site_fract_x
 _atom_site_fract_y
 _atom_site_fract_z
 _atom_site_occupancy
  Li  Li0  1  0.40897296  0.43109863  0.55367147  1
  Li  Li1  1  0.90897296  0.06890137  0.55367147  1
  Li  Li2  1  0.26804101  0.76608560  0.26769832  1
  Li  Li3  1  0.23195899  0.26608560  0.76769832  1
  Li  Li4  1  0.76804101  0.73391440  0.26769832  1
  Li  Li5  1  0.59102704  0.56890137  0.05367147  1
  Li  Li6  1  0.09102704  0.93109863  0.05367147  1
  Li  Li7  1  0.73195899  0.23391440  0.76769832  1
  Mo  Mo8  1  0.27151313  0.77280741  0.74845480  1
  Mo  Mo9  1  0.22848687  0.27280741  0.24845480  1
  Mo  Mo10  1  0.13228782  0.02316712  0.51338572  1
  Mo  Mo11  1  0.72848687  0.22719359  0.24845480  1
  Mo  Mo12  1  0.36771218  0.52316712  0.01338572  1
  Mo  Mo13  1  0.77151313  0.72719259  0.74845480  1
  Mo  Mo14  1  0.86771218  0.97683288  0.01338572  1
  Mo  Mo15  1  0.63228782  0.47683288  0.51338572  1
  P  P16  1  0.48156889  0.34116599  0.27267944  1
  P  P17  1  0.18932931  0.52792233  0.50637418  1
  P  P18  1  0.31067069  0.02792233  0.00637418  1
  P  P19  1  0.51843011  0.65883401  0.77267944  1
  P  P20  1  0.01843011  0.84116599  0.77267944  1
  P  P21  1  0.98156989  0.15883401  0.27267944  1
  P  P22  1  0.68932931  0.97207767  0.50637418  1
  P  P23  1  0.81067069  0.47207767  0.00637418  1
  O  O24  1  0.78705923  0.97766072  0.86052993  1
  O  O25  1  0.21294077  0.02233928  0.36052993  1
  O  O26  1  0.77846114  0.94945887  0.60351324  1
  O  O27  1  0.38273657  0.21027812  0.00404376  1
  O  O28  1  0.25979252  0.51213264  0.13972762  1
  O  O29  1  0.42673888  0.80297102  0.74823408  1
  O  O30  1  0.75486666  0.48934580  0.87977612  1
  O  O31  1  0.92673888  0.69702898  0.74823408  1
  O  O32  1  0.27846114  0.55054113  0.60351324  1
  O  O33  1  0.61726343  0.78972188  0.50404376  1
  O  O34  1  0.38273215  0.21403575  0.27117225  1
  O  O35  1  0.37230591  0.83723211  0.03944885  1
  O  O36  1  0.57326112  0.19702898  0.24823408  1
  O  O37  1  0.75979252  0.98786736  0.13972762  1
  O  O38  1  0.24513334  0.51065420  0.37977612  1
  O  O39  1  0.11726343  0.71027812  0.50404376  1
  O  O40  1  0.49389740  0.44108465  0.40360454  1
  O  O41  1  0.07326112  0.30297102  0.24823408  1
  O  O42  1  0.12769409  0.33723211  0.53944885  1
  O  O43  1  0.47835289  0.50951878  0.16944869  1
  O  O44  1  0.24020748  0.01213264  0.63972762  1
  O  O45  1  0.52164711  0.49048122  0.66944869  1
  O  O46  1  0.11726785  0.71403575  0.77117225  1
  O  O47  1  0.87230591  0.66276789  0.03944885  1
  O  O48  1  0.00610260  0.94108465  0.90360454  1
  O  O49  1  0.61726785  0.78596425  0.77117225  1
  O  O50  1  0.72153886  0.44945887  0.10351324  1
  O  O51  1  0.62769409  0.16276789  0.53944885  1
  O  O52  1  0.50610260  0.55891535  0.90360454  1
  O  O53  1  0.97835289  0.99048122  0.16944869  1
  O  O54  1  0.88273215  0.28596425  0.27117225  1
  O  O55  1  0.71294077  0.47766072  0.36052993  1
  O  O56  1  0.22153886  0.05054113  0.10351324  1
  O  O57  1  0.74020748  0.48786736  0.63972762  1
  O  O58  1  0.28705923  0.52233928  0.86052993  1
  O  O59  1  0.99389740  0.05891535  0.40360454  1
  O  O60  1  0.25486666  0.01065420  0.87977612  1
  O  O61  1  0.74513334  0.98934580  0.37977612  1
  O  O62  1  0.88273657  0.28972188  0.00404376  1
  O  O63  1  0.02164711  0.00951878  0.66944869  1
