# generated using pymatgen
data_LaNb5O14
_symmetry_space_group_name_H-M   'P 1'
_cell_length_a   3.92979882
_cell_length_b   12.66321022
_cell_length_c   20.45992871
_cell_angle_alpha   90.00000000
_cell_angle_beta   90.00000000
_cell_angle_gamma   90.00000000
_symmetry_Int_Tables_number   1
_chemical_formula_structural   LaNb5O14
_chemical_formula_sum   'La4 Nb20 O56'
_cell_volume   1018.16520348
_cell_formula_units_Z   4
loop_
 _symmetry_equiv_pos_site_id
 _symmetry_equiv_pos_as_xyz
  1  'x, y, z'
loop_
 _atom_site_type_symbol
 _atom_site_label
 _atom_site_symmetry_multiplicity
 _atom_site_fract_x
 _atom_site_fract_y
 _atom_site_fract_z
 _atom_site_occupancy
  O  O0  1  0.51533014  0.82469188  0.25000000  1
  O  O1  1  0.51533014  0.67530812  0.75000000  1
  O  O2  1  0.48466986  0.32469188  0.25000000  1
  O  O3  1  0.48466986  0.17530812  0.75000000  1
  O  O4  1  0.01271800  0.99596188  0.25000000  1
  O  O5  1  0.01271800  0.50403812  0.75000000  1
  O  O6  1  0.98728200  0.49596188  0.25000000  1
  O  O7  1  0.98728200  0.00403812  0.75000000  1
  O  O8  1  0.50746359  0.08746268  0.52695321  1
  O  O9  1  0.50746359  0.41253732  0.47304679  1
  O  O10  1  0.49253641  0.58746268  0.97304679  1
  O  O11  1  0.49253641  0.91253732  0.02695321  1
  O  O12  1  0.49253641  0.91253732  0.47304679  1
  O  O13  1  0.49253641  0.58746268  0.52695321  1
  O  O14  1  0.50746359  0.41253732  0.02695321  1
  O  O15  1  0.50746359  0.08746268  0.97304679  1
  O  O16  1  0.49733810  0.05787606  0.65383444  1
  O  O17  1  0.49733810  0.44212394  0.34616556  1
  O  O18  1  0.50266190  0.55787606  0.84616556  1
  O  O19  1  0.48068982  0.86982295  0.81446678  1
  O  O20  1  0.50266190  0.94212394  0.15383444  1
  O  O21  1  0.50266190  0.55787606  0.65383444  1
  O  O22  1  0.49733810  0.44212394  0.15383444  1
  O  O23  1  0.49733810  0.05787606  0.84616556  1
  O  O24  1  0.99716486  0.70909146  0.86227292  1
  O  O25  1  0.99716486  0.79090854  0.13772708  1
  O  O26  1  0.00283514  0.20909146  0.63772708  1
  O  O27  1  0.00283514  0.29090854  0.36227292  1
  O  O28  1  0.00283514  0.29090854  0.13772708  1
  O  O29  1  0.00283514  0.20909146  0.86227292  1
  O  O30  1  0.99716486  0.79090854  0.36227292  1
  O  O31  1  0.99716486  0.70909146  0.63772708  1
  O  O32  1  0.50585688  0.70906004  0.06680743  1
  O  O33  1  0.50585688  0.79093996  0.93319257  1
  O  O34  1  0.49414312  0.20906004  0.43319257  1
  O  O35  1  0.49414312  0.29093996  0.56680743  1
  O  O36  1  0.49414312  0.29093996  0.93319257  1
  O  O37  1  0.49414312  0.20906004  0.06680743  1
  O  O38  1  0.50585688  0.79093996  0.56680743  1
  O  O39  1  0.50585688  0.70906004  0.43319257  1
  O  O40  1  1.00057168  0.56616491  0.07357944  1
  O  O41  1  1.00057168  0.93383509  0.92642056  1
  O  O42  1  -0.00057168  0.06616491  0.42642056  1
  O  O43  1  -0.00057168  0.43383509  0.57357944  1
  O  O44  1  -0.00057168  0.43383509  0.92642056  1
  O  O45  1  -0.00057168  0.06616491  0.07357944  1
  O  O46  1  1.00057168  0.93383509  0.57357944  1
  O  O47  1  1.00057168  0.56616491  0.42642056  1
  O  O48  1  0.48068982  0.86982295  0.68553322  1
  O  O49  1  0.48068982  0.63017705  0.31446678  1
  O  O50  1  0.51931018  0.36982295  0.81446678  1
  O  O51  1  0.51931018  0.13017705  0.18553322  1
  O  O52  1  0.51931018  0.13017705  0.31446678  1
  O  O53  1  0.51931018  0.36982295  0.68553322  1
  O  O54  1  0.48068982  0.63017705  0.18553322  1
  O  O55  1  0.50266190  0.94212394  0.34616556  1
  Nb  Nb56  1  0.54872074  0.99963097  0.25000000  1
  Nb  Nb57  1  0.54872074  0.50036903  0.75000000  1
  Nb  Nb58  1  0.45127926  0.49963097  0.25000000  1
  Nb  Nb59  1  0.45127926  0.00036903  0.75000000  1
  Nb  Nb60  1  0.46638691  0.72563712  0.65575983  1
  Nb  Nb61  1  0.46638691  0.77436288  0.34424017  1
  Nb  Nb62  1  0.53361309  0.22563712  0.84424017  1
  Nb  Nb63  1  0.53361309  0.27436288  0.15575983  1
  Nb  Nb64  1  0.53361309  0.27436288  0.34424017  1
  Nb  Nb65  1  0.53361309  0.22563712  0.65575983  1
  Nb  Nb66  1  0.46638691  0.77436288  0.15575983  1
  Nb  Nb67  1  0.46638691  0.72563712  0.84424017  1
  Nb  Nb68  1  0.50092595  0.95826979  0.57717591  1
  Nb  Nb69  1  0.50092595  0.54173021  0.42282409  1
  Nb  Nb70  1  0.49907405  0.45826979  0.92282409  1
  Nb  Nb71  1  0.49907405  0.04173021  0.07717591  1
  Nb  Nb72  1  0.49907405  0.04173021  0.42282409  1
  Nb  Nb73  1  0.49907405  0.45826979  0.57717591  1
  Nb  Nb74  1  0.50092595  0.54173021  0.07717591  1
  Nb  Nb75  1  0.50092595  0.95826979  0.92282409  1
  La  La76  1  1.00404413  0.75000000  0.50000000  1
  La  La77  1  -0.00404413  0.25000000  0.00000000  1
  La  La78  1  -0.00404413  0.25000000  0.50000000  1
  La  La79  1  1.00404413  0.75000000  0.00000000  1
