# generated using pymatgen
data_SmEr3Mn8
_symmetry_space_group_name_H-M   'P 1'
_cell_length_a   5.03230533
_cell_length_b   5.03230533
_cell_length_c   8.63807916
_cell_angle_alpha   90.33701656
_cell_angle_beta   89.66298344
_cell_angle_gamma   119.67544452
_symmetry_Int_Tables_number   1
_chemical_formula_structural   SmEr3Mn8
_chemical_formula_sum   'Sm1 Er3 Mn8'
_cell_volume   190.05652748
_cell_formula_units_Z   1
loop_
 _symmetry_equiv_pos_site_id
 _symmetry_equiv_pos_as_xyz
  1  'x, y, z'
loop_
 _atom_site_type_symbol
 _atom_site_label
 _atom_site_symmetry_multiplicity
 _atom_site_fract_x
 _atom_site_fract_y
 _atom_site_fract_z
 _atom_site_occupancy
  Sm  Sm0  1  0.66656207  0.33343793  0.56491637  1
  Er  Er1  1  0.33341311  0.66658689  0.43199145  1
  Er  Er2  1  0.33320132  0.66679868  0.06632493  1
  Er  Er3  1  0.66706178  0.33293822  0.93592243  1
  Mn  Mn4  1  0.99993777  0.00006223  0.49848194  1
  Mn  Mn5  1  0.99987311  0.00012689  0.00140786  1
  Mn  Mn6  1  0.16873874  0.33795809  0.75382442  1
  Mn  Mn7  1  0.16865217  0.83134783  0.75444271  1
  Mn  Mn8  1  0.66204191  0.83126126  0.75382442  1
  Mn  Mn9  1  0.83166808  0.66253096  0.24660351  1
  Mn  Mn10  1  0.83138089  0.16861911  0.24565645  1
  Mn  Mn11  1  0.33746904  0.16833192  0.24660351  1
