# generated using pymatgen
data_KTcCl3
_symmetry_space_group_name_H-M   'P 1'
_cell_length_a   8.32995353
_cell_length_b   8.32995353
_cell_length_c   9.06021073
_cell_angle_alpha   93.63165541
_cell_angle_beta   93.63165540
_cell_angle_gamma   118.29011822
_symmetry_Int_Tables_number   1
_chemical_formula_structural   KTcCl3
_chemical_formula_sum   'K4 Tc4 Cl12'
_cell_volume   549.34371056
_cell_formula_units_Z   4
loop_
 _symmetry_equiv_pos_site_id
 _symmetry_equiv_pos_as_xyz
  1  'x, y, z'
loop_
 _atom_site_type_symbol
 _atom_site_label
 _atom_site_symmetry_multiplicity
 _atom_site_fract_x
 _atom_site_fract_y
 _atom_site_fract_z
 _atom_site_occupancy
  Cl  Cl0  1  0.48805121  0.51544354  0.05672557  1
  Cl  Cl1  1  0.51544354  0.48805121  0.55672557  1
  Cl  Cl2  1  0.12527903  0.14898095  0.21183076  1
  Cl  Cl3  1  0.14898095  0.12527903  0.71183076  1
  Cl  Cl4  1  0.80035707  0.40090550  0.17873939  1
  Cl  Cl5  1  0.40090550  0.80035707  0.67873939  1
  Cl  Cl6  1  0.66214154  0.86933734  0.33262409  1
  Cl  Cl7  1  0.86933734  0.66214154  0.83262409  1
  Cl  Cl8  1  0.76919097  0.97297219  0.94329858  1
  Cl  Cl9  1  0.97297219  0.76919097  0.44329858  1
  Cl  Cl10  1  0.82404996  0.22921797  0.60408640  1
  Cl  Cl11  1  0.22921797  0.82404996  0.10408640  1
  K  K12  1  0.44738385  0.11473617  0.39616490  1
  K  K13  1  0.11473617  0.44738385  0.89616490  1
  K  K14  1  0.50611524  0.17128252  0.89323272  1
  K  K15  1  0.17128252  0.50611524  0.39323272  1
  Tc  Tc16  1  0.77590343  0.67962519  0.20901104  1
  Tc  Tc17  1  0.67962519  0.77590343  0.70901104  1
  Tc  Tc18  1  0.95491994  0.85570639  0.06788656  1
  Tc  Tc19  1  0.85570639  0.95491994  0.56788656  1
