# generated using pymatgen
data_Ag(AuS)2
_symmetry_space_group_name_H-M   'P 1'
_cell_length_a   4.45403219
_cell_length_b   10.14200000
_cell_length_c   7.28849530
_cell_angle_alpha   45.00067812
_cell_angle_beta   90.00000000
_cell_angle_gamma   90.00000000
_symmetry_Int_Tables_number   1
_chemical_formula_structural   Ag(AuS)2
_chemical_formula_sum   'Ag2 Au4 S4'
_cell_volume   232.81179438
_cell_formula_units_Z   2
loop_
 _symmetry_equiv_pos_site_id
 _symmetry_equiv_pos_as_xyz
  1  'x, y, z'
loop_
 _atom_site_type_symbol
 _atom_site_label
 _atom_site_symmetry_multiplicity
 _atom_site_fract_x
 _atom_site_fract_y
 _atom_site_fract_z
 _atom_site_occupancy
  Ag  Ag0  1  0.48690389  0.64600417  0.95185372  1
  Ag  Ag1  1  0.01309611  0.14600417  0.45185372  1
  Au  Au2  1  0.35404268  -0.00007508  0.24708822  1
  Au  Au3  1  0.14595732  0.49992492  0.74708822  1
  Au  Au4  1  0.75099159  0.74446284  0.26374924  1
  Au  Au5  1  0.74900841  0.24446284  0.76374924  1
  S  S6  1  0.07957748  0.99438776  0.97815208  1
  S  S7  1  0.98591752  0.49022031  0.05915674  1
  S  S8  1  0.51408248  0.99022031  0.55915674  1
  S  S9  1  0.42042252  0.49438776  0.47815208  1
