# generated using pymatgen
data_Ag2S
_symmetry_space_group_name_H-M   'P 1'
_cell_length_a   4.43547600
_cell_length_b   4.61998912
_cell_length_c   13.80956121
_cell_angle_alpha   119.59765915
_cell_angle_beta   118.96900935
_cell_angle_gamma   94.86924124
_symmetry_Int_Tables_number   1
_chemical_formula_structural   Ag2S
_chemical_formula_sum   'Ag6 S3'
_cell_volume   194.75746272
_cell_formula_units_Z   3
loop_
 _symmetry_equiv_pos_site_id
 _symmetry_equiv_pos_as_xyz
  1  'x, y, z'
loop_
 _atom_site_type_symbol
 _atom_site_label
 _atom_site_symmetry_multiplicity
 _atom_site_fract_x
 _atom_site_fract_y
 _atom_site_fract_z
 _atom_site_occupancy
  Ag  Ag0  1  0.40617494  0.95047501  0.81591948  1
  Ag  Ag1  1  0.80906824  0.44796211  0.78254483  1
  Ag  Ag2  1  0.30057565  0.71939349  0.09742741  1
  Ag  Ag3  1  0.38357065  0.93511421  0.47178015  1
  Ag  Ag4  1  0.79021374  0.44118107  0.44606124  1
  Ag  Ag5  1  0.83042257  0.38786410  0.15878857  1
  S  S6  1  0.05651567  0.09548290  0.65744562  1
  S  S7  1  0.02524131  0.09420800  0.31573201  1
  S  S8  1  0.02321723  0.05331910  0.00430068  1
