# generated using pymatgen
data_Nd2USe4
_symmetry_space_group_name_H-M   'P 1'
_cell_length_a   7.69828854
_cell_length_b   7.69828812
_cell_length_c   7.69828775
_cell_angle_alpha   109.23709211
_cell_angle_beta   109.94050455
_cell_angle_gamma   109.23708581
_symmetry_Int_Tables_number   1
_chemical_formula_structural   Nd2USe4
_chemical_formula_sum   'Nd4 U2 Se8'
_cell_volume   351.18724088
_cell_formula_units_Z   2
loop_
 _symmetry_equiv_pos_site_id
 _symmetry_equiv_pos_as_xyz
  1  'x, y, z'
loop_
 _atom_site_type_symbol
 _atom_site_label
 _atom_site_symmetry_multiplicity
 _atom_site_fract_x
 _atom_site_fract_y
 _atom_site_fract_z
 _atom_site_occupancy
  Nd  Nd0  1  0.25000000  0.62287475  0.37287475  1
  Nd  Nd1  1  0.62712525  0.37712525  0.25000000  1
  Nd  Nd2  1  0.75000000  0.87712525  0.12712525  1
  Nd  Nd3  1  0.87287475  0.12287475  0.75000000  1
  U  U4  1  0.12500000  0.75000000  0.87500000  1
  U  U5  1  0.37500000  0.25000000  0.62500000  1
  Se  Se6  1  0.00571135  0.85124055  0.50407904  1
  Se  Se7  1  0.00407904  0.35124055  0.50571135  1
  Se  Se8  1  0.15447080  0.14875945  0.15283849  1
  Se  Se9  1  0.34552920  0.49836768  0.99428865  1
  Se  Se10  1  0.49428865  0.99836768  0.84552920  1
  Se  Se11  1  0.65283849  0.64875945  0.65447080  1
  Se  Se12  1  0.49592096  0.00163232  0.34716151  1
  Se  Se13  1  0.84716151  0.50163232  0.99592096  1
