# generated using pymatgen
data_BaLaCuRuO6
_symmetry_space_group_name_H-M   'P 1'
_cell_length_a   5.51418086
_cell_length_b   5.51478376
_cell_length_c   5.80659429
_cell_angle_alpha   118.36339305
_cell_angle_beta   118.35625610
_cell_angle_gamma   89.98450076
_symmetry_Int_Tables_number   1
_chemical_formula_structural   BaLaCuRuO6
_chemical_formula_sum   'Ba1 La1 Cu1 Ru1 O6'
_cell_volume   130.81605086
_cell_formula_units_Z   1
loop_
 _symmetry_equiv_pos_site_id
 _symmetry_equiv_pos_as_xyz
  1  'x, y, z'
loop_
 _atom_site_type_symbol
 _atom_site_label
 _atom_site_symmetry_multiplicity
 _atom_site_fract_x
 _atom_site_fract_y
 _atom_site_fract_z
 _atom_site_occupancy
  Ba  Ba0  1  0.75007435  0.25007827  0.50008904  1
  Cu  Cu1  1  0.50009150  0.49979853  1.00020168  1
  La  La2  1  0.25013064  0.75016714  0.50008255  1
  O  O3  1  0.23216884  0.23219979  0.46429941  1
  O  O4  1  0.22206477  0.32513956  0.05321515  1
  O  O5  1  0.27184951  0.77775305  0.94677880  1
  O  O6  1  0.76774421  0.76776459  0.53543089  1
  O  O7  1  0.67488541  0.16884593  0.94669317  1
  O  O8  1  0.83099671  0.72818757  0.05333572  1
  Ru  Ru9  1  -0.00000594  0.00006557  -0.00012641  1
