# generated using pymatgen
data_CuPH6NO5
_symmetry_space_group_name_H-M   'P 1'
_cell_length_a   4.84158929
_cell_length_b   5.76088047
_cell_length_c   8.78542652
_cell_angle_alpha   90.00000000
_cell_angle_beta   90.00000000
_cell_angle_gamma   90.00000000
_symmetry_Int_Tables_number   1
_chemical_formula_structural   CuPH6NO5
_chemical_formula_sum   'Cu2 P2 H12 N2 O10'
_cell_volume   245.04151038
_cell_formula_units_Z   2
loop_
 _symmetry_equiv_pos_site_id
 _symmetry_equiv_pos_as_xyz
  1  'x, y, z'
loop_
 _atom_site_type_symbol
 _atom_site_label
 _atom_site_symmetry_multiplicity
 _atom_site_fract_x
 _atom_site_fract_y
 _atom_site_fract_z
 _atom_site_occupancy
  Cu  Cu0  1  0.49214723  -0.00000000  0.02227480  1
  Cu  Cu1  1  0.99214723  0.50000000  0.97772520  1
  P  P2  1  0.93556079  -0.00000000  0.81171951  1
  P  P3  1  0.43556079  0.50000000  0.18828049  1
  H  H4  1  0.55032648  0.00000000  0.54548217  1
  H  H5  1  0.05032648  0.50000000  0.45451783  1
  H  H6  1  0.37732662  0.14720636  0.40836342  1
  H  H7  1  0.87732662  0.35279364  0.59163658  1
  H  H8  1  0.37732662  0.85279364  0.40836342  1
  H  H9  1  0.87732662  0.64720636  0.59163658  1
  H  H10  1  0.19332564  0.00000000  0.54331645  1
  H  H11  1  0.69332564  0.50000000  0.45668355  1
  H  H12  1  0.89584209  0.13720886  0.18612255  1
  H  H13  1  0.39584209  0.36279114  0.81387745  1
  H  H14  1  0.89584209  0.86279114  0.18612255  1
  H  H15  1  0.39584209  0.63720886  0.81387745  1
  N  N16  1  0.37413432  0.00000000  0.47583727  1
  N  N17  1  0.87413432  0.50000000  0.52416273  1
  O  O18  1  0.79132897  0.78531214  0.88827007  1
  O  O19  1  0.29132897  0.71468786  0.11172993  1
  O  O20  1  0.79132897  0.21468786  0.88827007  1
  O  O21  1  0.29132897  0.28531214  0.11172993  1
  O  O22  1  0.25114410  0.00000000  0.83602656  1
  O  O23  1  0.75114410  0.50000000  0.16397344  1
  O  O24  1  0.88247341  0.00000000  0.63682132  1
  O  O25  1  0.38247341  0.50000000  0.36317868  1
  O  O26  1  0.77889266  0.00000000  0.20424038  1
  O  O27  1  0.27889266  0.50000000  0.79575962  1
