# generated using pymatgen
data_Cs(Zr3I7)2
_symmetry_space_group_name_H-M   'P 1'
_cell_length_a   11.12239068
_cell_length_b   11.12239119
_cell_length_c   13.35780933
_cell_angle_alpha   90.00000000
_cell_angle_beta   90.00000000
_cell_angle_gamma   93.46343374
_symmetry_Int_Tables_number   1
_chemical_formula_structural   Cs(Zr3I7)2
_chemical_formula_sum   'Cs2 Zr12 I28'
_cell_volume   1649.44413951
_cell_formula_units_Z   2
loop_
 _symmetry_equiv_pos_site_id
 _symmetry_equiv_pos_as_xyz
  1  'x, y, z'
loop_
 _atom_site_type_symbol
 _atom_site_label
 _atom_site_symmetry_multiplicity
 _atom_site_fract_x
 _atom_site_fract_y
 _atom_site_fract_z
 _atom_site_occupancy
  I  I0  1  0.20907931  0.96733010  0.26013044  1
  I  I1  1  0.29092069  0.53266990  0.76013044  1
  I  I2  1  0.46733010  0.70907931  0.23986956  1
  I  I3  1  0.03266990  0.79092069  0.73986956  1
  I  I4  1  0.79092069  0.03266990  0.73986956  1
  I  I5  1  0.70907931  0.46733010  0.23986956  1
  I  I6  1  0.53266990  0.29092069  0.76013044  1
  I  I7  1  0.96733010  0.20907931  0.26013044  1
  I  I8  1  0.39348285  0.15029433  0.00600682  1
  I  I9  1  0.10651715  0.34970567  0.50600682  1
  I  I10  1  0.65029433  0.89348285  0.49399318  1
  I  I11  1  0.84970567  0.60651715  0.99399318  1
  I  I12  1  0.60651715  0.84970567  0.99399318  1
  I  I13  1  0.89348285  0.65029433  0.49399318  1
  I  I14  1  0.34970567  0.10651715  0.50600682  1
  I  I15  1  0.15029433  0.39348285  0.00600682  1
  I  I16  1  0.60549708  0.10549708  0.25000000  1
  I  I17  1  0.89450292  0.39450292  0.75000000  1
  I  I18  1  0.39450292  0.89450292  0.75000000  1
  I  I19  1  0.10549708  0.60549708  0.25000000  1
  I  I20  1  0.15079438  0.15079438  0.75854112  1
  I  I21  1  0.34920562  0.34920562  0.25854112  1
  I  I22  1  0.65079438  0.65079438  0.74145888  1
  I  I23  1  0.84920562  0.84920562  0.24145888  1
  I  I24  1  0.24530662  0.75469338  0.00000000  1
  I  I25  1  0.25469338  0.74530662  0.50000000  1
  I  I26  1  0.75469338  0.24530662  0.00000000  1
  I  I27  1  0.74530662  0.25469338  0.50000000  1
  Cs  Cs28  1  0.00000000  0.00000000  0.00000000  1
  Cs  Cs29  1  0.50000000  0.50000000  0.50000000  1
  Zr  Zr30  1  0.45199129  0.67871726  0.88515020  1
  Zr  Zr31  1  0.04800871  0.82128274  0.38515020  1
  Zr  Zr32  1  0.17871726  0.95199129  0.61484980  1
  Zr  Zr33  1  0.32128274  0.54800871  0.11484980  1
  Zr  Zr34  1  0.54800871  0.32128274  0.11484980  1
  Zr  Zr35  1  0.95199129  0.17871726  0.61484980  1
  Zr  Zr36  1  0.82128274  0.04800871  0.38515020  1
  Zr  Zr37  1  0.67871726  0.45199129  0.88515020  1
  Zr  Zr38  1  0.39428249  0.39428249  0.92226615  1
  Zr  Zr39  1  0.10571751  0.10571751  0.42226615  1
  Zr  Zr40  1  0.89428249  0.89428249  0.57773385  1
  Zr  Zr41  1  0.60571751  0.60571751  0.07773385  1
