# generated using pymatgen
data_BaNdNiSbO6
_symmetry_space_group_name_H-M   'P 1'
_cell_length_a   5.78868134
_cell_length_b   5.72556886
_cell_length_c   8.04626474
_cell_angle_alpha   90.03427172
_cell_angle_beta   90.00000000
_cell_angle_gamma   90.00000000
_symmetry_Int_Tables_number   1
_chemical_formula_structural   BaNdNiSbO6
_chemical_formula_sum   'Ba2 Nd2 Ni2 Sb2 O12'
_cell_volume   266.68127652
_cell_formula_units_Z   2
loop_
 _symmetry_equiv_pos_site_id
 _symmetry_equiv_pos_as_xyz
  1  'x, y, z'
loop_
 _atom_site_type_symbol
 _atom_site_label
 _atom_site_symmetry_multiplicity
 _atom_site_fract_x
 _atom_site_fract_y
 _atom_site_fract_z
 _atom_site_occupancy
  Ba  Ba0  1  0.50950519  0.49903819  0.25061613  1
  Ba  Ba1  1  0.99049481  0.99903819  0.75061613  1
  Nd  Nd2  1  0.04555502  0.01813068  0.25204448  1
  Nd  Nd3  1  0.45444498  0.51813068  0.75204448  1
  Ni  Ni4  1  0.99130607  0.50319433  0.00062440  1
  Ni  Ni5  1  0.50869393  0.00319433  0.50062440  1
  Sb  Sb6  1  0.99409891  0.50063526  0.49989890  1
  Sb  Sb7  1  0.50590109  0.00063526  -0.00010110  1
  O  O8  1  0.03402573  0.45223792  0.74496786  1
  O  O9  1  0.25544932  0.75882030  0.96126492  1
  O  O10  1  0.24169057  0.74608395  0.53216711  1
  O  O11  1  0.25830943  0.24608395  0.03216711  1
  O  O12  1  0.24455068  0.25882030  0.46126492  1
  O  O13  1  0.46597427  0.95223792  0.24496786  1
  O  O14  1  0.51078614  0.10114201  0.75789186  1
  O  O15  1  0.71703318  0.70091134  0.54904439  1
  O  O16  1  0.70774924  0.71980603  0.95147996  1
  O  O17  1  0.79225076  0.21980603  0.45147996  1
  O  O18  1  0.78296682  0.20091134  0.04904439  1
  O  O19  1  0.98921386  0.60114201  0.25789186  1
