# generated using pymatgen
data_Li3Cu(PO4)2
_symmetry_space_group_name_H-M   'P 1'
_cell_length_a   6.87087361
_cell_length_b   5.07101438
_cell_length_c   9.83741257
_cell_angle_alpha   90.36753907
_cell_angle_beta   90.40768780
_cell_angle_gamma   89.77419997
_symmetry_Int_Tables_number   1
_chemical_formula_structural   Li3Cu(PO4)2
_chemical_formula_sum   'Li6 Cu2 P4 O16'
_cell_volume   342.73973973
_cell_formula_units_Z   2
loop_
 _symmetry_equiv_pos_site_id
 _symmetry_equiv_pos_as_xyz
  1  'x, y, z'
loop_
 _atom_site_type_symbol
 _atom_site_label
 _atom_site_symmetry_multiplicity
 _atom_site_fract_x
 _atom_site_fract_y
 _atom_site_fract_z
 _atom_site_occupancy
  Li  Li0  1  0.24536706  0.67712512  0.24855518  1
  Li  Li1  1  0.73844168  0.69045794  0.26086147  1
  Li  Li2  1  0.24825905  0.32303314  0.99586603  1
  Li  Li3  1  0.26366915  0.68534086  0.75121311  1
  Li  Li4  1  0.75445918  0.30883672  0.49336742  1
  Li  Li5  1  0.25187513  0.31507588  0.50022438  1
  Cu  Cu6  1  0.76176157  0.70050824  0.72421142  1
  Cu  Cu7  1  0.75554211  0.30228411  0.00563161  1
  P  P8  1  0.48515554  0.17741067  0.25197157  1
  P  P9  1  0.00388644  0.81877068  0.50155015  1
  P  P10  1  0.50362183  0.19316165  0.75547260  1
  P  P11  1  0.00159386  0.80390021  0.00073200  1
  O  O12  1  0.51405472  0.89110110  0.72197304  1
  O  O13  1  0.30676070  0.31333009  0.18818609  1
  O  O14  1  0.50974518  0.23487740  0.91398269  1
  O  O15  1  0.68687749  0.32708729  0.69440977  1
  O  O16  1  0.31451377  0.31066006  0.70124930  1
  O  O17  1  0.67111340  0.31785719  0.18593918  1
  O  O18  1  0.98758933  0.10905735  0.96968281  1
  O  O19  1  0.82068643  0.66620843  0.92459001  1
  O  O20  1  0.18272422  0.67735130  0.44537667  1
  O  O21  1  0.50395332  0.24163979  0.40425174  1
  O  O22  1  0.01142487  0.78588509  0.66444380  1
  O  O23  1  0.19075717  0.69681901  0.94208057  1
  O  O24  1  0.49472090  0.88184960  0.22191683  1
  O  O25  1  0.97850986  0.74787225  0.15185451  1
  O  O26  1  0.81040970  0.68563472  0.45900708  1
  O  O27  1  0.00315434  0.11585911  0.47515499  1
