# generated using pymatgen
data_Sc5Ir15C4
_symmetry_space_group_name_H-M   'P 1'
_cell_length_a   4.08387243
_cell_length_b   4.08387243
_cell_length_c   20.64844229
_cell_angle_alpha   90.00000000
_cell_angle_beta   90.00000000
_cell_angle_gamma   90.00000000
_symmetry_Int_Tables_number   1
_chemical_formula_structural   Sc5Ir15C4
_chemical_formula_sum   'Sc5 Ir15 C4'
_cell_volume   344.37501010
_cell_formula_units_Z   1
loop_
 _symmetry_equiv_pos_site_id
 _symmetry_equiv_pos_as_xyz
  1  'x, y, z'
loop_
 _atom_site_type_symbol
 _atom_site_label
 _atom_site_symmetry_multiplicity
 _atom_site_fract_x
 _atom_site_fract_y
 _atom_site_fract_z
 _atom_site_occupancy
  Sc  Sc0  1  -0.00000000  -0.00000000  0.00807947  1
  Sc  Sc1  1  0.00000000  -0.00000000  0.19192053  1
  Sc  Sc2  1  -0.00000000  -0.00000000  0.39834102  1
  Sc  Sc3  1  0.00000000  -0.00000000  0.60000000  1
  Sc  Sc4  1  0.00000000  -0.00000000  0.80165898  1
  Ir  Ir5  1  0.50000000  0.50000000  0.01112316  1
  Ir  Ir6  1  0.50000000  0.50000000  0.18887684  1
  Ir  Ir7  1  0.50000000  0.50000000  0.39856584  1
  Ir  Ir8  1  0.50000000  0.50000000  0.60000000  1
  Ir  Ir9  1  0.50000000  0.50000000  0.80143416  1
  Ir  Ir10  1  0.50000000  -0.00000000  0.10000000  1
  Ir  Ir11  1  0.50000000  0.00000000  0.30211795  1
  Ir  Ir12  1  0.50000000  -0.00000000  0.50152885  1
  Ir  Ir13  1  0.50000000  0.00000000  0.69847115  1
  Ir  Ir14  1  0.50000000  -0.00000000  0.89788205  1
  Ir  Ir15  1  0.00000000  0.50000000  0.10000000  1
  Ir  Ir16  1  -0.00000000  0.50000000  0.30211795  1
  Ir  Ir17  1  0.00000000  0.50000000  0.50152885  1
  Ir  Ir18  1  -0.00000000  0.50000000  0.69847115  1
  Ir  Ir19  1  0.00000000  0.50000000  0.89788205  1
  C  C20  1  0.50000000  0.50000000  0.28274712  1
  C  C21  1  0.50000000  0.50000000  0.49580440  1
  C  C22  1  0.50000000  0.50000000  0.70419560  1
  C  C23  1  0.50000000  0.50000000  0.91725288  1
