# generated using pymatgen
data_Ba2Co9O14
_symmetry_space_group_name_H-M   'P 1'
_cell_length_a   10.26967081
_cell_length_b   10.26967081
_cell_length_c   10.26967080
_cell_angle_alpha   32.51972186
_cell_angle_beta   32.51972185
_cell_angle_gamma   32.51972185
_symmetry_Int_Tables_number   1
_chemical_formula_structural   Ba2Co9O14
_chemical_formula_sum   'Ba2 Co9 O14'
_cell_volume   278.34545834
_cell_formula_units_Z   1
loop_
 _symmetry_equiv_pos_site_id
 _symmetry_equiv_pos_as_xyz
  1  'x, y, z'
loop_
 _atom_site_type_symbol
 _atom_site_label
 _atom_site_symmetry_multiplicity
 _atom_site_fract_x
 _atom_site_fract_y
 _atom_site_fract_z
 _atom_site_occupancy
  O  O0  1  0.84099173  0.39594035  0.39594035  1
  O  O1  1  0.39594035  0.39594035  0.84099173  1
  O  O2  1  0.39594035  0.84099173  0.39594035  1
  O  O3  1  0.60405965  0.60405965  0.15900827  1
  O  O4  1  0.60405965  0.15900827  0.60405965  1
  O  O5  1  0.15900827  0.60405965  0.60405965  1
  O  O6  1  0.29957122  0.29957122  0.29957122  1
  O  O7  1  0.70042878  0.70042878  0.70042878  1
  O  O8  1  0.78324003  0.78324003  0.32220872  1
  O  O9  1  0.78324003  0.32220872  0.78324003  1
  O  O10  1  0.32220872  0.78324003  0.78324003  1
  O  O11  1  0.21675997  0.67779128  0.21675997  1
  O  O12  1  0.21675997  0.21675997  0.67779128  1
  O  O13  1  0.67779128  0.21675997  0.21675997  1
  Co  Co14  1  0.23273457  0.23273457  0.23273457  1
  Co  Co15  1  0.76726543  0.76726543  0.76726543  1
  Co  Co16  1  0.58713843  0.58713843  0.58713843  1
  Co  Co17  1  0.41286157  0.41286157  0.41286157  1
  Co  Co18  1  0.50000000  0.50000000  0.50000000  1
  Co  Co19  1  0.50000000  0.00000000  0.50000000  1
  Co  Co20  1  0.00000000  0.50000000  0.50000000  1
  Co  Co21  1  0.50000000  0.50000000  0.00000000  1
  Co  Co22  1  0.00000000  0.00000000  0.00000000  1
  Ba  Ba23  1  0.88446090  0.88446090  0.88446090  1
  Ba  Ba24  1  0.11553910  0.11553910  0.11553910  1
