# generated using pymatgen
data_Sm2Zr2O7
_symmetry_space_group_name_H-M   'P 1'
_cell_length_a   7.60915563
_cell_length_b   7.58181190
_cell_length_c   30.18501824
_cell_angle_alpha   59.84400806
_cell_angle_beta   60.07957275
_cell_angle_gamma   60.11880448
_symmetry_Int_Tables_number   1
_chemical_formula_structural   Sm2Zr2O7
_chemical_formula_sum   'Sm16 Zr16 O56'
_cell_volume   1231.74034185
_cell_formula_units_Z   8
loop_
 _symmetry_equiv_pos_site_id
 _symmetry_equiv_pos_as_xyz
  1  'x, y, z'
loop_
 _atom_site_type_symbol
 _atom_site_label
 _atom_site_symmetry_multiplicity
 _atom_site_fract_x
 _atom_site_fract_y
 _atom_site_fract_z
 _atom_site_occupancy
  Sm  Sm0  1  0.12991437  0.10145271  0.16679555  1
  Sm  Sm1  1  0.64623209  0.12166150  0.15493638  1
  Sm  Sm2  1  0.63686954  0.62040890  0.03057816  1
  Sm  Sm3  1  0.12008563  0.14854729  0.39570445  1
  Sm  Sm4  1  0.64623209  0.61236089  0.15493638  1
  Sm  Sm5  1  0.60376791  0.12833850  0.40756362  1
  Sm  Sm6  1  0.62500000  0.62500000  0.28125000  1
  Sm  Sm7  1  0.60376791  0.63763911  0.40756362  1
  Sm  Sm8  1  0.12343341  0.62270549  0.65778865  1
  Sm  Sm9  1  0.62673199  0.12542425  0.65581742  1
  Sm  Sm10  1  0.61313046  0.62959110  0.53192184  1
  Sm  Sm11  1  0.62673199  0.62457508  0.65581742  1
  Sm  Sm12  1  0.12656659  0.62729451  0.90471135  1
  Sm  Sm13  1  0.62326801  0.12457575  0.90668258  1
  Sm  Sm14  1  0.62500000  0.62500000  0.78125000  1
  Sm  Sm15  1  0.62326801  0.62542492  0.90668258  1
  Zr  Zr16  1  0.12815419  0.12363908  0.03259727  1
  Zr  Zr17  1  0.12815419  0.61781962  0.03259727  1
  Zr  Zr18  1  0.62563664  0.11882454  0.03417832  1
  Zr  Zr19  1  0.12500000  0.12500000  0.28125000  1
  Zr  Zr20  1  0.13829209  0.63700070  0.14692688  1
  Zr  Zr21  1  0.12500000  0.62500000  0.28125000  1
  Zr  Zr22  1  0.62500000  0.12500000  0.28125000  1
  Zr  Zr23  1  0.12184581  0.12636092  0.52990273  1
  Zr  Zr24  1  0.11170791  0.61299930  0.41557312  1
  Zr  Zr25  1  0.12603193  0.12721885  0.65488260  1
  Zr  Zr26  1  0.12184581  0.63218038  0.52990273  1
  Zr  Zr27  1  0.62436336  0.13117546  0.52832168  1
  Zr  Zr28  1  0.12500000  0.12500000  0.78125000  1
  Zr  Zr29  1  0.12396807  0.12278115  0.90761740  1
  Zr  Zr30  1  0.12500000  0.62500000  0.78125000  1
  Zr  Zr31  1  0.62500000  0.12500000  0.78125000  1
  O  O32  1  0.03351493  0.02660396  0.11678821  1
  O  O33  1  0.04173530  0.45855336  0.01028924  1
  O  O34  1  0.03351493  0.47272927  0.11678821  1
  O  O35  1  0.46113308  0.03737717  0.01141137  1
  O  O36  1  0.18420163  0.31805254  0.19765403  1
  O  O37  1  0.48906810  0.01203107  0.12171744  1
  O  O38  1  0.46113308  0.45584627  0.01141137  1
  O  O39  1  0.21625730  0.77951858  0.05617663  1
  O  O40  1  0.06579837  0.93194746  0.36484597  1
  O  O41  1  0.07384704  0.34092717  0.31107490  1
  O  O42  1  0.18420163  0.70712972  0.19765403  1
  O  O43  1  0.06579837  0.54287028  0.36484597  1
  O  O44  1  0.79270823  0.21466326  0.05195614  1
  O  O45  1  0.46365020  0.01394017  0.26190995  1
  O  O46  1  0.49996132  0.50722142  0.12139921  1
  O  O47  1  0.21648507  0.22339604  0.44571179  1
  O  O48  1  0.49210427  0.02306101  0.36544343  1
  O  O49  1  0.46365020  0.47476883  0.26190995  1
  O  O50  1  0.17615296  0.90907283  0.25142510  1
  O  O51  1  0.79270823  0.78480297  0.05195614  1
  O  O52  1  0.75789573  0.22693899  0.19705657  1
  O  O53  1  0.03366408  0.04259190  0.61489651  1
  O  O54  1  0.03374270  0.47048142  0.50632337  1
  O  O55  1  0.21648507  0.77727073  0.44571179  1
  O  O56  1  0.03366408  0.46415898  0.61489651  1
  O  O57  1  0.78634980  0.23605983  0.30059005  1
  O  O58  1  0.79226556  0.73121472  0.18632650  1
  O  O59  1  0.45729177  0.03533674  0.51054386  1
  O  O60  1  0.45773444  0.51878528  0.37617350  1
  O  O61  1  0.21054650  0.21316633  0.69670374  1
  O  O62  1  0.20826470  0.79144664  0.55221076  1
  O  O63  1  0.45729177  0.46519703  0.51054386  1
  O  O64  1  0.45976854  0.04308536  0.61351494  1
  O  O65  1  0.78634980  0.77523117  0.30059005  1
  O  O66  1  0.03945350  0.03683367  0.86579626  1
  O  O67  1  0.76093190  0.23796893  0.44078256  1
  O  O68  1  0.03809379  0.46285394  0.75904958  1
  O  O69  1  0.21054650  0.78947119  0.69670374  1
  O  O70  1  0.03945350  0.46052881  0.86579626  1
  O  O71  1  0.78886692  0.21262283  0.55108863  1
  O  O72  1  0.75003868  0.74277858  0.44110079  1
  O  O73  1  0.46148673  0.03823164  0.75933210  1
  O  O74  1  0.49636872  0.49914874  0.62633370  1
  O  O75  1  0.21633592  0.20740810  0.94760349  1
  O  O76  1  0.46165300  0.03781553  0.86567849  1
  O  O77  1  0.46148673  0.46295322  0.75933210  1
  O  O78  1  0.21190621  0.78714606  0.80345042  1
  O  O79  1  0.78886692  0.79415373  0.55108863  1
  O  O80  1  0.78834700  0.21218447  0.69682151  1
  O  O81  1  0.21633592  0.78584102  0.94760349  1
  O  O82  1  0.78851327  0.21176836  0.80316790  1
  O  O83  1  0.74990553  0.75051415  0.68726704  1
  O  O84  1  0.50009447  0.49948585  0.87523296  1
  O  O85  1  0.78851327  0.78704678  0.80316790  1
  O  O86  1  0.79023146  0.20691464  0.94898506  1
  O  O87  1  0.75363128  0.75085126  0.93616630  1
