# generated using pymatgen
data_Cr(PO3)4
_symmetry_space_group_name_H-M   'P 1'
_cell_length_a   5.17251520
_cell_length_b   13.57206487
_cell_length_c   7.43954179
_cell_angle_alpha   90.00160673
_cell_angle_beta   100.34389585
_cell_angle_gamma   89.99794700
_symmetry_Int_Tables_number   1
_chemical_formula_structural   Cr(PO3)4
_chemical_formula_sum   'Cr2 P8 O24'
_cell_volume   513.78053633
_cell_formula_units_Z   2
loop_
 _symmetry_equiv_pos_site_id
 _symmetry_equiv_pos_as_xyz
  1  'x, y, z'
loop_
 _atom_site_type_symbol
 _atom_site_label
 _atom_site_symmetry_multiplicity
 _atom_site_fract_x
 _atom_site_fract_y
 _atom_site_fract_z
 _atom_site_occupancy
  O  O0  1  0.70316361  0.38884316  0.47606602  1
  O  O1  1  0.97228447  0.64803981  0.22941256  1
  O  O2  1  0.02772985  0.14802804  0.77057806  1
  O  O3  1  0.07296442  0.73153217  0.94935178  1
  O  O4  1  0.03282740  0.89152253  0.78071128  1
  O  O5  1  0.05388169  0.51621906  0.47246504  1
  O  O6  1  0.19559956  0.37405457  0.94192736  1
  O  O7  1  0.19536533  0.34461871  0.54216517  1
  O  O8  1  0.20458942  0.68600799  0.55590596  1
  O  O9  1  0.28924034  0.14501267  0.51191386  1
  O  O10  1  0.29684515  0.88884137  0.52392368  1
  O  O11  1  0.35831064  0.27404158  0.23611381  1
  O  O12  1  0.37355651  0.75907624  0.25114905  1
  O  O13  1  0.37375986  0.59297678  0.08949807  1
  O  O14  1  0.62626988  0.09299282  0.91047589  1
  O  O15  1  0.96717040  0.39153178  0.21926556  1
  O  O16  1  0.64171957  0.77404312  0.76390640  1
  O  O17  1  0.92706060  0.23152719  0.05065714  1
  O  O18  1  0.71072935  0.64501990  0.48807608  1
  O  O19  1  0.79541039  0.18600333  0.44408777  1
  O  O20  1  0.80461285  0.84461056  0.45782095  1
  O  O21  1  0.80436486  0.87408830  0.05811392  1
  O  O22  1  0.94612363  0.01621490  0.52749793  1
  O  O23  1  0.62643315  0.25906623  0.74886561  1
  P  P24  1  0.86716718  0.82215059  0.89848498  1
  P  P25  1  0.97564769  0.40405728  0.43381369  1
  P  P26  1  0.01892303  0.12948226  0.55670756  1
  P  P27  1  0.02432452  0.90405479  0.56617553  1
  P  P28  1  0.13287075  0.32214766  0.10150715  1
  P  P29  1  0.21749882  0.67864982  0.13009612  1
  P  P30  1  0.78251558  0.17863663  0.86990918  1
  P  P31  1  0.98106746  0.62948121  0.44327218  1
  Cr  Cr32  1  0.50349848  0.76741969  0.50708068  1
  Cr  Cr33  1  0.49647855  0.26744524  0.49300599  1
