# generated using pymatgen
data_Ba9(NbN6)2
_symmetry_space_group_name_H-M   'P 1'
_cell_length_a   8.16340569
_cell_length_b   9.83447730
_cell_length_c   12.88653175
_cell_angle_alpha   76.61447429
_cell_angle_beta   85.78826703
_cell_angle_gamma   88.06481658
_symmetry_Int_Tables_number   1
_chemical_formula_structural   Ba9(NbN6)2
_chemical_formula_sum   'Ba18 Nb4 N24'
_cell_volume   1003.59467170
_cell_formula_units_Z   2
loop_
 _symmetry_equiv_pos_site_id
 _symmetry_equiv_pos_as_xyz
  1  'x, y, z'
loop_
 _atom_site_type_symbol
 _atom_site_label
 _atom_site_symmetry_multiplicity
 _atom_site_fract_x
 _atom_site_fract_y
 _atom_site_fract_z
 _atom_site_occupancy
  Ba  Ba0  1  0.49422621  0.33733800  0.41556173  1
  Ba  Ba1  1  0.50577379  0.66266200  0.58443827  1
  Ba  Ba2  1  0.46691328  0.62096527  0.12631566  1
  Ba  Ba3  1  0.53308672  0.37903473  0.87368434  1
  Ba  Ba4  1  0.03282679  0.25203040  0.37316600  1
  Ba  Ba5  1  0.96717321  0.74796960  0.62683400  1
  Ba  Ba6  1  0.25851779  0.01886569  0.00267390  1
  Ba  Ba7  1  0.74148221  0.98113431  0.99732610  1
  Ba  Ba8  1  0.17013099  0.58776567  0.38025306  1
  Ba  Ba9  1  0.82986901  0.41223433  0.61974694  1
  Ba  Ba10  1  0.45876779  0.92183890  0.26539815  1
  Ba  Ba11  1  0.54123221  0.07816110  0.73460185  1
  Ba  Ba12  1  0.01348597  0.06576779  0.73433585  1
  Ba  Ba13  1  0.98651403  0.93423221  0.26566415  1
  Ba  Ba14  1  0.01188668  0.38049214  0.89141148  1
  Ba  Ba15  1  0.98811332  0.61950786  0.10858852  1
  Ba  Ba16  1  0.26656024  0.70107753  0.84947538  1
  Ba  Ba17  1  0.73343976  0.29892247  0.15052462  1
  Nb  Nb18  1  0.26730012  0.30128061  0.12163004  1
  Nb  Nb19  1  0.73269988  0.69871939  0.87836996  1
  Nb  Nb20  1  0.26911127  0.36249405  0.66073555  1
  Nb  Nb21  1  0.73088873  0.63750595  0.33926445  1
  N  N22  1  0.19814618  0.54451587  0.69630932  1
  N  N23  1  0.80185382  0.45548413  0.30369068  1
  N  N24  1  0.28312140  0.37393052  0.25344679  1
  N  N25  1  0.71687860  0.62606948  0.74655321  1
  N  N26  1  0.05907159  0.19973348  0.12523577  1
  N  N27  1  0.94092841  0.80026652  0.87476423  1
  N  N28  1  0.21700833  0.80601367  0.17807326  1
  N  N29  1  0.78299167  0.19398633  0.82192674  1
  N  N30  1  0.14422232  0.32279789  0.54439749  1
  N  N31  1  0.85577768  0.67720211  0.45560251  1
  N  N32  1  0.24695237  0.20702081  0.79056073  1
  N  N33  1  0.75304763  0.79297919  0.20943927  1
  N  N34  1  0.49578076  0.63173531  0.38217832  1
  N  N35  1  0.50421924  0.36826469  0.61782168  1
  N  N36  1  0.26391190  0.46944358  0.00324180  1
  N  N37  1  0.73608810  0.53055642  0.99675820  1
  N  N38  1  0.45571586  0.17439777  0.08944726  1
  N  N39  1  0.54428414  0.82560223  0.91055274  1
  N  N40  1  0.21275387  0.95841573  0.44338265  1
  N  N41  1  0.78724613  0.04158427  0.55661735  1
  N  N42  1  0.31432330  0.92238839  0.61644451  1
  N  N43  1  0.68567670  0.07761161  0.38355549  1
  N  N44  1  0.26577797  0.94217050  0.52922846  1
  N  N45  1  0.73422203  0.05782950  0.47077154  1
