# generated using pymatgen
data_SbP2O7
_symmetry_space_group_name_H-M   'P 1'
_cell_length_a   8.98044253
_cell_length_b   5.28243846
_cell_length_c   12.74953456
_cell_angle_alpha   90.00000000
_cell_angle_beta   102.72390738
_cell_angle_gamma   90.00000000
_symmetry_Int_Tables_number   1
_chemical_formula_structural   SbP2O7
_chemical_formula_sum   'Sb4 P8 O28'
_cell_volume   589.96777315
_cell_formula_units_Z   4
loop_
 _symmetry_equiv_pos_site_id
 _symmetry_equiv_pos_as_xyz
  1  'x, y, z'
loop_
 _atom_site_type_symbol
 _atom_site_label
 _atom_site_symmetry_multiplicity
 _atom_site_fract_x
 _atom_site_fract_y
 _atom_site_fract_z
 _atom_site_occupancy
  O  O0  1  0.09872455  0.01925795  0.85599939  1
  O  O1  1  0.15467146  0.54463337  0.86592916  1
  O  O2  1  0.08713720  0.66517390  0.61438758  1
  O  O3  1  0.09239727  0.95116625  0.40463371  1
  O  O4  1  0.08516689  0.27832770  0.25629463  1
  O  O5  1  0.06437384  0.28318670  0.05814070  1
  O  O6  1  0.20464312  0.38920553  0.44443449  1
  O  O7  1  0.41286280  0.16517390  0.88561242  1
  O  O8  1  0.34532854  0.04463337  0.63407084  1
  O  O9  1  0.40127545  0.51925795  0.64400061  1
  O  O10  1  0.29535688  0.88920553  0.05556551  1
  O  O11  1  0.43562616  0.78318670  0.44185930  1
  O  O12  1  0.59239727  0.54883375  0.90463371  1
  O  O13  1  0.41483311  0.77832770  0.24370537  1
  O  O14  1  0.58516689  0.22167230  0.75629463  1
  O  O15  1  0.40760273  0.45116625  0.09536629  1
  O  O16  1  0.56437384  0.21681330  0.55814070  1
  O  O17  1  0.70464312  0.11079447  0.94443449  1
  O  O18  1  0.59872455  0.48074205  0.35599939  1
  O  O19  1  0.65467146  0.95536663  0.36592916  1
  O  O20  1  0.58713720  0.83482610  0.11438758  1
  O  O21  1  0.79535688  0.61079447  0.55556551  1
  O  O22  1  0.93562616  0.71681330  0.94185930  1
  O  O23  1  0.91483311  0.72167230  0.74370537  1
  O  O24  1  0.90760273  0.04883375  0.59536629  1
  O  O25  1  0.91286280  0.33482610  0.38561242  1
  O  O26  1  0.84532854  0.45536663  0.13407084  1
  O  O27  1  0.90127545  0.98074205  0.14400061  1
  P  P28  1  0.03185558  0.75071604  0.85871113  1
  P  P29  1  0.07121448  0.23476398  0.37913624  1
  P  P30  1  0.46814442  0.25071604  0.64128887  1
  P  P31  1  0.57121448  0.26523602  0.87913624  1
  P  P32  1  0.42878552  0.73476398  0.12086376  1
  P  P33  1  0.53185558  0.74928396  0.35871113  1
  P  P34  1  0.92878552  0.76523602  0.62086376  1
  P  P35  1  0.96814442  0.24928396  0.14128887  1
  Sb  Sb36  1  0.24107109  0.23896004  0.97242346  1
  Sb  Sb37  1  0.25892891  0.73896004  0.52757654  1
  Sb  Sb38  1  0.74107109  0.26103996  0.47242346  1
  Sb  Sb39  1  0.75892891  0.76103996  0.02757654  1
