# generated using pymatgen
data_YCl
_symmetry_space_group_name_H-M   'P 1'
_cell_length_a   9.67953545
_cell_length_b   9.67953540
_cell_length_c   9.67953538
_cell_angle_alpha   22.42833307
_cell_angle_beta   22.42833366
_cell_angle_gamma   22.42833290
_symmetry_Int_Tables_number   1
_chemical_formula_structural   YCl
_chemical_formula_sum   'Y2 Cl2'
_cell_volume   115.78546260
_cell_formula_units_Z   2
loop_
 _symmetry_equiv_pos_site_id
 _symmetry_equiv_pos_as_xyz
  1  'x, y, z'
loop_
 _atom_site_type_symbol
 _atom_site_label
 _atom_site_symmetry_multiplicity
 _atom_site_fract_x
 _atom_site_fract_y
 _atom_site_fract_z
 _atom_site_occupancy
  Y  Y0  1  0.21640464  0.21640464  0.21640464  1
  Y  Y1  1  0.78359536  0.78359536  0.78359536  1
  Cl  Cl2  1  0.38919601  0.38919601  0.38919601  1
  Cl  Cl3  1  0.61080399  0.61080399  0.61080399  1
