# generated using pymatgen
data_Hf3(Bi5Cl9)2
_symmetry_space_group_name_H-M   'P 1'
_cell_length_a   14.23279699
_cell_length_b   14.23279712
_cell_length_c   11.16521043
_cell_angle_alpha   90.00000000
_cell_angle_beta   90.00000000
_cell_angle_gamma   119.99999973
_symmetry_Int_Tables_number   1
_chemical_formula_structural   Hf3(Bi5Cl9)2
_chemical_formula_sum   'Hf6 Bi20 Cl36'
_cell_volume   1958.74571340
_cell_formula_units_Z   2
loop_
 _symmetry_equiv_pos_site_id
 _symmetry_equiv_pos_as_xyz
  1  'x, y, z'
loop_
 _atom_site_type_symbol
 _atom_site_label
 _atom_site_symmetry_multiplicity
 _atom_site_fract_x
 _atom_site_fract_y
 _atom_site_fract_z
 _atom_site_occupancy
  Bi  Bi0  1  0.00000000  0.00000000  0.88118090  1
  Bi  Bi1  1  0.22509419  0.70256218  0.57005253  1
  Bi  Bi2  1  0.22226088  0.70091268  0.92601526  1
  Bi  Bi3  1  0.12012159  0.50321975  0.75068393  1
  Bi  Bi4  1  0.38309816  0.87987841  0.75068393  1
  Bi  Bi5  1  0.00000000  0.00000000  0.38118090  1
  Bi  Bi6  1  0.29908732  0.52134820  0.92601526  1
  Bi  Bi7  1  0.29743782  0.52253201  0.57005253  1
  Bi  Bi8  1  0.47865180  0.77773912  0.92601526  1
  Bi  Bi9  1  0.47746799  0.77490581  0.57005253  1
  Bi  Bi10  1  0.49678025  0.61690184  0.75068393  1
  Bi  Bi11  1  0.50321975  0.38309816  0.25068393  1
  Bi  Bi12  1  0.52253201  0.22509419  0.07005253  1
  Bi  Bi13  1  0.52134820  0.22226088  0.42601526  1
  Bi  Bi14  1  0.70091268  0.47865180  0.42601526  1
  Bi  Bi15  1  0.70256218  0.47746799  0.07005253  1
  Bi  Bi16  1  0.61690184  0.12012159  0.25068393  1
  Bi  Bi17  1  0.87987841  0.49678025  0.25068393  1
  Bi  Bi18  1  0.77490581  0.29743782  0.07005253  1
  Bi  Bi19  1  0.77773912  0.29908732  0.42601526  1
  Cl  Cl20  1  0.07986335  0.81224875  0.74040231  1
  Cl  Cl21  1  0.09168053  0.83532574  0.08817106  1
  Cl  Cl22  1  0.07726163  0.85819467  0.39767051  1
  Cl  Cl23  1  0.07027134  0.43838765  0.09740896  1
  Cl  Cl24  1  0.06354295  0.41903503  0.41481779  1
  Cl  Cl25  1  0.17791900  0.70269322  0.27617085  1
  Cl  Cl26  1  0.36811631  0.92972866  0.09740896  1
  Cl  Cl27  1  0.35549208  0.93645705  0.41481779  1
  Cl  Cl28  1  0.16467426  0.25635479  0.08817106  1
  Cl  Cl29  1  0.14180533  0.21906696  0.39767051  1
  Cl  Cl30  1  0.29730678  0.47522578  0.27617085  1
  Cl  Cl31  1  0.18775125  0.26761460  0.74040231  1
  Cl  Cl32  1  0.52477422  0.82208100  0.27617085  1
  Cl  Cl33  1  0.25635479  0.09168053  0.58817106  1
  Cl  Cl34  1  0.21906696  0.07726163  0.89767051  1
  Cl  Cl35  1  0.26761460  0.07986335  0.24040231  1
  Cl  Cl36  1  0.56161235  0.63188369  0.09740896  1
  Cl  Cl37  1  0.58096497  0.64450792  0.41481779  1
  Cl  Cl38  1  0.43838765  0.36811631  0.59740896  1
  Cl  Cl39  1  0.41903503  0.35549208  0.91481779  1
  Cl  Cl40  1  0.73238540  0.92013665  0.74040231  1
  Cl  Cl41  1  0.74364521  0.90831947  0.08817106  1
  Cl  Cl42  1  0.78093304  0.92273837  0.39767051  1
  Cl  Cl43  1  0.47522578  0.17791900  0.77617085  1
  Cl  Cl44  1  0.81224875  0.73238540  0.24040231  1
  Cl  Cl45  1  0.70269322  0.52477422  0.77617085  1
  Cl  Cl46  1  0.83532574  0.74364521  0.58817106  1
  Cl  Cl47  1  0.85819467  0.78093304  0.89767051  1
  Cl  Cl48  1  0.63188369  0.07027134  0.59740896  1
  Cl  Cl49  1  0.64450792  0.06354295  0.91481779  1
  Cl  Cl50  1  0.82208100  0.29730678  0.77617085  1
  Cl  Cl51  1  0.92972866  0.56161235  0.59740896  1
  Cl  Cl52  1  0.93645705  0.58096497  0.91481779  1
  Cl  Cl53  1  0.90831947  0.16467426  0.58817106  1
  Cl  Cl54  1  0.92273837  0.14180533  0.89767051  1
  Cl  Cl55  1  0.92013665  0.18775125  0.24040231  1
  Hf  Hf56  1  0.22376818  0.89155450  0.24351317  1
  Hf  Hf57  1  0.10844550  0.33221368  0.24351317  1
  Hf  Hf58  1  0.33221368  0.22376818  0.74351317  1
  Hf  Hf59  1  0.66778632  0.77623182  0.24351317  1
  Hf  Hf60  1  0.89155450  0.66778632  0.74351317  1
  Hf  Hf61  1  0.77623182  0.10844550  0.74351317  1
