# generated using pymatgen
data_Fe(PO3)4
_symmetry_space_group_name_H-M   'P 1'
_cell_length_a   13.08047875
_cell_length_b   8.38355100
_cell_length_c   9.41193165
_cell_angle_alpha   90.00000000
_cell_angle_beta   90.00000000
_cell_angle_gamma   90.00000000
_symmetry_Int_Tables_number   1
_chemical_formula_structural   Fe(PO3)4
_chemical_formula_sum   'Fe4 P16 O48'
_cell_volume   1032.12052564
_cell_formula_units_Z   4
loop_
 _symmetry_equiv_pos_site_id
 _symmetry_equiv_pos_as_xyz
  1  'x, y, z'
loop_
 _atom_site_type_symbol
 _atom_site_label
 _atom_site_symmetry_multiplicity
 _atom_site_fract_x
 _atom_site_fract_y
 _atom_site_fract_z
 _atom_site_occupancy
  Fe  Fe0  1  0.00000000  0.36314713  0.75000000  1
  Fe  Fe1  1  0.00000000  0.63685287  0.25000000  1
  Fe  Fe2  1  0.50000000  0.13685287  0.25000000  1
  Fe  Fe3  1  0.50000000  0.86314713  0.75000000  1
  O  O4  1  0.06970444  0.19589295  0.63335448  1
  O  O5  1  0.06970444  0.80410705  0.13335448  1
  O  O6  1  0.06903092  0.46907260  0.13228361  1
  O  O7  1  0.06903092  0.53092740  0.63228361  1
  O  O8  1  0.11589724  0.09398470  0.38715074  1
  O  O9  1  0.11589724  0.90601530  0.88715074  1
  O  O10  1  0.12158589  0.36820986  0.88400523  1
  O  O11  1  0.12158589  0.63179014  0.38400523  1
  O  O12  1  0.18532089  0.36366444  0.47231220  1
  O  O13  1  0.18532089  0.63633556  0.97231220  1
  O  O14  1  0.25116688  0.11574443  0.58527268  1
  O  O15  1  0.25116688  0.88425557  0.08527168  1
  O  O16  1  0.24883312  0.38425557  0.08527168  1
  O  O17  1  0.24883312  0.61574443  0.58527268  1
  O  O18  1  0.31467911  0.13633556  0.97231220  1
  O  O19  1  0.31467911  0.86366444  0.47231220  1
  O  O20  1  0.37841411  0.13179014  0.38400523  1
  O  O21  1  0.37841411  0.86820986  0.88400523  1
  O  O22  1  0.38410276  0.40601530  0.88715074  1
  O  O23  1  0.38410276  0.59398470  0.38715074  1
  O  O24  1  0.43096908  0.03092740  0.63228361  1
  O  O25  1  0.43096908  0.96907260  0.13228361  1
  O  O26  1  0.43029556  0.30410705  0.13335448  1
  O  O27  1  0.43029556  0.69589295  0.63335448  1
  O  O28  1  0.56970444  0.30410705  0.36664552  1
  O  O29  1  0.56970444  0.69589295  0.86664552  1
  O  O30  1  0.56903092  0.03092740  0.86771639  1
  O  O31  1  0.56903092  0.96907260  0.36771639  1
  O  O32  1  0.61589724  0.40601530  0.61284926  1
  O  O33  1  0.61589724  0.59398470  0.11284926  1
  O  O34  1  0.62158589  0.13179014  0.11599477  1
  O  O35  1  0.62158589  0.86820986  0.61599477  1
  O  O36  1  0.68532089  0.13633556  0.52768780  1
  O  O37  1  0.68532089  0.86366444  0.02768780  1
  O  O38  1  0.75116688  0.38425557  0.41472732  1
  O  O39  1  0.75116688  0.61574443  0.91472732  1
  O  O40  1  0.74883312  0.11574443  0.91472732  1
  O  O41  1  0.74883312  0.88425557  0.41472732  1
  O  O42  1  0.81467911  0.36366444  0.02768780  1
  O  O43  1  0.81467911  0.63633556  0.52768780  1
  O  O44  1  0.87841411  0.36820986  0.61599477  1
  O  O45  1  0.87841411  0.63179014  0.11599477  1
  O  O46  1  0.88410276  0.09398470  0.11284926  1
  O  O47  1  0.88410276  0.90601530  0.61284926  1
  O  O48  1  0.93096908  0.46907260  0.36771639  1
  O  O49  1  0.93096908  0.53092740  0.86771639  1
  O  O50  1  0.93029556  0.19589295  0.86664552  1
  O  O51  1  0.93029556  0.80410705  0.36664552  1
  P  P52  1  0.14814713  0.18678868  0.51556709  1
  P  P53  1  0.14814713  0.81321132  0.01556709  1
  P  P54  1  0.14786225  0.46015129  0.01606565  1
  P  P55  1  0.14786225  0.53984871  0.51606565  1
  P  P56  1  0.35213775  0.03984871  0.51606565  1
  P  P57  1  0.35213775  0.96015129  0.01606565  1
  P  P58  1  0.35185287  0.31321132  0.01556709  1
  P  P59  1  0.35185287  0.68678868  0.51556709  1
  P  P60  1  0.64814713  0.31321132  0.48443291  1
  P  P61  1  0.64814713  0.68678868  0.98443291  1
  P  P62  1  0.64786225  0.03984871  0.98393435  1
  P  P63  1  0.64786225  0.96015129  0.48393435  1
  P  P64  1  0.85213775  0.46015129  0.48393435  1
  P  P65  1  0.85213775  0.53984871  0.98393435  1
  P  P66  1  0.85185287  0.18678868  0.98443291  1
  P  P67  1  0.85185287  0.81321132  0.48443291  1
