# generated using pymatgen
data_Li3Cr(PO3)8
_symmetry_space_group_name_H-M   'P 1'
_cell_length_a   7.28669035
_cell_length_b   7.28669013
_cell_length_c   9.79529912
_cell_angle_alpha   70.11734499
_cell_angle_beta   81.32217612
_cell_angle_gamma   109.87676724
_symmetry_Int_Tables_number   1
_chemical_formula_structural   Li3Cr(PO3)8
_chemical_formula_sum   'Li3 Cr1 P8 O24'
_cell_volume   438.56856260
_cell_formula_units_Z   1
loop_
 _symmetry_equiv_pos_site_id
 _symmetry_equiv_pos_as_xyz
  1  'x, y, z'
loop_
 _atom_site_type_symbol
 _atom_site_label
 _atom_site_symmetry_multiplicity
 _atom_site_fract_x
 _atom_site_fract_y
 _atom_site_fract_z
 _atom_site_occupancy
  Li  Li0  1  0.05218419  0.80218419  0.75000000  1
  Li  Li1  1  0.48633509  0.99699949  0.50716688  1
  Li  Li2  1  0.00416637  0.99350197  0.99283312  1
  Cr  Cr3  1  0.94798044  0.19798044  0.25000000  1
  P  P4  1  0.26360447  0.72995587  0.02852329  1
  P  P5  1  0.68646637  0.99087485  0.80957835  1
  P  P6  1  0.25847916  0.29212676  0.47147671  1
  P  P7  1  0.30375894  0.00385814  0.20386011  1
  P  P8  1  0.30045320  0.49604472  0.69042165  1
  P  P9  1  0.75275366  0.70616695  0.51894371  1
  P  P10  1  0.72511066  0.27169837  0.98105629  1
  P  P11  1  0.70771825  0.50761906  0.29613989  1
  O  O12  1  0.11656792  0.04879614  0.18792934  1
  O  O13  1  0.91980309  0.74491232  0.59024387  1
  O  O14  1  0.54005288  0.54734638  0.65073621  1
  O  O15  1  0.15664324  0.48817342  0.09718241  1
  O  O16  1  0.08535583  0.25382566  0.40281759  1
  O  O17  1  0.73324106  0.90265297  0.41056986  1
  O  O18  1  0.23307146  0.44466253  0.55347562  1
  O  O19  1  0.46686286  0.45306912  0.33181754  1
  O  O20  1  0.81322283  0.14381092  0.08943014  1
  O  O21  1  0.81453483  0.70244632  0.15090252  1
  O  O22  1  0.48971446  0.20543601  0.06360517  1
  O  O23  1  0.28736319  0.10938953  0.57849438  1
  O  O24  1  0.18788391  0.86585757  0.92150562  1
  O  O25  1  0.35334884  0.96543735  0.34909748  1
  O  O26  1  0.83515618  0.51004696  0.90975613  1
  O  O27  1  0.27607693  0.69614012  0.68069543  1
  O  O28  1  0.87683555  0.95677235  0.81930457  1
  O  O29  1  0.64534993  0.03377432  0.65925483  1
  O  O30  1  0.73672648  0.30449726  0.31207066  1
  O  O31  1  0.19302916  0.30460477  0.84074517  1
  O  O32  1  0.76904118  0.55332063  0.43639483  1
  O  O33  1  0.69808259  0.19078909  0.84926379  1
  O  O34  1  0.49813815  0.78654608  0.94652438  1
  O  O35  1  0.28488666  0.79868040  0.16818246  1
