# generated using pymatgen
data_Fe(PO3)4
_symmetry_space_group_name_H-M   'P 1'
_cell_length_a   7.47949729
_cell_length_b   8.54680466
_cell_length_c   9.19392663
_cell_angle_alpha   67.29839609
_cell_angle_beta   66.00779465
_cell_angle_gamma   64.05317538
_symmetry_Int_Tables_number   1
_chemical_formula_structural   Fe(PO3)4
_chemical_formula_sum   'Fe2 P8 O24'
_cell_volume   467.08944923
_cell_formula_units_Z   2
loop_
 _symmetry_equiv_pos_site_id
 _symmetry_equiv_pos_as_xyz
  1  'x, y, z'
loop_
 _atom_site_type_symbol
 _atom_site_label
 _atom_site_symmetry_multiplicity
 _atom_site_fract_x
 _atom_site_fract_y
 _atom_site_fract_z
 _atom_site_occupancy
  O  O0  1  0.20938127  0.54813759  0.74633303  1
  O  O1  1  0.16224365  0.28071963  0.20445806  1
  O  O2  1  0.83775735  0.71928137  0.79554094  1
  O  O3  1  0.87313701  0.92914430  0.22414825  1
  O  O4  1  0.02673961  0.57070980  0.27582121  1
  O  O5  1  0.50406836  0.95150461  0.75365024  1
  O  O6  1  0.73995267  0.20573255  0.00080197  1
  O  O7  1  0.94663054  0.29418842  0.49912057  1
  O  O8  1  0.57283398  0.44778890  0.76226248  1
  O  O9  1  0.78269977  0.05235820  0.73769275  1
  O  O10  1  0.79061873  0.45186141  0.25366697  1
  O  O11  1  0.35203822  0.78075070  0.70462211  1
  O  O12  1  0.61330204  0.86150478  0.01753576  1
  O  O13  1  0.49214274  0.63857241  0.48249444  1
  O  O14  1  0.50785926  0.36142759  0.51750556  1
  O  O15  1  0.97326039  0.42929120  0.72417779  1
  O  O16  1  0.64796278  0.21925030  0.29537789  1
  O  O17  1  0.12686499  0.07085570  0.77585175  1
  O  O18  1  0.21730123  0.94764080  0.26230625  1
  O  O19  1  0.42716702  0.55221110  0.23773752  1
  O  O20  1  0.05337046  0.70581158  0.50087843  1
  O  O21  1  0.26004833  0.79426745  0.99919803  1
  O  O22  1  0.49593164  0.04849539  0.24634976  1
  O  O23  1  0.38669696  0.13849622  0.98246424  1
  P  P24  1  0.70562180  0.09790584  0.17618179  1
  P  P25  1  0.02025136  0.59789928  0.67622947  1
  P  P26  1  0.68364897  0.90988952  0.82899731  1
  P  P27  1  0.97974864  0.40210072  0.32377053  1
  P  P28  1  0.29437720  0.90209516  0.82381721  1
  P  P29  1  0.42243387  0.59010833  0.67103286  1
  P  P30  1  0.57756613  0.40989067  0.32896714  1
  P  P31  1  0.31635103  0.09011048  0.17100269  1
  Fe  Fe32  1  0.14744304  0.74999838  0.25001963  1
  Fe  Fe33  1  0.85255796  0.25000062  0.74998037  1
