# generated using pymatgen
data_FeP2O7
_symmetry_space_group_name_H-M   'P 1'
_cell_length_a   12.66866730
_cell_length_b   5.15270197
_cell_length_c   8.74553748
_cell_angle_alpha   90.00000000
_cell_angle_beta   102.98095754
_cell_angle_gamma   90.00000000
_symmetry_Int_Tables_number   1
_chemical_formula_structural   FeP2O7
_chemical_formula_sum   'Fe4 P8 O28'
_cell_volume   556.30080843
_cell_formula_units_Z   4
loop_
 _symmetry_equiv_pos_site_id
 _symmetry_equiv_pos_as_xyz
  1  'x, y, z'
loop_
 _atom_site_type_symbol
 _atom_site_label
 _atom_site_symmetry_multiplicity
 _atom_site_fract_x
 _atom_site_fract_y
 _atom_site_fract_z
 _atom_site_occupancy
  Fe  Fe0  1  0.02524193  0.25428259  0.25819060  1
  Fe  Fe1  1  0.52524193  0.24571741  0.75819060  1
  Fe  Fe2  1  0.47475807  0.75428259  0.24180940  1
  Fe  Fe3  1  0.97475807  0.74571741  0.74180940  1
  O  O4  1  0.05992872  0.06746907  0.80700634  1
  O  O5  1  0.08403869  0.53483572  0.89337160  1
  O  O6  1  0.06276066  0.68470445  0.58083924  1
  O  O7  1  0.12732747  0.03793291  0.41820317  1
  O  O8  1  0.12061826  0.56080303  0.33692794  1
  O  O9  1  0.11238237  0.18273019  0.09941437  1
  O  O10  1  0.24315201  0.22528096  0.92111567  1
  O  O11  1  0.25684799  0.72528096  0.57888433  1
  O  O12  1  0.43723934  0.18470445  0.91916076  1
  O  O13  1  0.41596231  0.03483572  0.60662840  1
  O  O14  1  0.38761763  0.68273019  0.40058563  1
  O  O15  1  0.44007128  0.56746907  0.69299366  1
  O  O16  1  0.37938174  0.06080303  0.16307206  1
  O  O17  1  0.37267253  0.53793291  0.08179683  1
  O  O18  1  0.62732747  0.46206709  0.91820317  1
  O  O19  1  0.62061826  0.93919697  0.83692794  1
  O  O20  1  0.55992872  0.43253093  0.30700634  1
  O  O21  1  0.61238237  0.31726981  0.59941437  1
  O  O22  1  0.58403769  0.96516428  0.39337160  1
  O  O23  1  0.56276066  0.81529555  0.08084024  1
  O  O24  1  0.74315201  0.27471904  0.42111567  1
  O  O25  1  0.75684799  0.77471904  0.07888433  1
  O  O26  1  0.88761763  0.81726981  0.90058563  1
  O  O27  1  0.87938174  0.43919697  0.66307206  1
  O  O28  1  0.87267253  0.96206709  0.58179683  1
  O  O29  1  0.93723934  0.31529555  0.41916076  1
  O  O30  1  0.91596231  0.46516428  0.10662840  1
  O  O31  1  0.94007128  0.93253093  0.19299366  1
  P  P32  1  0.11875377  0.25386286  0.93234536  1
  P  P33  1  0.13707564  0.75544442  0.47164334  1
  P  P34  1  0.38124623  0.75386286  0.56765464  1
  P  P35  1  0.36292436  0.25544442  0.02835666  1
  P  P36  1  0.63707564  0.74455558  0.97164334  1
  P  P37  1  0.61875377  0.24613714  0.43234536  1
  P  P38  1  0.86292436  0.24455558  0.52835666  1
  P  P39  1  0.88124623  0.74613714  0.06765464  1
