# generated using pymatgen
data_As2S3(NF6)2
_symmetry_space_group_name_H-M   'P 1'
_cell_length_a   7.69953320
_cell_length_b   7.69953264
_cell_length_c   10.89052611
_cell_angle_alpha   88.09652715
_cell_angle_beta   88.09652729
_cell_angle_gamma   67.90745739
_symmetry_Int_Tables_number   1
_chemical_formula_structural   As2S3(NF6)2
_chemical_formula_sum   'As4 S6 N4 F24'
_cell_volume   597.73810102
_cell_formula_units_Z   2
loop_
 _symmetry_equiv_pos_site_id
 _symmetry_equiv_pos_as_xyz
  1  'x, y, z'
loop_
 _atom_site_type_symbol
 _atom_site_label
 _atom_site_symmetry_multiplicity
 _atom_site_fract_x
 _atom_site_fract_y
 _atom_site_fract_z
 _atom_site_occupancy
  S  S0  1  0.82006380  0.46877153  0.74396630  1
  S  S1  1  0.53122847  0.17993620  0.25603370  1
  S  S2  1  0.15952293  0.25071633  0.84768589  1
  S  S3  1  0.74928367  0.84047707  0.15231411  1
  S  S4  1  0.17284327  0.25520889  0.65042094  1
  S  S5  1  0.74479111  0.82715673  0.34957906  1
  N  N6  1  0.94993470  0.38169233  0.86041171  1
  N  N7  1  0.61830767  0.05006530  0.13958829  1
  N  N8  1  0.96530743  0.38725162  0.63161892  1
  N  N9  1  0.61274838  0.03469257  0.36838108  1
  As  As10  1  0.71162849  0.01718788  0.74861278  1
  As  As11  1  0.98281212  0.28837151  0.25138722  1
  F  F12  1  0.77461535  0.83632717  0.86341484  1
  F  F13  1  0.16367283  0.22538465  0.13658516  1
  F  F14  1  0.64127359  0.19479319  0.63327751  1
  F  F15  1  0.80520681  0.35872641  0.36672249  1
  F  F16  1  0.93958786  0.02107369  0.74298402  1
  F  F17  1  0.97892631  0.06041214  0.25701598  1
  F  F18  1  0.77380808  0.84210158  0.63519781  1
  F  F19  1  0.15789842  0.22619192  0.36480219  1
  F  F20  1  0.47502022  0.01933473  0.75283851  1
  F  F21  1  0.98066527  0.52497978  0.24716149  1
  F  F22  1  0.64290982  0.18737759  0.86389367  1
  F  F23  1  0.81262241  0.35709018  0.13610633  1
  As  As24  1  0.33221631  0.66778369  0.50000000  1
  F  F25  1  0.55935788  0.60447020  0.56188609  1
  F  F26  1  0.39552980  0.44064212  0.43811391  1
  F  F27  1  0.26739903  0.89371696  0.56234328  1
  F  F28  1  0.10628304  0.73260097  0.43765672  1
  F  F29  1  0.25406034  0.58465455  0.63669824  1
  F  F30  1  0.41534545  0.74593966  0.36330176  1
  As  As31  1  0.32469340  0.67530660  1.00000000  1
  F  F32  1  0.53082548  0.59203317  0.90676687  1
  F  F33  1  0.40796683  0.46917452  0.09323313  1
  F  F34  1  0.21473909  0.56561067  0.90453378  1
  F  F35  1  0.43438933  0.78526091  0.09546622  1
  F  F36  1  0.23862220  0.88200719  0.90708806  1
  F  F37  1  0.11799281  0.76137780  0.09291194  1
