# generated using pymatgen
data_BiS4N3Cl4
_symmetry_space_group_name_H-M   'P 1'
_cell_length_a   7.62405558
_cell_length_b   9.90876068
_cell_length_c   9.63878068
_cell_angle_alpha   66.17610470
_cell_angle_beta   85.31543249
_cell_angle_gamma   76.77281021
_symmetry_Int_Tables_number   1
_chemical_formula_structural   BiS4N3Cl4
_chemical_formula_sum   'Bi2 S8 N6 Cl8'
_cell_volume   648.39642093
_cell_formula_units_Z   2
loop_
 _symmetry_equiv_pos_site_id
 _symmetry_equiv_pos_as_xyz
  1  'x, y, z'
loop_
 _atom_site_type_symbol
 _atom_site_label
 _atom_site_symmetry_multiplicity
 _atom_site_fract_x
 _atom_site_fract_y
 _atom_site_fract_z
 _atom_site_occupancy
  Bi  Bi0  1  0.74637365  0.03936785  0.88079965  1
  Bi  Bi1  1  0.25362635  0.96063215  0.11920035  1
  S  S2  1  0.25673721  0.46494348  0.09349176  1
  S  S3  1  0.52124306  0.34882055  0.34358362  1
  S  S4  1  0.80686697  0.71180475  0.46412209  1
  S  S5  1  0.74326279  0.53505652  0.90650824  1
  S  S6  1  0.00261886  0.37143631  0.35510903  1
  S  S7  1  0.19313303  0.28819525  0.53587791  1
  S  S8  1  0.99738114  0.62856369  0.64489097  1
  S  S9  1  0.47875694  0.65117945  0.65641638  1
  N  N10  1  0.55479894  0.57778308  0.82486935  1
  N  N11  1  0.91044597  0.56700816  0.80560827  1
  N  N12  1  0.38595961  0.30434542  0.47375502  1
  N  N13  1  0.61404039  0.69565458  0.52624498  1
  N  N14  1  0.44520106  0.42221692  0.17513065  1
  N  N15  1  0.08955403  0.43299184  0.19439173  1
  Cl  Cl16  1  0.08628957  0.88426216  0.88932568  1
  Cl  Cl17  1  0.61666541  0.79989295  0.11011451  1
  Cl  Cl18  1  0.34356149  0.04847003  0.31233803  1
  Cl  Cl19  1  0.38333459  0.20010705  0.88988549  1
  Cl  Cl20  1  0.91371043  0.11573784  0.11067432  1
  Cl  Cl21  1  0.18776542  0.70444211  0.34119582  1
  Cl  Cl22  1  0.65643851  0.95152997  0.68766197  1
  Cl  Cl23  1  0.81223458  0.29555789  0.65880418  1
