# generated using pymatgen
data_FeS3N2Cl5
_symmetry_space_group_name_H-M   'P 1'
_cell_length_a   9.57696919
_cell_length_b   10.89676989
_cell_length_c   11.71876676
_cell_angle_alpha   90.00000000
_cell_angle_beta   91.67915095
_cell_angle_gamma   90.00000000
_symmetry_Int_Tables_number   1
_chemical_formula_structural   FeS3N2Cl5
_chemical_formula_sum   'Fe4 S12 N8 Cl20'
_cell_volume   1222.42226050
_cell_formula_units_Z   4
loop_
 _symmetry_equiv_pos_site_id
 _symmetry_equiv_pos_as_xyz
  1  'x, y, z'
loop_
 _atom_site_type_symbol
 _atom_site_label
 _atom_site_symmetry_multiplicity
 _atom_site_fract_x
 _atom_site_fract_y
 _atom_site_fract_z
 _atom_site_occupancy
  Fe  Fe0  1  0.47350895  0.36574799  0.69137179  1
  Fe  Fe1  1  0.02649105  0.86574799  0.80862821  1
  Fe  Fe2  1  0.52649105  0.63425201  0.30862821  1
  Fe  Fe3  1  0.97350895  0.13425201  0.19137179  1
  S  S4  1  0.94416144  0.23531092  0.61242890  1
  S  S5  1  0.55583856  0.73531092  0.88757110  1
  S  S6  1  0.96021785  0.25196507  0.80471763  1
  S  S7  1  0.46021785  0.24803493  0.30471763  1
  S  S8  1  0.03978215  0.74803493  0.19528237  1
  S  S9  1  0.05583856  0.76468908  0.38757110  1
  S  S10  1  0.51509128  0.03104278  0.19142583  1
  S  S11  1  0.44416144  0.26468908  0.11242890  1
  S  S12  1  0.01509128  0.46895722  0.69142583  1
  S  S13  1  0.53978215  0.75196507  0.69528237  1
  S  S14  1  0.98490872  0.53104278  0.30857417  1
  S  S15  1  0.48490872  0.96895722  0.80857417  1
  N  N16  1  0.03982862  0.62273640  0.40963478  1
  N  N17  1  0.00692292  0.39161979  0.80365504  1
  N  N18  1  0.53982862  0.87726360  0.90963478  1
  N  N19  1  0.96017138  0.37726360  0.59036522  1
  N  N20  1  0.50692292  0.10838021  0.30365504  1
  N  N21  1  0.99307708  0.60838021  0.19634496  1
  N  N22  1  0.49307708  0.89161979  0.69634496  1
  N  N23  1  0.46017138  0.12273640  0.09036522  1
  Cl  Cl24  1  0.63645355  0.35218307  0.08023064  1
  Cl  Cl25  1  0.67177962  0.52775602  0.41882151  1
  Cl  Cl26  1  0.82822038  0.02775602  0.08117849  1
  Cl  Cl27  1  0.93654867  0.70999867  0.90152401  1
  Cl  Cl28  1  0.14589653  0.01192806  0.25627015  1
  Cl  Cl29  1  0.14156467  0.79428965  0.66289395  1
  Cl  Cl30  1  0.64589653  0.48807194  0.75627015  1
  Cl  Cl31  1  0.85843533  0.20571035  0.33710605  1
  Cl  Cl32  1  0.32822038  0.47224398  0.58117849  1
  Cl  Cl33  1  0.06345133  0.29000133  0.09847599  1
  Cl  Cl34  1  0.64156467  0.70571035  0.16289395  1
  Cl  Cl35  1  0.35843533  0.29428965  0.83710605  1
  Cl  Cl36  1  0.13645355  0.14781693  0.58023064  1
  Cl  Cl37  1  0.85410347  0.98807194  0.74372985  1
  Cl  Cl38  1  0.56345133  0.20999867  0.59847599  1
  Cl  Cl39  1  0.43654867  0.79000133  0.40152401  1
  Cl  Cl40  1  0.36354645  0.64781693  0.91976936  1
  Cl  Cl41  1  0.86354645  0.85218307  0.41976936  1
  Cl  Cl42  1  0.35410347  0.51192806  0.24372985  1
  Cl  Cl43  1  0.17177962  0.97224398  0.91882151  1
