# generated using pymatgen
data_H16C3NF7
_symmetry_space_group_name_H-M   'P 1'
_cell_length_a   10.05749380
_cell_length_b   10.05749398
_cell_length_c   6.05895705
_cell_angle_alpha   90.00000000
_cell_angle_beta   90.00000000
_cell_angle_gamma   119.99999939
_symmetry_Int_Tables_number   1
_chemical_formula_structural   H16C3NF7
_chemical_formula_sum   'H32 C6 N2 F14'
_cell_volume   530.77207195
_cell_formula_units_Z   2
loop_
 _symmetry_equiv_pos_site_id
 _symmetry_equiv_pos_as_xyz
  1  'x, y, z'
loop_
 _atom_site_type_symbol
 _atom_site_label
 _atom_site_symmetry_multiplicity
 _atom_site_fract_x
 _atom_site_fract_y
 _atom_site_fract_z
 _atom_site_occupancy
  H  H0  1  0.85567863  0.97959113  0.97034468  1
  H  H1  1  0.81146130  0.61627705  0.42843319  1
  H  H2  1  0.19518425  0.81146130  0.92843319  1
  H  H3  1  0.80481575  0.18853870  0.42843319  1
  H  H4  1  0.90699247  0.48189813  0.00957058  1
  H  H5  1  0.38372295  0.19518425  0.42843319  1
  H  H6  1  0.33333300  0.66666700  0.68380951  1
  H  H7  1  0.14432137  0.02040887  0.47034468  1
  H  H8  1  0.97959113  0.12391249  0.47034468  1
  H  H9  1  0.51810187  0.42509434  0.00957058  1
  H  H10  1  0.15443300  0.71903334  0.49490536  1
  H  H11  1  0.28096666  0.43539966  0.49490536  1
  H  H12  1  0.82667594  0.37792577  0.75791022  1
  H  H13  1  0.57490566  0.09300753  0.00957058  1
  H  H14  1  0.48189813  0.57490566  0.50957058  1
  H  H15  1  0.02040887  0.87608751  0.97034468  1
  H  H16  1  0.42509434  0.90699247  0.50957058  1
  H  H17  1  0.71903334  0.56460034  0.99490536  1
  H  H18  1  0.18853870  0.38372295  0.92843319  1
  H  H19  1  0.66666700  0.33333300  0.18380951  1
  H  H20  1  0.17332406  0.62207423  0.25791022  1
  H  H21  1  0.62207423  0.44875017  0.75791022  1
  H  H22  1  0.61627705  0.80481575  0.92843319  1
  H  H23  1  0.37792577  0.55124983  0.25791022  1
  H  H24  1  0.43539966  0.15443300  0.99490536  1
  H  H25  1  0.84556700  0.28096666  0.99490536  1
  H  H26  1  0.55124983  0.17332406  0.75791022  1
  H  H27  1  0.12391249  0.14432137  0.97034468  1
  H  H28  1  0.87608751  0.85567863  0.47034468  1
  H  H29  1  0.56460034  0.84556700  0.49490536  1
  H  H30  1  0.44875017  0.82667594  0.25791022  1
  H  H31  1  0.09300753  0.51810187  0.50957058  1
  C  C32  1  0.62862616  0.45209126  0.93838924  1
  C  C33  1  0.54790874  0.17653490  0.93838924  1
  C  C34  1  0.82346510  0.37137384  0.93838924  1
  C  C35  1  0.45209126  0.82346510  0.43838924  1
  C  C36  1  0.17653490  0.62862616  0.43838924  1
  C  C37  1  0.37137384  0.54790874  0.43838924  1
  N  N38  1  0.33333300  0.66666700  0.51304865  1
  N  N39  1  0.66666700  0.33333300  0.01304865  1
  F  F40  1  0.78233885  0.74925706  0.45808590  1
  F  F41  1  0.00000000  0.00000000  0.48811600  1
  F  F42  1  0.00000000  0.00000000  0.98811600  1
  F  F43  1  0.52865562  0.70225341  0.90676944  1
  F  F44  1  0.29774659  0.82640221  0.90676944  1
  F  F45  1  0.96691821  0.21766115  0.45808590  1
  F  F46  1  0.70225341  0.17359779  0.40676944  1
  F  F47  1  0.74925706  0.96691821  0.95808590  1
  F  F48  1  0.21766115  0.25074294  0.95808590  1
  F  F49  1  0.03308179  0.78233885  0.95808590  1
  F  F50  1  0.82640221  0.52865562  0.40676944  1
  F  F51  1  0.47134438  0.29774659  0.40676944  1
  F  F52  1  0.17359779  0.47134438  0.90676944  1
  F  F53  1  0.25074294  0.03308179  0.45808590  1
