# generated using pymatgen
data_Tm2O3
_symmetry_space_group_name_H-M   'P 1'
_cell_length_a   3.43365893
_cell_length_b   7.14523473
_cell_length_c   8.50942530
_cell_angle_alpha   100.06342764
_cell_angle_beta   90.00000000
_cell_angle_gamma   103.90283934
_symmetry_Int_Tables_number   1
_chemical_formula_structural   Tm2O3
_chemical_formula_sum   'Tm6 O9'
_cell_volume   199.34618937
_cell_formula_units_Z   3
loop_
 _symmetry_equiv_pos_site_id
 _symmetry_equiv_pos_as_xyz
  1  'x, y, z'
loop_
 _atom_site_type_symbol
 _atom_site_label
 _atom_site_symmetry_multiplicity
 _atom_site_fract_x
 _atom_site_fract_y
 _atom_site_fract_z
 _atom_site_occupancy
  Tm  Tm0  1  0.63511167  0.27022333  0.48749698  1
  Tm  Tm1  1  0.69166210  0.38332421  0.13732747  1
  Tm  Tm2  1  0.30833790  0.61667579  0.86267253  1
  Tm  Tm3  1  0.03198303  0.06396606  0.81435904  1
  Tm  Tm4  1  0.36488833  0.72977667  0.51250302  1
  Tm  Tm5  1  0.96801697  0.93603394  0.18564096  1
  O  O6  1  0.12756341  0.25512682  0.28130044  1
  O  O7  1  0.20701536  0.41403071  0.62254450  1
  O  O8  1  0.52975414  0.05950828  0.65730933  1
  O  O9  1  0.87243659  0.74487318  0.71869956  1
  O  O10  1  0.82560322  0.65120643  0.03114391  1
  O  O11  1  0.50000000  0.00000000  0.00000000  1
  O  O12  1  0.17439678  0.34879357  0.96885609  1
  O  O13  1  0.79298464  0.58596929  0.37745550  1
  O  O14  1  0.47024586  0.94049172  0.34269067  1
