# generated using pymatgen
data_NaYbCO3F2
_symmetry_space_group_name_H-M   'P 1'
_cell_length_a   6.71526881
_cell_length_b   6.82547423
_cell_length_c   9.42216393
_cell_angle_alpha   90.00000000
_cell_angle_beta   90.00000000
_cell_angle_gamma   90.00000000
_symmetry_Int_Tables_number   1
_chemical_formula_structural   NaYbCO3F2
_chemical_formula_sum   'Na4 Yb4 C4 O12 F8'
_cell_volume   431.86388696
_cell_formula_units_Z   4
loop_
 _symmetry_equiv_pos_site_id
 _symmetry_equiv_pos_as_xyz
  1  'x, y, z'
loop_
 _atom_site_type_symbol
 _atom_site_label
 _atom_site_symmetry_multiplicity
 _atom_site_fract_x
 _atom_site_fract_y
 _atom_site_fract_z
 _atom_site_occupancy
  Yb  Yb0  1  0.50570203  0.75000000  0.06111186  1
  Yb  Yb1  1  1.00570203  0.75000000  0.43888814  1
  Yb  Yb2  1  -0.00570203  0.25000000  0.56111186  1
  Yb  Yb3  1  0.49429797  0.25000000  0.93888814  1
  Na  Na4  1  0.18552879  0.25000000  0.22912143  1
  Na  Na5  1  0.68552879  0.25000000  0.27087857  1
  Na  Na6  1  0.81447121  0.75000000  0.77087857  1
  Na  Na7  1  0.31447121  0.75000000  0.72912143  1
  C  C8  1  0.54369876  0.75000000  0.43684330  1
  C  C9  1  0.95630124  0.25000000  0.93684330  1
  C  C10  1  0.04369876  0.75000000  0.06315670  1
  C  C11  1  0.45630124  0.25000000  0.56315670  1
  O  O12  1  0.15860736  0.75000000  0.95489616  1
  O  O13  1  0.14484261  0.25000000  0.95326331  1
  O  O14  1  0.64484261  0.25000000  0.54673669  1
  O  O15  1  0.35515739  0.75000000  0.45326331  1
  O  O16  1  0.34139264  0.25000000  0.45489616  1
  O  O17  1  0.37905032  0.25000000  0.68686528  1
  O  O18  1  0.85515739  0.75000000  0.04673669  1
  O  O19  1  0.87905032  0.25000000  0.81313472  1
  O  O20  1  0.12094968  0.75000000  0.18686528  1
  O  O21  1  0.84139264  0.25000000  0.04510384  1
  O  O22  1  0.65860736  0.75000000  0.54510384  1
  O  O23  1  0.62094968  0.75000000  0.31313472  1
  F  F24  1  0.04709044  0.94336553  0.63361279  1
  F  F25  1  0.54709044  0.55663447  0.86638721  1
  F  F26  1  0.04709044  0.55663447  0.63361279  1
  F  F27  1  0.45290956  0.44336553  0.13361279  1
  F  F28  1  0.54709044  0.94336553  0.86638721  1
  F  F29  1  0.95290956  0.44336553  0.36638721  1
  F  F30  1  0.45290956  0.05663447  0.13361279  1
  F  F31  1  0.95290956  0.05663447  0.36638721  1
