# generated using pymatgen
data_AlBiO3
_symmetry_space_group_name_H-M   'P 1'
_cell_length_a   5.45999306
_cell_length_b   5.46000398
_cell_length_c   5.46000392
_cell_angle_alpha   59.45696948
_cell_angle_beta   59.45720474
_cell_angle_gamma   59.45720221
_symmetry_Int_Tables_number   1
_chemical_formula_structural   AlBiO3
_chemical_formula_sum   'Al2 Bi2 O6'
_cell_volume   113.67533368
_cell_formula_units_Z   2
loop_
 _symmetry_equiv_pos_site_id
 _symmetry_equiv_pos_as_xyz
  1  'x, y, z'
loop_
 _atom_site_type_symbol
 _atom_site_label
 _atom_site_symmetry_multiplicity
 _atom_site_fract_x
 _atom_site_fract_y
 _atom_site_fract_z
 _atom_site_occupancy
  O  O0  1  0.45012577  0.91561879  1.01494939  1
  O  O1  1  0.95012503  0.51494966  0.41561928  1
  O  O2  1  1.01494970  0.45012610  0.91561904  1
  Al  Al3  1  0.72139036  0.72138986  0.72139067  1
  O  O4  1  0.51494922  0.41561891  0.95012647  1
  Bi  Bi5  1  0.99441594  0.99441476  0.99441620  1
  O  O6  1  0.41561879  0.95012466  0.51494992  1
  Al  Al7  1  0.22139041  0.22139012  0.22139026  1
  Bi  Bi8  1  0.49441685  0.49441544  0.49441478  1
  O  O9  1  0.91561795  1.01495169  0.45012400  1
