# generated using pymatgen
data_Na2Cu2Si4H4O13
_symmetry_space_group_name_H-M   'P 1'
_cell_length_a   5.26828339
_cell_length_b   6.45736332
_cell_length_c   8.79276686
_cell_angle_alpha   101.87097550
_cell_angle_beta   93.61688195
_cell_angle_gamma   103.10176172
_symmetry_Int_Tables_number   1
_chemical_formula_structural   Na2Cu2Si4H4O13
_chemical_formula_sum   'Na2 Si4 Cu2 H4 O13'
_cell_volume   283.21073767
_cell_formula_units_Z   1
loop_
 _symmetry_equiv_pos_site_id
 _symmetry_equiv_pos_as_xyz
  1  'x, y, z'
loop_
 _atom_site_type_symbol
 _atom_site_label
 _atom_site_symmetry_multiplicity
 _atom_site_fract_x
 _atom_site_fract_y
 _atom_site_fract_z
 _atom_site_occupancy
  Na  Na0  1  0.35754392  0.36093649  0.19902527  1
  Na  Na1  1  0.64245608  0.63906351  0.80097473  1
  Si  Si2  1  0.52678825  0.11383805  0.68578407  1
  Si  Si3  1  0.10729400  0.33112032  0.83132455  1
  Si  Si4  1  0.47321175  0.88616195  0.31421593  1
  Si  Si5  1  0.89270600  0.66887968  0.16867545  1
  Cu  Cu6  1  0.79755600  0.12172356  0.07693444  1
  Cu  Cu7  1  0.20244400  0.87827644  0.92306556  1
  H  H8  1  0.15959901  0.25543403  0.49917830  1
  H  H9  1  0.84040099  0.74456597  0.50082170  1
  H  H10  1  0.92428622  0.30520251  0.41004770  1
  H  H11  1  0.07571378  0.69479749  0.58995230  1
  O  O12  1  0.09718472  0.16288477  0.95183611  1
  O  O13  1  0.23366854  0.58342519  0.91318114  1
  O  O14  1  0.69164428  0.73540005  0.30166756  1
  O  O15  1  0.09834597  0.28094176  0.39803845  1
  O  O16  1  0.90165403  0.71905824  0.60196155  1
  O  O17  1  0.18287596  0.71056073  0.26980864  1
  O  O18  1  0.76633146  0.41657481  0.08681886  1
  O  O19  1  0.51949961  0.05831952  0.20444601  1
  O  O20  1  0.81712404  0.28943927  0.73019136  1
  O  O21  1  0.50000000  0.00000000  0.50000000  1
  O  O22  1  0.48050039  0.94168048  0.79555399  1
  O  O23  1  0.30835572  0.26459995  0.69833244  1
  O  O24  1  0.90281528  0.83711523  0.04816389  1
