# generated using pymatgen
data_K3V(SO)2
_symmetry_space_group_name_H-M   'P 1'
_cell_length_a   7.39834137
_cell_length_b   10.70643608
_cell_length_c   10.99902397
_cell_angle_alpha   113.96835317
_cell_angle_beta   90.00000000
_cell_angle_gamma   90.00000000
_symmetry_Int_Tables_number   1
_chemical_formula_structural   K3V(SO)2
_chemical_formula_sum   'K12 V4 S8 O8'
_cell_volume   796.10495570
_cell_formula_units_Z   4
loop_
 _symmetry_equiv_pos_site_id
 _symmetry_equiv_pos_as_xyz
  1  'x, y, z'
loop_
 _atom_site_type_symbol
 _atom_site_label
 _atom_site_symmetry_multiplicity
 _atom_site_fract_x
 _atom_site_fract_y
 _atom_site_fract_z
 _atom_site_occupancy
  K  K0  1  0.25894114  0.05420541  0.11754898  1
  K  K1  1  0.13553480  0.32396806  0.83972008  1
  K  K2  1  0.74105886  0.94579459  0.88245102  1
  K  K3  1  0.24105886  0.55420541  0.61754898  1
  K  K4  1  0.86446520  0.67603194  0.16027992  1
  K  K5  1  0.27533957  0.43750672  0.20649749  1
  K  K6  1  0.63553480  0.17603194  0.66027992  1
  K  K7  1  0.77533957  0.06249328  0.29350251  1
  K  K8  1  0.72466043  0.56249328  0.79350251  1
  K  K9  1  0.22466043  0.93750672  0.70649749  1
  K  K10  1  0.75894114  0.44579459  0.38245102  1
  K  K11  1  0.36446520  0.82396806  0.33972008  1
  V  V12  1  0.30093721  0.66503895  0.97169158  1
  V  V13  1  0.19906279  0.16503895  0.47169158  1
  V  V14  1  0.69906279  0.33496105  0.02830842  1
  V  V15  1  0.80093721  0.83496105  0.52830842  1
  S  S16  1  0.53460399  0.80728376  0.05689350  1
  S  S17  1  0.41932002  0.26957301  0.40893201  1
  S  S18  1  0.03460399  0.69271624  0.44310650  1
  S  S19  1  0.46539601  0.19271624  0.94310650  1
  S  S20  1  0.96539601  0.30728376  0.55689350  1
  S  S21  1  0.91932002  0.23042699  0.09106799  1
  S  S22  1  0.58067998  0.73042699  0.59106799  1
  S  S23  1  0.08067998  0.76957301  0.90893201  1
  O  O24  1  0.71575808  0.89005685  0.41462494  1
  O  O25  1  0.37026233  0.52886814  0.83379326  1
  O  O26  1  0.21575808  0.60994315  0.08537506  1
  O  O27  1  0.78424192  0.39005685  0.91462494  1
  O  O28  1  0.12973767  0.02886814  0.33379326  1
  O  O29  1  0.28424192  0.10994315  0.58537506  1
  O  O30  1  0.87026233  0.97113186  0.66620674  1
  O  O31  1  0.62973767  0.47113186  0.16620674  1
