# generated using pymatgen
data_NaFe3(PO4)3
_symmetry_space_group_name_H-M   'P 1'
_cell_length_a   6.55128306
_cell_length_b   8.55873193
_cell_length_c   8.55873211
_cell_angle_alpha   93.39922174
_cell_angle_beta   106.20346066
_cell_angle_gamma   106.20346736
_symmetry_Int_Tables_number   1
_chemical_formula_structural   NaFe3(PO4)3
_chemical_formula_sum   'Na2 Fe6 P6 O24'
_cell_volume   437.60255696
_cell_formula_units_Z   2
loop_
 _symmetry_equiv_pos_site_id
 _symmetry_equiv_pos_as_xyz
  1  'x, y, z'
loop_
 _atom_site_type_symbol
 _atom_site_label
 _atom_site_symmetry_multiplicity
 _atom_site_fract_x
 _atom_site_fract_y
 _atom_site_fract_z
 _atom_site_occupancy
  Na  Na0  1  0.75000000  0.01940199  0.98059801  1
  Na  Na1  1  0.25000000  0.98059801  0.01940199  1
  Fe  Fe2  1  0.87815773  0.62081542  0.94580161  1
  Fe  Fe3  1  0.12184227  0.37918458  0.05419839  1
  Fe  Fe4  1  0.25000000  0.28268521  0.71731479  1
  Fe  Fe5  1  0.62184227  0.05419839  0.37918458  1
  Fe  Fe6  1  0.75000000  0.71731479  0.28268521  1
  Fe  Fe7  1  0.37815773  0.94580161  0.62081542  1
  P  P8  1  0.88797596  0.88405490  0.66155694  1
  P  P9  1  0.38797596  0.66155694  0.88405490  1
  P  P10  1  0.11202404  0.11594510  0.33844306  1
  P  P11  1  0.61202404  0.33844306  0.11594510  1
  P  P12  1  0.25000000  0.68951826  0.31048174  1
  P  P13  1  0.75000000  0.31048174  0.68951826  1
  O  O14  1  0.23759098  0.51151318  0.26989855  1
  O  O15  1  0.65295033  0.47525116  0.25592068  1
  O  O16  1  0.34704967  0.52474884  0.74407932  1
  O  O17  1  0.87957680  0.98134959  0.31521863  1
  O  O18  1  0.62042320  0.68478137  0.01865041  1
  O  O19  1  0.15295033  0.25592068  0.47525116  1
  O  O20  1  0.76240902  0.48848682  0.73010145  1
  O  O21  1  0.12042320  0.01865041  0.68478137  1
  O  O22  1  0.09982982  0.16622241  0.16598140  1
  O  O23  1  0.53323848  0.19717593  0.72585752  1
  O  O24  1  0.96676152  0.27414248  0.80282407  1
  O  O25  1  0.46676152  0.80282407  0.27414248  1
  O  O26  1  0.84704967  0.74407932  0.52474884  1
  O  O27  1  0.59982982  0.16598140  0.16622241  1
  O  O28  1  0.40017018  0.83401860  0.83377759  1
  O  O29  1  0.26240902  0.73010145  0.48848682  1
  O  O30  1  0.30114119  0.03460169  0.38918745  1
  O  O31  1  0.73759098  0.26989855  0.51151318  1
  O  O32  1  0.03323848  0.72585752  0.19717593  1
  O  O33  1  0.80114119  0.38918745  0.03460169  1
  O  O34  1  0.90017018  0.83377759  0.83401860  1
  O  O35  1  0.37957680  0.31521863  0.98134959  1
  O  O36  1  0.69885881  0.96539831  0.61081255  1
  O  O37  1  0.19885881  0.61081255  0.96539831  1
