# generated using pymatgen
data_In2(WO4)3
_symmetry_space_group_name_H-M   'P 1'
_cell_length_a   9.86847826
_cell_length_b   9.95459187
_cell_length_c   13.70681879
_cell_angle_alpha   90.00000000
_cell_angle_beta   90.00000000
_cell_angle_gamma   90.00000000
_symmetry_Int_Tables_number   1
_chemical_formula_structural   In2(WO4)3
_chemical_formula_sum   'In8 W12 O48'
_cell_volume   1346.51228160
_cell_formula_units_Z   4
loop_
 _symmetry_equiv_pos_site_id
 _symmetry_equiv_pos_as_xyz
  1  'x, y, z'
loop_
 _atom_site_type_symbol
 _atom_site_label
 _atom_site_symmetry_multiplicity
 _atom_site_fract_x
 _atom_site_fract_y
 _atom_site_fract_z
 _atom_site_occupancy
  In  In0  1  0.25037963  0.96376854  0.11980903  1
  In  In1  1  0.75037963  0.53623146  0.61980903  1
  In  In2  1  0.24962037  0.46376854  0.38019097  1
  In  In3  1  0.74962037  0.03623146  0.88019097  1
  In  In4  1  0.24962037  0.03623146  0.61980903  1
  In  In5  1  0.75037963  0.96376854  0.38019097  1
  In  In6  1  0.25037963  0.53623146  0.88019097  1
  In  In7  1  0.74962037  0.46376854  0.11980903  1
  W  W8  1  0.10411526  0.88493528  0.85526203  1
  W  W9  1  0.89588474  0.38493528  0.85526203  1
  W  W10  1  0.60411526  0.61506472  0.35526203  1
  W  W11  1  0.47113690  0.25000000  0.00000000  1
  W  W12  1  0.52886310  0.75000000  0.00000000  1
  W  W13  1  0.89588474  0.11506472  0.14473797  1
  W  W14  1  0.39588474  0.38493528  0.64473797  1
  W  W15  1  0.97113690  0.25000000  0.50000000  1
  W  W16  1  0.10411526  0.61506472  0.14473797  1
  W  W17  1  0.02886310  0.75000000  0.50000000  1
  W  W18  1  0.60411526  0.88493528  0.64473797  1
  W  W19  1  0.39588474  0.11506472  0.35526203  1
  O  O20  1  0.86651993  0.12999190  0.43573569  1
  O  O21  1  0.86651993  0.37000810  0.56426431  1
  O  O22  1  0.82667037  0.07366588  0.02656817  1
  O  O23  1  0.31976413  0.00677739  0.26428993  1
  O  O24  1  0.13941403  0.79022616  0.17079760  1
  O  O25  1  0.42201251  0.90794181  0.64383653  1
  O  O26  1  0.82667037  0.42633412  0.97343183  1
  O  O27  1  0.63941403  0.79022616  0.32920240  1
  O  O28  1  0.67332963  0.92633412  0.52656817  1
  O  O29  1  0.13348007  0.87000810  0.56426431  1
  O  O30  1  0.68023587  0.99322261  0.73571007  1
  O  O31  1  0.31976413  0.49322261  0.73571007  1
  O  O32  1  0.17332963  0.57366588  0.02656817  1
  O  O33  1  0.81976413  0.00677739  0.23571007  1
  O  O34  1  0.13348007  0.62999190  0.43573569  1
  O  O35  1  0.18023587  0.99322261  0.76428993  1
  O  O36  1  0.36058597  0.29022616  0.32920240  1
  O  O37  1  0.92201251  0.90794181  0.85616347  1
  O  O38  1  0.63941403  0.70977384  0.67079760  1
  O  O39  1  0.63348007  0.62999190  0.06426431  1
  O  O40  1  0.13941403  0.70977384  0.82920240  1
  O  O41  1  0.67332963  0.57366588  0.47343183  1
  O  O42  1  0.18023587  0.50677739  0.23571007  1
  O  O43  1  0.07798749  0.40794181  0.85616347  1
  O  O44  1  0.07798749  0.09205819  0.14383653  1
  O  O45  1  0.42212268  0.83494504  0.08809182  1
  O  O46  1  0.86058597  0.29022616  0.17079760  1
  O  O47  1  0.36651993  0.12999190  0.06426431  1
  O  O48  1  0.63348007  0.87000810  0.93573569  1
  O  O49  1  0.57787732  0.33494504  0.08809182  1
  O  O50  1  0.36058597  0.20977384  0.67079760  1
  O  O51  1  0.32667037  0.42633412  0.52656817  1
  O  O52  1  0.92212268  0.66505496  0.58809182  1
  O  O53  1  0.57798749  0.09205819  0.35616347  1
  O  O54  1  0.81976413  0.49322261  0.76428993  1
  O  O55  1  0.07787732  0.33494504  0.41190818  1
  O  O56  1  0.32667037  0.07366588  0.47343183  1
  O  O57  1  0.92212268  0.83494504  0.41190818  1
  O  O58  1  0.07787732  0.16505496  0.58809182  1
  O  O59  1  0.42201251  0.59205819  0.35616347  1
  O  O60  1  0.57787732  0.16505496  0.91190818  1
  O  O61  1  0.92201251  0.59205819  0.14383653  1
  O  O62  1  0.57798749  0.40794181  0.64383653  1
  O  O63  1  0.36651993  0.37000810  0.93573569  1
  O  O64  1  0.42212268  0.66505496  0.91190818  1
  O  O65  1  0.68023587  0.50677739  0.26428993  1
  O  O66  1  0.86058597  0.20977384  0.82920240  1
  O  O67  1  0.17332963  0.92633412  0.97343183  1
