# generated using pymatgen
data_Na2Sn2C3(O2F)3
_symmetry_space_group_name_H-M   'P 1'
_cell_length_a   6.11776787
_cell_length_b   8.93046730
_cell_length_c   9.36281488
_cell_angle_alpha   70.46291270
_cell_angle_beta   82.14787376
_cell_angle_gamma   82.83503646
_symmetry_Int_Tables_number   1
_chemical_formula_structural   Na2Sn2C3(O2F)3
_chemical_formula_sum   'Na4 Sn4 C6 O12 F6'
_cell_volume   475.84696293
_cell_formula_units_Z   2
loop_
 _symmetry_equiv_pos_site_id
 _symmetry_equiv_pos_as_xyz
  1  'x, y, z'
loop_
 _atom_site_type_symbol
 _atom_site_label
 _atom_site_symmetry_multiplicity
 _atom_site_fract_x
 _atom_site_fract_y
 _atom_site_fract_z
 _atom_site_occupancy
  Na  Na0  1  0.70693036  0.04349834  0.57949585  1
  Na  Na1  1  0.86008423  0.73745440  0.37502310  1
  Na  Na2  1  0.13991577  0.26254560  0.62497690  1
  Na  Na3  1  0.29306964  0.95650166  0.42050415  1
  Sn  Sn4  1  0.83756438  0.57116717  0.81624695  1
  Sn  Sn5  1  0.82685631  0.13809588  0.13619401  1
  Sn  Sn6  1  0.17314369  0.86190412  0.86380599  1
  Sn  Sn7  1  0.16243562  0.42883283  0.18375305  1
  C  C8  1  0.41276878  0.60662335  0.33410116  1
  C  C9  1  0.39788525  0.49572364  0.72920391  1
  C  C10  1  0.41606347  0.07505137  0.98707432  1
  C  C11  1  0.58393653  0.92494863  0.01292568  1
  C  C12  1  0.58723122  0.39337665  0.66589884  1
  C  C13  1  0.60211475  0.50427636  0.27079609  1
  O  O14  1  0.78701230  0.41808599  0.67754587  1
  O  O15  1  0.45566948  0.59020102  0.79054727  1
  O  O16  1  0.75318641  0.92222363  0.08074333  1
  O  O17  1  0.45661602  0.18446641  0.03356706  1
  O  O18  1  0.54338398  0.81553359  0.96643294  1
  O  O19  1  0.79766233  0.52387974  0.28517146  1
  O  O20  1  0.46250464  0.70361553  0.39148843  1
  O  O21  1  0.24681359  0.07777637  0.91925667  1
  O  O22  1  0.21298770  0.58191401  0.32245413  1
  O  O23  1  0.54433052  0.40979898  0.20945273  1
  O  O24  1  0.20233767  0.47612026  0.71482854  1
  O  O25  1  0.53749536  0.29638447  0.60851157  1
  F  F26  1  0.13271167  0.23332034  0.38492284  1
  F  F27  1  0.86728833  0.76667966  0.61507716  1
  F  F28  1  0.93978450  0.04491382  0.74208577  1
  F  F29  1  0.06021550  0.95508618  0.25791423  1
  F  F30  1  0.36303335  0.95798422  0.65499437  1
  F  F31  1  0.63696665  0.04201578  0.34500563  1
