# generated using pymatgen
data_CoH16C4(NCl2)2
_symmetry_space_group_name_H-M   'P 1'
_cell_length_a   8.70589225
_cell_length_b   11.58344047
_cell_length_c   13.43920641
_cell_angle_alpha   90.00000000
_cell_angle_beta   89.94821373
_cell_angle_gamma   90.00000000
_symmetry_Int_Tables_number   1
_chemical_formula_structural   CoH16C4(NCl2)2
_chemical_formula_sum   'Co4 H64 C16 N8 Cl16'
_cell_volume   1355.26525853
_cell_formula_units_Z   4
loop_
 _symmetry_equiv_pos_site_id
 _symmetry_equiv_pos_as_xyz
  1  'x, y, z'
loop_
 _atom_site_type_symbol
 _atom_site_label
 _atom_site_symmetry_multiplicity
 _atom_site_fract_x
 _atom_site_fract_y
 _atom_site_fract_z
 _atom_site_occupancy
  Co  Co0  1  0.67026364  0.29988314  0.91837619  1
  Co  Co1  1  0.17026364  0.20011686  0.41837619  1
  Co  Co2  1  0.32973636  0.70011686  0.08162381  1
  Co  Co3  1  0.82973636  0.79988314  0.58162381  1
  H  H4  1  0.31584520  0.43208794  0.69080336  1
  H  H5  1  0.97051157  0.97599435  0.23305354  1
  H  H6  1  0.31424441  0.57757650  0.87328124  1
  H  H7  1  0.91305958  0.82696738  0.98448144  1
  H  H8  1  0.81584520  0.06791206  0.19080336  1
  H  H9  1  0.61864411  0.18747390  0.56973971  1
  H  H10  1  0.06276264  0.19403487  0.14719363  1
  H  H11  1  0.32988442  0.23295811  0.16290451  1
  H  H12  1  0.82988442  0.26704189  0.66290451  1
  H  H13  1  0.15105708  0.93456373  0.62973054  1
  H  H14  1  0.76283861  0.46805351  0.67317167  1
  H  H15  1  0.09588851  0.39432343  0.80893079  1
  H  H16  1  0.52948843  0.47599435  0.26694646  1
  H  H17  1  0.68415480  0.56791206  0.30919664  1
  H  H18  1  0.41120686  0.97812066  0.57916786  1
  H  H19  1  0.08694042  0.17303262  0.01551856  1
  H  H20  1  0.26283861  0.03194649  0.17317167  1
  H  H21  1  0.64202272  0.77700884  0.96165708  1
  H  H22  1  0.79041397  0.91390417  0.19676074  1
  H  H23  1  0.14202272  0.72299116  0.46165708  1
  H  H24  1  0.67011558  0.76704189  0.83709549  1
  H  H25  1  0.11864411  0.31252610  0.06973971  1
  H  H26  1  0.17011558  0.73295811  0.33709549  1
  H  H27  1  0.08879314  0.47812066  0.92083214  1
  H  H28  1  0.88135589  0.68747390  0.93026029  1
  H  H29  1  0.41305958  0.67303262  0.48448144  1
  H  H30  1  0.84894292  0.06543627  0.37026946  1
  H  H31  1  0.78673131  0.47921756  0.54090328  1
  H  H32  1  0.59588851  0.10567657  0.30893079  1
  H  H33  1  0.44863998  0.05341148  0.11809374  1
  H  H34  1  0.02948843  0.02400565  0.76694646  1
  H  H35  1  0.71326869  0.97921756  0.95909672  1
  H  H36  1  0.58879314  0.02187934  0.42083214  1
  H  H37  1  0.56044696  0.95289250  0.30270965  1
  H  H38  1  0.43723736  0.69403487  0.35280637  1
  H  H39  1  0.18575559  0.07757650  0.62671876  1
  H  H40  1  0.23716139  0.53194649  0.32682833  1
  H  H41  1  0.81424441  0.92242350  0.37328124  1
  H  H42  1  0.43955304  0.04710750  0.69729035  1
  H  H43  1  0.58694042  0.32696738  0.51551856  1
  H  H44  1  0.93723736  0.80596513  0.85280637  1
  H  H45  1  0.85797728  0.27700884  0.53834292  1
  H  H46  1  0.40411149  0.89432343  0.69106921  1
  H  H47  1  0.90411149  0.60567657  0.19106921  1
  H  H48  1  0.55136002  0.94658852  0.88190626  1
  H  H49  1  0.34894292  0.43456373  0.87026946  1
  H  H50  1  0.05136002  0.55341148  0.38190626  1
  H  H51  1  0.56276264  0.30596513  0.64719363  1
  H  H52  1  0.93955304  0.45289250  0.19729035  1
  H  H53  1  0.20958603  0.08609583  0.80323926  1
  H  H54  1  0.29041397  0.58609583  0.69676074  1
  H  H55  1  0.28673131  0.02078244  0.04090328  1
  H  H56  1  0.94863998  0.44658852  0.61809374  1
  H  H57  1  0.06044696  0.54710750  0.80270965  1
  H  H58  1  0.68575559  0.42242350  0.12671876  1
  H  H59  1  0.21326869  0.52078244  0.45909672  1
  H  H60  1  0.35797728  0.22299116  0.03834292  1
  H  H61  1  0.70958603  0.41390417  0.30323926  1
  H  H62  1  0.18415480  0.93208794  0.80919664  1
  H  H63  1  0.38135589  0.81252610  0.43026029  1
  H  H64  1  0.47051157  0.52400565  0.73305354  1
  H  H65  1  0.65105708  0.56543627  0.12973054  1
  H  H66  1  0.73716139  0.96805351  0.82682833  1
  H  H67  1  0.91120686  0.52187934  0.07916786  1
  C  C68  1  0.15402293  0.01119358  0.76885671  1
  C  C69  1  0.87834674  0.52158464  0.15775286  1
  C  C70  1  0.12165326  0.47841536  0.84224714  1
  C  C71  1  0.17513306  0.56541756  0.39164012  1
  C  C72  1  0.87138680  0.78071658  0.91874547  1
  C  C73  1  0.65402293  0.48880642  0.26885671  1
  C  C74  1  0.67513306  0.93458244  0.89164012  1
  C  C75  1  0.62861320  0.28071658  0.58125453  1
  C  C76  1  0.37138680  0.71928342  0.41874547  1
  C  C77  1  0.34597707  0.51119358  0.73114329  1
  C  C78  1  0.84597707  0.98880642  0.23114329  1
  C  C79  1  0.37834674  0.97841536  0.65775286  1
  C  C80  1  0.82486694  0.43458244  0.60835988  1
  C  C81  1  0.62165326  0.02158464  0.34224714  1
  C  C82  1  0.12861320  0.21928342  0.08125453  1
  C  C83  1  0.32486694  0.06541756  0.10835988  1
  N  N84  1  0.78967691  0.99898740  0.33532998  1
  N  N85  1  0.79368426  0.30868450  0.59783823  1
  N  N86  1  0.28967691  0.50101260  0.83532998  1
  N  N87  1  0.20631574  0.69131550  0.40216177  1
  N  N88  1  0.21032309  0.00101260  0.66467002  1
  N  N89  1  0.71032309  0.49898740  0.16467002  1
  N  N90  1  0.70631574  0.80868450  0.90216177  1
  N  N91  1  0.29368426  0.19131550  0.09783823  1
  Cl  Cl92  1  0.64643134  0.72112294  0.67862189  1
  Cl  Cl93  1  0.19344276  0.25915167  0.57909400  1
  Cl  Cl94  1  0.57226769  0.75772442  0.12549615  1
  Cl  Cl95  1  0.07226769  0.74227558  0.62549615  1
  Cl  Cl96  1  0.92773231  0.25772442  0.37450385  1
  Cl  Cl97  1  0.42773231  0.24227558  0.87450385  1
  Cl  Cl98  1  0.14643134  0.77887706  0.17862189  1
  Cl  Cl99  1  0.18475602  0.00691722  0.40857860  1
  Cl  Cl100  1  0.69344276  0.24084833  0.07909400  1
  Cl  Cl101  1  0.68475602  0.49308278  0.90857860  1
  Cl  Cl102  1  0.81524398  0.99308278  0.59142140  1
  Cl  Cl103  1  0.31524398  0.50691722  0.09142140  1
  Cl  Cl104  1  0.80655724  0.74084833  0.42090600  1
  Cl  Cl105  1  0.85356866  0.22112294  0.82137811  1
  Cl  Cl106  1  0.35356866  0.27887706  0.32137811  1
  Cl  Cl107  1  0.30655724  0.75915167  0.92090600  1
