# generated using pymatgen
data_Ba(AlSi)2
_symmetry_space_group_name_H-M   'P 1'
_cell_length_a   4.35064394
_cell_length_b   5.82636202
_cell_length_c   10.28126694
_cell_angle_alpha   90.00000000
_cell_angle_beta   90.00000000
_cell_angle_gamma   111.92289635
_symmetry_Int_Tables_number   1
_chemical_formula_structural   Ba(AlSi)2
_chemical_formula_sum   'Ba2 Al4 Si4'
_cell_volume   241.76819805
_cell_formula_units_Z   2
loop_
 _symmetry_equiv_pos_site_id
 _symmetry_equiv_pos_as_xyz
  1  'x, y, z'
loop_
 _atom_site_type_symbol
 _atom_site_label
 _atom_site_symmetry_multiplicity
 _atom_site_fract_x
 _atom_site_fract_y
 _atom_site_fract_z
 _atom_site_occupancy
  Ba  Ba0  1  0.08549421  0.17098841  0.75000000  1
  Ba  Ba1  1  0.91450579  0.82901159  0.25000000  1
  Al  Al2  1  0.37845480  0.75690960  0.96464433  1
  Al  Al3  1  0.62154520  0.24309040  0.46464433  1
  Al  Al4  1  0.62154520  0.24309040  0.03535567  1
  Al  Al5  1  0.37845480  0.75690960  0.53535567  1
  Si  Si6  1  0.20094377  0.40188755  0.36724054  1
  Si  Si7  1  0.79905623  0.59811245  0.86724054  1
  Si  Si8  1  0.20094377  0.40188755  0.13275946  1
  Si  Si9  1  0.79905623  0.59811245  0.63275946  1
