# generated using pymatgen
data_Re3NiO8
_symmetry_space_group_name_H-M   'P 1'
_cell_length_a   4.79548525
_cell_length_b   5.59253607
_cell_length_c   5.59253607
_cell_angle_alpha   62.00467142
_cell_angle_beta   88.67726214
_cell_angle_gamma   88.67726214
_symmetry_Int_Tables_number   1
_chemical_formula_structural   Re3NiO8
_chemical_formula_sum   'Re3 Ni1 O8'
_cell_volume   132.38730638
_cell_formula_units_Z   1
loop_
 _symmetry_equiv_pos_site_id
 _symmetry_equiv_pos_as_xyz
  1  'x, y, z'
loop_
 _atom_site_type_symbol
 _atom_site_label
 _atom_site_symmetry_multiplicity
 _atom_site_fract_x
 _atom_site_fract_y
 _atom_site_fract_z
 _atom_site_occupancy
  Re  Re0  1  0.99878349  0.77893893  0.22151039  1
  Re  Re1  1  0.99878349  0.22151039  0.77893893  1
  Re  Re2  1  0.49226303  0.73871736  0.73871736  1
  Ni  Ni3  1  0.50959384  0.26436611  0.26436611  1
  O  O4  1  0.82511878  0.41039020  0.41039020  1
  O  O5  1  0.19899741  0.59432759  0.59432759  1
  O  O6  1  0.70522469  0.39853855  0.88987119  1
  O  O7  1  0.70522469  0.88987119  0.39853855  1
  O  O8  1  0.28877244  0.62438114  0.08164605  1
  O  O9  1  0.28877244  0.08164605  0.62438114  1
  O  O10  1  0.21107006  0.11314677  0.11314677  1
  O  O11  1  0.77739562  0.88416573  0.88416573  1
