# generated using pymatgen
data_Na3Fe2(MoO4)3
_symmetry_space_group_name_H-M   'P 1'
_cell_length_a   7.32417194
_cell_length_b   9.29015608
_cell_length_c   9.29015611
_cell_angle_alpha   96.09912935
_cell_angle_beta   105.71443389
_cell_angle_gamma   105.71443858
_symmetry_Int_Tables_number   1
_chemical_formula_structural   Na3Fe2(MoO4)3
_chemical_formula_sum   'Na6 Fe4 Mo6 O24'
_cell_volume   574.64903407
_cell_formula_units_Z   2
loop_
 _symmetry_equiv_pos_site_id
 _symmetry_equiv_pos_as_xyz
  1  'x, y, z'
loop_
 _atom_site_type_symbol
 _atom_site_label
 _atom_site_symmetry_multiplicity
 _atom_site_fract_x
 _atom_site_fract_y
 _atom_site_fract_z
 _atom_site_occupancy
  Na  Na0  1  0.75000000  0.50891850  0.49108150  1
  Na  Na1  1  0.25000000  0.49108150  0.50891850  1
  Na  Na2  1  0.25000000  0.76759306  0.23240694  1
  Na  Na3  1  0.75000000  0.23240694  0.76759306  1
  Na  Na4  1  0.00000000  0.00000000  0.00000000  1
  Na  Na5  1  0.50000000  0.00000000  0.00000000  1
  Fe  Fe6  1  0.37050523  0.44592786  0.12610514  1
  Fe  Fe7  1  0.12949477  0.87389486  0.55407214  1
  Fe  Fe8  1  0.62949477  0.55407214  0.87389486  1
  Fe  Fe9  1  0.87050523  0.12610514  0.44592786  1
  Mo  Mo10  1  0.62697629  0.83699170  0.61926113  1
  Mo  Mo11  1  0.87302371  0.38073887  0.16300830  1
  Mo  Mo12  1  0.37302371  0.16300830  0.38073887  1
  Mo  Mo13  1  0.12697629  0.61926113  0.83699170  1
  Mo  Mo14  1  0.75000000  0.78013241  0.21986759  1
  Mo  Mo15  1  0.25000000  0.21986759  0.78013241  1
  O  O16  1  0.52358049  0.65880396  0.25816680  1
  O  O17  1  0.97641951  0.74183320  0.34119604  1
  O  O18  1  0.47641951  0.34119604  0.74183320  1
  O  O19  1  0.02358049  0.25816680  0.65880396  1
  O  O20  1  0.69465383  0.96345295  0.79474798  1
  O  O21  1  0.80534617  0.20525202  0.03654705  1
  O  O22  1  0.30534617  0.03654705  0.20525202  1
  O  O23  1  0.19465383  0.79474798  0.96345295  1
  O  O24  1  0.38836490  0.83918694  0.50265182  1
  O  O25  1  0.11163510  0.49734818  0.16081306  1
  O  O26  1  0.61163510  0.16081306  0.49734818  1
  O  O27  1  0.88836490  0.50265182  0.83918694  1
  O  O28  1  0.59998746  0.64492006  0.65515287  1
  O  O29  1  0.90001254  0.34484713  0.35507994  1
  O  O30  1  0.40001254  0.35507994  0.34484713  1
  O  O31  1  0.09998746  0.65515287  0.64492006  1
  O  O32  1  0.76869151  0.75808254  0.02173334  1
  O  O33  1  0.73130849  0.97826666  0.24191746  1
  O  O34  1  0.23130849  0.24191746  0.97826666  1
  O  O35  1  0.26869151  0.02173334  0.75808254  1
  O  O36  1  0.82790382  0.89947171  0.53729348  1
  O  O37  1  0.67209618  0.46270652  0.10052829  1
  O  O38  1  0.17209618  0.10052829  0.46270652  1
  O  O39  1  0.32790382  0.53729348  0.89947171  1
