# generated using pymatgen
data_Te3W2Se4(Cl4O)2
_symmetry_space_group_name_H-M   'P 1'
_cell_length_a   8.49063033
_cell_length_b   8.49063090
_cell_length_c   15.47213802
_cell_angle_alpha   81.40803638
_cell_angle_beta   81.40803595
_cell_angle_gamma   81.99163598
_symmetry_Int_Tables_number   1
_chemical_formula_structural   Te3W2Se4(Cl4O)2
_chemical_formula_sum   'Te6 W4 Se8 Cl16 O4'
_cell_volume   1082.66737977
_cell_formula_units_Z   2
loop_
 _symmetry_equiv_pos_site_id
 _symmetry_equiv_pos_as_xyz
  1  'x, y, z'
loop_
 _atom_site_type_symbol
 _atom_site_label
 _atom_site_symmetry_multiplicity
 _atom_site_fract_x
 _atom_site_fract_y
 _atom_site_fract_z
 _atom_site_occupancy
  Te  Te0  1  0.13606599  0.96562288  0.84485535  1
  Te  Te1  1  0.13330338  0.85525382  0.15056950  1
  Te  Te2  1  0.96299535  0.24304107  0.03973964  1
  Te  Te3  1  0.96562288  0.13606599  0.34485535  1
  Te  Te4  1  0.85525382  0.13330338  0.65056950  1
  Te  Te5  1  0.24304107  0.96299535  0.53973964  1
  W  W6  1  0.53659994  0.55582534  0.71528678  1
  W  W7  1  0.54315325  0.56078114  0.96464536  1
  W  W8  1  0.56078114  0.54315325  0.46464536  1
  W  W9  1  0.55582534  0.53659994  0.21528678  1
  Se  Se10  1  0.13500362  0.22003552  0.61874929  1
  Se  Se11  1  0.87775474  0.96270616  0.07020415  1
  Se  Se12  1  0.97614182  0.85437760  0.31095949  1
  Se  Se13  1  0.96270616  0.87775474  0.57020415  1
  Se  Se14  1  0.22003552  0.13500362  0.11874929  1
  Se  Se15  1  0.24776094  0.11971157  0.37916625  1
  Se  Se16  1  0.85437760  0.97614182  0.81095949  1
  Se  Se17  1  0.11971157  0.24776094  0.87916625  1
  Cl  Cl18  1  0.57436855  0.83782943  0.68783538  1
  Cl  Cl19  1  0.52327549  0.26214979  0.50143822  1
  Cl  Cl20  1  0.26214979  0.52327549  0.00143822  1
  Cl  Cl21  1  0.25278679  0.62853496  0.73252681  1
  Cl  Cl22  1  0.60089417  0.82065886  0.44182349  1
  Cl  Cl23  1  0.49584288  0.27875505  0.74674583  1
  Cl  Cl24  1  0.62301887  0.27235025  0.98141233  1
  Cl  Cl25  1  0.83782943  0.57436855  0.18783538  1
  Cl  Cl26  1  0.47130641  0.84391567  0.95792025  1
  Cl  Cl27  1  0.82065886  0.60089417  0.94182349  1
  Cl  Cl28  1  0.27875505  0.49584288  0.24674583  1
  Cl  Cl29  1  0.27235025  0.62301887  0.48141233  1
  Cl  Cl30  1  0.62853496  0.25278679  0.23252681  1
  Cl  Cl31  1  0.82443753  0.47538651  0.70652367  1
  Cl  Cl32  1  0.47538651  0.82443753  0.20652367  1
  Cl  Cl33  1  0.84391567  0.47130641  0.45792025  1
  O  O34  1  0.53588347  0.56294027  0.84270714  1
  O  O35  1  0.54750405  0.55050685  0.59277105  1
  O  O36  1  0.56294027  0.53588347  0.34270714  1
  O  O37  1  0.55050685  0.54750405  0.09277105  1
