# generated using pymatgen
data_HfMg6Zn
_symmetry_space_group_name_H-M   'P 1'
_cell_length_a   6.36732483
_cell_length_b   6.09032492
_cell_length_c   4.97550966
_cell_angle_alpha   90.00000000
_cell_angle_beta   90.00000000
_cell_angle_gamma   118.57106516
_symmetry_Int_Tables_number   1
_chemical_formula_structural   HfMg6Zn
_chemical_formula_sum   'Hf1 Mg6 Zn1'
_cell_volume   169.44963750
_cell_formula_units_Z   1
loop_
 _symmetry_equiv_pos_site_id
 _symmetry_equiv_pos_as_xyz
  1  'x, y, z'
loop_
 _atom_site_type_symbol
 _atom_site_label
 _atom_site_symmetry_multiplicity
 _atom_site_fract_x
 _atom_site_fract_y
 _atom_site_fract_z
 _atom_site_occupancy
  Hf  Hf0  1  0.15461133  0.82730517  0.25000000  1
  Mg  Mg1  1  0.65810452  0.33012112  0.25000000  1
  Mg  Mg2  1  0.65810452  0.82798240  0.25000000  1
  Mg  Mg3  1  0.33377697  0.16576122  0.75000000  1
  Mg  Mg4  1  0.33377697  0.66801674  0.75000000  1
  Mg  Mg5  1  0.84931761  0.17465930  0.75000000  1
  Mg  Mg6  1  0.83959289  0.66979694  0.75000000  1
  Zn  Zn7  1  0.17271519  0.33635710  0.25000000  1
