# generated using pymatgen
data_La2Cu2O5
_symmetry_space_group_name_H-M   'P 1'
_cell_length_a   3.92537353
_cell_length_b   5.48569665
_cell_length_c   10.54424827
_cell_angle_alpha   90.00000000
_cell_angle_beta   90.00000000
_cell_angle_gamma   90.00000000
_symmetry_Int_Tables_number   1
_chemical_formula_structural   La2Cu2O5
_chemical_formula_sum   'La4 Cu4 O10'
_cell_volume   227.05360452
_cell_formula_units_Z   2
loop_
 _symmetry_equiv_pos_site_id
 _symmetry_equiv_pos_as_xyz
  1  'x, y, z'
loop_
 _atom_site_type_symbol
 _atom_site_label
 _atom_site_symmetry_multiplicity
 _atom_site_fract_x
 _atom_site_fract_y
 _atom_site_fract_z
 _atom_site_occupancy
  O  O0  1  0.00000000  0.50000000  0.50000000  1
  O  O1  1  0.00000000  0.00000000  0.00000000  1
  O  O2  1  0.00000000  0.41690278  0.79067910  1
  O  O3  1  0.00000000  0.58309722  0.20932090  1
  O  O4  1  0.00000000  0.91690278  0.70932090  1
  O  O5  1  0.00000000  0.08309722  0.29067910  1
  O  O6  1  0.50000000  0.21422176  0.60413754  1
  O  O7  1  0.50000000  0.78577824  0.39586246  1
  O  O8  1  0.50000000  0.28577824  0.10413754  1
  O  O9  1  0.50000000  0.71422176  0.89586246  1
  Cu  Cu10  1  0.00000000  0.20378474  0.60495737  1
  Cu  Cu11  1  0.00000000  0.79621526  0.39504263  1
  Cu  Cu12  1  0.00000000  0.70378474  0.89504263  1
  Cu  Cu13  1  0.00000000  0.29621526  0.10495737  1
  La  La14  1  0.50000000  0.19408315  0.86299716  1
  La  La15  1  0.50000000  0.80591685  0.13700284  1
  La  La16  1  0.50000000  0.69408315  0.63700284  1
  La  La17  1  0.50000000  0.30591685  0.36299716  1
