# generated using pymatgen
data_Tm4Mn4Sn7
_symmetry_space_group_name_H-M   'P 1'
_cell_length_a   5.81361820
_cell_length_b   10.97189882
_cell_length_c   10.97189884
_cell_angle_alpha   85.97515609
_cell_angle_beta   74.63707607
_cell_angle_gamma   74.63707763
_symmetry_Int_Tables_number   1
_chemical_formula_structural   Tm4Mn4Sn7
_chemical_formula_sum   'Tm8 Mn8 Sn14'
_cell_volume   650.73586984
_cell_formula_units_Z   2
loop_
 _symmetry_equiv_pos_site_id
 _symmetry_equiv_pos_as_xyz
  1  'x, y, z'
loop_
 _atom_site_type_symbol
 _atom_site_label
 _atom_site_symmetry_multiplicity
 _atom_site_fract_x
 _atom_site_fract_y
 _atom_site_fract_z
 _atom_site_occupancy
  Tm  Tm0  1  0.50000000  0.80656053  0.19343947  1
  Tm  Tm1  1  0.13912734  0.72174533  0.00000000  1
  Tm  Tm2  1  0.86087266  0.27825467  0.00000000  1
  Tm  Tm3  1  0.50000000  0.19343947  0.80656053  1
  Tm  Tm4  1  0.69343947  0.80656053  0.80656053  1
  Tm  Tm5  1  0.13912734  0.00000000  0.72174533  1
  Tm  Tm6  1  0.86087266  0.00000000  0.27825467  1
  Tm  Tm7  1  0.30656053  0.19343947  0.19343947  1
  Mn  Mn8  1  0.89983747  0.50000000  0.20032506  1
  Mn  Mn9  1  0.60016253  0.79967494  0.50000000  1
  Mn  Mn10  1  0.10016253  0.50000000  0.79967494  1
  Mn  Mn11  1  0.39983747  0.50000000  0.20032506  1
  Mn  Mn12  1  0.10016253  0.79967494  0.50000000  1
  Mn  Mn13  1  0.89983747  0.20032506  0.50000000  1
  Mn  Mn14  1  0.39983747  0.20032506  0.50000000  1
  Mn  Mn15  1  0.60016253  0.50000000  0.79967494  1
  Sn  Sn16  1  0.29643009  0.40713982  0.00000000  1
  Sn  Sn17  1  0.00000000  0.28719676  0.71280324  1
  Sn  Sn18  1  0.24953205  0.00000000  0.00000000  1
  Sn  Sn19  1  0.28719676  0.71280324  0.71280324  1
  Sn  Sn20  1  0.70356991  0.59286018  0.00000000  1
  Sn  Sn21  1  0.29643009  0.00000000  0.40713982  1
  Sn  Sn22  1  0.09705284  0.40294716  0.40294716  1
  Sn  Sn23  1  0.50000000  0.59705284  0.40294716  1
  Sn  Sn24  1  0.71280324  0.28719676  0.28719676  1
  Sn  Sn25  1  0.75046795  0.00000000  0.00000000  1
  Sn  Sn26  1  0.50000000  0.40294716  0.59705284  1
  Sn  Sn27  1  0.00000000  0.71280324  0.28719676  1
  Sn  Sn28  1  0.90294716  0.59705284  0.59705284  1
  Sn  Sn29  1  0.70356991  0.00000000  0.59286018  1
