# generated using pymatgen
data_Pr4Ho2Mn23
_symmetry_space_group_name_H-M   'P 1'
_cell_length_a   8.58810875
_cell_length_b   8.58810875
_cell_length_c   8.58810875
_cell_angle_alpha   89.68548887
_cell_angle_beta   59.97981028
_cell_angle_gamma   119.61738273
_symmetry_Int_Tables_number   1
_chemical_formula_structural   Pr4Ho2Mn23
_chemical_formula_sum   'Pr4 Ho2 Mn23'
_cell_volume   449.10902814
_cell_formula_units_Z   1
loop_
 _symmetry_equiv_pos_site_id
 _symmetry_equiv_pos_as_xyz
  1  'x, y, z'
loop_
 _atom_site_type_symbol
 _atom_site_label
 _atom_site_symmetry_multiplicity
 _atom_site_fract_x
 _atom_site_fract_y
 _atom_site_fract_z
 _atom_site_occupancy
  Pr  Pr0  1  0.99884607  0.29835961  0.70279432  1
  Pr  Pr1  1  0.40676515  0.70241151  0.29564636  1
  Pr  Pr2  1  0.00194213  0.29758849  0.29564636  1
  Pr  Pr3  1  0.99884607  0.70164039  0.29951354  1
  Ho  Ho4  1  0.58205131  0.29422475  0.71217344  1
  Ho  Ho5  1  0.99360181  0.70577525  0.71217344  1
  Mn  Mn6  1  0.63967837  0.32492010  0.03540154  1
  Mn  Mn7  1  0.36216666  0.32230462  0.31552872  1
  Mn  Mn8  1  0.35744456  0.03716836  0.32282789  1
  Mn  Mn9  1  0.64000375  0.31972755  0.32282789  1
  Mn  Mn10  1  0.36216666  0.67769538  0.96013796  1
  Mn  Mn11  1  0.63967837  0.67507990  0.68524173  1
  Mn  Mn12  1  0.64000375  0.96283164  0.67972380  1
  Mn  Mn13  1  0.35744456  0.68027245  0.67972380  1
  Mn  Mn14  1  0.00263934  0.00000000  0.99736066  1
  Mn  Mn15  1  0.24694695  0.12086969  0.63218336  1
  Mn  Mn16  1  0.75426587  0.12315019  0.12258394  1
  Mn  Mn17  1  0.75567295  0.63190787  0.11921345  1
  Mn  Mn18  1  0.24887869  0.12511361  0.11921345  1
  Mn  Mn19  1  0.75426587  0.87684981  0.36888432  1
  Mn  Mn20  1  0.24694695  0.87913031  0.87392274  1
  Mn  Mn21  1  0.24887869  0.36809213  0.87623492  1
  Mn  Mn22  1  0.75567295  0.87488639  0.87623492  1
  Mn  Mn23  1  0.99956997  0.99624777  0.50250215  1
  Mn  Mn24  1  0.50125007  0.49792788  0.50250215  1
  Mn  Mn25  1  0.49463250  0.00000000  0.50536750  1
  Mn  Mn26  1  0.99956997  0.50207212  0.99667781  1
  Mn  Mn27  1  0.50125007  0.00375223  0.99667781  1
  Mn  Mn28  1  0.50892000  0.50000000  0.99108000  1
