# generated using pymatgen
data_SiO2
_symmetry_space_group_name_H-M   'P 1'
_cell_length_a   5.01441329
_cell_length_b   8.28224457
_cell_length_c   14.23310750
_cell_angle_alpha   90.00000000
_cell_angle_beta   90.00000000
_cell_angle_gamma   90.00000000
_symmetry_Int_Tables_number   1
_chemical_formula_structural   SiO2
_chemical_formula_sum   'Si12 O24'
_cell_volume   591.10945510
_cell_formula_units_Z   12
loop_
 _symmetry_equiv_pos_site_id
 _symmetry_equiv_pos_as_xyz
  1  'x, y, z'
loop_
 _atom_site_type_symbol
 _atom_site_label
 _atom_site_symmetry_multiplicity
 _atom_site_fract_x
 _atom_site_fract_y
 _atom_site_fract_z
 _atom_site_occupancy
  Si  Si0  1  0.38729850  0.31604827  0.19952512  1
  Si  Si1  1  0.88729850  0.18395173  0.30047488  1
  Si  Si2  1  0.11270150  0.81604827  0.30047488  1
  Si  Si3  1  0.61270150  0.68395173  0.19952512  1
  Si  Si4  1  0.61270150  0.68395173  0.80047488  1
  Si  Si5  1  0.11270150  0.81604827  0.69952512  1
  Si  Si6  1  0.88729850  0.18395173  0.69952512  1
  Si  Si7  1  0.38729850  0.31604827  0.80047488  1
  Si  Si8  1  0.24643672  0.87867764  0.50000000  1
  Si  Si9  1  0.74643672  0.62132236  0.00000000  1
  Si  Si10  1  0.25356328  0.37867764  0.00000000  1
  Si  Si11  1  0.75356328  0.12132236  0.50000000  1
  O  O12  1  0.13618744  0.30216470  0.27243689  1
  O  O13  1  0.63618744  0.19783530  0.22756311  1
  O  O14  1  0.36381256  0.80216470  0.22756311  1
  O  O15  1  0.86381256  0.69783530  0.27243689  1
  O  O16  1  0.86381256  0.69783530  0.72756311  1
  O  O17  1  0.36381256  0.80216470  0.77243689  1
  O  O18  1  0.63618744  0.19783530  0.77243689  1
  O  O19  1  0.13618744  0.30216470  0.72756311  1
  O  O20  1  0.27333258  0.26820594  0.09464798  1
  O  O21  1  0.77333258  0.23179406  0.40535202  1
  O  O22  1  0.22666742  0.76820594  0.40535202  1
  O  O23  1  0.72666742  0.73179406  0.09464798  1
  O  O24  1  0.72666742  0.73179406  0.90535202  1
  O  O25  1  0.22666742  0.76820594  0.59464798  1
  O  O26  1  0.77333258  0.23179406  0.59464798  1
  O  O27  1  0.27333258  0.26820594  0.90535202  1
  O  O28  1  0.50000000  0.50000000  0.20191032  1
  O  O29  1  0.00000000  0.00000000  0.29808968  1
  O  O30  1  0.50000000  0.50000000  0.79808968  1
  O  O31  1  0.00000000  0.00000000  0.70191032  1
  O  O32  1  0.00000000  0.00000000  0.50000000  1
  O  O33  1  0.50000000  0.50000000  0.00000000  1
  O  O34  1  0.50000000  0.00000000  0.50000000  1
  O  O35  1  0.00000000  0.50000000  0.00000000  1
