# generated using pymatgen
data_K2HgCl4
_symmetry_space_group_name_H-M   'P 1'
_cell_length_a   8.11870604
_cell_length_b   9.19180160
_cell_length_c   13.64945700
_cell_angle_alpha   90.00000000
_cell_angle_beta   90.00000000
_cell_angle_gamma   90.00000000
_symmetry_Int_Tables_number   1
_chemical_formula_structural   K2HgCl4
_chemical_formula_sum   'K8 Hg4 Cl16'
_cell_volume   1018.59803338
_cell_formula_units_Z   4
loop_
 _symmetry_equiv_pos_site_id
 _symmetry_equiv_pos_as_xyz
  1  'x, y, z'
loop_
 _atom_site_type_symbol
 _atom_site_label
 _atom_site_symmetry_multiplicity
 _atom_site_fract_x
 _atom_site_fract_y
 _atom_site_fract_z
 _atom_site_occupancy
  K  K0  1  -0.00000000  0.50000000  0.50000000  1
  K  K1  1  -0.00000000  -0.00000000  0.00000000  1
  K  K2  1  0.50000000  0.50000000  0.00000000  1
  K  K3  1  -0.00000000  0.50000000  0.00000000  1
  K  K4  1  0.50000000  0.00000000  0.50000000  1
  K  K5  1  -0.00000000  0.00000000  0.50000000  1
  K  K6  1  0.50000000  0.50000000  0.50000000  1
  K  K7  1  0.50000000  0.00000000  0.00000000  1
  Hg  Hg8  1  0.27501844  0.25000000  0.23342890  1
  Hg  Hg9  1  0.72498156  0.75000000  0.76657110  1
  Hg  Hg10  1  0.77501844  0.75000000  0.26657110  1
  Hg  Hg11  1  0.22498156  0.25000000  0.73342890  1
  Cl  Cl12  1  0.77368450  0.49920809  0.30412342  1
  Cl  Cl13  1  0.74904765  0.25000000  0.04566581  1
  Cl  Cl14  1  0.72631550  0.00079191  0.80412342  1
  Cl  Cl15  1  0.75525567  0.75000000  0.06825780  1
  Cl  Cl16  1  0.25095235  0.75000000  0.95433419  1
  Cl  Cl17  1  0.22631550  0.50079191  0.69587658  1
  Cl  Cl18  1  0.27368450  0.50079191  0.19587658  1
  Cl  Cl19  1  0.24474433  0.25000000  0.93174220  1
  Cl  Cl20  1  0.77368450  0.00079191  0.30412342  1
  Cl  Cl21  1  0.22631550  0.99920809  0.69587658  1
  Cl  Cl22  1  0.74474433  0.75000000  0.56825780  1
  Cl  Cl23  1  0.75095235  0.25000000  0.54566581  1
  Cl  Cl24  1  0.27368450  0.99920809  0.19587658  1
  Cl  Cl25  1  0.24904765  0.75000000  0.45433419  1
  Cl  Cl26  1  0.72631550  0.49920809  0.80412342  1
  Cl  Cl27  1  0.25525567  0.25000000  0.43174220  1
