# generated using pymatgen
data_MnP3H12NO7
_symmetry_space_group_name_H-M   'P 1'
_cell_length_a   7.56123179
_cell_length_b   9.41478569
_cell_length_c   15.46833723
_cell_angle_alpha   90.00000000
_cell_angle_beta   90.00000000
_cell_angle_gamma   108.35619965
_symmetry_Int_Tables_number   1
_chemical_formula_structural   MnP3H12NO7
_chemical_formula_sum   'Mn4 P12 H48 N4 O28'
_cell_volume   1045.12055793
_cell_formula_units_Z   4
loop_
 _symmetry_equiv_pos_site_id
 _symmetry_equiv_pos_as_xyz
  1  'x, y, z'
loop_
 _atom_site_type_symbol
 _atom_site_label
 _atom_site_symmetry_multiplicity
 _atom_site_fract_x
 _atom_site_fract_y
 _atom_site_fract_z
 _atom_site_occupancy
  Mn  Mn0  1  0.60027919  0.59282534  0.67161194  1
  Mn  Mn1  1  0.10027919  0.09282534  0.82838806  1
  Mn  Mn2  1  0.89972081  0.90717466  0.17161194  1
  Mn  Mn3  1  0.39972081  0.40717466  0.32838806  1
  P  P4  1  0.85035321  0.95433423  0.65086865  1
  P  P5  1  0.14964679  0.04566577  0.34913135  1
  P  P6  1  0.93384645  0.68851061  0.82946844  1
  P  P7  1  0.56615355  0.81148939  0.32946844  1
  P  P8  1  0.29848098  0.72955954  0.57001885  1
  P  P9  1  0.06615355  0.31148939  0.17053156  1
  P  P10  1  0.64964679  0.54566577  0.15086865  1
  P  P11  1  0.35035321  0.45433423  0.84913135  1
  P  P12  1  0.70151902  0.27044046  0.42998115  1
  P  P13  1  0.20151902  0.77044046  0.07001885  1
  P  P14  1  0.43384645  0.18851061  0.67053156  1
  P  P15  1  0.79848098  0.22955954  0.92998115  1
  H  H16  1  0.79196428  0.95598320  0.00043219  1
  H  H17  1  0.89353918  0.65413790  0.54058743  1
  H  H18  1  0.17851712  0.98718734  0.43075689  1
  H  H19  1  0.62510025  0.94667793  0.85470637  1
  H  H20  1  0.67851712  0.48718734  0.06924311  1
  H  H21  1  0.45150592  0.88831793  0.36788191  1
  H  H22  1  0.29196428  0.45598320  0.49956781  1
  H  H23  1  0.54849408  0.11168207  0.63211809  1
  H  H24  1  0.28361428  0.16396176  0.61110577  1
  H  H25  1  0.57879399  0.13759189  0.09525845  1
  H  H26  1  0.92745868  0.45612628  0.69150508  1
  H  H27  1  0.04407081  0.66590738  0.03083820  1
  H  H28  1  0.51165756  0.61483672  0.13367226  1
  H  H29  1  0.27707702  0.79995519  0.64869880  1
  H  H30  1  0.10646082  0.34586210  0.45941257  1
  H  H31  1  0.39353918  0.15413790  0.95941257  1
  H  H32  1  0.07879399  0.63759189  0.40474155  1
  H  H33  1  0.82148288  0.01281266  0.56924311  1
  H  H34  1  0.42745868  0.95612628  0.80849492  1
  H  H35  1  0.02715249  0.71181137  0.31255507  1
  H  H36  1  0.37489975  0.05332207  0.14529363  1
  H  H37  1  0.48834244  0.38516328  0.86632774  1
  H  H38  1  0.42120601  0.86240811  0.90474155  1
  H  H39  1  0.95592919  0.33409262  0.96916180  1
  H  H40  1  0.98834244  0.88516328  0.63367226  1
  H  H41  1  0.12510025  0.44667793  0.64529363  1
  H  H42  1  0.20803572  0.04401680  0.99956781  1
  H  H43  1  0.78361428  0.66396176  0.88889423  1
  H  H44  1  0.72292298  0.20004481  0.35130120  1
  H  H45  1  0.70803572  0.54401680  0.50043219  1
  H  H46  1  0.47284751  0.78818863  0.81255507  1
  H  H47  1  0.22292298  0.70004481  0.14869880  1
  H  H48  1  0.57254132  0.04387372  0.19150508  1
  H  H49  1  0.97284751  0.28818863  0.68744493  1
  H  H50  1  0.92120601  0.36240811  0.59525845  1
  H  H51  1  0.04849408  0.61168207  0.86788191  1
  H  H52  1  0.45592919  0.83409262  0.53083820  1
  H  H53  1  0.32148288  0.51281266  0.93075689  1
  H  H54  1  0.95150592  0.38831793  0.13211809  1
  H  H55  1  0.77707702  0.29995519  0.85130120  1
  H  H56  1  0.71638572  0.83603824  0.38889423  1
  H  H57  1  0.60646082  0.84586210  0.04058743  1
  H  H58  1  0.52715249  0.21181137  0.18744493  1
  H  H59  1  0.21638572  0.33603824  0.11110577  1
  H  H60  1  0.07254132  0.54387372  0.30849492  1
  H  H61  1  0.01165756  0.11483672  0.36632774  1
  H  H62  1  0.54407081  0.16590738  0.46916180  1
  H  H63  1  0.87489975  0.55332207  0.35470637  1
  N  N64  1  0.48556496  0.88834145  0.84443926  1
  N  N65  1  0.01443504  0.61165855  0.34443926  1
  N  N66  1  0.98556496  0.38834145  0.65556074  1
  N  N67  1  0.51443504  0.11165855  0.15556074  1
  O  O68  1  0.24476632  0.38093499  0.45332145  1
  O  O69  1  0.75523368  0.61906501  0.54667855  1
  O  O70  1  0.87223776  0.28978351  0.48628355  1
  O  O71  1  0.12776224  0.71021649  0.51371645  1
  O  O72  1  0.37223776  0.78978351  0.01371645  1
  O  O73  1  0.85936625  0.60782830  0.74491384  1
  O  O74  1  0.06661323  0.91217416  0.28892276  1
  O  O75  1  0.65293574  0.41354810  0.40864801  1
  O  O76  1  0.25523368  0.11906501  0.95332145  1
  O  O77  1  0.56661323  0.41217416  0.21107724  1
  O  O78  1  0.45807892  0.64612294  0.32753585  1
  O  O79  1  0.34706426  0.58645190  0.59135199  1
  O  O80  1  0.15293574  0.91354810  0.09135199  1
  O  O81  1  0.82911131  0.66342454  0.17923104  1
  O  O82  1  0.32911131  0.16342454  0.32076896  1
  O  O83  1  0.74476632  0.88093499  0.04667855  1
  O  O84  1  0.62776224  0.21021649  0.98628355  1
  O  O85  1  0.67088869  0.83657546  0.67923104  1
  O  O86  1  0.43338677  0.58782584  0.78892276  1
  O  O87  1  0.35936625  0.10782830  0.75508616  1
  O  O88  1  0.17088869  0.33657546  0.82076896  1
  O  O89  1  0.95807892  0.14612294  0.17246415  1
  O  O90  1  0.04192108  0.85387706  0.82753585  1
  O  O91  1  0.64063375  0.89217170  0.24491384  1
  O  O92  1  0.54192108  0.35387706  0.67246415  1
  O  O93  1  0.93338677  0.08782584  0.71107724  1
  O  O94  1  0.14063375  0.39217170  0.25508616  1
  O  O95  1  0.84706426  0.08645190  0.90864801  1
