# generated using pymatgen
data_HoAlB14
_symmetry_space_group_name_H-M   'P 1'
_cell_length_a   5.90799855
_cell_length_b   7.28971842
_cell_length_c   7.28971822
_cell_angle_alpha   68.79560444
_cell_angle_beta   66.09457432
_cell_angle_gamma   66.09457095
_symmetry_Int_Tables_number   1
_chemical_formula_structural   HoAlB14
_chemical_formula_sum   'Ho2 Al2 B28'
_cell_volume   254.96693576
_cell_formula_units_Z   2
loop_
 _symmetry_equiv_pos_site_id
 _symmetry_equiv_pos_as_xyz
  1  'x, y, z'
loop_
 _atom_site_type_symbol
 _atom_site_label
 _atom_site_symmetry_multiplicity
 _atom_site_fract_x
 _atom_site_fract_y
 _atom_site_fract_z
 _atom_site_occupancy
  Ho  Ho0  1  0.75000000  0.59952130  0.90047870  1
  Ho  Ho1  1  0.25000000  0.40047870  0.09952130  1
  Al  Al2  1  0.50000000  0.00000000  0.50000000  1
  Al  Al3  1  0.00000000  0.00000000  0.50000000  1
  B  B4  1  0.14260216  0.23111139  0.48368429  1
  B  B5  1  0.67256660  0.03154901  0.12788536  1
  B  B6  1  0.66711459  0.36732259  0.29844822  1
  B  B7  1  0.83288541  0.20155178  0.13267741  1
  B  B8  1  0.33288541  0.63267741  0.70155178  1
  B  B9  1  0.39828397  0.60124978  0.27678103  1
  B  B10  1  0.33200097  0.37211464  0.46845099  1
  B  B11  1  0.85739784  0.76888861  0.51631571  1
  B  B12  1  0.82743340  0.37211464  0.46845099  1
  B  B13  1  0.17256660  0.62788536  0.53154901  1
  B  B14  1  0.16711459  0.79844822  0.86732259  1
  B  B15  1  0.59014602  0.24317996  0.57652800  1
  B  B16  1  0.16799903  0.03154901  0.12788536  1
  B  B17  1  0.10171603  0.22321897  0.89875022  1
  B  B18  1  0.09014602  0.07652800  0.74317996  1
  B  B19  1  0.60171603  0.39875022  0.72321897  1
  B  B20  1  0.64260216  0.98368429  0.73111139  1
  B  B21  1  0.40985398  0.75682004  0.42347200  1
  B  B22  1  0.77631478  0.22321897  0.89875022  1
  B  B23  1  0.27631478  0.39875022  0.72321897  1
  B  B24  1  0.72368522  0.60124978  0.27678103  1
  B  B25  1  0.89828397  0.77678103  0.10124978  1
  B  B26  1  0.22368522  0.77678103  0.10124978  1
  B  B27  1  0.66799903  0.62788536  0.53154901  1
  B  B28  1  0.90985398  0.92347200  0.25682004  1
  B  B29  1  0.35739784  0.01631571  0.26888861  1
  B  B30  1  0.83200097  0.96845099  0.87211464  1
  B  B31  1  0.32743340  0.96845099  0.87211464  1
