# generated using pymatgen
data_H3ClO5
_symmetry_space_group_name_H-M   'P 1'
_cell_length_a   9.29533213
_cell_length_b   5.85680798
_cell_length_c   6.95079023
_cell_angle_alpha   90.00000000
_cell_angle_beta   91.76936462
_cell_angle_gamma   90.00000000
_symmetry_Int_Tables_number   1
_chemical_formula_structural   H3ClO5
_chemical_formula_sum   'H12 Cl4 O20'
_cell_volume   378.22738003
_cell_formula_units_Z   4
loop_
 _symmetry_equiv_pos_site_id
 _symmetry_equiv_pos_as_xyz
  1  'x, y, z'
loop_
 _atom_site_type_symbol
 _atom_site_label
 _atom_site_symmetry_multiplicity
 _atom_site_fract_x
 _atom_site_fract_y
 _atom_site_fract_z
 _atom_site_occupancy
  H  H0  1  0.14563133  0.88716524  0.09133782  1
  H  H1  1  0.14563133  0.61283476  0.09133782  1
  H  H2  1  0.24207318  0.75000000  0.26336519  1
  H  H3  1  0.59281236  0.75000000  0.39037071  1
  H  H4  1  0.67958340  0.75000000  0.16412949  1
  H  H5  1  0.77179766  0.75000000  0.39497964  1
  H  H6  1  0.91592981  0.25000000  0.88662571  1
  H  H7  1  0.82137288  0.25000000  0.66582699  1
  H  H8  1  0.73608113  0.25000000  0.89191942  1
  H  H9  1  0.41341924  0.25000000  0.61980611  1
  H  H10  1  0.23284776  0.25000000  0.60073673  1
  H  H11  1  0.31688848  0.25000000  0.83223410  1
  Cl  Cl12  1  0.93540835  0.25000000  0.31866217  1
  Cl  Cl13  1  0.42239841  0.25000000  0.18640819  1
  Cl  Cl14  1  0.07480995  0.75000000  0.70325696  1
  Cl  Cl15  1  0.57174782  0.75000000  0.81625465  1
  O  O16  1  0.81690946  0.25000000  0.45768208  1
  O  O17  1  0.29897783  0.25000000  0.04225322  1
  O  O18  1  0.19325232  0.75000000  0.57345591  1
  O  O19  1  0.69331254  0.75000000  0.96298573  1
  O  O20  1  0.07422885  0.25000000  0.42107393  1
  O  O21  1  0.55691476  0.25000000  0.08753889  1
  O  O22  1  0.93768185  0.75000000  0.59785810  1
  O  O23  1  0.43658291  0.75000000  0.91223206  1
  O  O24  1  0.92025878  0.04819979  0.19856566  1
  O  O25  1  0.40853256  0.45262499  0.30593359  1
  O  O26  1  0.08411322  0.54613948  0.82861502  1
  O  O27  1  0.58771079  0.95217897  0.69642410  1
  O  O28  1  0.08411322  0.95386052  0.82861502  1
  O  O29  1  0.58771079  0.54782103  0.69642410  1
  O  O30  1  0.92025878  0.45180021  0.19856566  1
  O  O31  1  0.40853256  0.04737501  0.30593359  1
  O  O32  1  0.15650086  0.75000000  0.17550573  1
  O  O33  1  0.68118706  0.75000000  0.31828495  1
  O  O34  1  0.82320771  0.25000000  0.81673800  1
  O  O35  1  0.32096503  0.25000000  0.68272794  1
