# generated using pymatgen
data_Ba2PrCu3O8
_symmetry_space_group_name_H-M   'P 1'
_cell_length_a   3.97607178
_cell_length_b   3.97583724
_cell_length_c   11.72950421
_cell_angle_alpha   90.00001125
_cell_angle_beta   90.00004568
_cell_angle_gamma   89.99999856
_symmetry_Int_Tables_number   1
_chemical_formula_structural   Ba2PrCu3O8
_chemical_formula_sum   'Ba2 Pr1 Cu3 O8'
_cell_volume   185.42251562
_cell_formula_units_Z   1
loop_
 _symmetry_equiv_pos_site_id
 _symmetry_equiv_pos_as_xyz
  1  'x, y, z'
loop_
 _atom_site_type_symbol
 _atom_site_label
 _atom_site_symmetry_multiplicity
 _atom_site_fract_x
 _atom_site_fract_y
 _atom_site_fract_z
 _atom_site_occupancy
  Ba  Ba0  1  0.49999930  0.49999993  0.83245359  1
  Ba  Ba1  1  0.50000046  0.50000100  0.16762142  1
  Pr  Pr2  1  0.50000039  0.50000019  0.49985639  1
  Cu  Cu3  1  0.00000153  0.99999733  0.33981193  1
  Cu  Cu4  1  0.00000328  0.99999945  0.66027985  1
  Cu  Cu5  1  0.99999782  0.00000070  0.99999568  1
  O  O6  1  0.00000003  0.50000029  0.62930533  1
  O  O7  1  0.50000087  -0.00000025  0.37078371  1
  O  O8  1  0.99999859  0.49999992  0.99999090  1
  O  O9  1  0.49999975  0.99999969  0.62929124  1
  O  O10  1  -0.00000023  0.00000070  0.17092611  1
  O  O11  1  -0.00000024  0.00000036  0.82892392  1
  O  O12  1  -0.00000014  0.50000027  0.37076876  1
  O  O13  1  0.49999859  0.00000041  0.99999117  1
