# generated using pymatgen
data_H7ClO3
_symmetry_space_group_name_H-M   'P 1'
_cell_length_a   6.72187354
_cell_length_b   6.64303894
_cell_length_c   6.13661526
_cell_angle_alpha   70.10285581
_cell_angle_beta   110.87787623
_cell_angle_gamma   74.86778743
_symmetry_Int_Tables_number   1
_chemical_formula_structural   H7ClO3
_chemical_formula_sum   'H14 Cl2 O6'
_cell_volume   216.75500228
_cell_formula_units_Z   2
loop_
 _symmetry_equiv_pos_site_id
 _symmetry_equiv_pos_as_xyz
  1  'x, y, z'
loop_
 _atom_site_type_symbol
 _atom_site_label
 _atom_site_symmetry_multiplicity
 _atom_site_fract_x
 _atom_site_fract_y
 _atom_site_fract_z
 _atom_site_occupancy
  H  H0  1  0.23015813  0.96581016  0.39560332  1
  H  H1  1  0.46531411  0.72778245  0.57495360  1
  H  H2  1  0.08215311  0.79531690  0.91489943  1
  H  H3  1  0.08854897  0.54728438  0.17731483  1
  H  H4  1  0.31392758  0.54150921  0.06316462  1
  H  H5  1  0.78825205  0.33037508  0.74657647  1
  H  H6  1  0.56727382  0.46542656  0.45127292  1
  H  H7  1  0.65621470  0.21828677  0.22718058  1
  H  H8  1  0.54477050  0.43318986  0.93952799  1
  H  H9  1  0.57301380  0.16159883  0.73697228  1
  H  H10  1  0.57678911  0.97879259  0.00080131  1
  H  H11  1  0.46167929  0.94072628  0.70855430  1
  H  H12  1  0.97971258  0.55226711  0.40562476  1
  H  H13  1  0.86989914  0.43745562  0.23133004  1
  Cl  Cl14  1  0.79465805  0.86470114  0.42456679  1
  Cl  Cl15  1  0.11692142  0.16800334  0.97866181  1
  O  O16  1  0.35073034  0.84750871  0.58558178  1
  O  O17  1  0.18448487  0.64193911  0.07815838  1
  O  O18  1  0.60637541  0.40225210  0.63788076  1
  O  O19  1  0.59065807  0.39811644  0.12313154  1
  O  O20  1  0.57898290  0.99960378  0.83300315  1
  O  O21  1  0.01635104  0.45217258  0.32219135  1
