# generated using pymatgen
data_Eu(HO)3
_symmetry_space_group_name_H-M   'P 1'
_cell_length_a   6.47712931
_cell_length_b   6.72500427
_cell_length_c   3.67926949
_cell_angle_alpha   90.00000000
_cell_angle_beta   90.00000000
_cell_angle_gamma   120.90461677
_symmetry_Int_Tables_number   1
_chemical_formula_structural   Eu(HO)3
_chemical_formula_sum   'Eu2 H6 O6'
_cell_volume   137.51052013
_cell_formula_units_Z   2
loop_
 _symmetry_equiv_pos_site_id
 _symmetry_equiv_pos_as_xyz
  1  'x, y, z'
loop_
 _atom_site_type_symbol
 _atom_site_label
 _atom_site_symmetry_multiplicity
 _atom_site_fract_x
 _atom_site_fract_y
 _atom_site_fract_z
 _atom_site_occupancy
  Eu  Eu0  1  0.33191317  0.67735872  0.25000000  1
  Eu  Eu1  1  0.66808683  0.32264128  0.75000000  1
  H  H2  1  0.81648568  0.68002604  0.25000000  1
  H  H3  1  0.86761503  0.14527630  0.25000000  1
  H  H4  1  0.27972842  0.13984933  0.25000000  1
  H  H5  1  0.18351432  0.31997396  0.75000000  1
  H  H6  1  0.13238497  0.85472370  0.75000000  1
  H  H7  1  0.72027158  0.86015067  0.75000000  1
  O  O8  1  0.90070469  0.59417185  0.25000000  1
  O  O9  1  0.69543461  0.08740972  0.25000000  1
  O  O10  1  0.39936376  0.30501013  0.25000000  1
  O  O11  1  0.09929531  0.40582815  0.75000000  1
  O  O12  1  0.30456539  0.91259028  0.75000000  1
  O  O13  1  0.60063624  0.69498987  0.75000000  1
