# generated using pymatgen
data_Ba(H2O3)2
_symmetry_space_group_name_H-M   'P 1'
_cell_length_a   6.50077953
_cell_length_b   6.50077953
_cell_length_c   6.46020506
_cell_angle_alpha   86.40207974
_cell_angle_beta   93.59792026
_cell_angle_gamma   82.61811790
_symmetry_Int_Tables_number   1
_chemical_formula_structural   Ba(H2O3)2
_chemical_formula_sum   'Ba2 H8 O12'
_cell_volume   269.52020112
_cell_formula_units_Z   2
loop_
 _symmetry_equiv_pos_site_id
 _symmetry_equiv_pos_as_xyz
  1  'x, y, z'
loop_
 _atom_site_type_symbol
 _atom_site_label
 _atom_site_symmetry_multiplicity
 _atom_site_fract_x
 _atom_site_fract_y
 _atom_site_fract_z
 _atom_site_occupancy
  Ba  Ba0  1  0.83054778  0.83054778  0.75000000  1
  Ba  Ba1  1  0.16606406  0.16606406  0.25000000  1
  H  H2  1  0.37734223  0.61500765  0.02883637  1
  H  H3  1  0.17764862  0.66306292  0.14024102  1
  H  H4  1  0.61500765  0.37734223  0.47116363  1
  H  H5  1  0.66306292  0.17764862  0.35975798  1
  H  H6  1  0.98571699  0.41124880  0.67329281  1
  H  H7  1  0.41124880  0.98571699  0.82670719  1
  H  H8  1  0.92264233  0.63872907  0.29655622  1
  H  H9  1  0.63872907  0.92264233  0.20344378  1
  O  O10  1  0.94685302  0.81276830  0.18499501  1
  O  O11  1  0.81276830  0.94685302  0.31500499  1
  O  O12  1  0.87433965  0.20634188  0.91876454  1
  O  O13  1  0.20634188  0.87433965  0.58123546  1
  O  O14  1  0.24546831  0.56067988  0.05063553  1
  O  O15  1  0.56067988  0.24546831  0.44936447  1
  O  O16  1  0.84472764  0.41034998  0.85770417  1
  O  O17  1  0.41034998  0.84472764  0.64229583  1
  O  O18  1  0.06530082  0.44704220  0.54664480  1
  O  O19  1  0.44704220  0.06530082  0.95335520  1
  O  O20  1  0.88586553  0.49709436  0.39061001  1
  O  O21  1  0.49709436  0.88586553  0.10938999  1
