# generated using pymatgen
data_Ca(H8O5)2
_symmetry_space_group_name_H-M   'P 1'
_cell_length_a   6.17252800
_cell_length_b   6.31923644
_cell_length_c   11.82224956
_cell_angle_alpha   92.41291011
_cell_angle_beta   90.17358651
_cell_angle_gamma   87.10929976
_symmetry_Int_Tables_number   1
_chemical_formula_structural   Ca(H8O5)2
_chemical_formula_sum   'Ca2 H32 O20'
_cell_volume   460.13939797
_cell_formula_units_Z   2
loop_
 _symmetry_equiv_pos_site_id
 _symmetry_equiv_pos_as_xyz
  1  'x, y, z'
loop_
 _atom_site_type_symbol
 _atom_site_label
 _atom_site_symmetry_multiplicity
 _atom_site_fract_x
 _atom_site_fract_y
 _atom_site_fract_z
 _atom_site_occupancy
  Ca  Ca0  1  0.99251190  0.96762599  0.53657508  1
  Ca  Ca1  1  0.99739702  0.99648698  0.99563763  1
  H  H2  1  0.27866010  0.37145753  0.38009068  1
  H  H3  1  0.04081104  0.27557927  0.36691959  1
  H  H4  1  0.94021838  0.68762859  0.34017952  1
  H  H5  1  0.71418709  0.63383022  0.40268571  1
  H  H6  1  0.72988605  0.07590297  0.34454511  1
  H  H7  1  0.65258976  0.30621176  0.40911681  1
  H  H8  1  0.32588735  0.96582160  0.36178699  1
  H  H9  1  0.37000744  0.72551717  0.40597620  1
  H  H10  1  0.94093411  0.31874170  0.83265603  1
  H  H11  1  0.69932738  0.36936146  0.89382080  1
  H  H12  1  0.30076617  0.61086590  0.90297243  1
  H  H13  1  0.06374588  0.63085873  0.84161057  1
  H  H14  1  0.27967717  0.00327910  0.80519847  1
  H  H15  1  0.37911741  0.15225165  0.90139213  1
  H  H16  1  0.63334894  0.91501407  0.82797439  1
  H  H17  1  0.63616571  0.69862037  0.90031086  1
  H  H18  1  0.81333334  0.71174611  0.71593364  1
  H  H19  1  0.71697681  0.60107628  0.60280632  1
  H  H20  1  0.27300338  0.36399266  0.59312502  1
  H  H21  1  0.02841942  0.43269309  0.61816066  1
  H  H22  1  0.38602813  0.72370769  0.61383381  1
  H  H23  1  0.44674784  0.96407048  0.63365531  1
  H  H24  1  0.71995223  0.18139723  0.72080180  1
  H  H25  1  0.61759862  0.26719314  0.60618997  1
  H  H26  1  0.28719614  0.66177470  0.10669278  1
  H  H27  1  0.04071925  0.68055025  0.14683870  1
  H  H28  1  0.92159178  0.32526341  0.18385441  1
  H  H29  1  0.72167225  0.39015048  0.09825447  1
  H  H30  1  0.63594866  0.72892880  0.10429247  1
  H  H31  1  0.61362706  0.97531667  0.12969214  1
  H  H32  1  0.28482090  0.14020860  0.17331726  1
  H  H33  1  0.38699367  0.29904375  0.08923670  1
  O  O34  1  0.50670946  0.49609655  0.43708059  1
  O  O35  1  0.52439038  0.51568305  0.94135704  1
  O  O36  1  0.50833385  0.49328656  0.56378202  1
  O  O37  1  0.51090991  0.51843556  0.06745767  1
  O  O38  1  0.18485986  0.28335827  0.33012179  1
  O  O39  1  0.82923829  0.74103059  0.39373686  1
  O  O40  1  0.77655451  0.18676547  0.39822123  1
  O  O41  1  0.26054819  0.84674117  0.39734756  1
  O  O42  1  0.80761978  0.25457033  0.85457356  1
  O  O43  1  0.16805757  0.70822269  0.88561960  1
  O  O44  1  0.25151043  0.13150603  0.85423739  1
  O  O45  1  0.73169255  0.80923937  0.86045205  1
  O  O46  1  0.85513922  0.66774731  0.63736439  1
  O  O47  1  0.12628083  0.30557051  0.60315569  1
  O  O48  1  0.32587409  0.86759160  0.64311131  1
  O  O49  1  0.68047680  0.13331281  0.64192922  1
  O  O50  1  0.16382453  0.76429933  0.13082036  1
  O  O51  1  0.86424164  0.30044379  0.10758882  1
  O  O52  1  0.72381340  0.85779969  0.12299025  1
  O  O53  1  0.33749434  0.14894191  0.09525916  1
