# generated using pymatgen
data_SrH4O3
_symmetry_space_group_name_H-M   'P 1'
_cell_length_a   3.93720202
_cell_length_b   5.68021950
_cell_length_c   7.57648269
_cell_angle_alpha   90.32009896
_cell_angle_beta   87.53188402
_cell_angle_gamma   86.08616076
_symmetry_Int_Tables_number   1
_chemical_formula_structural   SrH4O3
_chemical_formula_sum   'Sr2 H8 O6'
_cell_volume   168.88359434
_cell_formula_units_Z   2
loop_
 _symmetry_equiv_pos_site_id
 _symmetry_equiv_pos_as_xyz
  1  'x, y, z'
loop_
 _atom_site_type_symbol
 _atom_site_label
 _atom_site_symmetry_multiplicity
 _atom_site_fract_x
 _atom_site_fract_y
 _atom_site_fract_z
 _atom_site_occupancy
  Sr  Sr0  1  0.98528879  0.63627025  0.70593814  1
  Sr  Sr1  1  0.99413328  0.36502980  0.22443663  1
  H  H2  1  0.31136345  0.03716888  0.85068016  1
  H  H3  1  0.77701407  0.14796134  0.86287094  1
  H  H4  1  0.78637947  0.90110330  0.34391064  1
  H  H5  1  0.20016266  0.89260623  0.34351357  1
  H  H6  1  0.48159845  0.59837921  0.44582372  1
  H  H7  1  0.49149065  0.18373419  0.42413502  1
  H  H8  1  0.45424621  0.72818142  0.97885221  1
  H  H9  1  0.60348381  0.45019758  0.97664622  1
  O  O10  1  0.91166342  0.27868761  0.89869110  1
  O  O11  1  0.00103634  0.79041623  0.36886361  1
  O  O12  1  0.45494141  0.89151272  0.82264551  1
  O  O13  1  0.49231825  0.08608978  0.31431889  1
  O  O14  1  0.51942605  0.46778768  0.52661050  1
  O  O15  1  0.46609569  0.57354478  0.05608315  1
