# generated using pymatgen
data_Ca(H8O5)2
_symmetry_space_group_name_H-M   'P 1'
_cell_length_a   6.60256043
_cell_length_b   6.40059692
_cell_length_c   10.77212310
_cell_angle_alpha   86.20823736
_cell_angle_beta   91.07828054
_cell_angle_gamma   87.22124197
_symmetry_Int_Tables_number   1
_chemical_formula_structural   Ca(H8O5)2
_chemical_formula_sum   'Ca2 H32 O20'
_cell_volume   453.59204437
_cell_formula_units_Z   2
loop_
 _symmetry_equiv_pos_site_id
 _symmetry_equiv_pos_as_xyz
  1  'x, y, z'
loop_
 _atom_site_type_symbol
 _atom_site_label
 _atom_site_symmetry_multiplicity
 _atom_site_fract_x
 _atom_site_fract_y
 _atom_site_fract_z
 _atom_site_occupancy
  Ca  Ca0  1  0.95688861  0.97042787  0.27248062  1
  Ca  Ca1  1  0.97717623  0.99432767  0.74615803  1
  H  H2  1  0.28660037  0.36795664  0.37334750  1
  H  H3  1  0.04792472  0.39509313  0.37894253  1
  H  H4  1  0.87184448  0.62447984  0.44765169  1
  H  H5  1  0.71591481  0.56118241  0.34507775  1
  H  H6  1  0.62326384  0.14567952  0.38665420  1
  H  H7  1  0.36531031  0.73211531  0.34814187  1
  H  H8  1  0.30234948  0.90694147  0.44494674  1
  H  H9  1  0.76117863  0.36434385  0.87509662  1
  H  H10  1  0.03471257  0.52390774  0.87170002  1
  H  H11  1  0.14511232  0.69764795  0.94291780  1
  H  H12  1  0.23914754  0.22389077  0.87939290  1
  H  H13  1  0.41192087  0.04656667  0.87461560  1
  H  H14  1  0.62934817  0.75726469  0.84603157  1
  H  H15  1  0.71239768  0.86655789  0.96341107  1
  H  H16  1  0.71981774  0.66244363  0.63249255  1
  H  H17  1  0.78624740  0.85059293  0.53476988  1
  H  H18  1  0.03044781  0.43993714  0.64898024  1
  H  H19  1  0.14373134  0.29500692  0.55839788  1
  H  H20  1  0.38862765  0.76536801  0.62993480  1
  H  H21  1  0.42997111  0.00540756  0.62863481  1
  H  H22  1  0.61415320  0.30175840  0.64990412  1
  H  H23  1  0.70020688  0.13686720  0.55144680  1
  H  H24  1  0.01503549  0.64616827  0.11510098  1
  H  H25  1  0.24966878  0.64850421  0.14235395  1
  H  H26  1  0.88018640  0.36956023  0.17390553  1
  H  H27  1  0.90492626  0.28968913  0.00384371  1
  H  H28  1  0.60337768  0.95780900  0.12936126  1
  H  H29  1  0.62973106  0.71165703  0.14225983  1
  H  H30  1  0.36414306  0.05003126  0.23620565  1
  H  H31  1  0.31370131  0.10724827  0.09010948  1
  H  H32  1  0.37173217  0.56758923  0.81496666  1
  H  H33  1  0.45679846  0.36991121  0.17031145  1
  O  O34  1  0.16348973  0.29279003  0.40141017  1
  O  O35  1  0.86426117  0.59884548  0.35781332  1
  O  O36  1  0.74340501  0.06497370  0.41940056  1
  O  O37  1  0.28701031  0.87304292  0.35611763  1
  O  O38  1  0.90088828  0.31757321  0.89969632  1
  O  O39  1  0.12701285  0.64702206  0.85845662  1
  O  O40  1  0.27210209  0.07573272  0.90219068  1
  O  O41  1  0.68949272  0.88931891  0.87171722  1
  O  O42  1  0.84680323  0.74157445  0.59756662  1
  O  O43  1  0.10459541  0.30443875  0.64776313  1
  O  O44  1  0.31829751  0.90952275  0.61394405  1
  O  O45  1  0.66376122  0.15142582  0.64320448  1
  O  O46  1  0.12804538  0.73860360  0.11022296  1
  O  O47  1  0.93067520  0.25230288  0.12853262  1
  O  O48  1  0.70692114  0.83895175  0.12166865  1
  O  O49  1  0.41382859  0.12232403  0.15769681  1
  O  O50  1  0.48245497  0.51484314  0.32371731  1
  O  O51  1  0.52085992  0.53865586  0.80373720  1
  O  O52  1  0.53693266  0.55084129  0.66625837  1
  O  O53  1  0.46634018  0.52334260  0.18578319  1
