# generated using pymatgen
data_KTiI3
_symmetry_space_group_name_H-M   'P 1'
_cell_length_a   14.05807968
_cell_length_b   14.05807980
_cell_length_c   6.96531616
_cell_angle_alpha   90.00000000
_cell_angle_beta   90.00000000
_cell_angle_gamma   119.99999970
_symmetry_Int_Tables_number   1
_chemical_formula_structural   KTiI3
_chemical_formula_sum   'K6 Ti6 I18'
_cell_volume   1192.12960152
_cell_formula_units_Z   6
loop_
 _symmetry_equiv_pos_site_id
 _symmetry_equiv_pos_as_xyz
  1  'x, y, z'
loop_
 _atom_site_type_symbol
 _atom_site_label
 _atom_site_symmetry_multiplicity
 _atom_site_fract_x
 _atom_site_fract_y
 _atom_site_fract_z
 _atom_site_occupancy
  K  K0  1  0.99509233  0.67887543  0.40630709  1
  K  K1  1  0.00490767  0.32112457  0.90630709  1
  K  K2  1  0.68378309  0.00490767  0.40630709  1
  K  K3  1  0.31621691  0.99509233  0.90630709  1
  K  K4  1  0.32112457  0.31621691  0.40630709  1
  K  K5  1  0.67887543  0.68378309  0.90630709  1
  Ti  Ti6  1  0.00000000  0.00000000  0.60245859  1
  Ti  Ti7  1  0.33333300  0.66666700  0.77972423  1
  Ti  Ti8  1  0.00000000  0.00000000  0.10245859  1
  Ti  Ti9  1  0.33333300  0.66666700  0.25201481  1
  Ti  Ti10  1  0.66666700  0.33333300  0.27972423  1
  Ti  Ti11  1  0.66666700  0.33333300  0.75201481  1
  I  I12  1  0.28363235  0.79621270  0.51896446  1
  I  I13  1  0.14667694  0.61499447  0.01883966  1
  I  I14  1  0.38500553  0.53168247  0.01883966  1
  I  I15  1  0.01827138  0.84491421  0.85182291  1
  I  I16  1  0.85332306  0.38500553  0.51883966  1
  I  I17  1  0.84491421  0.82664283  0.35182291  1
  I  I18  1  0.79621270  0.51258036  0.01896446  1
  I  I19  1  0.53168247  0.14667694  0.51883966  1
  I  I20  1  0.15508579  0.17335717  0.85182291  1
  I  I21  1  0.51258036  0.71636765  0.51896446  1
  I  I22  1  0.82664283  0.98172862  0.85182291  1
  I  I23  1  0.71636765  0.20378730  0.01896446  1
  I  I24  1  0.20378730  0.48741964  0.51896446  1
  I  I25  1  0.61499447  0.46831753  0.51883966  1
  I  I26  1  0.17335717  0.01827138  0.35182291  1
  I  I27  1  0.98172862  0.15508579  0.35182291  1
  I  I28  1  0.46831753  0.85332306  0.01883966  1
  I  I29  1  0.48741964  0.28363235  0.01896446  1
