# generated using pymatgen
data_H5ClO6
_symmetry_space_group_name_H-M   'P 1'
_cell_length_a   6.05347236
_cell_length_b   11.41885955
_cell_length_c   7.46962150
_cell_angle_alpha   90.12497024
_cell_angle_beta   91.46960814
_cell_angle_gamma   89.94784246
_symmetry_Int_Tables_number   1
_chemical_formula_structural   H5ClO6
_chemical_formula_sum   'H20 Cl4 O24'
_cell_volume   516.15700160
_cell_formula_units_Z   4
loop_
 _symmetry_equiv_pos_site_id
 _symmetry_equiv_pos_as_xyz
  1  'x, y, z'
loop_
 _atom_site_type_symbol
 _atom_site_label
 _atom_site_symmetry_multiplicity
 _atom_site_fract_x
 _atom_site_fract_y
 _atom_site_fract_z
 _atom_site_occupancy
  H  H0  1  0.99586632  0.24901356  0.29015350  1
  H  H1  1  0.18650182  0.74985230  0.29344403  1
  H  H2  1  0.49869448  0.05321589  0.74953605  1
  H  H3  1  0.01056254  0.46164964  0.76230965  1
  H  H4  1  0.53622390  0.96005331  0.21708668  1
  H  H5  1  0.50619955  0.44275035  0.73734320  1
  H  H6  1  0.01068271  0.03825418  0.76342190  1
  H  H7  1  0.51982518  0.09669074  0.19968964  1
  H  H8  1  0.98913661  0.52084313  0.25586935  1
  H  H9  1  0.97600670  0.48810428  0.45933654  1
  H  H10  1  0.46163887  0.57660349  0.78612660  1
  H  H11  1  0.50614578  0.48339687  0.97680374  1
  H  H12  1  0.99392520  0.90627265  0.72157825  1
  H  H13  1  0.50265934  0.01161861  0.99326734  1
  H  H14  1  0.46333816  0.91877934  0.79360853  1
  H  H15  1  0.99262270  0.59373627  0.72190550  1
  H  H16  1  0.51690323  0.39655976  0.19048579  1
  H  H17  1  0.52464887  0.53306358  0.20773854  1
  H  H18  1  0.97590069  0.01198049  0.46033622  1
  H  H19  1  0.99004434  0.97874468  0.25675511  1
  Cl  Cl20  1  0.58289498  0.24963375  0.50936144  1
  Cl  Cl21  1  0.06305855  0.24941032  0.00775567  1
  Cl  Cl22  1  0.43175071  0.74921653  0.50800299  1
  Cl  Cl23  1  0.91842498  0.75029083  0.00260279  1
  O  O24  1  0.60599293  0.24708961  0.31191269  1
  O  O25  1  0.13349533  0.24902590  0.21943391  1
  O  O26  1  0.39212706  0.74845638  0.69641855  1
  O  O27  1  0.89742576  0.74960250  0.80613774  1
  O  O28  1  0.79897556  0.25159654  0.59708898  1
  O  O29  1  0.27458894  0.24848877  0.92786445  1
  O  O30  1  0.17728902  0.75342046  0.42633867  1
  O  O31  1  0.69980362  0.74999971  0.07951396  1
  O  O32  1  0.45895117  0.14585127  0.56071576  1
  O  O33  1  0.93853288  0.35449292  0.97483021  1
  O  O34  1  0.52900100  0.64336025  0.44531329  1
  O  O35  1  0.04288652  0.85455154  0.06016009  1
  O  O36  1  0.53805174  0.85424912  0.45101967  1
  O  O37  1  0.04441085  0.64698159  0.06161270  1
  O  O38  1  0.45670422  0.35552309  0.55425060  1
  O  O39  1  0.93610721  0.14485217  0.97489674  1
  O  O40  1  0.46198731  0.02246181  0.14743178  1
  O  O41  1  0.90570216  0.47426654  0.33977146  1
  O  O42  1  0.54543646  0.50653828  0.82488779  1
  O  O43  1  0.06901105  0.97788745  0.68484366  1
  O  O44  1  0.54329131  0.98911775  0.83415297  1
  O  O45  1  0.06869231  0.52219791  0.68462443  1
  O  O46  1  0.45857228  0.46937528  0.13531197  1
  O  O47  1  0.90657611  0.02594858  0.34057291  1
