# generated using pymatgen
data_BaWO4
_symmetry_space_group_name_H-M   'P 1'
_cell_length_a   5.90283448
_cell_length_b   7.84108208
_cell_length_c   8.39408584
_cell_angle_alpha   104.75252800
_cell_angle_beta   90.00000000
_cell_angle_gamma   90.00000000
_symmetry_Int_Tables_number   1
_chemical_formula_structural   BaWO4
_chemical_formula_sum   'Ba4 W4 O16'
_cell_volume   375.70940967
_cell_formula_units_Z   4
loop_
 _symmetry_equiv_pos_site_id
 _symmetry_equiv_pos_as_xyz
  1  'x, y, z'
loop_
 _atom_site_type_symbol
 _atom_site_label
 _atom_site_symmetry_multiplicity
 _atom_site_fract_x
 _atom_site_fract_y
 _atom_site_fract_z
 _atom_site_occupancy
  Ba  Ba0  1  0.75001011  0.32303776  0.58911445  1
  Ba  Ba1  1  0.25001011  0.67696224  0.91088555  1
  Ba  Ba2  1  0.24998989  0.67696224  0.41088555  1
  Ba  Ba3  1  0.74998989  0.32303776  0.08911445  1
  W  W4  1  0.25008045  0.17733797  0.32349853  1
  W  W5  1  0.74991955  0.82266203  0.67650147  1
  W  W6  1  0.24991955  0.17733797  0.82349853  1
  W  W7  1  0.75008045  0.82266203  0.17650147  1
  O  O8  1  0.52851647  0.64883652  0.65831213  1
  O  O9  1  0.47148353  0.35116348  0.34168787  1
  O  O10  1  0.97164140  0.64911014  0.65830829  1
  O  O11  1  0.47164140  0.35088986  0.84169171  1
  O  O12  1  0.75006856  0.83698331  0.95958806  1
  O  O13  1  0.02851647  0.35116348  0.84168787  1
  O  O14  1  0.97148353  0.64883652  0.15831213  1
  O  O15  1  0.50050098  0.00026201  0.25006992  1
  O  O16  1  0.02835860  0.35088986  0.34169171  1
  O  O17  1  0.52835860  0.64911014  0.15830829  1
  O  O18  1  0.74993144  0.83698331  0.45958806  1
  O  O19  1  0.24993144  0.16301669  0.04041194  1
  O  O20  1  0.25006856  0.16301669  0.54041194  1
  O  O21  1  0.00050098  0.99973799  0.24993008  1
  O  O22  1  0.49949902  0.99973799  0.74993008  1
  O  O23  1  0.99949902  0.00026201  0.75006992  1
