# generated using pymatgen
data_Nd2Fe17N2
_symmetry_space_group_name_H-M   'P 1'
_cell_length_a   6.51223464
_cell_length_b   6.54427002
_cell_length_c   6.51223464
_cell_angle_alpha   83.80298983
_cell_angle_beta   83.75745029
_cell_angle_gamma   83.80298983
_symmetry_Int_Tables_number   1
_chemical_formula_structural   Nd2Fe17N2
_chemical_formula_sum   'Nd2 Fe17 N2'
_cell_volume   272.97661800
_cell_formula_units_Z   1
loop_
 _symmetry_equiv_pos_site_id
 _symmetry_equiv_pos_as_xyz
  1  'x, y, z'
loop_
 _atom_site_type_symbol
 _atom_site_label
 _atom_site_symmetry_multiplicity
 _atom_site_fract_x
 _atom_site_fract_y
 _atom_site_fract_z
 _atom_site_occupancy
  Nd  Nd0  1  0.65644659  0.65857571  0.65644659  1
  Nd  Nd1  1  0.34355341  0.34142429  0.34355341  1
  Fe  Fe2  1  0.71760153  0.00000000  0.28239847  1
  Fe  Fe3  1  0.99998695  0.28322537  0.71629440  1
  Fe  Fe4  1  0.28370560  0.71677463  0.00001305  1
  Fe  Fe5  1  0.00001305  0.71677463  0.28370560  1
  Fe  Fe6  1  0.71629440  0.28322537  0.99998695  1
  Fe  Fe7  1  0.28239847  0.00000000  0.71760153  1
  Fe  Fe8  1  0.00000000  0.50000000  0.00000000  1
  Fe  Fe9  1  0.50000000  0.00000000  0.00000000  1
  Fe  Fe10  1  0.00000000  0.00000000  0.50000000  1
  Fe  Fe11  1  0.34384552  0.85758642  0.34384552  1
  Fe  Fe12  1  0.85502326  0.33852635  0.34331868  1
  Fe  Fe13  1  0.34331868  0.33852635  0.85502326  1
  Fe  Fe14  1  0.65615448  0.14241358  0.65615448  1
  Fe  Fe15  1  0.14497674  0.66147365  0.65668132  1
  Fe  Fe16  1  0.65668132  0.66147365  0.14497674  1
  Fe  Fe17  1  0.90451037  0.90649194  0.90451037  1
  Fe  Fe18  1  0.09548963  0.09350806  0.09548963  1
  N  N19  1  0.00000000  0.50000000  0.50000000  1
  N  N20  1  0.50000000  0.50000000  0.00000000  1
