# generated using pymatgen
data_Bi9AuBr9
_symmetry_space_group_name_H-M   'P 1'
_cell_length_a   10.87644947
_cell_length_b   15.08766143
_cell_length_c   15.59380680
_cell_angle_alpha   90.00000000
_cell_angle_beta   90.00000000
_cell_angle_gamma   93.00815583
_symmetry_Int_Tables_number   1
_chemical_formula_structural   Bi9AuBr9
_chemical_formula_sum   'Bi36 Au4 Br36'
_cell_volume   2555.42057712
_cell_formula_units_Z   4
loop_
 _symmetry_equiv_pos_site_id
 _symmetry_equiv_pos_as_xyz
  1  'x, y, z'
loop_
 _atom_site_type_symbol
 _atom_site_label
 _atom_site_symmetry_multiplicity
 _atom_site_fract_x
 _atom_site_fract_y
 _atom_site_fract_z
 _atom_site_occupancy
  Bi  Bi0  1  0.58540076  0.06482086  0.31497588  1
  Bi  Bi1  1  0.22738107  0.02664584  0.54921358  1
  Bi  Bi2  1  0.22431004  0.22432854  0.99440399  1
  Bi  Bi3  1  0.55277203  0.35417232  0.13606377  1
  Bi  Bi4  1  0.22431004  0.72432854  0.50559601  1
  Bi  Bi5  1  0.94690651  0.81206818  0.85670078  1
  Bi  Bi6  1  0.69009880  0.52395280  0.85215450  1
  Bi  Bi7  1  0.61876275  0.32904786  0.92928531  1
  Bi  Bi8  1  0.03253376  0.69253434  0.64187851  1
  Bi  Bi9  1  0.77261893  0.47335416  0.04921358  1
  Bi  Bi10  1  0.05309349  0.68793182  0.35670078  1
  Bi  Bi11  1  0.30990120  0.47604720  0.14784550  1
  Bi  Bi12  1  0.61876275  0.82904786  0.57071469  1
  Bi  Bi13  1  0.44722797  0.64582768  0.86393623  1
  Bi  Bi14  1  0.38123725  0.67095214  0.07071469  1
  Bi  Bi15  1  0.03253376  0.19253434  0.85812149  1
  Bi  Bi16  1  0.69009880  0.02395280  0.64784550  1
  Bi  Bi17  1  0.41459924  0.43517914  0.81497588  1
  Bi  Bi18  1  0.22738107  0.52664584  0.95078642  1
  Bi  Bi19  1  0.96746624  0.80746566  0.14187851  1
  Bi  Bi20  1  0.77568996  0.27567146  0.49440399  1
  Bi  Bi21  1  0.05309349  0.18793182  0.14329922  1
  Bi  Bi22  1  0.33147682  0.04423627  0.98681266  1
  Bi  Bi23  1  0.96746624  0.30746566  0.35812149  1
  Bi  Bi24  1  0.38123725  0.17095214  0.42928531  1
  Bi  Bi25  1  0.77568996  0.77567146  0.00559601  1
  Bi  Bi26  1  0.77261893  0.97335416  0.45078642  1
  Bi  Bi27  1  0.94690651  0.31206818  0.64329922  1
  Bi  Bi28  1  0.41459924  0.93517914  0.68502412  1
  Bi  Bi29  1  0.33147682  0.54423627  0.51318734  1
  Bi  Bi30  1  0.66852318  0.95576373  0.01318734  1
  Bi  Bi31  1  0.30990120  0.97604720  0.35215450  1
  Bi  Bi32  1  0.44722797  0.14582768  0.63606377  1
  Bi  Bi33  1  0.66852318  0.45576373  0.48681266  1
  Bi  Bi34  1  0.55277203  0.85417232  0.36393623  1
  Bi  Bi35  1  0.58540076  0.56482086  0.18502412  1
  Au  Au36  1  0.61698166  0.61778837  0.00574385  1
  Au  Au37  1  0.38301834  0.38221163  0.99425615  1
  Au  Au38  1  0.61698166  0.11778837  0.49425615  1
  Au  Au39  1  0.38301834  0.88221163  0.50574385  1
  Br  Br40  1  0.17613480  0.51403015  0.66495197  1
  Br  Br41  1  0.83095528  0.98632211  0.85191823  1
  Br  Br42  1  0.49400132  0.87103958  0.88896800  1
  Br  Br43  1  0.50599868  0.62896042  0.38896800  1
  Br  Br44  1  0.00542413  0.12414133  0.37114234  1
  Br  Br45  1  0.74200771  0.74615892  0.75474878  1
  Br  Br46  1  0.02121948  0.87793539  0.36738053  1
  Br  Br47  1  0.76584308  0.24216266  0.24829031  1
  Br  Br48  1  0.83095528  0.48632211  0.64808177  1
  Br  Br49  1  0.16904472  0.01367789  0.14808177  1
  Br  Br50  1  0.50504380  0.12362671  0.86971308  1
  Br  Br51  1  0.49400132  0.37103958  0.61103200  1
  Br  Br52  1  0.14502205  0.32093989  0.50381019  1
  Br  Br53  1  0.25799229  0.75384108  0.25474878  1
  Br  Br54  1  0.74200771  0.24615892  0.74525122  1
  Br  Br55  1  0.14502205  0.82093989  0.99618981  1
  Br  Br56  1  0.49495620  0.87637329  0.13028692  1
  Br  Br57  1  0.16904472  0.51367789  0.35191823  1
  Br  Br58  1  0.23415692  0.75783734  0.75170969  1
  Br  Br59  1  0.50504380  0.62362671  0.63028692  1
  Br  Br60  1  0.76584308  0.74216266  0.25170969  1
  Br  Br61  1  0.85497795  0.17906011  0.00381019  1
  Br  Br62  1  0.17613480  0.01403015  0.83504803  1
  Br  Br63  1  0.97878052  0.12206461  0.63261947  1
  Br  Br64  1  0.25799229  0.25384108  0.24525122  1
  Br  Br65  1  0.97878052  0.62206461  0.86738053  1
  Br  Br66  1  0.00542413  0.62414133  0.12885766  1
  Br  Br67  1  0.85497795  0.67906011  0.49618981  1
  Br  Br68  1  0.82386520  0.48596985  0.33504803  1
  Br  Br69  1  0.49495620  0.37637329  0.36971308  1
  Br  Br70  1  0.02121948  0.37793539  0.13261947  1
  Br  Br71  1  0.99457587  0.87585867  0.62885766  1
  Br  Br72  1  0.50599868  0.12896042  0.11103200  1
  Br  Br73  1  0.23415692  0.25783734  0.74829031  1
  Br  Br74  1  0.99457587  0.37585867  0.87114234  1
  Br  Br75  1  0.82386520  0.98596985  0.16495197  1
