# generated using pymatgen
data_NaSm2Cl6
_symmetry_space_group_name_H-M   'P 1'
_cell_length_a   24.06487552
_cell_length_b   13.89386248
_cell_length_c   3.81237602
_cell_angle_alpha   90.00000000
_cell_angle_beta   90.00000000
_cell_angle_gamma   29.99999561
_symmetry_Int_Tables_number   1
_chemical_formula_structural   NaSm2Cl6
_chemical_formula_sum   'Na3 Sm6 Cl18'
_cell_volume   637.34163697
_cell_formula_units_Z   3
loop_
 _symmetry_equiv_pos_site_id
 _symmetry_equiv_pos_as_xyz
  1  'x, y, z'
loop_
 _atom_site_type_symbol
 _atom_site_label
 _atom_site_symmetry_multiplicity
 _atom_site_fract_x
 _atom_site_fract_y
 _atom_site_fract_z
 _atom_site_occupancy
  Na  Na0  1  -0.00000000  0.00000000  0.75171581  1
  Na  Na1  1  0.33333300  0.00000000  0.00557343  1
  Na  Na2  1  0.66666700  0.00000000  0.50087164  1
  Sm  Sm3  1  0.33092000  0.33920806  0.74972636  1
  Sm  Sm4  1  0.33689184  0.66267534  0.24955962  1
  Sm  Sm5  1  0.67012906  0.32882189  0.74972636  1
  Sm  Sm6  1  0.66354199  0.67334985  0.24955962  1
  Sm  Sm7  1  0.99895095  0.33197005  0.74972636  1
  Sm  Sm8  1  0.99956618  0.66397581  0.24955962  1
  Cl  Cl9  1  0.17348192  0.09217424  0.24943471  1
  Cl  Cl10  1  0.10469130  0.38623300  0.75024096  1
  Cl  Cl11  1  0.26565616  0.29520775  0.24943471  1
  Cl  Cl12  1  0.07212388  0.69268260  0.74923991  1
  Cl  Cl13  1  0.22120602  0.62402587  0.24952977  1
  Cl  Cl14  1  0.50902224  0.08690118  0.25075258  1
  Cl  Cl15  1  0.16307064  0.90905324  0.74923991  1
  Cl  Cl16  1  0.43441136  0.38965037  0.74879545  1
  Cl  Cl17  1  0.59592342  0.29913193  0.25075258  1
  Cl  Cl18  1  0.40438540  0.70030590  0.75024096  1
  Cl  Cl19  1  0.56086291  0.61261901  0.24943471  1
  Cl  Cl20  1  0.84523189  0.08832821  0.24952977  1
  Cl  Cl21  1  0.49092330  0.91346110  0.75024096  1
  Cl  Cl22  1  0.76480648  0.39826416  0.74923991  1
  Cl  Cl23  1  0.93356010  0.28764592  0.24952977  1
  Cl  Cl24  1  0.74152591  0.69288444  0.74879545  1
  Cl  Cl25  1  0.89505435  0.61396789  0.25075258  1
  Cl  Cl26  1  0.82406173  0.91746518  0.74879545  1
