# generated using pymatgen
data_Sn(PO3)3
_symmetry_space_group_name_H-M   'P 1'
_cell_length_a   10.58468024
_cell_length_b   9.48305685
_cell_length_c   10.20177299
_cell_angle_alpha   105.68541207
_cell_angle_beta   109.03444919
_cell_angle_gamma   109.55292046
_symmetry_Int_Tables_number   1
_chemical_formula_structural   Sn(PO3)3
_chemical_formula_sum   'Sn4 P12 O36'
_cell_volume   825.27061889
_cell_formula_units_Z   4
loop_
 _symmetry_equiv_pos_site_id
 _symmetry_equiv_pos_as_xyz
  1  'x, y, z'
loop_
 _atom_site_type_symbol
 _atom_site_label
 _atom_site_symmetry_multiplicity
 _atom_site_fract_x
 _atom_site_fract_y
 _atom_site_fract_z
 _atom_site_occupancy
  Sn  Sn0  1  0.27105225  0.23543075  0.73724094  1
  Sn  Sn1  1  0.72894775  0.76456925  0.26275906  1
  Sn  Sn2  1  0.80828089  0.69846057  0.86211527  1
  Sn  Sn3  1  0.19171911  0.30153943  0.13788473  1
  P  P4  1  0.37322564  0.61960632  0.97651097  1
  P  P5  1  0.10719245  0.84975889  0.49119109  1
  P  P6  1  0.89280755  0.15024111  0.50880891  1
  P  P7  1  0.19117014  0.79564160  0.03780481  1
  P  P8  1  0.29871286  0.68426913  0.44405126  1
  P  P9  1  0.40136674  0.57893217  0.68423935  1
  P  P10  1  0.70128714  0.31573087  0.55594874  1
  P  P11  1  0.80882986  0.20435840  0.96219519  1
  P  P12  1  0.62677436  0.38039368  0.02348903  1
  P  P13  1  0.59863326  0.42106783  0.31576065  1
  P  P14  1  0.09915430  0.90229398  0.78607133  1
  P  P15  1  0.90084570  0.09770602  0.21392867  1
  O  O16  1  0.72075150  0.39072255  0.42788142  1
  O  O17  1  0.55828106  0.16819043  0.49341407  1
  O  O18  1  0.44786531  0.34525867  0.30712629  1
  O  O19  1  0.33352510  0.39155758  0.64247969  1
  O  O20  1  0.69215042  0.06840377  0.81368950  1
  O  O21  1  0.51382171  0.72795627  0.12970159  1
  O  O22  1  0.31775074  0.43331753  0.92801342  1
  O  O23  1  0.90283948  0.19601982  0.37086715  1
  O  O24  1  0.02828536  0.70221644  0.99920893  1
  O  O25  1  0.59836442  0.33226768  0.15284069  1
  O  O26  1  0.68224926  0.56668247  0.07198658  1
  O  O27  1  0.94249271  0.85045657  0.76930145  1
  O  O28  1  0.95183216  0.81084595  0.38086555  1
  O  O29  1  0.76350040  0.46597017  0.70276683  1
  O  O30  1  0.23867743  0.64718400  0.98388839  1
  O  O31  1  0.44171894  0.83180957  0.50658593  1
  O  O32  1  0.55213469  0.65474133  0.69287371  1
  O  O33  1  0.04816784  0.18915405  0.61913445  1
  O  O34  1  0.77297173  0.97008934  0.44060528  1
  O  O35  1  0.05750729  0.14954343  0.23069855  1
  O  O36  1  0.30784958  0.93159623  0.18631050  1
  O  O37  1  0.80374543  0.14890329  0.10335698  1
  O  O38  1  0.19625457  0.85109671  0.89664302  1
  O  O39  1  0.22702827  0.02991066  0.55939472  1
  O  O40  1  0.66647490  0.60844242  0.35752031  1
  O  O41  1  0.76132257  0.35281600  0.01611161  1
  O  O42  1  0.27924850  0.60927745  0.57211858  1
  O  O43  1  0.80940899  0.91162592  0.16396147  1
  O  O44  1  0.48617829  0.27204373  0.87029841  1
  O  O45  1  0.97171464  0.29778356  0.00079107  1
  O  O46  1  0.23649960  0.53402983  0.29723317  1
  O  O47  1  0.09716052  0.80398018  0.62913285  1
  O  O48  1  0.84799559  0.27520814  0.58922503  1
  O  O49  1  0.40163558  0.66773232  0.84715931  1
  O  O50  1  0.19059101  0.08837408  0.83603853  1
  O  O51  1  0.15200441  0.72479186  0.41077497  1
