# generated using pymatgen
data_LiSn2P3O10
_symmetry_space_group_name_H-M   'P 1'
_cell_length_a   7.96336548
_cell_length_b   7.96336558
_cell_length_c   9.84828175
_cell_angle_alpha   67.36908292
_cell_angle_beta   112.63091737
_cell_angle_gamma   100.19657713
_symmetry_Int_Tables_number   1
_chemical_formula_structural   LiSn2P3O10
_chemical_formula_sum   'Li2 Sn4 P6 O20'
_cell_volume   531.75141782
_cell_formula_units_Z   2
loop_
 _symmetry_equiv_pos_site_id
 _symmetry_equiv_pos_as_xyz
  1  'x, y, z'
loop_
 _atom_site_type_symbol
 _atom_site_label
 _atom_site_symmetry_multiplicity
 _atom_site_fract_x
 _atom_site_fract_y
 _atom_site_fract_z
 _atom_site_occupancy
  Li  Li0  1  0.77621480  0.77621480  0.75000000  1
  Li  Li1  1  0.22378520  0.22378520  0.25000000  1
  Sn  Sn2  1  0.61243900  0.25701343  0.06301898  1
  Sn  Sn3  1  0.38756100  0.74298657  0.93698102  1
  Sn  Sn4  1  0.74298657  0.38756100  0.56301898  1
  Sn  Sn5  1  0.25701343  0.61243900  0.43698102  1
  P  P6  1  0.41102832  0.13174488  0.62783227  1
  P  P7  1  0.13174488  0.41102832  0.87216773  1
  P  P8  1  0.10841220  0.10841220  0.75000000  1
  P  P9  1  0.86825512  0.58897168  0.12783227  1
  P  P10  1  0.89158780  0.89158780  0.25000000  1
  P  P11  1  0.58897168  0.86825512  0.37216773  1
  O  O12  1  0.09068001  0.85573750  0.34916913  1
  O  O13  1  0.25220020  0.56736303  0.79890137  1
  O  O14  1  0.44003131  0.93010267  0.72683086  1
  O  O15  1  0.18711647  0.37184615  0.04566844  1
  O  O16  1  0.43263697  0.74779980  0.29890137  1
  O  O17  1  0.74779980  0.43263697  0.20109863  1
  O  O18  1  0.37184615  0.18711647  0.45433156  1
  O  O19  1  0.85573750  0.09068001  0.15083087  1
  O  O20  1  0.55996869  0.06989733  0.27316914  1
  O  O21  1  0.18533329  0.22401379  0.86313169  1
  O  O22  1  0.77598621  0.81466671  0.36313169  1
  O  O23  1  0.14426250  0.90931999  0.84916913  1
  O  O24  1  0.93010267  0.44003131  0.77316914  1
  O  O25  1  0.22401379  0.18533329  0.63686831  1
  O  O26  1  0.06989733  0.55996869  0.22683086  1
  O  O27  1  0.62815385  0.81288353  0.54566844  1
  O  O28  1  0.81288353  0.62815385  0.95433156  1
  O  O29  1  0.90931999  0.14426250  0.65083087  1
  O  O30  1  0.81466671  0.77598621  0.13686831  1
  O  O31  1  0.56736303  0.25220020  0.70109863  1
