# generated using pymatgen
data_Cs
_symmetry_space_group_name_H-M   'P 1'
_cell_length_a   8.58961470
_cell_length_b   10.45180663
_cell_length_c   10.45180663
_cell_angle_alpha   90.00000000
_cell_angle_beta   90.00000000
_cell_angle_gamma   90.00000000
_symmetry_Int_Tables_number   1
_chemical_formula_structural   Cs
_chemical_formula_sum   Cs8
_cell_volume   938.33175885
_cell_formula_units_Z   8
loop_
 _symmetry_equiv_pos_site_id
 _symmetry_equiv_pos_as_xyz
  1  'x, y, z'
loop_
 _atom_site_type_symbol
 _atom_site_label
 _atom_site_symmetry_multiplicity
 _atom_site_fract_x
 _atom_site_fract_y
 _atom_site_fract_z
 _atom_site_occupancy
  Cs  Cs0  1  0.00000000  0.43832444  0.74593355  1
  Cs  Cs1  1  0.00000000  0.56167556  0.25406645  1
  Cs  Cs2  1  0.50000000  0.74593355  0.56167556  1
  Cs  Cs3  1  0.50000000  0.25406645  0.43832444  1
  Cs  Cs4  1  0.00000000  0.93832444  0.75406645  1
  Cs  Cs5  1  0.00000000  0.06167556  0.24593355  1
  Cs  Cs6  1  0.50000000  0.75406645  0.06167556  1
  Cs  Cs7  1  0.50000000  0.24593355  0.93832444  1
