# generated using pymatgen
data_Sr24Ta8O43
_symmetry_space_group_name_H-M   'P 1'
_cell_length_a   6.05689049
_cell_length_b   6.10516463
_cell_length_c   48.33993733
_cell_angle_alpha   58.28903171
_cell_angle_beta   59.85089757
_cell_angle_gamma   59.53455743
_symmetry_Int_Tables_number   1
_chemical_formula_structural   Sr24Ta8O43
_chemical_formula_sum   'Sr24 Ta8 O43'
_cell_volume   1241.13025201
_cell_formula_units_Z   1
loop_
 _symmetry_equiv_pos_site_id
 _symmetry_equiv_pos_as_xyz
  1  'x, y, z'
loop_
 _atom_site_type_symbol
 _atom_site_label
 _atom_site_symmetry_multiplicity
 _atom_site_fract_x
 _atom_site_fract_y
 _atom_site_fract_z
 _atom_site_occupancy
  Sr  Sr0  1  0.18450268  0.29114416  0.02604476  1
  Sr  Sr1  1  0.44430164  0.52371860  0.06288193  1
  Sr  Sr2  1  0.19340046  0.28980047  0.15098210  1
  Sr  Sr3  1  0.66951113  0.72172788  0.09848331  1
  Sr  Sr4  1  0.48292840  0.46778147  0.18868998  1
  Sr  Sr5  1  0.23847275  0.24469411  0.28221372  1
  Sr  Sr6  1  0.73895695  0.70035622  0.21593166  1
  Sr  Sr7  1  0.15326786  0.27259439  0.41434887  1
  Sr  Sr8  1  0.52790378  0.49847192  0.31243998  1
  Sr  Sr9  1  0.17943263  0.27021164  0.52497704  1
  Sr  Sr10  1  0.44676909  0.53308540  0.43572971  1
  Sr  Sr11  1  0.73334547  0.72365328  0.34675766  1
  Sr  Sr12  1  0.45680453  0.43362196  0.57212547  1
  Sr  Sr13  1  0.64588268  0.68495611  0.48140307  1
  Sr  Sr14  1  0.14718860  0.27724240  0.66526447  1
  Sr  Sr15  1  0.24887632  0.20915738  0.77157292  1
  Sr  Sr16  1  0.74025078  0.70386237  0.58702994  1
  Sr  Sr17  1  0.46840120  0.55124413  0.68025108  1
  Sr  Sr18  1  0.67329682  0.66903433  0.73044917  1
  Sr  Sr19  1  0.47317480  0.43917820  0.82021603  1
  Sr  Sr20  1  0.24099142  0.23590454  0.91088543  1
  Sr  Sr21  1  0.75766050  0.71948601  0.83390779  1
  Sr  Sr22  1  0.52630416  0.53376986  0.92826333  1
  Sr  Sr23  1  0.68666805  0.73721154  0.97268676  1
  Ta  Ta24  1  0.99510195  0.00894051  0.99668431  1
  Ta  Ta25  1  0.94656262  0.00849033  0.12470368  1
  Ta  Ta26  1  0.02711093  0.98666033  0.25171591  1
  Ta  Ta27  1  0.02384760  0.98704535  0.37772467  1
  Ta  Ta28  1  0.93766268  0.99007395  0.50256066  1
  Ta  Ta29  1  0.02940516  0.99197765  0.62693387  1
  Ta  Ta30  1  0.95434188  0.99234737  0.75001253  1
  Ta  Ta31  1  0.04986687  0.00429595  0.87334122  1
  O  O32  1  0.11169015  0.30115371  0.10382943  1
  O  O33  1  0.80246497  0.25030696  0.02319073  1
  O  O34  1  0.19947674  0.90767033  0.08268872  1
  O  O35  1  0.21800082  0.70977602  0.15059299  1
  O  O36  1  0.64760167  0.29070352  0.10530863  1
  O  O37  1  0.81377719  0.74315096  0.03019060  1
  O  O38  1  0.26001185  0.69053770  0.23200605  1
  O  O39  1  0.72280487  0.11522649  0.16671775  1
  O  O40  1  0.33593984  0.95228013  0.38475361  1
  O  O41  1  0.35811058  0.92054134  0.25777504  1
  O  O42  1  0.90212445  0.23809255  0.21304584  1
  O  O43  1  0.77335324  0.72472910  0.14410593  1
  O  O44  1  0.28645181  0.68440856  0.35899921  1
  O  O45  1  0.86953279  0.29833742  0.26742441  1
  O  O46  1  0.13190149  0.27682422  0.47550578  1
  O  O47  1  0.76641422  0.81904801  0.28830226  1
  O  O48  1  0.87684488  0.18059931  0.34019358  1
  O  O49  1  0.82105213  0.29939407  0.39457138  1
  O  O50  1  0.19861924  0.83319700  0.46650909  1
  O  O51  1  0.19369995  0.71659193  0.53195754  1
  O  O52  1  0.66434142  0.25949078  0.47879374  1
  O  O53  1  0.83308174  0.75411813  0.41661043  1
  O  O54  1  0.27804739  0.66818097  0.61254208  1
  O  O55  1  0.72820040  0.15486857  0.53899016  1
  O  O56  1  0.15511947  0.27665755  0.72153410  1
  O  O57  1  0.35768617  0.98781311  0.62695335  1
  O  O58  1  0.91686921  0.20996735  0.58754313  1
  O  O59  1  0.74364010  0.71913694  0.52765522  1
  O  O60  1  0.20160751  0.81168798  0.71676691  1
  O  O61  1  0.84455171  0.31728462  0.64092359  1
  O  O62  1  0.19666729  0.75905765  0.78035222  1
  O  O63  1  0.69964046  0.26031370  0.72265165  1
  O  O64  1  0.82113554  0.77652974  0.66713890  1
  O  O65  1  0.71983602  0.19502072  0.78349256  1
  O  O66  1  0.29140440  0.66523997  0.86224029  1
  O  O67  1  0.38976268  0.97616362  0.87451495  1
  O  O68  1  0.29689713  0.18707188  0.96803846  1
  O  O69  1  0.95005323  0.21902490  0.83275625  1
  O  O70  1  0.71739085  0.76226541  0.77782728  1
  O  O71  1  0.90009364  0.33534347  0.88453857  1
  O  O72  1  0.25966672  0.74077705  0.97180276  1
  O  O73  1  0.82197658  0.24190324  0.96227776  1
  O  O74  1  0.79026508  0.84577351  0.91192403  1
