# generated using pymatgen
data_Sr2Co2O5
_symmetry_space_group_name_H-M   'P 1'
_cell_length_a   7.85294420
_cell_length_b   5.66487718
_cell_length_c   5.61614741
_cell_angle_alpha   60.73772343
_cell_angle_beta   45.93602057
_cell_angle_gamma   46.83696110
_symmetry_Int_Tables_number   1
_chemical_formula_structural   Sr2Co2O5
_chemical_formula_sum   'Sr2 Co2 O5'
_cell_volume   130.90723856
_cell_formula_units_Z   1
loop_
 _symmetry_equiv_pos_site_id
 _symmetry_equiv_pos_as_xyz
  1  'x, y, z'
loop_
 _atom_site_type_symbol
 _atom_site_label
 _atom_site_symmetry_multiplicity
 _atom_site_fract_x
 _atom_site_fract_y
 _atom_site_fract_z
 _atom_site_occupancy
  Sr  Sr0  1  0.10885562  0.61006241  0.54414419  1
  Sr  Sr1  1  0.60894121  0.60935370  0.55241808  1
  Co  Co2  1  0.91087204  0.07097022  0.99107732  1
  Co  Co3  1  0.31147230  0.16204918  0.05951735  1
  O  O4  1  0.58306003  0.24718715  0.06872150  1
  O  O5  1  0.10836933  0.61604202  0.05795344  1
  O  O6  1  0.62100035  0.95310732  0.68793582  1
  O  O7  1  0.19009660  0.00849255  0.49997788  1
  O  O8  1  0.00567252  0.23172244  0.07261643  1
