# generated using pymatgen
data_CaLaMnSnO6
_symmetry_space_group_name_H-M   'P 1'
_cell_length_a   5.61198194
_cell_length_b   5.83265427
_cell_length_c   7.84442181
_cell_angle_alpha   90.00000000
_cell_angle_beta   89.57986392
_cell_angle_gamma   90.00000000
_symmetry_Int_Tables_number   1
_chemical_formula_structural   CaLaMnSnO6
_chemical_formula_sum   'Ca2 La2 Mn2 Sn2 O12'
_cell_volume   256.76259797
_cell_formula_units_Z   2
loop_
 _symmetry_equiv_pos_site_id
 _symmetry_equiv_pos_as_xyz
  1  'x, y, z'
loop_
 _atom_site_type_symbol
 _atom_site_label
 _atom_site_symmetry_multiplicity
 _atom_site_fract_x
 _atom_site_fract_y
 _atom_site_fract_z
 _atom_site_occupancy
  Ca  Ca0  1  0.48482949  0.44357268  0.74880964  1
  Ca  Ca1  1  0.98482949  0.05642732  0.24880964  1
  La  La2  1  0.01339874  0.94991484  0.75095095  1
  La  La3  1  0.51339874  0.55008516  0.25095095  1
  Mn  Mn4  1  0.50056101  0.00152188  0.00119020  1
  Mn  Mn5  1  0.00056101  0.49847812  0.50119020  1
  Sn  Sn6  1  0.00134700  0.49794598  0.99856344  1
  Sn  Sn7  1  0.50134700  0.00205402  0.49856344  1
  O  O8  1  0.09358767  0.46837332  0.25886641  1
  O  O9  1  0.21375228  0.20143745  0.95319990  1
  O  O10  1  0.21424928  0.20040533  0.55339330  1
  O  O11  1  0.28956893  0.69949241  0.54825678  1
  O  O12  1  0.28991027  0.69551903  0.94546953  1
  O  O13  1  0.39879534  0.97097569  0.24129985  1
  O  O14  1  0.59358767  0.03162668  0.75886641  1
  O  O15  1  0.71424928  0.29959467  0.05339330  1
  O  O16  1  0.71375228  0.29856255  0.45319990  1
  O  O17  1  0.78956893  0.80050759  0.04825678  1
  O  O18  1  0.78991027  0.80448097  0.44546953  1
  O  O19  1  0.89879534  0.52902431  0.74129985  1
