# generated using pymatgen
data_PuSi6H54(C6N)3
_symmetry_space_group_name_H-M   'P 1'
_cell_length_a   16.58202099
_cell_length_b   16.58202160
_cell_length_c   9.45457175
_cell_angle_alpha   90.00000000
_cell_angle_beta   90.00000000
_cell_angle_gamma   120.00000057
_symmetry_Int_Tables_number   1
_chemical_formula_structural   PuSi6H54(C6N)3
_chemical_formula_sum   'Pu2 Si12 H108 C36 N6'
_cell_volume   2251.37286986
_cell_formula_units_Z   2
loop_
 _symmetry_equiv_pos_site_id
 _symmetry_equiv_pos_as_xyz
  1  'x, y, z'
loop_
 _atom_site_type_symbol
 _atom_site_label
 _atom_site_symmetry_multiplicity
 _atom_site_fract_x
 _atom_site_fract_y
 _atom_site_fract_z
 _atom_site_occupancy
  Pu  Pu0  1  0.33333300  0.66666700  0.29522857  1
  Pu  Pu1  1  0.66666700  0.33333300  0.79522857  1
  Si  Si2  1  0.16951785  0.71375279  0.12081532  1
  Si  Si3  1  0.28459845  0.83091019  0.37761907  1
  Si  Si4  1  0.16908981  0.45368826  0.37761907  1
  Si  Si5  1  0.28624721  0.45576506  0.12081532  1
  Si  Si6  1  0.54423494  0.83048215  0.12081532  1
  Si  Si7  1  0.54631174  0.71540155  0.37761907  1
  Si  Si8  1  0.45576506  0.28624721  0.62081532  1
  Si  Si9  1  0.45368826  0.16908981  0.87761907  1
  Si  Si10  1  0.71540155  0.54631174  0.87761907  1
  Si  Si11  1  0.83048215  0.54423494  0.62081532  1
  Si  Si12  1  0.71375279  0.16951785  0.62081532  1
  Si  Si13  1  0.83091019  0.28459845  0.87761907  1
  H  H14  1  0.00487965  0.62684274  0.61751576  1
  H  H15  1  0.03655789  0.69197053  0.27228172  1
  H  H16  1  0.13772409  0.83818419  0.42487052  1
  H  H17  1  0.12139396  0.78292525  0.93324812  1
  H  H18  1  0.16266262  0.86189319  0.07750002  1
  H  H19  1  0.04038303  0.58692825  0.26071321  1
  H  H20  1  0.14617942  0.75786057  0.54012032  1
  H  H21  1  0.21708091  0.87945997  0.56860291  1
  H  H22  1  0.24297500  0.85390502  0.96117384  1
  H  H23  1  0.00550644  0.37838541  0.88237882  1
  H  H24  1  0.04062615  0.45359017  0.23963672  1
  H  H25  1  0.12497056  0.61929230  0.90506444  1
  H  H26  1  0.30859688  0.96441953  0.22748690  1
  H  H27  1  0.03558047  0.34417734  0.22748690  1
  H  H28  1  0.12634316  0.50475426  0.59300043  1
  H  H29  1  0.17163089  0.60082460  0.47754241  1
  H  H30  1  0.37287797  0.99449356  0.88237882  1
  H  H31  1  0.17296642  0.57178407  0.02463348  1
  H  H32  1  0.24743855  0.67493079  0.92637808  1
  H  H33  1  0.41296402  0.95937385  0.23963672  1
  H  H34  1  0.37841110  0.87365684  0.59300043  1
  H  H35  1  0.32504233  0.75236432  0.57601464  1
  H  H36  1  0.24763568  0.57267901  0.57601464  1
  H  H37  1  0.12054003  0.33762194  0.56860291  1
  H  H38  1  0.14609498  0.38906898  0.96117384  1
  H  H39  1  0.39881664  0.82703358  0.02463348  1
  H  H40  1  0.13810681  0.30076943  0.07750002  1
  H  H41  1  0.16181581  0.29953991  0.42487052  1
  H  H42  1  0.42919371  0.82836911  0.47754241  1
  H  H43  1  0.24213943  0.38831886  0.54012032  1
  H  H44  1  0.21707475  0.33846871  0.93324812  1
  H  H45  1  0.32506921  0.57250776  0.92637808  1
  H  H46  1  0.42749224  0.75256145  0.92637808  1
  H  H47  1  0.49432075  0.87502944  0.90506444  1
  H  H48  1  0.54654622  0.95961697  0.26071321  1
  H  H49  1  0.42732099  0.67495767  0.57601464  1
  H  H50  1  0.39917540  0.57080629  0.47754241  1
  H  H51  1  0.62196309  0.99512035  0.61751576  1
  H  H52  1  0.42821593  0.60118336  0.02463348  1
  H  H53  1  0.38070770  0.50567925  0.90506444  1
  H  H54  1  0.30802947  0.34458737  0.27228172  1
  H  H55  1  0.65541263  0.96344211  0.27228172  1
  H  H56  1  0.49524574  0.62158890  0.59300043  1
  H  H57  1  0.41307175  0.45345378  0.26071321  1
  H  H58  1  0.37315726  0.37803691  0.61751576  1
  H  H59  1  0.37803691  0.37315726  0.11751576  1
  H  H60  1  0.61168114  0.85382058  0.54012032  1
  H  H61  1  0.34458737  0.30802947  0.77228172  1
  H  H62  1  0.66153129  0.87860604  0.93324812  1
  H  H63  1  0.29953991  0.16181581  0.92487052  1
  H  H64  1  0.33846871  0.21707475  0.43324812  1
  H  H65  1  0.61093102  0.75702500  0.96117384  1
  H  H66  1  0.30076943  0.13810681  0.57750002  1
  H  H67  1  0.45345378  0.41307175  0.76071321  1
  H  H68  1  0.54640983  0.58703598  0.23963672  1
  H  H69  1  0.70046009  0.86227591  0.42487052  1
  H  H70  1  0.38831886  0.24213943  0.04012032  1
  H  H71  1  0.66237806  0.78291909  0.56860291  1
  H  H72  1  0.69923057  0.83733738  0.07750002  1
  H  H73  1  0.33762194  0.12054003  0.06860291  1
  H  H74  1  0.65582266  0.69140312  0.22748690  1
  H  H75  1  0.38906898  0.14609498  0.46117384  1
  H  H76  1  0.62161459  0.62712203  0.88237882  1
  H  H77  1  0.62712203  0.62161459  0.38237882  1
  H  H78  1  0.58703598  0.54640983  0.73963672  1
  H  H79  1  0.50567925  0.38070770  0.40506444  1
  H  H80  1  0.34417734  0.03558047  0.72748690  1
  H  H81  1  0.69140312  0.65582266  0.72748690  1
  H  H82  1  0.62158890  0.49524574  0.09300043  1
  H  H83  1  0.57080629  0.39917540  0.97754241  1
  H  H84  1  0.37838541  0.00550644  0.38237882  1
  H  H85  1  0.60118336  0.42821593  0.52463348  1
  H  H86  1  0.57250776  0.32506921  0.42637808  1
  H  H87  1  0.45359017  0.04062615  0.73963672  1
  H  H88  1  0.50475426  0.12634316  0.09300043  1
  H  H89  1  0.57267901  0.24763568  0.07601464  1
  H  H90  1  0.67495767  0.42732099  0.07601464  1
  H  H91  1  0.78291909  0.66237806  0.06860291  1
  H  H92  1  0.75702500  0.61093102  0.46117384  1
  H  H93  1  0.57178407  0.17296642  0.52463348  1
  H  H94  1  0.83733738  0.69923057  0.57750002  1
  H  H95  1  0.86227591  0.70046009  0.92487052  1
  H  H96  1  0.60082460  0.17163089  0.97754241  1
  H  H97  1  0.85382058  0.61168114  0.04012032  1
  H  H98  1  0.87860604  0.66153129  0.43324812  1
  H  H99  1  0.75256145  0.42749224  0.42637808  1
  H  H100  1  0.67493079  0.24743855  0.42637808  1
  H  H101  1  0.61929230  0.12497056  0.40506444  1
  H  H102  1  0.58692825  0.04038303  0.76071321  1
  H  H103  1  0.75236432  0.32504233  0.07601464  1
  H  H104  1  0.82836911  0.42919371  0.97754241  1
  H  H105  1  0.62684274  0.00487965  0.11751576  1
  H  H106  1  0.82703358  0.39881664  0.52463348  1
  H  H107  1  0.87502944  0.49432075  0.40506444  1
  H  H108  1  0.96344211  0.65541263  0.77228172  1
  H  H109  1  0.69197053  0.03655789  0.77228172  1
  H  H110  1  0.87365684  0.37841110  0.09300043  1
  H  H111  1  0.95961697  0.54654622  0.76071321  1
  H  H112  1  0.99512035  0.62196309  0.11751576  1
  H  H113  1  0.75786057  0.14617942  0.04012032  1
  H  H114  1  0.78292525  0.12139396  0.43324812  1
  H  H115  1  0.85390502  0.24297500  0.46117384  1
  H  H116  1  0.95937385  0.41296402  0.73963672  1
  H  H117  1  0.83818419  0.13772409  0.92487052  1
  H  H118  1  0.87945997  0.21708091  0.06860291  1
  H  H119  1  0.86189319  0.16266262  0.57750002  1
  H  H120  1  0.96441953  0.30859688  0.72748690  1
  H  H121  1  0.99449356  0.37287797  0.38237882  1
  C  C122  1  0.04918823  0.64739909  0.20017537  1
  C  C123  1  0.17573196  0.81350808  0.01548721  1
  C  C124  1  0.18639916  0.82527427  0.48620927  1
  C  C125  1  0.04860842  0.40133477  0.29986668  1
  C  C126  1  0.18073280  0.63733199  0.98337484  1
  C  C127  1  0.35272735  0.95139158  0.29986668  1
  C  C128  1  0.18196827  0.54356389  0.51507326  1
  C  C129  1  0.36159462  0.81803173  0.51507326  1
  C  C130  1  0.17472573  0.36112490  0.48620927  1
  C  C131  1  0.18649192  0.36222388  0.01548721  1
  C  C132  1  0.45659919  0.81926720  0.98337484  1
  C  C133  1  0.36266801  0.54340081  0.98337484  1
  C  C134  1  0.59821086  0.95081177  0.20017537  1
  C  C135  1  0.45643611  0.63840538  0.51507326  1
  C  C136  1  0.35260091  0.40178914  0.20017537  1
  C  C137  1  0.40178914  0.35260091  0.70017537  1
  C  C138  1  0.63777612  0.82426804  0.01548721  1
  C  C139  1  0.63887510  0.81360084  0.48620927  1
  C  C140  1  0.36222388  0.18649192  0.51548721  1
  C  C141  1  0.36112490  0.17472573  0.98620927  1
  C  C142  1  0.59866523  0.64727265  0.29986668  1
  C  C143  1  0.64727265  0.59866523  0.79986668  1
  C  C144  1  0.54340081  0.36266801  0.48337484  1
  C  C145  1  0.40133477  0.04860842  0.79986668  1
  C  C146  1  0.63840538  0.45643611  0.01507326  1
  C  C147  1  0.54356389  0.18196827  0.01507326  1
  C  C148  1  0.81360084  0.63887510  0.98620927  1
  C  C149  1  0.82426804  0.63777612  0.51548721  1
  C  C150  1  0.63733199  0.18073280  0.48337484  1
  C  C151  1  0.81926720  0.45659919  0.48337484  1
  C  C152  1  0.64739909  0.04918823  0.70017537  1
  C  C153  1  0.81803173  0.36159462  0.01507326  1
  C  C154  1  0.95081177  0.59821086  0.70017537  1
  C  C155  1  0.81350808  0.17573196  0.51548721  1
  C  C156  1  0.82527427  0.18639916  0.98620927  1
  C  C157  1  0.95139158  0.35272735  0.79986668  1
  N  N158  1  0.25394975  0.74455233  0.25134081  1
  N  N159  1  0.25544767  0.50939742  0.25134081  1
  N  N160  1  0.49060258  0.74605025  0.25134081  1
  N  N161  1  0.50939742  0.25544767  0.75134081  1
  N  N162  1  0.74605025  0.49060258  0.75134081  1
  N  N163  1  0.74455233  0.25394975  0.75134081  1
