# generated using pymatgen
data_TaTi9Al3Zn23O48
_symmetry_space_group_name_H-M   'P 1'
_cell_length_a   6.06218980
_cell_length_b   6.01688352
_cell_length_c   36.26643514
_cell_angle_alpha   60.15378891
_cell_angle_beta   59.50076045
_cell_angle_gamma   60.14364751
_symmetry_Int_Tables_number   1
_chemical_formula_structural   TaTi9Al3Zn23O48
_chemical_formula_sum   'Ta1 Ti9 Al3 Zn23 O48'
_cell_volume   933.87964978
_cell_formula_units_Z   1
loop_
 _symmetry_equiv_pos_site_id
 _symmetry_equiv_pos_as_xyz
  1  'x, y, z'
loop_
 _atom_site_type_symbol
 _atom_site_label
 _atom_site_symmetry_multiplicity
 _atom_site_fract_x
 _atom_site_fract_y
 _atom_site_fract_z
 _atom_site_occupancy
  Ta  Ta0  1  0.62498048  0.61857773  0.43665735  1
  Ti  Ti1  1  0.62486934  0.12600632  0.10417360  1
  Ti  Ti2  1  0.62673510  0.62710888  0.10331008  1
  Ti  Ti3  1  0.62564334  0.12718349  0.27052785  1
  Ti  Ti4  1  0.62967925  0.62895540  0.26938142  1
  Ti  Ti5  1  0.62396504  0.63524399  0.52231256  1
  Ti  Ti6  1  0.61991058  0.11073066  0.60668429  1
  Ti  Ti7  1  0.62631427  0.13916619  0.76868037  1
  Ti  Ti8  1  0.62386204  0.11104596  0.93957019  1
  Ti  Ti9  1  0.62507641  0.62451759  0.85404528  1
  Al  Al10  1  0.62331199  0.62063514  0.60585878  1
  Al  Al11  1  0.62463631  0.62471433  0.77093795  1
  Al  Al12  1  0.62649107  0.62669481  0.93666349  1
  Zn  Zn13  1  0.98878945  0.02407891  0.99748946  1
  Zn  Zn14  1  0.26709621  0.24236803  0.04146711  1
  Zn  Zn15  1  0.12564209  0.62605489  0.10389450  1
  Zn  Zn16  1  0.62308812  0.61934514  0.02016101  1
  Zn  Zn17  1  0.26255977  0.23917273  0.21009175  1
  Zn  Zn18  1  0.12531773  0.62570561  0.27046283  1
  Zn  Zn19  1  0.62518913  0.62437404  0.18714605  1
  Zn  Zn20  1  0.98992951  0.01330477  0.16401531  1
  Zn  Zn21  1  0.26842545  0.25879876  0.37441385  1
  Zn  Zn22  1  0.12585585  0.62454391  0.43661088  1
  Zn  Zn23  1  0.62617890  0.61636528  0.35322508  1
  Zn  Zn24  1  0.62306036  0.12587871  0.43644135  1
  Zn  Zn25  1  0.99141427  0.00674176  0.33124839  1
  Zn  Zn26  1  0.25120681  0.24382690  0.54453859  1
  Zn  Zn27  1  0.12032180  0.61601951  0.60625733  1
  Zn  Zn28  1  0.26603480  0.23043682  0.70889495  1
  Zn  Zn29  1  0.98542274  0.99330992  0.50233299  1
  Zn  Zn30  1  0.12795648  0.63081743  0.76969421  1
  Zn  Zn31  1  0.62554971  0.62541506  0.68780371  1
  Zn  Zn32  1  0.98189546  0.01600864  0.66689978  1
  Zn  Zn33  1  0.26311500  0.24090562  0.87480005  1
  Zn  Zn34  1  0.12285334  0.62044974  0.93838321  1
  Zn  Zn35  1  0.98740138  0.00975273  0.83333175  1
  O  O36  1  0.39541670  0.36397981  0.06652946  1
  O  O37  1  0.40112468  0.83840950  0.06495142  1
  O  O38  1  0.40870742  0.37151587  0.14157630  1
  O  O39  1  0.85240107  0.37029009  0.06720695  1
  O  O40  1  0.39884901  0.36600401  0.23266570  1
  O  O41  1  0.39948257  0.87839014  0.14016706  1
  O  O42  1  0.84300571  0.88103905  0.06601208  1
  O  O43  1  0.85234831  0.41281358  0.14155643  1
  O  O44  1  0.39777014  0.83836768  0.23254586  1
  O  O45  1  0.41047605  0.37277002  0.30720084  1
  O  O46  1  0.85380842  0.36880460  0.23388528  1
  O  O47  1  0.85235791  0.88291414  0.14196840  1
  O  O48  1  0.38940422  0.38948344  0.39798400  1
  O  O49  1  0.40161622  0.87882006  0.30618747  1
  O  O50  1  0.84481400  0.87954384  0.23242229  1
  O  O51  1  0.85771836  0.40676376  0.30738128  1
  O  O52  1  0.38982846  0.85780060  0.40072307  1
  O  O53  1  0.38993021  0.38534635  0.47746578  1
  O  O54  1  0.86542416  0.38667311  0.39942183  1
  O  O55  1  0.84794890  0.87874309  0.30937448  1
  O  O56  1  0.41085724  0.37513288  0.56327541  1
  O  O57  1  0.39685607  0.83796843  0.48294996  1
  O  O58  1  0.85680382  0.85864535  0.39978667  1
  O  O59  1  0.84194001  0.40111375  0.48078648  1
  O  O60  1  0.41010599  0.83386572  0.56479693  1
  O  O61  1  0.40570218  0.38192067  0.64010899  1
  O  O62  1  0.83838755  0.39203595  0.56495878  1
  O  O63  1  0.85479348  0.85021309  0.48083254  1
  O  O64  1  0.39611207  0.35074175  0.73425341  1
  O  O65  1  0.39552360  0.88190858  0.64001120  1
  O  O66  1  0.83769230  0.86683447  0.56929236  1
  O  O67  1  0.84140430  0.41853395  0.64234499  1
  O  O68  1  0.40772305  0.82783910  0.73382377  1
  O  O69  1  0.41034373  0.37806583  0.80721294  1
  O  O70  1  0.85229967  0.36578112  0.73591577  1
  O  O71  1  0.85433622  0.89826198  0.64095796  1
  O  O72  1  0.41028826  0.37897750  0.89499168  1
  O  O73  1  0.40683924  0.85741570  0.81204190  1
  O  O74  1  0.83959625  0.41842595  0.81091418  1
  O  O75  1  0.84094781  0.86738663  0.73596948  1
  O  O76  1  0.41024038  0.83216249  0.89720152  1
  O  O77  1  0.40960180  0.38308379  0.97221954  1
  O  O78  1  0.83970541  0.87109549  0.81331139  1
  O  O79  1  0.84337807  0.39226545  0.89611438  1
  O  O80  1  0.39873646  0.88394426  0.97185535  1
  O  O81  1  0.84001459  0.87378467  0.90081215  1
  O  O82  1  0.84523858  0.42313508  0.97322576  1
  O  O83  1  0.85231979  0.89673225  0.97440121  1
