# generated using pymatgen
data_Fe2N
_symmetry_space_group_name_H-M   'P 1'
_cell_length_a   4.73931102
_cell_length_b   9.48035951
_cell_length_c   4.33186557
_cell_angle_alpha   89.94272053
_cell_angle_beta   90.02114441
_cell_angle_gamma   119.97823313
_symmetry_Int_Tables_number   1
_chemical_formula_structural   Fe2N
_chemical_formula_sum   'Fe12 N6'
_cell_volume   168.59341705
_cell_formula_units_Z   6
loop_
 _symmetry_equiv_pos_site_id
 _symmetry_equiv_pos_as_xyz
  1  'x, y, z'
loop_
 _atom_site_type_symbol
 _atom_site_label
 _atom_site_symmetry_multiplicity
 _atom_site_fract_x
 _atom_site_fract_y
 _atom_site_fract_z
 _atom_site_occupancy
  Fe  Fe0  1  0.99952460  0.83216009  0.49675528  1
  Fe  Fe1  1  0.99996244  0.66581408  0.99865434  1
  Fe  Fe2  1  0.00145251  0.33190418  0.50009839  1
  Fe  Fe3  1  0.33104498  0.66602084  0.50186751  1
  Fe  Fe4  1  0.66587048  0.00105811  0.49626795  1
  Fe  Fe5  1  0.33185261  0.49783512  0.99545180  1
  Fe  Fe6  1  0.66766738  0.83326320  0.99736520  1
  Fe  Fe7  1  0.33406752  0.16594100  0.49665967  1
  Fe  Fe8  1  0.66424211  0.49862083  0.49980965  1
  Fe  Fe9  1  0.33293521  0.99928539  0.00084189  1
  Fe  Fe10  1  0.65982617  0.33143171  0.99733773  1
  Fe  Fe11  1  0.99370681  0.16633853  0.00007255  1
  N  N12  1  0.99858648  0.99841912  0.24865343  1
  N  N13  1  0.32626940  0.82447042  0.24850062  1
  N  N14  1  0.67386037  0.67383443  0.74860477  1
  N  N15  1  0.33939161  0.33979934  0.24892016  1
  N  N16  1  0.65511651  0.15872650  0.74851795  1
  N  N17  1  0.99827880  0.49922713  0.74939011  1
