# generated using pymatgen
data_Nb3Cr8Si
_symmetry_space_group_name_H-M   'P 1'
_cell_length_a   4.84938732
_cell_length_b   4.84910430
_cell_length_c   7.95927949
_cell_angle_alpha   90.00000000
_cell_angle_beta   90.00470097
_cell_angle_gamma   60.00192455
_symmetry_Int_Tables_number   1
_chemical_formula_structural   Nb3Cr8Si
_chemical_formula_sum   'Nb3 Cr8 Si1'
_cell_volume   162.09185969
_cell_formula_units_Z   1
loop_
 _symmetry_equiv_pos_site_id
 _symmetry_equiv_pos_as_xyz
  1  'x, y, z'
loop_
 _atom_site_type_symbol
 _atom_site_label
 _atom_site_symmetry_multiplicity
 _atom_site_fract_x
 _atom_site_fract_y
 _atom_site_fract_z
 _atom_site_occupancy
  Nb  Nb0  1  0.66666672  0.66666664  0.44466089  1
  Nb  Nb1  1  0.66668666  0.66665667  0.05961788  1
  Nb  Nb2  1  0.33332305  0.33333847  0.93263156  1
  Cr  Cr3  1  -0.00009423  0.00004712  0.49949641  1
  Cr  Cr4  1  -0.00008490  0.00004245  0.00057880  1
  Cr  Cr5  1  0.83113302  0.33778490  0.74644519  1
  Cr  Cr6  1  0.33780571  0.83109715  0.74643148  1
  Cr  Cr7  1  0.83113302  0.83108208  0.74644519  1
  Cr  Cr8  1  0.17123115  0.65756222  0.25342205  1
  Cr  Cr9  1  0.65757856  0.17121072  0.25346812  1
  Cr  Cr10  1  0.17123115  0.17120663  0.25342205  1
  Si  Si11  1  0.33339009  0.33330496  0.56338038  1
