# generated using pymatgen
data_LaTiAlPbO6
_symmetry_space_group_name_H-M   'P 1'
_cell_length_a   3.90594428
_cell_length_b   31.14398169
_cell_length_c   5.49646966
_cell_angle_alpha   45.08969501
_cell_angle_beta   90.00068637
_cell_angle_gamma   89.99976075
_symmetry_Int_Tables_number   1
_chemical_formula_structural   LaTiAlPbO6
_chemical_formula_sum   'La4 Ti4 Al4 Pb4 O24'
_cell_volume   473.53036110
_cell_formula_units_Z   4
loop_
 _symmetry_equiv_pos_site_id
 _symmetry_equiv_pos_as_xyz
  1  'x, y, z'
loop_
 _atom_site_type_symbol
 _atom_site_label
 _atom_site_symmetry_multiplicity
 _atom_site_fract_x
 _atom_site_fract_y
 _atom_site_fract_z
 _atom_site_occupancy
  La  La0  1  0.00009357  0.50573281  0.97708604  1
  La  La1  1  0.00001363  0.74946411  0.00210996  1
  La  La2  1  0.00003321  0.86925405  0.02293907  1
  La  La3  1  0.00009718  0.62551550  0.99789044  1
  Ti  Ti4  1  0.49994861  0.12279790  0.50880395  1
  Ti  Ti5  1  0.50003244  0.38017472  0.47927834  1
  Ti  Ti6  1  0.49995934  0.25218116  0.49119915  1
  Ti  Ti7  1  0.49993762  0.99481398  0.52073375  1
  Al  Al8  1  0.49998958  0.62667215  0.49333375  1
  Al  Al9  1  0.49998724  0.50466104  0.48133046  1
  Al  Al10  1  0.50000846  0.74832819  0.50665439  1
  Al  Al11  1  0.49999302  0.87033190  0.51868995  1
  Pb  Pb12  1  0.00003527  0.99448787  0.02201473  1
  Pb  Pb13  1  0.00005174  0.12552920  0.99798375  1
  Pb  Pb14  1  0.99973317  0.24945572  0.00215736  1
  Pb  Pb15  1  0.00009927  0.38057282  0.97754977  1
  O  O16  1  0.00003975  0.12522305  0.49910980  1
  O  O17  1  0.00002042  0.24979985  0.50078458  1
  O  O18  1  -0.00000448  0.62512532  0.49949202  1
  O  O19  1  0.00000243  0.86799205  0.52805748  1
  O  O20  1  0.49994738  0.05955328  0.01282650  1
  O  O21  1  0.49997061  0.05956970  0.51072368  1
  O  O22  1  0.50000964  0.18750890  0.00004020  1
  O  O23  1  0.49997475  0.18749590  0.50005720  1
  O  O24  1  0.49999512  0.31543664  0.98726338  1
  O  O25  1  0.50000600  0.31544233  0.48930268  1
  O  O26  1  0.50003932  0.44491963  0.97456511  1
  O  O27  1  0.49990991  0.44491403  0.46613615  1
  O  O28  1  0.49999839  0.56539546  0.98767786  1
  O  O29  1  0.49996734  0.56539084  0.48911346  1
  O  O30  1  0.50000003  0.68749335  0.50000925  1
  O  O31  1  0.49999075  0.68749285  0.00003470  1
  O  O32  1  0.50000961  0.80959915  0.01230601  1
  O  O33  1  0.50000843  0.80960143  0.51089858  1
  O  O34  1  0.50005634  0.93010339  0.02537602  1
  O  O35  1  0.50004293  0.93009510  0.53388366  1
  O  O36  1  0.00000463  0.99172077  0.53318448  1
  O  O37  1  0.99999443  0.38329401  0.46685571  1
  O  O38  1  0.99999880  0.50700923  0.47193787  1
  O  O39  1  0.00000411  0.74985062  0.50060876  1
