# generated using pymatgen
data_Ba7U7O24
_symmetry_space_group_name_H-M   'P 1'
_cell_length_a   6.22129559
_cell_length_b   12.45027976
_cell_length_c   10.73593554
_cell_angle_alpha   54.24471180
_cell_angle_beta   89.88623898
_cell_angle_gamma   89.91196725
_symmetry_Int_Tables_number   1
_chemical_formula_structural   Ba7U7O24
_chemical_formula_sum   'Ba7 U7 O24'
_cell_volume   674.83592816
_cell_formula_units_Z   1
loop_
 _symmetry_equiv_pos_site_id
 _symmetry_equiv_pos_as_xyz
  1  'x, y, z'
loop_
 _atom_site_type_symbol
 _atom_site_label
 _atom_site_symmetry_multiplicity
 _atom_site_fract_x
 _atom_site_fract_y
 _atom_site_fract_z
 _atom_site_occupancy
  Ba  Ba0  1  0.00985066  0.36841347  0.23071544  1
  Ba  Ba1  1  0.00506058  0.90223356  0.23706628  1
  Ba  Ba2  1  0.47682429  0.35451162  0.78174822  1
  Ba  Ba3  1  0.52441665  0.14505956  0.22259583  1
  Ba  Ba4  1  0.50911550  0.62251946  0.26370893  1
  Ba  Ba5  1  0.98834138  0.13694489  0.75948817  1
  Ba  Ba6  1  0.99327666  0.60491481  0.76257900  1
  U  U7  1  0.49951834  0.24420066  0.50227857  1
  U  U8  1  0.49797179  0.98856020  0.99500745  1
  U  U9  1  0.49971119  0.75448609  0.50060066  1
  U  U10  1  0.50104681  0.51414633  0.99608456  1
  U  U11  1  0.99979006  0.50064718  0.49659461  1
  U  U12  1  0.00120433  0.75481182  0.99389408  1
  U  U13  1  0.00194812  -0.00203571  0.50839156  1
  O  O14  1  0.99186880  0.08663367  0.28404426  1
  O  O15  1  0.99470185  0.58587845  0.25737559  1
  O  O16  1  0.26107376  0.11426660  0.96237851  1
  O  O17  1  0.24832260  0.34912478  0.54187757  1
  O  O18  1  0.22732655  0.85020773  0.52306030  1
  O  O19  1  0.22380462  0.63454017  0.97290698  1
  O  O20  1  0.28675089  0.37748572  0.02884525  1
  O  O21  1  0.25695224  0.15225250  0.44835860  1
  O  O22  1  0.24847553  0.83908951  0.05472087  1
  O  O23  1  0.26336342  0.63800705  0.46785847  1
  O  O24  1  0.50573003  0.08938536  0.74037679  1
  O  O25  1  0.50664250  0.59566299  0.74299439  1
  O  O26  1  0.49485280  0.41122693  0.25885651  1
  O  O27  1  0.49455017  0.90447989  0.25297580  1
  O  O28  1  0.73457935  0.35647645  0.54215825  1
  O  O29  1  0.71560750  0.12300525  0.96430509  1
  O  O30  1  0.75430555  0.85980485  0.52067495  1
  O  O31  1  0.75750432  0.64463803  0.97384803  1
  O  O32  1  0.75808798  0.15732309  0.45171985  1
  O  O33  1  0.73544517  0.38643468  0.02986610  1
  O  O34  1  0.75571241  0.64766914  0.46500878  1
  O  O35  1  0.76645619  0.84958411  0.05057620  1
  O  O36  1  0.00917763  0.41675569  0.71965336  1
  O  O37  1  0.00483178  0.91830340  0.74480613  1
