# generated using pymatgen
data_Li2MnSn3O8
_symmetry_space_group_name_H-M   'P 1'
_cell_length_a   10.07608709
_cell_length_b   10.78664200
_cell_length_c   10.78613112
_cell_angle_alpha   120.00156928
_cell_angle_beta   90.00000000
_cell_angle_gamma   90.00000000
_symmetry_Int_Tables_number   1
_chemical_formula_structural   Li2MnSn3O8
_chemical_formula_sum   'Li12 Mn6 Sn18 O48'
_cell_volume   1015.23746696
_cell_formula_units_Z   6
loop_
 _symmetry_equiv_pos_site_id
 _symmetry_equiv_pos_as_xyz
  1  'x, y, z'
loop_
 _atom_site_type_symbol
 _atom_site_label
 _atom_site_symmetry_multiplicity
 _atom_site_fract_x
 _atom_site_fract_y
 _atom_site_fract_z
 _atom_site_occupancy
  Li  Li0  1  0.28001552  0.98269765  0.00000000  1
  Li  Li1  1  0.78001552  0.01730235  0.00000000  1
  Li  Li2  1  0.00631787  0.16474916  0.49943152  1
  Li  Li3  1  0.50631787  0.83525084  0.50056848  1
  Li  Li4  1  0.77663168  0.66477966  0.36078141  1
  Li  Li5  1  0.50479926  0.83357769  0.00000000  1
  Li  Li6  1  0.50631787  0.33468235  0.49943152  1
  Li  Li7  1  0.27663168  0.69600175  0.36078141  1
  Li  Li8  1  0.00631787  0.66531765  0.50056848  1
  Li  Li9  1  0.27663168  0.33522034  0.63921859  1
  Li  Li10  1  0.77663168  0.30399825  0.63921859  1
  Li  Li11  1  0.00479926  0.16642231  1.00000000  1
  Mn  Mn12  1  0.68690383  0.66671873  0.66593320  1
  Mn  Mn13  1  0.68690383  0.00078553  0.33406680  1
  Mn  Mn14  1  0.18597696  0.66674682  1.00000000  1
  Mn  Mn15  1  0.68597696  0.33325318  0.00000000  1
  Mn  Mn16  1  0.18690383  0.33328127  0.33406680  1
  Mn  Mn17  1  0.18690383  0.99921447  0.66593320  1
  Sn  Sn18  1  0.00032459  0.49258777  0.17138222  1
  Sn  Sn19  1  0.00032459  0.32120555  0.82861778  1
  Sn  Sn20  1  0.27942692  0.32991969  1.00000000  1
  Sn  Sn21  1  0.77942692  0.67008031  0.00000000  1
  Sn  Sn22  1  0.50032459  0.67879445  0.17138222  1
  Sn  Sn23  1  0.49984288  0.98657599  0.82591269  1
  Sn  Sn24  1  0.49786201  0.16182386  0.65737797  1
  Sn  Sn25  1  0.50032459  0.50741223  0.82861778  1
  Sn  Sn26  1  0.77882857  0.99724232  0.66424957  1
  Sn  Sn27  1  0.77882857  0.33299275  0.33575043  1
  Sn  Sn28  1  0.49984288  0.16066330  0.17408731  1
  Sn  Sn29  1  0.99984288  0.01342401  0.17408731  1
  Sn  Sn30  1  0.49786201  0.50444589  0.34262203  1
  Sn  Sn31  1  0.99786201  0.83817614  0.34262203  1
  Sn  Sn32  1  0.99786201  0.49555411  0.65737797  1
  Sn  Sn33  1  0.27882857  0.00275768  0.33575043  1
  Sn  Sn34  1  0.27882857  0.66700725  0.66424957  1
  Sn  Sn35  1  0.99984288  0.83933670  0.82591269  1
  O  O36  1  0.12485549  0.67000244  0.81864552  1
  O  O37  1  0.39408203  0.00457405  0.67142925  1
  O  O38  1  0.63513488  0.85417388  0.67056784  1
  O  O39  1  0.39120614  0.66128861  1.00000000  1
  O  O40  1  0.63688798  0.01290072  0.52506839  1
  O  O41  1  0.63899846  0.81049692  0.15125002  1
  O  O42  1  0.88727092  0.49679030  0.83234835  1
  O  O43  1  0.88051427  0.16534024  0.16871792  1
  O  O44  1  0.59571071  0.33376579  0.67039263  1
  O  O45  1  0.59666490  0.00302456  0.00000000  1
  O  O46  1  0.89408203  0.99542595  0.32857075  1
  O  O47  1  0.59571071  0.66337316  0.32960737  1
  O  O48  1  0.13899846  0.18950308  0.84874998  1
  O  O49  1  0.38016979  0.50498091  0.67408098  1
  O  O50  1  0.12485549  0.85135692  0.18135448  1
  O  O51  1  0.38051427  0.00337769  0.16871792  1
  O  O52  1  0.13513488  0.14582612  0.32943216  1
  O  O53  1  0.38727092  0.50320970  0.16765165  1
  O  O54  1  0.09571071  0.33662684  0.67039263  1
  O  O55  1  0.39408203  0.33314480  0.32857075  1
  O  O56  1  0.13688798  0.51216767  0.52506839  1
  O  O57  1  0.62485549  0.14864308  0.81864552  1
  O  O58  1  0.63513488  0.18360604  0.32943216  1
  O  O59  1  0.13899846  0.34075310  0.15125002  1
  O  O60  1  0.63688798  0.48783233  0.47493161  1
  O  O61  1  0.38727092  0.33555805  0.83234835  1
  O  O62  1  0.09666490  0.99697544  1.00000000  1
  O  O63  1  0.38051427  0.83465976  0.83128208  1
  O  O64  1  0.63899846  0.65924690  0.84874998  1
  O  O65  1  0.13688798  0.98709928  0.47493161  1
  O  O66  1  0.37786969  0.16666093  0.50541758  1
  O  O67  1  0.09571071  0.66623421  0.32960737  1
  O  O68  1  0.38016979  0.83089993  0.32591902  1
  O  O69  1  0.88305243  0.84097635  1.00000000  1
  O  O70  1  0.62944654  0.51896439  0.00000000  1
  O  O71  1  0.88727092  0.66444195  0.16765165  1
  O  O72  1  0.88051427  0.99662231  0.83128208  1
  O  O73  1  0.87786969  0.83333907  0.49458242  1
  O  O74  1  0.62485549  0.32999756  0.18135448  1
  O  O75  1  0.89408203  0.66685520  0.67142925  1
  O  O76  1  0.87786969  0.33875665  0.50541758  1
  O  O77  1  0.12944654  0.48103561  1.00000000  1
  O  O78  1  0.89120614  0.33871139  0.00000000  1
  O  O79  1  0.37786969  0.66124335  0.49458242  1
  O  O80  1  0.13513488  0.81639396  0.67056784  1
  O  O81  1  0.88016979  0.16910007  0.67408098  1
  O  O82  1  0.88016979  0.49501909  0.32591902  1
  O  O83  1  0.38305243  0.15902365  0.00000000  1
