# generated using pymatgen
data_Sn4Sb6S13
_symmetry_space_group_name_H-M   'P 1'
_cell_length_a   3.83342392
_cell_length_b   16.98572116
_cell_length_c   18.66746200
_cell_angle_alpha   88.65494353
_cell_angle_beta   84.14759845
_cell_angle_gamma   83.54826806
_symmetry_Int_Tables_number   1
_chemical_formula_structural   Sn4Sb6S13
_chemical_formula_sum   'Sn8 Sb12 S26'
_cell_volume   1201.42126763
_cell_formula_units_Z   2
loop_
 _symmetry_equiv_pos_site_id
 _symmetry_equiv_pos_as_xyz
  1  'x, y, z'
loop_
 _atom_site_type_symbol
 _atom_site_label
 _atom_site_symmetry_multiplicity
 _atom_site_fract_x
 _atom_site_fract_y
 _atom_site_fract_z
 _atom_site_occupancy
  Sn  Sn0  1  0.80023647  0.49963920  0.89763485  1
  Sn  Sn1  1  0.35841715  0.13090393  0.16238142  1
  Sn  Sn2  1  0.56983100  0.55620837  0.30260246  1
  Sn  Sn3  1  0.45517712  0.60847297  0.48781255  1
  Sn  Sn4  1  0.55092378  0.39161086  0.51050857  1
  Sn  Sn5  1  0.43028831  0.44402602  0.69589910  1
  Sn  Sn6  1  0.19678864  0.50109767  0.10066338  1
  Sn  Sn7  1  0.64507461  0.86992754  0.83703370  1
  Sb  Sb8  1  0.67688792  0.98947133  0.66712803  1
  Sb  Sb9  1  0.33382974  0.01114796  0.33289463  1
  Sb  Sb10  1  0.17583291  0.33722720  0.30614350  1
  Sb  Sb11  1  0.51099873  0.07523145  0.90277493  1
  Sb  Sb12  1  0.49074623  0.92556052  0.09691626  1
  Sb  Sb13  1  0.82249805  0.66302333  0.69196936  1
  Sb  Sb14  1  0.13157207  0.72972627  0.00618972  1
  Sb  Sb15  1  0.97318016  0.80744812  0.24799780  1
  Sb  Sb16  1  0.02592025  0.19324301  0.75165144  1
  Sb  Sb17  1  0.14065509  0.19108655  0.52144821  1
  Sb  Sb18  1  0.85819590  0.80907393  0.47747038  1
  Sb  Sb19  1  0.86672862  0.27093242  0.99339078  1
  S  S20  1  0.07689651  0.05166338  0.79632867  1
  S  S21  1  0.79435851  0.18066547  0.24159373  1
  S  S22  1  0.31237578  0.41615944  0.95726754  1
  S  S23  1  0.20941919  0.81984585  0.75806250  1
  S  S24  1  0.68507431  0.58452750  0.04097723  1
  S  S25  1  0.32004941  0.27232744  0.08813979  1
  S  S26  1  0.94278880  0.11778246  0.99841864  1
  S  S27  1  0.92129205  0.56775145  0.59349770  1
  S  S28  1  0.91189175  0.39542765  0.78102583  1
  S  S29  1  0.53778698  0.78465590  0.14282774  1
  S  S30  1  0.95360958  0.69217710  0.40352065  1
  S  S31  1  0.34790411  0.74989355  0.55791777  1
  S  S32  1  0.08177210  0.43245508  0.40472026  1
  S  S33  1  0.60509308  0.13971801  0.65305391  1
  S  S34  1  0.39921745  0.86096932  0.34681938  1
  S  S35  1  0.05923371  0.88300713  0.00150644  1
  S  S36  1  0.67528992  0.40829559  0.23595804  1
  S  S37  1  0.08781576  0.60507105  0.21743315  1
  S  S38  1  0.67925980  0.72860680  0.91144775  1
  S  S39  1  0.78197255  0.02615857  0.42146270  1
  S  S40  1  0.32290856  0.59206079  0.76228624  1
  S  S41  1  0.04868481  0.30846861  0.59512810  1
  S  S42  1  0.22834851  0.97380770  0.57863214  1
  S  S43  1  0.46505327  0.21612102  0.85680034  1
  S  S44  1  0.92603773  0.94907912  0.20351459  1
  S  S45  1  0.65214705  0.25011235  0.44095410  1
