# generated using pymatgen
data_K5As4
_symmetry_space_group_name_H-M   'P 1'
_cell_length_a   6.47489983
_cell_length_b   8.50879209
_cell_length_c   6.54553068
_cell_angle_alpha   113.77443695
_cell_angle_beta   94.93745089
_cell_angle_gamma   89.38810794
_symmetry_Int_Tables_number   1
_chemical_formula_structural   K5As4
_chemical_formula_sum   'K5 As4'
_cell_volume   328.67592379
_cell_formula_units_Z   1
loop_
 _symmetry_equiv_pos_site_id
 _symmetry_equiv_pos_as_xyz
  1  'x, y, z'
loop_
 _atom_site_type_symbol
 _atom_site_label
 _atom_site_symmetry_multiplicity
 _atom_site_fract_x
 _atom_site_fract_y
 _atom_site_fract_z
 _atom_site_occupancy
  K  K0  1  0.27720326  0.98803956  0.19271279  1
  K  K1  1  0.14530011  0.27936800  0.79138463  1
  K  K2  1  0.50215726  0.49709010  0.49633751  1
  K  K3  1  0.86083759  0.71400772  0.20342655  1
  K  K4  1  0.72828909  0.00449751  0.80400154  1
  As  As5  1  0.02000351  0.62948513  0.67722994  1
  As  As6  1  0.77410793  0.14617274  0.37025672  1
  As  As7  1  0.23179826  0.84793814  0.62819198  1
  As  As8  1  0.98400299  0.36400109  0.31845833  1
