# generated using pymatgen
data_Ba3La7Mn(Co3O10)3
_symmetry_space_group_name_H-M   'P 1'
_cell_length_a   19.41461400
_cell_length_b   8.75797864
_cell_length_c   5.55643701
_cell_angle_alpha   50.62132535
_cell_angle_beta   90.00000000
_cell_angle_gamma   63.67021208
_symmetry_Int_Tables_number   1
_chemical_formula_structural   Ba3La7Mn(Co3O10)3
_chemical_formula_sum   'Ba3 La7 Mn1 Co9 O30'
_cell_volume   598.09420616
_cell_formula_units_Z   1
loop_
 _symmetry_equiv_pos_site_id
 _symmetry_equiv_pos_as_xyz
  1  'x, y, z'
loop_
 _atom_site_type_symbol
 _atom_site_label
 _atom_site_symmetry_multiplicity
 _atom_site_fract_x
 _atom_site_fract_y
 _atom_site_fract_z
 _atom_site_occupancy
  Ba  Ba0  1  0.99889429  -0.00122106  0.00122106  1
  Ba  Ba1  1  0.20110571  0.00122106  -0.00122106  1
  Ba  Ba2  1  0.10000000  0.50000000  0.00000000  1
  La  La3  1  0.29750403  0.50079053  0.99920947  1
  La  La4  1  0.39953877  0.00596664  0.99403336  1
  La  La5  1  0.49796716  0.50226575  0.99773425  1
  La  La6  1  0.60000000  0.00000000  0.00000000  1
  La  La7  1  0.80046123  0.99403336  0.00596664  1
  La  La8  1  0.70203284  0.49773425  0.00226575  1
  La  La9  1  0.90249597  0.49920947  0.00079053  1
  Mn  Mn10  1  0.10000000  0.00000000  0.50000000  1
  Co  Co11  1  0.99866162  0.49860148  0.50139852  1
  Co  Co12  1  0.20133838  0.50139852  0.49860148  1
  Co  Co13  1  0.40316125  0.49626182  0.50373818  1
  Co  Co14  1  0.29906411  0.00000855  0.49999145  1
  Co  Co15  1  0.60000000  0.50000000  0.50000000  1
  Co  Co16  1  0.50078336  0.99657326  0.50342674  1
  Co  Co17  1  0.69921664  0.00342674  0.49657326  1
  Co  Co18  1  0.79683875  0.50373818  0.49626182  1
  Co  Co19  1  0.90093589  -0.00000855  0.50000855  1
  O  O20  1  0.04263330  0.25913203  0.00189292  1
  O  O21  1  0.04263330  0.25913203  0.47984302  1
  O  O22  1  0.10000000  0.50000000  0.50000000  1
  O  O23  1  0.99402698  0.01976937  0.48023063  1
  O  O24  1  0.26360294  0.24041254  0.01145598  1
  O  O25  1  0.26360294  0.24041254  0.50771893  1
  O  O26  1  0.15736670  0.74086797  0.99810708  1
  O  O27  1  0.15736670  0.74086797  0.52015698  1
  O  O28  1  0.31065369  0.47411452  0.52588548  1
  O  O29  1  0.20597302  0.98023063  0.51976937  1
  O  O30  1  0.45385927  0.24782059  0.50789167  1
  O  O31  1  0.45385927  0.24782059  -0.00353285  1
  O  O32  1  0.36076709  0.73046251  0.01418014  1
  O  O33  1  0.36076709  0.73046251  0.52489484  1
  O  O34  1  0.50154570  0.48826436  0.51173564  1
  O  O35  1  0.40738934  0.98756628  0.51243372  1
  O  O36  1  0.64807096  0.25427313  0.98926415  1
  O  O37  1  0.55192904  0.74572687  0.01073585  1
  O  O38  1  0.55192904  0.74572687  0.49781041  1
  O  O39  1  0.64807096  0.25427313  0.50218959  1
  O  O40  1  0.60000000  0.00000000  0.50000000  1
  O  O41  1  0.69845430  0.51173564  0.48826436  1
  O  O42  1  0.74614073  0.75217941  0.00353285  1
  O  O43  1  0.83923291  0.26953749  0.98581986  1
  O  O44  1  0.83923291  0.26953749  0.47510516  1
  O  O45  1  0.74614073  0.75217941  0.49210833  1
  O  O46  1  0.88934631  0.52588548  0.47411452  1
  O  O47  1  0.79261066  0.01243372  0.48756628  1
  O  O48  1  0.93639706  0.75958746  0.98854402  1
  O  O49  1  0.93639706  0.75958746  0.49228107  1
