# generated using pymatgen
data_KLiH4S2(NO3)2
_symmetry_space_group_name_H-M   'P 1'
_cell_length_a   5.30237396
_cell_length_b   8.56878363
_cell_length_c   9.00311988
_cell_angle_alpha   90.00000000
_cell_angle_beta   104.84464534
_cell_angle_gamma   90.00000000
_symmetry_Int_Tables_number   1
_chemical_formula_structural   KLiH4S2(NO3)2
_chemical_formula_sum   'K2 Li2 H8 S4 N4 O12'
_cell_volume   395.40318211
_cell_formula_units_Z   2
loop_
 _symmetry_equiv_pos_site_id
 _symmetry_equiv_pos_as_xyz
  1  'x, y, z'
loop_
 _atom_site_type_symbol
 _atom_site_label
 _atom_site_symmetry_multiplicity
 _atom_site_fract_x
 _atom_site_fract_y
 _atom_site_fract_z
 _atom_site_occupancy
  K  K0  1  0.79760631  0.49998567  0.46458538  1
  K  K1  1  0.20239369  -0.00001433  0.53541462  1
  Li  Li2  1  0.90696439  0.19268230  0.84339485  1
  Li  Li3  1  0.09303561  0.69268230  0.15660515  1
  H  H4  1  0.54130084  0.84133868  0.85846110  1
  H  H5  1  0.45869916  0.34133868  0.14153890  1
  H  H6  1  0.51282158  0.70810352  0.71496648  1
  H  H7  1  0.48717842  0.20810352  0.28503352  1
  H  H8  1  0.37306613  0.97719156  0.04768078  1
  H  H9  1  0.62693387  0.47719156  0.95231922  1
  H  H10  1  0.68124207  0.04698864  0.07900594  1
  H  H11  1  0.31875793  0.54698864  0.92099406  1
  S  S12  1  0.91304197  0.80869918  0.79408712  1
  S  S13  1  0.08695803  0.30869918  0.20591288  1
  S  S14  1  0.64186610  0.86736893  0.25343652  1
  S  S15  1  0.35813390  0.36736893  0.74656348  1
  N  N16  1  0.58966896  0.81456021  0.75723009  1
  N  N17  1  0.41033104  0.31456021  0.24276991  1
  N  N18  1  0.56801383  0.94923594  0.07915530  1
  N  N19  1  0.43198617  0.44923594  0.92084470  1
  O  O20  1  0.96989335  0.74256638  0.65663696  1
  O  O21  1  0.03010665  0.24256638  0.34336304  1
  O  O22  1  0.00095465  0.97179099  0.82283528  1
  O  O23  1  0.99904535  0.47179099  0.17716472  1
  O  O24  1  0.01805939  0.71054515  0.93138631  1
  O  O25  1  0.98194061  0.21054515  0.06861369  1
  O  O26  1  0.59977195  0.97934435  0.36831032  1
  O  O27  1  0.40022805  0.47934435  0.63168968  1
  O  O28  1  0.46923755  0.73036379  0.23694872  1
  O  O29  1  0.53076245  0.23036379  0.76305128  1
  O  O30  1  0.91869824  0.82303472  0.28071534  1
  O  O31  1  0.08130176  0.32303472  0.71928466  1
