# generated using pymatgen
data_Na3AlH10C6O17
_symmetry_space_group_name_H-M   'P 1'
_cell_length_a   10.72412880
_cell_length_b   10.72412880
_cell_length_c   15.36576868
_cell_angle_alpha   82.19199764
_cell_angle_beta   97.80800236
_cell_angle_gamma   108.26597463
_symmetry_Int_Tables_number   1
_chemical_formula_structural   Na3AlH10C6O17
_chemical_formula_sum   'Na12 Al4 H40 C24 O68'
_cell_volume   1654.37639022
_cell_formula_units_Z   4
loop_
 _symmetry_equiv_pos_site_id
 _symmetry_equiv_pos_as_xyz
  1  'x, y, z'
loop_
 _atom_site_type_symbol
 _atom_site_label
 _atom_site_symmetry_multiplicity
 _atom_site_fract_x
 _atom_site_fract_y
 _atom_site_fract_z
 _atom_site_occupancy
  Na  Na0  1  0.50732488  0.50732488  0.75000000  1
  Na  Na1  1  0.49267512  0.49267512  0.25000000  1
  Na  Na2  1  0.23091046  0.23091046  0.75000000  1
  Na  Na3  1  0.76908954  0.76908954  0.25000000  1
  Na  Na4  1  0.83963289  0.92812928  0.99923210  1
  Na  Na5  1  0.92812928  0.83963289  0.50076790  1
  Na  Na6  1  0.16036711  0.07187072  0.00076790  1
  Na  Na7  1  0.07187072  0.16036711  0.49923210  1
  Na  Na8  1  0.50748547  0.74190473  0.98729390  1
  Na  Na9  1  0.74190473  0.50748547  0.51270610  1
  Na  Na10  1  0.49251453  0.25809527  0.01270610  1
  Na  Na11  1  0.25809527  0.49251453  0.48729390  1
  Al  Al12  1  0.67812498  0.06273734  0.76923199  1
  Al  Al13  1  0.06273734  0.67812498  0.73076801  1
  Al  Al14  1  0.32187502  0.93726266  0.23076801  1
  Al  Al15  1  0.93726266  0.32187502  0.26923199  1
  H  H16  1  0.27184827  0.35779160  0.94415725  1
  H  H17  1  0.35779160  0.27184827  0.55584275  1
  H  H18  1  0.72815173  0.64220840  0.05584275  1
  H  H19  1  0.64220840  0.72815173  0.44415725  1
  H  H20  1  0.27896330  0.35036447  0.04920741  1
  H  H21  1  0.35036447  0.27896330  0.45079259  1
  H  H22  1  0.72103670  0.64963553  0.95079259  1
  H  H23  1  0.64963553  0.72103670  0.54920741  1
  H  H24  1  0.00743815  0.18866866  0.09359731  1
  H  H25  1  0.18866866  0.00743815  0.40640269  1
  H  H26  1  0.99256185  0.81133134  0.90640269  1
  H  H27  1  0.81133134  0.99256185  0.59359731  1
  H  H28  1  0.97591096  0.22850623  0.99477426  1
  H  H29  1  0.22850623  0.97591096  0.50522574  1
  H  H30  1  0.02408904  0.77149377  0.00522574  1
  H  H31  1  0.77149377  0.02408904  0.49477426  1
  H  H32  1  0.65520054  0.98379630  0.08379407  1
  H  H33  1  0.98379630  0.65520054  0.41620593  1
  H  H34  1  0.34479946  0.01620370  0.91620593  1
  H  H35  1  0.01620370  0.34479946  0.58379407  1
  H  H36  1  0.61835059  0.04259687  0.98824840  1
  H  H37  1  0.04259687  0.61835059  0.51175160  1
  H  H38  1  0.38164941  0.95740313  0.01175160  1
  H  H39  1  0.95740313  0.38164941  0.48824840  1
  H  H40  1  0.78705239  0.32532188  0.99915808  1
  H  H41  1  0.32532188  0.78705239  0.50084192  1
  H  H42  1  0.21294761  0.67467812  0.00084192  1
  H  H43  1  0.67467812  0.21294761  0.49915808  1
  H  H44  1  0.74697249  0.26406899  0.09380023  1
  H  H45  1  0.26406899  0.74697249  0.40619977  1
  H  H46  1  0.25302751  0.73593101  0.90619977  1
  H  H47  1  0.73593101  0.25302751  0.59380023  1
  H  H48  1  0.99727687  0.43681057  0.89492187  1
  H  H49  1  0.43681057  0.99727687  0.60507813  1
  H  H50  1  0.00272313  0.56318943  0.10507813  1
  H  H51  1  0.56318943  0.00272313  0.39492187  1
  H  H52  1  0.87103392  0.31591857  0.87898683  1
  H  H53  1  0.31591857  0.87103392  0.62101317  1
  H  H54  1  0.12896608  0.68408143  0.12101317  1
  H  H55  1  0.68408143  0.12896608  0.37898683  1
  C  C56  1  0.55502469  0.23043612  0.81216657  1
  C  C57  1  0.23043612  0.55502469  0.68783343  1
  C  C58  1  0.44497531  0.76956388  0.18783343  1
  C  C59  1  0.76956388  0.44497531  0.31216657  1
  C  C60  1  0.49952760  0.19961170  0.71613795  1
  C  C61  1  0.19961170  0.49952760  0.78386205  1
  C  C62  1  0.50047240  0.80038830  0.28386205  1
  C  C63  1  0.80038830  0.50047240  0.21613795  1
  C  C64  1  0.61436246  0.82233365  0.70480867  1
  C  C65  1  0.82233365  0.61436246  0.79519133  1
  C  C66  1  0.38563754  0.17766635  0.29519133  1
  C  C67  1  0.17766635  0.38563754  0.20480867  1
  C  C68  1  0.54692071  0.80129504  0.79105058  1
  C  C69  1  0.80129504  0.54692071  0.70894942  1
  C  C70  1  0.45307929  0.19870496  0.20894942  1
  C  C71  1  0.19870496  0.45307929  0.29105058  1
  C  C72  1  0.92698601  0.20904401  0.73149238  1
  C  C73  1  0.20904401  0.92698601  0.76850762  1
  C  C74  1  0.07301399  0.79095599  0.26850762  1
  C  C75  1  0.79095599  0.07301399  0.23149238  1
  C  C76  1  0.94503205  0.11782727  0.81636243  1
  C  C77  1  0.11782727  0.94503205  0.68363757  1
  C  C78  1  0.05496795  0.88217273  0.18363757  1
  C  C79  1  0.88217273  0.05496795  0.31636243  1
  O  O80  1  0.64577654  0.17493772  0.84393185  1
  O  O81  1  0.17493772  0.64577654  0.65606815  1
  O  O82  1  0.35422346  0.82506228  0.15606815  1
  O  O83  1  0.82506228  0.35422346  0.34393185  1
  O  O84  1  0.54103425  0.11088630  0.68982511  1
  O  O85  1  0.11088630  0.54103425  0.81017489  1
  O  O86  1  0.45896575  0.88911370  0.31017489  1
  O  O87  1  0.88911370  0.45896575  0.18982511  1
  O  O88  1  0.51078956  0.29914929  0.85083810  1
  O  O89  1  0.29914929  0.51078956  0.64916190  1
  O  O90  1  0.48921044  0.70085071  0.14916190  1
  O  O91  1  0.70085071  0.48921044  0.35083810  1
  O  O92  1  0.42192921  0.25580178  0.67331270  1
  O  O93  1  0.25580178  0.42192921  0.82668730  1
  O  O94  1  0.57807079  0.74419822  0.32668730  1
  O  O95  1  0.74419822  0.57807079  0.17331270  1
  O  O96  1  0.68750337  0.94343124  0.68847169  1
  O  O97  1  0.94343124  0.68750337  0.81152831  1
  O  O98  1  0.31249663  0.05656876  0.31152831  1
  O  O99  1  0.05656876  0.31249663  0.18847169  1
  O  O100  1  0.56885582  0.90993173  0.82729976  1
  O  O101  1  0.90993173  0.56885582  0.67270024  1
  O  O102  1  0.43114418  0.09006827  0.17270024  1
  O  O103  1  0.09006827  0.43114418  0.32729976  1
  O  O104  1  0.59775192  0.72899689  0.66029621  1
  O  O105  1  0.72899689  0.59775192  0.83970379  1
  O  O106  1  0.40224808  0.27100311  0.33970379  1
  O  O107  1  0.27100311  0.40224808  0.16029621  1
  O  O108  1  0.48230904  0.69024640  0.82120996  1
  O  O109  1  0.69024640  0.48230904  0.67879004  1
  O  O110  1  0.51769096  0.30975360  0.17879004  1
  O  O111  1  0.30975360  0.51769096  0.32120996  1
  O  O112  1  0.80458509  0.20152805  0.70740555  1
  O  O113  1  0.20152805  0.80458509  0.79259445  1
  O  O114  1  0.19541491  0.79847195  0.29259445  1
  O  O115  1  0.79847195  0.19541491  0.20740555  1
  O  O116  1  0.83315682  0.04655775  0.84501610  1
  O  O117  1  0.04655775  0.83315682  0.65498390  1
  O  O118  1  0.16684318  0.95344225  0.15498390  1
  O  O119  1  0.95344225  0.16684318  0.34501610  1
  O  O120  1  0.02395750  0.28023688  0.69430037  1
  O  O121  1  0.28023688  0.02395750  0.80569963  1
  O  O122  1  0.97604250  0.71976312  0.30569963  1
  O  O123  1  0.71976312  0.97604250  0.19430037  1
  O  O124  1  0.05700744  0.11932151  0.85025554  1
  O  O125  1  0.11932151  0.05700744  0.64974446  1
  O  O126  1  0.94299256  0.88067849  0.14974446  1
  O  O127  1  0.88067849  0.94299256  0.35025554  1
  O  O128  1  0.29589734  0.30929621  0.00007440  1
  O  O129  1  0.30929621  0.29589734  0.49992560  1
  O  O130  1  0.70410266  0.69070379  0.99992560  1
  O  O131  1  0.69070379  0.70410266  0.50007440  1
  O  O132  1  0.98076976  0.15109871  0.03662919  1
  O  O133  1  0.15109871  0.98076976  0.46337081  1
  O  O134  1  0.01923024  0.84890129  0.96337081  1
  O  O135  1  0.84890129  0.01923024  0.53662919  1
  O  O136  1  0.62928739  0.96189036  0.02188173  1
  O  O137  1  0.96189036  0.62928739  0.47811827  1
  O  O138  1  0.37071261  0.03810964  0.97811827  1
  O  O139  1  0.03810964  0.37071261  0.52188173  1
  O  O140  1  0.71110090  0.28299854  0.03296663  1
  O  O141  1  0.28299854  0.71110090  0.46703337  1
  O  O142  1  0.28889910  0.71700146  0.96703337  1
  O  O143  1  0.71700146  0.28889910  0.53296663  1
  O  O144  1  0.92850667  0.36602167  0.92514300  1
  O  O145  1  0.36602167  0.92850667  0.57485700  1
  O  O146  1  0.07149333  0.63397833  0.07485700  1
  O  O147  1  0.63397833  0.07149333  0.42514300  1
