# generated using pymatgen
data_AlH4(SeO4)2
_symmetry_space_group_name_H-M   'P 1'
_cell_length_a   7.53967250
_cell_length_b   6.64027201
_cell_length_c   7.40861477
_cell_angle_alpha   90.00000000
_cell_angle_beta   106.71514346
_cell_angle_gamma   90.00000000
_symmetry_Int_Tables_number   1
_chemical_formula_structural   AlH4(SeO4)2
_chemical_formula_sum   'Al2 H8 Se4 O16'
_cell_volume   355.24333875
_cell_formula_units_Z   2
loop_
 _symmetry_equiv_pos_site_id
 _symmetry_equiv_pos_as_xyz
  1  'x, y, z'
loop_
 _atom_site_type_symbol
 _atom_site_label
 _atom_site_symmetry_multiplicity
 _atom_site_fract_x
 _atom_site_fract_y
 _atom_site_fract_z
 _atom_site_occupancy
  Al  Al0  1  0.00000000  0.00000000  0.50000000  1
  Al  Al1  1  0.50000000  0.50000000  0.00000000  1
  H  H2  1  0.71961553  0.75015045  0.90612586  1
  H  H3  1  0.21961553  0.74984955  0.40612586  1
  H  H4  1  0.28038447  0.24984955  0.09387414  1
  H  H5  1  0.78038447  0.25015045  0.59387414  1
  H  H6  1  0.96066494  0.21663329  0.77122389  1
  H  H7  1  0.46066494  0.28336671  0.27122389  1
  H  H8  1  0.03933506  0.78336671  0.22877611  1
  H  H9  1  0.53933506  0.71663329  0.72877611  1
  Se  Se10  1  0.09405970  0.70401335  0.85527405  1
  Se  Se11  1  0.59405970  0.79598665  0.35527405  1
  Se  Se12  1  0.90594030  0.29598665  0.14472595  1
  Se  Se13  1  0.40594030  0.20401335  0.64472595  1
  O  O14  1  0.04286930  0.20450873  0.01641365  1
  O  O15  1  0.54286930  0.29549127  0.51641365  1
  O  O16  1  0.95713070  0.79549127  0.98358635  1
  O  O17  1  0.45713070  0.70450873  0.48358635  1
  O  O18  1  0.58387138  0.72171702  0.86994236  1
  O  O19  1  0.08387138  0.77828298  0.36994236  1
  O  O20  1  0.41612862  0.27828298  0.13005764  1
  O  O21  1  0.91612862  0.22171702  0.63005764  1
  O  O22  1  0.65009886  0.59271956  0.23632205  1
  O  O23  1  0.15009886  0.90728044  0.73632205  1
  O  O24  1  0.34990114  0.40728044  0.76367795  1
  O  O25  1  0.84990114  0.09271956  0.26367795  1
  O  O26  1  0.79931232  0.83858389  0.52667425  1
  O  O27  1  0.29931232  0.66141611  0.02667425  1
  O  O28  1  0.20068768  0.16141611  0.47332575  1
  O  O29  1  0.70068768  0.33858389  0.97332575  1
