# generated using pymatgen
data_LiFePO4
_symmetry_space_group_name_H-M   'P 1'
_cell_length_a   8.75398552
_cell_length_b   8.04491240
_cell_length_c   15.26255617
_cell_angle_alpha   90.00000000
_cell_angle_beta   89.88355207
_cell_angle_gamma   90.00000000
_symmetry_Int_Tables_number   1
_chemical_formula_structural   LiFePO4
_chemical_formula_sum   'Li12 Fe12 P12 O48'
_cell_volume   1074.86401113
_cell_formula_units_Z   12
loop_
 _symmetry_equiv_pos_site_id
 _symmetry_equiv_pos_as_xyz
  1  'x, y, z'
loop_
 _atom_site_type_symbol
 _atom_site_label
 _atom_site_symmetry_multiplicity
 _atom_site_fract_x
 _atom_site_fract_y
 _atom_site_fract_z
 _atom_site_occupancy
  Li  Li0  1  0.24773912  0.16888697  0.24966340  1
  Li  Li1  1  0.75226088  0.83111303  0.75033660  1
  Li  Li2  1  0.74773912  0.33111303  0.74966340  1
  Li  Li3  1  0.25226088  0.66888697  0.25033660  1
  Li  Li4  1  0.26531323  0.53898264  0.94238574  1
  Li  Li5  1  0.75854739  0.04015850  0.09640187  1
  Li  Li6  1  0.23468677  0.03898264  0.55761426  1
  Li  Li7  1  0.76531323  0.96101736  0.44238574  1
  Li  Li8  1  0.25854739  0.45984150  0.59640187  1
  Li  Li9  1  0.24145261  0.95984150  0.90359813  1
  Li  Li10  1  0.74145261  0.54015850  0.40359813  1
  Li  Li11  1  0.73468677  0.46101736  0.05761426  1
  Fe  Fe12  1  0.40896674  0.28280718  0.77280128  1
  Fe  Fe13  1  0.88388098  0.27307296  0.57106726  1
  Fe  Fe14  1  0.09103326  0.78280718  0.72719872  1
  Fe  Fe15  1  0.53869774  0.76548866  0.59663463  1
  Fe  Fe16  1  0.38388098  0.22692704  0.07106726  1
  Fe  Fe17  1  0.03869774  0.73451134  0.09663463  1
  Fe  Fe18  1  0.61611902  0.77307296  0.92893274  1
  Fe  Fe19  1  0.59103326  0.71719282  0.22719872  1
  Fe  Fe20  1  0.90896674  0.21719282  0.27280128  1
  Fe  Fe21  1  0.11611902  0.72692704  0.42893274  1
  Fe  Fe22  1  0.96130226  0.26548866  0.90336537  1
  Fe  Fe23  1  0.46130226  0.23451134  0.40336537  1
  P  P24  1  0.40911068  0.67205516  0.77649677  1
  P  P25  1  0.38530521  0.83033169  0.07392168  1
  P  P26  1  0.54895749  0.16516669  0.59299594  1
  P  P27  1  0.04895749  0.33483331  0.09299594  1
  P  P28  1  0.45104251  0.83483331  0.40700406  1
  P  P29  1  0.09088932  0.17205516  0.72350323  1
  P  P30  1  0.88530521  0.66966831  0.57392168  1
  P  P31  1  0.11469479  0.33033169  0.42607832  1
  P  P32  1  0.90911068  0.82794484  0.27649677  1
  P  P33  1  0.59088932  0.32794484  0.22350323  1
  P  P34  1  0.95104251  0.66516669  0.90700406  1
  P  P35  1  0.61469479  0.16966831  0.92607832  1
  O  O36  1  0.72160243  0.20760724  0.19606950  1
  O  O37  1  0.58153600  0.25828210  0.68054486  1
  O  O38  1  0.29633185  0.87427881  0.45391117  1
  O  O39  1  0.60727837  0.49049022  0.16927533  1
  O  O40  1  0.53958533  0.99808937  0.38870735  1
  O  O41  1  0.41846400  0.74171790  0.31945514  1
  O  O42  1  0.41958182  0.71440595  0.99439706  1
  O  O43  1  0.91846400  0.75828210  0.81945514  1
  O  O44  1  0.96657028  0.36507617  0.37315508  1
  O  O45  1  0.26453607  0.74556851  0.13409385  1
  O  O46  1  0.81887113  0.50480081  0.53658086  1
  O  O47  1  0.68112887  0.00480081  0.96341914  1
  O  O48  1  0.39995436  0.63166442  0.67632159  1
  O  O49  1  0.96041467  0.49808937  0.11129265  1
  O  O50  1  0.39272163  0.50950978  0.83072467  1
  O  O51  1  0.23546393  0.24556851  0.36590615  1
  O  O52  1  0.03958533  0.50191063  0.88870735  1
  O  O53  1  0.10004564  0.13166442  0.82367841  1
  O  O54  1  0.46657028  0.13492383  0.87315508  1
  O  O55  1  0.05440646  0.77614445  0.96594922  1
  O  O56  1  0.70366815  0.12572119  0.54608883  1
  O  O57  1  0.91958182  0.78559405  0.49439706  1
  O  O58  1  0.76453607  0.75443149  0.63409385  1
  O  O59  1  0.56539261  0.75466958  0.79718022  1
  O  O60  1  0.10727837  0.00950978  0.66927533  1
  O  O61  1  0.22160243  0.29239276  0.69606950  1
  O  O62  1  0.08041818  0.21440595  0.50560294  1
  O  O63  1  0.46041467  0.00191063  0.61129265  1
  O  O64  1  0.79633185  0.62572119  0.95391117  1
  O  O65  1  0.06539261  0.74533042  0.29718022  1
  O  O66  1  0.44559354  0.27614445  0.53405078  1
  O  O67  1  0.53342972  0.86507617  0.12684492  1
  O  O68  1  0.89272163  0.99049022  0.33072467  1
  O  O69  1  0.43460739  0.24533042  0.20281978  1
  O  O70  1  0.55440646  0.72385555  0.46594922  1
  O  O71  1  0.60004564  0.36833558  0.32367841  1
  O  O72  1  0.20366815  0.37427881  0.04608883  1
  O  O73  1  0.27839757  0.79239276  0.80393050  1
  O  O74  1  0.73546393  0.25443149  0.86590615  1
  O  O75  1  0.77839757  0.70760724  0.30393050  1
  O  O76  1  0.58041818  0.28559405  0.00560294  1
  O  O77  1  0.03342972  0.63492383  0.62684492  1
  O  O78  1  0.18112887  0.49519919  0.46341914  1
  O  O79  1  0.93460739  0.25466958  0.70281978  1
  O  O80  1  0.08153600  0.24171790  0.18054486  1
  O  O81  1  0.89995436  0.86833558  0.17632159  1
  O  O82  1  0.94559354  0.22385555  0.03405078  1
  O  O83  1  0.31887113  0.99519919  0.03658086  1
