# generated using pymatgen
data_V2Bi4O11
_symmetry_space_group_name_H-M   'P 1'
_cell_length_a   5.94524536
_cell_length_b   5.64827902
_cell_length_c   16.38717000
_cell_angle_alpha   90.00000000
_cell_angle_beta   108.75771490
_cell_angle_gamma   90.00000000
_symmetry_Int_Tables_number   1
_chemical_formula_structural   V2Bi4O11
_chemical_formula_sum   'V4 Bi8 O22'
_cell_volume   521.06027513
_cell_formula_units_Z   2
loop_
 _symmetry_equiv_pos_site_id
 _symmetry_equiv_pos_as_xyz
  1  'x, y, z'
loop_
 _atom_site_type_symbol
 _atom_site_label
 _atom_site_symmetry_multiplicity
 _atom_site_fract_x
 _atom_site_fract_y
 _atom_site_fract_z
 _atom_site_occupancy
  V  V0  1  0.05884302  0.98695401  0.49148221  1
  V  V1  1  0.98330406  0.95067987  0.00285097  1
  V  V2  1  0.48330406  0.54932013  0.50285097  1
  V  V3  1  0.55884302  0.51304599  0.99148221  1
  Bi  Bi4  1  0.12532637  0.48123484  0.64205043  1
  Bi  Bi5  1  0.34893084  0.05140406  0.81460508  1
  Bi  Bi6  1  0.20514132  0.46240900  0.16677119  1
  Bi  Bi7  1  0.41719218  0.90388574  0.32858170  1
  Bi  Bi8  1  0.70514132  0.03759100  0.66677119  1
  Bi  Bi9  1  0.91719218  0.59611426  0.82858170  1
  Bi  Bi10  1  0.62532637  0.01876516  0.14205043  1
  Bi  Bi11  1  0.84893084  0.44859594  0.31460508  1
  O  O12  1  0.00619107  0.27671345  0.74365707  1
  O  O13  1  0.05828208  0.78705089  0.73992876  1
  O  O14  1  0.47603469  0.34724317  0.06869166  1
  O  O15  1  0.94731500  0.26013691  0.21495256  1
  O  O16  1  0.10680946  0.69917917  0.25970772  1
  O  O17  1  0.39650539  0.44905979  0.88512025  1
  O  O18  1  0.27984421  0.33020280  0.49715944  1
  O  O19  1  0.36562357  0.84490336  0.50809638  1
  O  O20  1  0.44731500  0.23986309  0.71495256  1
  O  O21  1  0.60680946  0.80082083  0.75970772  1
  O  O22  1  0.20442085  0.99041779  0.10189257  1
  O  O23  1  0.77984421  0.16979720  0.99715944  1
  O  O24  1  0.53909386  0.54718975  0.40432676  1
  O  O25  1  0.70442085  0.50958221  0.60189257  1
  O  O26  1  0.44474204  0.77299675  0.00752525  1
  O  O27  1  0.50619107  0.22328655  0.24365707  1
  O  O28  1  0.55828208  0.71294911  0.23992876  1
  O  O29  1  0.03909386  0.95281025  0.90432676  1
  O  O30  1  0.97603469  0.15275683  0.56869166  1
  O  O31  1  0.94474204  0.72700325  0.50752525  1
  O  O32  1  0.89650539  0.05094021  0.38512025  1
  O  O33  1  0.86562357  0.65509664  0.00809638  1
