# generated using pymatgen
data_ThV2O7
_symmetry_space_group_name_H-M   'P 1'
_cell_length_a   7.18152940
_cell_length_b   7.35575665
_cell_length_c   23.60682287
_cell_angle_alpha   89.99976786
_cell_angle_beta   90.00104743
_cell_angle_gamma   89.99721666
_symmetry_Int_Tables_number   1
_chemical_formula_structural   ThV2O7
_chemical_formula_sum   'Th8 V16 O56'
_cell_volume   1247.04417158
_cell_formula_units_Z   8
loop_
 _symmetry_equiv_pos_site_id
 _symmetry_equiv_pos_as_xyz
  1  'x, y, z'
loop_
 _atom_site_type_symbol
 _atom_site_label
 _atom_site_symmetry_multiplicity
 _atom_site_fract_x
 _atom_site_fract_y
 _atom_site_fract_z
 _atom_site_occupancy
  Th  Th0  1  0.64032530  0.74232510  0.64473215  1
  Th  Th1  1  0.35966216  0.25767998  0.64473637  1
  Th  Th2  1  0.14030187  0.75768267  0.85528078  1
  Th  Th3  1  0.85968271  0.24231353  0.14470932  1
  Th  Th4  1  0.64033318  0.74230967  0.35526539  1
  Th  Th5  1  0.35968398  0.25769056  0.35526608  1
  Th  Th6  1  0.14031702  0.75769863  0.14471682  1
  Th  Th7  1  0.85968353  0.24231369  0.85529062  1
  V  V8  1  0.11797348  0.31579413  -0.00000264  1
  V  V9  1  0.38203888  0.81580619  0.50000931  1
  V  V10  1  0.81531717  0.24534021  0.31353634  1
  V  V11  1  0.81527078  0.24536791  0.68646008  1
  V  V12  1  0.18471007  0.75464272  0.68645158  1
  V  V13  1  0.13058434  0.17211188  0.50000741  1
  V  V14  1  0.88202094  0.68420882  0.99999218  1
  V  V15  1  0.31527533  0.25463980  0.81356916  1
  V  V16  1  0.68467976  0.74535330  0.18643278  1
  V  V17  1  0.36942294  0.67212774  0.99998632  1
  V  V18  1  0.18468761  0.75465259  0.31354059  1
  V  V19  1  0.61798426  0.18418236  0.50000603  1
  V  V20  1  0.68470726  0.74535093  0.81357194  1
  V  V21  1  0.31531893  0.25465700  0.18643295  1
  V  V22  1  0.63058663  0.32785376  0.99999416  1
  V  V23  1  0.86942036  0.82787407  0.50001341  1
  O  O24  1  0.67141045  0.06700556  0.66084028  1
  O  O25  1  0.17603244  0.06759066  0.16478841  1
  O  O26  1  0.82856883  0.56700246  0.83921056  1
  O  O27  1  0.03464810  0.24104454  0.65921276  1
  O  O28  1  0.93208306  0.79784528  0.06020792  1
  O  O29  1  0.32853527  0.93301569  0.33916264  1
  O  O30  1  0.83023554  0.70326198  0.44143355  1
  O  O31  1  0.82400464  0.93241897  0.83521377  1
  O  O32  1  0.32858038  0.93299371  0.66082897  1
  O  O33  1  0.67601651  0.43239780  0.33519749  1
  O  O34  1  0.87633297  0.11569119  0.50000232  1
  O  O35  1  0.56792077  0.29781339  0.43978886  1
  O  O36  1  0.15993530  0.75314712  0.24076450  1
  O  O37  1  0.96530455  0.75894732  0.34079242  1
  O  O38  1  0.15998893  0.75314203  0.75922608  1
  O  O39  1  0.67147122  0.06697863  0.33916076  1
  O  O40  1  0.84006404  0.24684069  0.24076156  1
  O  O41  1  0.17142091  0.43299373  0.83920580  1
  O  O42  1  0.87173327  0.42342333  0.99998752  1
  O  O43  1  0.12367834  0.88429215  0.50001041  1
  O  O44  1  0.33026295  0.79683503  0.94143582  1
  O  O45  1  0.37633879  0.38429522  0.00000567  1
  O  O46  1  0.33022533  0.79680530  0.05855137  1
  O  O47  1  0.17148434  0.43302442  0.16079822  1
  O  O48  1  0.53466671  0.25893236  0.84080889  1
  O  O49  1  0.82852130  0.56699258  0.16079708  1
  O  O50  1  0.53469188  0.25893067  0.15918141  1
  O  O51  1  0.16973882  0.29676837  0.55857597  1
  O  O52  1  0.65994739  0.74680900  0.25921166  1
  O  O53  1  0.83026562  0.70319439  0.55857614  1
  O  O54  1  0.06792052  0.20216848  0.06021954  1
  O  O55  1  0.34006571  0.25320608  0.25921017  1
  O  O56  1  0.66001276  0.74679076  0.74079424  1
  O  O57  1  0.16975857  0.29675090  0.44143452  1
  O  O58  1  0.66975490  0.20318679  0.94142888  1
  O  O59  1  0.32399424  0.56759787  0.33520025  1
  O  O60  1  0.32401739  0.56759099  0.66479309  1
  O  O61  1  0.62367096  0.61571113  0.99999629  1
  O  O62  1  0.66978996  0.20317399  0.05855974  1
  O  O63  1  0.83999331  0.24688454  0.75923467  1
  O  O64  1  0.96532302  0.75897252  0.65920394  1
  O  O65  1  0.46529995  0.74109622  0.15918385  1
  O  O66  1  0.33997604  0.25318221  0.74078996  1
  O  O67  1  0.82398613  0.93241366  0.16478690  1
  O  O68  1  0.43211021  0.70218114  0.43979042  1
  O  O69  1  0.93205338  0.79791726  0.93979570  1
  O  O70  1  0.17596675  0.06758371  0.83521662  1
  O  O71  1  0.67595268  0.43241900  0.66479535  1
  O  O72  1  0.46533394  0.74106850  0.84081037  1
  O  O73  1  0.43208133  0.70211657  0.56021238  1
  O  O74  1  0.56793069  0.29786558  0.56020522  1
  O  O75  1  0.37173836  0.07657087  0.50001216  1
  O  O76  1  0.06794050  0.20210505  0.93979418  1
  O  O77  1  0.62826936  0.92341944  0.50003686  1
  O  O78  1  0.12826078  0.57657522  0.99996700  1
  O  O79  1  0.03470142  0.24104067  0.34078976  1
