# generated using pymatgen
data_BH3NF4
_symmetry_space_group_name_H-M   'P 1'
_cell_length_a   5.30847245
_cell_length_b   5.35391388
_cell_length_c   6.52522378
_cell_angle_alpha   107.01490472
_cell_angle_beta   108.56689743
_cell_angle_gamma   94.88890471
_symmetry_Int_Tables_number   1
_chemical_formula_structural   BH3NF4
_chemical_formula_sum   'B2 H6 N2 F8'
_cell_volume   164.81878416
_cell_formula_units_Z   2
loop_
 _symmetry_equiv_pos_site_id
 _symmetry_equiv_pos_as_xyz
  1  'x, y, z'
loop_
 _atom_site_type_symbol
 _atom_site_label
 _atom_site_symmetry_multiplicity
 _atom_site_fract_x
 _atom_site_fract_y
 _atom_site_fract_z
 _atom_site_occupancy
  B  B0  1  0.65167192  0.72730786  0.31522142  1
  B  B1  1  0.34832808  0.27269214  0.68477858  1
  H  H2  1  0.87701857  0.72606795  0.85169195  1
  H  H3  1  0.12298143  0.27393205  0.14830805  1
  H  H4  1  0.20533857  0.87604943  0.93246880  1
  H  H5  1  0.79466143  0.12395057  0.06753120  1
  H  H6  1  0.08647953  0.83124862  0.13484240  1
  H  H7  1  0.91352047  0.16875138  0.86515760  1
  N  N8  1  0.03747971  0.87137141  0.98147375  1
  N  N9  1  0.96252029  0.12862859  0.01852625  1
  F  F10  1  0.76225589  0.85778914  0.55455488  1
  F  F11  1  0.23774411  0.14221086  0.44544512  1
  F  F12  1  0.61771186  0.91964463  0.19978072  1
  F  F13  1  0.38228814  0.08035537  0.80021928  1
  F  F14  1  0.39131856  0.57097779  0.25290492  1
  F  F15  1  0.60868144  0.42902221  0.74709508  1
  F  F16  1  0.82695379  0.56744983  0.24415965  1
  F  F17  1  0.17304621  0.43255017  0.75584035  1
