# generated using pymatgen
data_LiCoP2O7
_symmetry_space_group_name_H-M   'P 1'
_cell_length_a   8.35718120
_cell_length_b   13.47850111
_cell_length_c   5.08916230
_cell_angle_alpha   90.00000000
_cell_angle_beta   91.29025388
_cell_angle_gamma   90.00000000
_symmetry_Int_Tables_number   1
_chemical_formula_structural   LiCoP2O7
_chemical_formula_sum   'Li4 Co4 P8 O28'
_cell_volume   573.10947859
_cell_formula_units_Z   4
loop_
 _symmetry_equiv_pos_site_id
 _symmetry_equiv_pos_as_xyz
  1  'x, y, z'
loop_
 _atom_site_type_symbol
 _atom_site_label
 _atom_site_symmetry_multiplicity
 _atom_site_fract_x
 _atom_site_fract_y
 _atom_site_fract_z
 _atom_site_occupancy
  Li  Li0  1  0.64622501  0.63209788  0.59840545  1
  Li  Li1  1  0.14622501  0.86790212  0.09840545  1
  Li  Li2  1  0.35377499  0.36790212  0.40159455  1
  Li  Li3  1  0.85377499  0.13209788  0.90159455  1
  Co  Co4  1  0.73833586  0.32814013  0.70427515  1
  Co  Co5  1  0.26166414  0.67185987  0.29572485  1
  Co  Co6  1  0.23833586  0.17185987  0.20427515  1
  Co  Co7  1  0.76166414  0.82814013  0.79572485  1
  P  P8  1  0.22256010  0.03720561  0.70103390  1
  P  P9  1  0.27743990  0.53720561  0.79896610  1
  P  P10  1  0.77743990  0.96279439  0.29896610  1
  P  P11  1  0.95947986  0.31988162  0.23841070  1
  P  P12  1  0.54052014  0.81988162  0.26158930  1
  P  P13  1  0.45947986  0.18011838  0.73841070  1
  P  P14  1  0.04052014  0.68011838  0.76158930  1
  P  P15  1  0.72256010  0.46279439  0.20103390  1
  O  O16  1  0.64278850  0.76927587  0.47376086  1
  O  O17  1  0.86502048  0.88695611  0.12197613  1
  O  O18  1  0.63930192  0.19322411  0.70186807  1
  O  O19  1  0.91853728  0.28650543  0.51963717  1
  O  O20  1  0.31722015  0.55885673  0.09595232  1
  O  O21  1  0.20267124  0.93122163  0.77658611  1
  O  O22  1  0.70267124  0.56877837  0.27658611  1
  O  O23  1  0.86069808  0.69322411  0.79813193  1
  O  O24  1  0.81722015  0.94114327  0.59595232  1
  O  O25  1  0.29732876  0.43122163  0.72341389  1
  O  O26  1  0.14278850  0.73072413  0.97376086  1
  O  O27  1  0.68277985  0.44114327  0.90404768  1
  O  O28  1  0.36502048  0.61304389  0.62197613  1
  O  O29  1  0.18277985  0.05885673  0.40404768  1
  O  O30  1  0.58419292  0.93621059  0.27166386  1
  O  O31  1  0.08419292  0.56378941  0.77166386  1
  O  O32  1  0.91580708  0.43621059  0.22833614  1
  O  O33  1  0.08146272  0.71349457  0.48036283  1
  O  O34  1  0.79732876  0.06877837  0.22341389  1
  O  O35  1  0.13930192  0.30677589  0.20186807  1
  O  O36  1  0.13497952  0.11304389  0.87802387  1
  O  O37  1  0.63497952  0.38695611  0.37802387  1
  O  O38  1  0.41580708  0.06378941  0.72833614  1
  O  O39  1  0.41853728  0.21349457  0.01963717  1
  O  O40  1  0.85721150  0.26927587  0.02623914  1
  O  O41  1  0.36069808  0.80677589  0.29813193  1
  O  O42  1  0.58146272  0.78650543  0.98036283  1
  O  O43  1  0.35721150  0.23072413  0.52623914  1
