# generated using pymatgen
data_LiCo(PO3)5
_symmetry_space_group_name_H-M   'P 1'
_cell_length_a   10.28499434
_cell_length_b   13.64811443
_cell_length_c   9.00525101
_cell_angle_alpha   90.00000000
_cell_angle_beta   100.73795193
_cell_angle_gamma   90.00000000
_symmetry_Int_Tables_number   1
_chemical_formula_structural   LiCo(PO3)5
_chemical_formula_sum   'Li4 Co4 P20 O60'
_cell_volume   1241.93965945
_cell_formula_units_Z   4
loop_
 _symmetry_equiv_pos_site_id
 _symmetry_equiv_pos_as_xyz
  1  'x, y, z'
loop_
 _atom_site_type_symbol
 _atom_site_label
 _atom_site_symmetry_multiplicity
 _atom_site_fract_x
 _atom_site_fract_y
 _atom_site_fract_z
 _atom_site_occupancy
  Li  Li0  1  0.52759825  0.10522540  0.09198696  1
  Li  Li1  1  0.47240175  0.60522540  0.90801304  1
  Li  Li2  1  0.97240175  0.89477460  0.90801304  1
  Li  Li3  1  0.02759825  0.39477460  0.09198696  1
  Co  Co4  1  0.25000000  0.00000000  0.50000000  1
  Co  Co5  1  0.75000000  0.00000000  0.50000000  1
  Co  Co6  1  0.75000000  0.50000000  0.50000000  1
  Co  Co7  1  0.25000000  0.50000000  0.50000000  1
  P  P8  1  0.99813935  0.85788784  0.47862314  1
  P  P9  1  0.22856496  0.75078811  0.99636971  1
  P  P10  1  0.77143504  0.25078811  0.00363029  1
  P  P11  1  0.50186065  0.14211216  0.52137686  1
  P  P12  1  0.66438785  0.42717883  0.80743035  1
  P  P13  1  0.00186065  0.35788784  0.52137686  1
  P  P14  1  0.17589559  0.41736605  0.81293488  1
  P  P15  1  0.82410441  0.91736605  0.18706512  1
  P  P16  1  0.50018673  0.86011721  0.47904132  1
  P  P17  1  0.49981327  0.36011721  0.52095868  1
  P  P18  1  0.16438785  0.07282117  0.80743035  1
  P  P19  1  -0.00018673  0.13988279  0.52095868  1
  P  P20  1  0.32410441  0.58263395  0.18706512  1
  P  P21  1  0.83561215  0.57282117  0.19256965  1
  P  P22  1  0.33561215  0.92717883  0.19256965  1
  P  P23  1  0.27143504  0.24921189  0.00363029  1
  P  P24  1  0.00018673  0.63988279  0.47904132  1
  P  P25  1  0.72856496  0.74921189  0.99636971  1
  P  P26  1  0.49813935  0.64211216  0.47862314  1
  P  P27  1  0.67589559  0.08263395  0.81293488  1
  O  O28  1  0.55986893  0.35746079  0.69871834  1
  O  O29  1  0.90128605  0.26306111  0.11269960  1
  O  O30  1  0.64817423  0.87635200  0.49918937  1
  O  O31  1  0.42044039  0.57579919  0.56515841  1
  O  O32  1  0.10914613  0.45855245  0.93211271  1
  O  O33  1  0.24723815  0.01845594  0.70939702  1
  O  O34  1  0.78331938  0.16658971  0.87991608  1
  O  O35  1  0.24438035  0.48553243  0.71931463  1
  O  O36  1  0.75561965  0.98553243  0.28068537  1
  O  O37  1  0.44013107  0.85746079  0.30128166  1
  O  O38  1  0.02567759  0.24838264  0.46721756  1
  O  O39  1  0.76078415  0.34646651  0.89600416  1
  O  O40  1  0.94013107  0.64253921  0.30128166  1
  O  O41  1  0.39085387  0.54144755  0.06788729  1
  O  O42  1  0.71668062  0.83341029  0.12008392  1
  O  O43  1  0.06770232  0.35334064  0.69696095  1
  O  O44  1  0.40432637  0.98889783  0.09559992  1
  O  O45  1  0.90432637  0.51110217  0.09559992  1
  O  O46  1  0.35182577  0.37635200  0.50081063  1
  O  O47  1  0.97432241  0.74838264  0.53278244  1
  O  O48  1  0.92044039  0.92420081  0.56515841  1
  O  O49  1  0.35458878  0.12678985  0.50195037  1
  O  O50  1  0.09567363  0.01110217  0.90440008  1
  O  O51  1  0.52567759  0.25161736  0.46721756  1
  O  O52  1  0.84853836  0.76574485  0.92505009  1
  O  O53  1  0.65146164  0.23425515  0.07494991  1
  O  O54  1  0.74723815  0.48154406  0.70939702  1
  O  O55  1  0.34853836  0.73425515  0.92505009  1
  O  O56  1  0.25276185  0.98154406  0.29060298  1
  O  O57  1  0.43229768  0.64665936  0.30303905  1
  O  O58  1  0.23921585  0.84646651  0.10399584  1
  O  O59  1  0.40128605  0.23693889  0.11269960  1
  O  O60  1  0.85458878  0.37321015  0.50195037  1
  O  O61  1  0.93229768  0.85334064  0.30303905  1
  O  O62  1  0.26078415  0.15353349  0.89600416  1
  O  O63  1  0.57955961  0.07579919  0.43484159  1
  O  O64  1  0.59567363  0.48889783  0.90440008  1
  O  O65  1  0.25561965  0.51446757  0.28068537  1
  O  O66  1  0.64541122  0.62678985  0.49804963  1
  O  O67  1  0.05986893  0.14253921  0.69871834  1
  O  O68  1  0.07955961  0.42420081  0.43484159  1
  O  O69  1  0.89085387  0.95855245  0.06788729  1
  O  O70  1  0.42185679  0.92795898  0.55970668  1
  O  O71  1  0.14541122  0.87321015  0.49804963  1
  O  O72  1  0.85182577  0.12364800  0.50081063  1
  O  O73  1  0.28331938  0.33341029  0.87991608  1
  O  O74  1  0.07814321  0.07204102  0.44029332  1
  O  O75  1  0.59871395  0.73693889  0.88730040  1
  O  O76  1  0.15146164  0.26574485  0.07494991  1
  O  O77  1  0.14817423  0.62364800  0.49918937  1
  O  O78  1  0.09871395  0.76306111  0.88730040  1
  O  O79  1  0.60914613  0.04144755  0.93211271  1
  O  O80  1  0.57814321  0.42795898  0.44029332  1
  O  O81  1  0.47432241  0.75161736  0.53278244  1
  O  O82  1  0.74438035  0.01446757  0.71931463  1
  O  O83  1  0.21668062  0.66658971  0.12008392  1
  O  O84  1  0.75276185  0.51845594  0.29060298  1
  O  O85  1  0.92185679  0.57204102  0.55970668  1
  O  O86  1  0.56770232  0.14665936  0.69696095  1
  O  O87  1  0.73921585  0.65353349  0.10399584  1
