# generated using pymatgen
data_BaP2(HO2)4
_symmetry_space_group_name_H-M   'P 1'
_cell_length_a   7.43402532
_cell_length_b   8.27784863
_cell_length_c   7.07449322
_cell_angle_alpha   100.23256214
_cell_angle_beta   104.51535628
_cell_angle_gamma   100.86658440
_symmetry_Int_Tables_number   1
_chemical_formula_structural   BaP2(HO2)4
_chemical_formula_sum   'Ba2 P4 H8 O16'
_cell_volume   402.14822269
_cell_formula_units_Z   2
loop_
 _symmetry_equiv_pos_site_id
 _symmetry_equiv_pos_as_xyz
  1  'x, y, z'
loop_
 _atom_site_type_symbol
 _atom_site_label
 _atom_site_symmetry_multiplicity
 _atom_site_fract_x
 _atom_site_fract_y
 _atom_site_fract_z
 _atom_site_occupancy
  Ba  Ba0  1  0.75749392  0.87166611  0.72658675  1
  Ba  Ba1  1  0.24250608  0.12833389  0.27341325  1
  P  P2  1  0.24142568  0.88647745  0.73122291  1
  P  P3  1  0.75857432  0.11352255  0.26877709  1
  P  P4  1  0.68331025  0.41321475  0.76817879  1
  P  P5  1  0.31668975  0.58678525  0.23182121  1
  H  H6  1  0.37764800  0.67837176  0.94041639  1
  H  H7  1  0.62235200  0.32162824  0.05958361  1
  H  H8  1  0.12779620  0.75124558  0.40920422  1
  H  H9  1  0.87220380  0.24875442  0.59079578  1
  H  H10  1  0.50000000  0.50000000  0.50000000  1
  H  H11  1  0.50000000  0.50000000  -0.00000000  1
  H  H12  1  0.46642195  0.11359745  0.74306010  1
  H  H13  1  0.53357805  0.88640255  0.25693990  1
  O  O14  1  0.35713206  0.02952743  0.64408578  1
  O  O15  1  0.64286794  0.97047257  0.35591422  1
  O  O16  1  0.14845740  0.96549413  0.87836922  1
  O  O17  1  0.85154260  0.03450587  0.12163078  1
  O  O18  1  0.38720709  0.78919906  0.81201539  1
  O  O19  1  0.61279291  0.21080094  0.18798461  1
  O  O20  1  0.07747727  0.78567453  0.53367341  1
  O  O21  1  0.92252273  0.21432547  0.46632659  1
  O  O22  1  0.76911454  0.25925601  0.74799626  1
  O  O23  1  0.23088546  0.74074399  0.25200374  1
  O  O24  1  0.50082794  0.38597603  0.58583309  1
  O  O25  1  0.49917206  0.61402397  0.41416691  1
  O  O26  1  0.58871383  0.39884472  0.95540778  1
  O  O27  1  0.41128617  0.60115528  0.04459222  1
  O  O28  1  0.18958494  0.41169486  0.18514404  1
  O  O29  1  0.81041506  0.58830514  0.81485596  1
