# generated using pymatgen
data_Re6H12Pb3C2S2(N2O13)2
_symmetry_space_group_name_H-M   'P 1'
_cell_length_a   16.50933344
_cell_length_b   16.50933344
_cell_length_c   5.90155747
_cell_angle_alpha   90.00000000
_cell_angle_beta   90.00000000
_cell_angle_gamma   90.00000000
_symmetry_Int_Tables_number   1
_chemical_formula_structural   Re6H12Pb3C2S2(N2O13)2
_chemical_formula_sum   'Re12 H24 Pb6 C4 S4 N8 O52'
_cell_volume   1608.51723578
_cell_formula_units_Z   2
loop_
 _symmetry_equiv_pos_site_id
 _symmetry_equiv_pos_as_xyz
  1  'x, y, z'
loop_
 _atom_site_type_symbol
 _atom_site_label
 _atom_site_symmetry_multiplicity
 _atom_site_fract_x
 _atom_site_fract_y
 _atom_site_fract_z
 _atom_site_occupancy
  Re  Re0  1  0.02798110  0.18030747  0.46869483  1
  Re  Re1  1  0.47201890  0.68030747  0.53130517  1
  Re  Re2  1  0.97201890  0.81969253  0.46869483  1
  Re  Re3  1  0.52798110  0.31969253  0.53130517  1
  Re  Re4  1  0.81969253  0.02798110  0.53130517  1
  Re  Re5  1  0.68030747  0.52798110  0.46869483  1
  Re  Re6  1  0.18030747  0.97201890  0.53130517  1
  Re  Re7  1  0.31969253  0.47201890  0.46869483  1
  Re  Re8  1  0.60886168  0.10886168  0.99563209  1
  Re  Re9  1  0.89113832  0.60886168  0.00436791  1
  Re  Re10  1  0.39113832  0.89113832  0.99563209  1
  Re  Re11  1  0.10886168  0.39113832  0.00436791  1
  H  H12  1  0.78883894  0.18798036  0.00898092  1
  H  H13  1  0.71116106  0.68798036  0.99101908  1
  H  H14  1  0.21116106  0.81201964  0.00898092  1
  H  H15  1  0.28883894  0.31201964  0.99101908  1
  H  H16  1  0.81201964  0.78883894  0.99101908  1
  H  H17  1  0.68798036  0.28883894  0.00898092  1
  H  H18  1  0.18798036  0.21116106  0.99101908  1
  H  H19  1  0.31201964  0.71116106  0.00898092  1
  H  H20  1  0.89105200  0.21720807  0.01038266  1
  H  H21  1  0.60894800  0.71720807  0.98961734  1
  H  H22  1  0.10894800  0.78279193  0.01038266  1
  H  H23  1  0.39105200  0.28279193  0.98961734  1
  H  H24  1  0.78279193  0.89105200  0.98961734  1
  H  H25  1  0.71720807  0.39105200  0.01038266  1
  H  H26  1  0.21720807  0.10894800  0.98961734  1
  H  H27  1  0.28279193  0.60894800  0.01038266  1
  H  H28  1  0.81728281  0.24975704  0.51312064  1
  H  H29  1  0.68271719  0.74975704  0.48687936  1
  H  H30  1  0.18271719  0.75024296  0.51312064  1
  H  H31  1  0.31728281  0.25024296  0.48687936  1
  H  H32  1  0.75024296  0.81728281  0.48687936  1
  H  H33  1  0.74975704  0.31728281  0.51312064  1
  H  H34  1  0.24975704  0.18271719  0.48687936  1
  H  H35  1  0.25024296  0.68271719  0.51312064  1
  Pb  Pb36  1  0.00000000  0.00000000  0.00000000  1
  Pb  Pb37  1  0.50000000  0.50000000  0.00000000  1
  Pb  Pb38  1  0.91614380  0.41614380  0.51400867  1
  Pb  Pb39  1  0.58385620  0.91614380  0.48599133  1
  Pb  Pb40  1  0.08385620  0.58385620  0.51400867  1
  Pb  Pb41  1  0.41614380  0.08385620  0.48599133  1
  C  C42  1  0.81128400  0.31128400  0.01331434  1
  C  C43  1  0.68871600  0.81128400  0.98668566  1
  C  C44  1  0.18871600  0.68871600  0.01331434  1
  C  C45  1  0.31128400  0.18871600  0.98668566  1
  S  S46  1  0.88555875  0.38555875  0.01222077  1
  S  S47  1  0.61444125  0.88555875  0.98777923  1
  S  S48  1  0.11444125  0.61444125  0.01222077  1
  S  S49  1  0.38555875  0.11444125  0.98777923  1
  N  N50  1  0.83164114  0.23317408  0.01318359  1
  N  N51  1  0.66835886  0.73317408  0.98681641  1
  N  N52  1  0.16835886  0.76682592  0.01318359  1
  N  N53  1  0.33164114  0.26682592  0.98681641  1
  N  N54  1  0.76682592  0.83164114  0.98681641  1
  N  N55  1  0.73317408  0.33164114  0.01318359  1
  N  N56  1  0.23317408  0.16835886  0.98681641  1
  N  N57  1  0.26682592  0.66835886  0.01318359  1
  O  O58  1  0.99517702  0.14224419  0.20515534  1
  O  O59  1  0.50482298  0.64224419  0.79484466  1
  O  O60  1  0.00482298  0.85775581  0.20515534  1
  O  O61  1  0.49517702  0.35775581  0.79484466  1
  O  O62  1  0.85775581  0.99517702  0.79484466  1
  O  O63  1  0.64224419  0.49517702  0.20515534  1
  O  O64  1  0.14224419  0.00482298  0.79484466  1
  O  O65  1  0.35775581  0.50482298  0.20515534  1
  O  O66  1  0.99554886  0.11310240  0.68095799  1
  O  O67  1  0.50445114  0.61310240  0.31904201  1
  O  O68  1  0.00445114  0.88689760  0.68095799  1
  O  O69  1  0.49554886  0.38689760  0.31904201  1
  O  O70  1  0.88689760  0.99554886  0.31904201  1
  O  O71  1  0.61310240  0.49554886  0.68095799  1
  O  O72  1  0.11310240  0.00445114  0.31904201  1
  O  O73  1  0.38689760  0.50445114  0.68095799  1
  O  O74  1  0.98304180  0.27502428  0.51522797  1
  O  O75  1  0.51695820  0.77502428  0.48477203  1
  O  O76  1  0.01695820  0.72497572  0.51522797  1
  O  O77  1  0.48304180  0.22497572  0.48477203  1
  O  O78  1  0.72497572  0.98304180  0.48477203  1
  O  O79  1  0.77502428  0.48304180  0.51522797  1
  O  O80  1  0.27502428  0.01695820  0.48477203  1
  O  O81  1  0.22497572  0.51695820  0.51522797  1
  O  O82  1  0.13343649  0.18929582  0.47928872  1
  O  O83  1  0.36656351  0.68929582  0.52071128  1
  O  O84  1  0.86656351  0.81070418  0.47928872  1
  O  O85  1  0.63343649  0.31070418  0.52071128  1
  O  O86  1  0.81070418  0.13343649  0.52071128  1
  O  O87  1  0.68929582  0.63343649  0.47928872  1
  O  O88  1  0.18929582  0.86656351  0.52071128  1
  O  O89  1  0.31070418  0.36656351  0.47928872  1
  O  O90  1  0.56681867  0.06681867  0.74782017  1
  O  O91  1  0.93318133  0.56681867  0.25217983  1
  O  O92  1  0.43318133  0.93318133  0.74782017  1
  O  O93  1  0.06681867  0.43318133  0.25217983  1
  O  O94  1  0.56533599  0.06533599  0.24047433  1
  O  O95  1  0.93466401  0.56533599  0.75952567  1
  O  O96  1  0.43466401  0.93466401  0.24047433  1
  O  O97  1  0.06533599  0.43466401  0.75952567  1
  O  O98  1  0.09318667  0.28624266  0.00340423  1
  O  O99  1  0.40681333  0.78624266  0.99659577  1
  O  O100  1  0.90681333  0.71375734  0.00340423  1
  O  O101  1  0.59318667  0.21375734  0.99659577  1
  O  O102  1  0.71375734  0.09318667  0.99659577  1
  O  O103  1  0.78624266  0.59318667  0.00340423  1
  O  O104  1  0.28624266  0.90681333  0.99659577  1
  O  O105  1  0.21375734  0.40681333  0.00340423  1
  O  O106  1  0.80856214  0.30856214  0.50894532  1
  O  O107  1  0.69143786  0.80856214  0.49105468  1
  O  O108  1  0.19143786  0.69143786  0.50894532  1
  O  O109  1  0.30856214  0.19143786  0.49105468  1
