# generated using pymatgen
data_H4CSN2Cl
_symmetry_space_group_name_H-M   'P 1'
_cell_length_a   9.03815271
_cell_length_b   10.65887529
_cell_length_c   19.81893754
_cell_angle_alpha   90.00000000
_cell_angle_beta   90.00000000
_cell_angle_gamma   90.00000000
_symmetry_Int_Tables_number   1
_chemical_formula_structural   H4CSN2Cl
_chemical_formula_sum   'H64 C16 S16 N32 Cl16'
_cell_volume   1909.28792037
_cell_formula_units_Z   16
loop_
 _symmetry_equiv_pos_site_id
 _symmetry_equiv_pos_as_xyz
  1  'x, y, z'
loop_
 _atom_site_type_symbol
 _atom_site_label
 _atom_site_symmetry_multiplicity
 _atom_site_fract_x
 _atom_site_fract_y
 _atom_site_fract_z
 _atom_site_occupancy
  H  H0  1  0.94423579  0.79305756  0.48209550  1
  H  H1  1  0.44423579  0.70694244  0.51790450  1
  H  H2  1  0.05576421  0.29305756  0.01790450  1
  H  H3  1  0.55576421  0.20694244  0.98209550  1
  H  H4  1  0.05576421  0.20694244  0.51790450  1
  H  H5  1  0.55576421  0.29305756  0.48209550  1
  H  H6  1  0.94423579  0.70694244  0.98209550  1
  H  H7  1  0.44423579  0.79305756  0.01790450  1
  H  H8  1  0.95076065  0.86335209  0.40215332  1
  H  H9  1  0.45076065  0.63664791  0.59784668  1
  H  H10  1  0.04923935  0.36335209  0.09784668  1
  H  H11  1  0.54923935  0.13664791  0.90215332  1
  H  H12  1  0.04923935  0.13664791  0.59784668  1
  H  H13  1  0.54923935  0.36335209  0.40215332  1
  H  H14  1  0.95076065  0.63664791  0.90215332  1
  H  H15  1  0.45076065  0.86335209  0.09784668  1
  H  H16  1  0.78091769  0.85590263  0.56276893  1
  H  H17  1  0.28091769  0.64409737  0.43723107  1
  H  H18  1  0.21908231  0.35590263  0.93723107  1
  H  H19  1  0.71908231  0.14409737  0.06276893  1
  H  H20  1  0.21908231  0.14409737  0.43723107  1
  H  H21  1  0.71908231  0.35590263  0.56276893  1
  H  H22  1  0.78091769  0.64409737  0.06276893  1
  H  H23  1  0.28091769  0.85590263  0.93723107  1
  H  H24  1  0.67368925  0.99657662  0.55113657  1
  H  H25  1  0.17368925  0.50342338  0.44886343  1
  H  H26  1  0.32631075  0.49657662  0.94886343  1
  H  H27  1  0.82631075  0.00342338  0.05113657  1
  H  H28  1  0.32631075  0.00342338  0.44886343  1
  H  H29  1  0.82631075  0.49657662  0.55113657  1
  H  H30  1  0.67368925  0.50342338  0.05113657  1
  H  H31  1  0.17368925  0.99657662  0.94886343  1
  H  H32  1  0.60576292  0.82203108  0.26551566  1
  H  H33  1  0.10576292  0.67796892  0.73448434  1
  H  H34  1  0.39423708  0.32203108  0.23448434  1
  H  H35  1  0.89423708  0.17796892  0.76551566  1
  H  H36  1  0.39423708  0.17796892  0.73448434  1
  H  H37  1  0.89423708  0.32203108  0.26551566  1
  H  H38  1  0.60576292  0.67796892  0.76551566  1
  H  H39  1  0.10576292  0.82203108  0.23448434  1
  H  H40  1  0.61058323  0.87913557  0.35003558  1
  H  H41  1  0.11058323  0.62086443  0.64996442  1
  H  H42  1  0.38941677  0.37913557  0.14996442  1
  H  H43  1  0.88941677  0.12086443  0.85003558  1
  H  H44  1  0.38941677  0.12086443  0.64996442  1
  H  H45  1  0.88941677  0.37913557  0.35003558  1
  H  H46  1  0.61058323  0.62086443  0.85003558  1
  H  H47  1  0.11058323  0.87913557  0.14996442  1
  H  H48  1  0.86351778  0.03926768  0.20140988  1
  H  H49  1  0.36351778  0.46073232  0.79859012  1
  H  H50  1  0.13648222  0.53926768  0.29859012  1
  H  H51  1  0.63648222  0.96073232  0.70140988  1
  H  H52  1  0.13648222  0.96073232  0.79859012  1
  H  H53  1  0.63648222  0.53926768  0.20140988  1
  H  H54  1  0.86351778  0.46073232  0.70140988  1
  H  H55  1  0.36351778  0.03926768  0.29859012  1
  H  H56  1  0.77221601  0.89367268  0.18547249  1
  H  H57  1  0.27221601  0.60632732  0.81452751  1
  H  H58  1  0.22778399  0.39367268  0.31452751  1
  H  H59  1  0.72778399  0.10632732  0.68547249  1
  H  H60  1  0.22778399  0.10632732  0.81452751  1
  H  H61  1  0.72778399  0.39367268  0.18547249  1
  H  H62  1  0.77221601  0.60632732  0.68547249  1
  H  H63  1  0.27221601  0.89367268  0.31452751  1
  C  C64  1  0.80719058  0.94172961  0.47259136  1
  C  C65  1  0.30719058  0.55827039  0.52740864  1
  C  C66  1  0.19280942  0.44172961  0.02740864  1
  C  C67  1  0.69280942  0.05827039  0.97259136  1
  C  C68  1  0.19280942  0.05827039  0.52740864  1
  C  C69  1  0.69280942  0.44172961  0.47259136  1
  C  C70  1  0.80719058  0.55827039  0.97259136  1
  C  C71  1  0.30719058  0.94172961  0.02740864  1
  C  C72  1  0.75649681  0.95854248  0.28173532  1
  C  C73  1  0.25649681  0.54145752  0.71826468  1
  C  C74  1  0.24350319  0.45854248  0.21826468  1
  C  C75  1  0.74350319  0.04145752  0.78173532  1
  C  C76  1  0.24350319  0.04145752  0.71826468  1
  C  C77  1  0.74350319  0.45854248  0.28173532  1
  C  C78  1  0.75649681  0.54145752  0.78173532  1
  C  C79  1  0.25649681  0.95854248  0.21826468  1
  S  S80  1  0.73105725  0.06569754  0.42323508  1
  S  S81  1  0.23105725  0.43430246  0.57676492  1
  S  S82  1  0.26894275  0.56569754  0.07676492  1
  S  S83  1  0.76894275  0.93430246  0.92323508  1
  S  S84  1  0.26894275  0.93430246  0.57676492  1
  S  S85  1  0.76894275  0.56569754  0.42323508  1
  S  S86  1  0.73105725  0.43430246  0.92323508  1
  S  S87  1  0.23105725  0.06569754  0.07676492  1
  S  S88  1  0.85232213  0.06344398  0.33689256  1
  S  S89  1  0.35232213  0.43655602  0.66310744  1
  S  S90  1  0.14767787  0.56344398  0.16310744  1
  S  S91  1  0.64767787  0.93655602  0.83689256  1
  S  S92  1  0.14767787  0.93655602  0.66310744  1
  S  S93  1  0.64767787  0.56344398  0.33689256  1
  S  S94  1  0.85232213  0.43655602  0.83689256  1
  S  S95  1  0.35232213  0.06344398  0.16310744  1
  N  N96  1  0.91219740  0.86600387  0.45092109  1
  N  N97  1  0.41219740  0.63399613  0.54907891  1
  N  N98  1  0.08780260  0.36600387  0.04907891  1
  N  N99  1  0.58780260  0.13399613  0.95092109  1
  N  N100  1  0.08780260  0.13399613  0.54907891  1
  N  N101  1  0.58780260  0.36600387  0.45092109  1
  N  N102  1  0.91219740  0.63399613  0.95092109  1
  N  N103  1  0.41219740  0.86600387  0.04907891  1
  N  N104  1  0.74801447  0.93036391  0.53336431  1
  N  N105  1  0.24801447  0.56963609  0.46663569  1
  N  N106  1  0.25198553  0.43036391  0.96663569  1
  N  N107  1  0.75198553  0.06963609  0.03336431  1
  N  N108  1  0.25198553  0.06963609  0.46663569  1
  N  N109  1  0.75198553  0.43036391  0.53336431  1
  N  N110  1  0.74801447  0.56963609  0.03336431  1
  N  N111  1  0.24801447  0.93036391  0.96663569  1
  N  N112  1  0.65344528  0.88013399  0.30198980  1
  N  N113  1  0.15344528  0.61986601  0.69801020  1
  N  N114  1  0.34655472  0.38013399  0.19801020  1
  N  N115  1  0.84655472  0.11986601  0.80198980  1
  N  N116  1  0.34655472  0.11986601  0.69801020  1
  N  N117  1  0.84655472  0.38013399  0.30198980  1
  N  N118  1  0.65344528  0.61986601  0.80198980  1
  N  N119  1  0.15344528  0.88013399  0.19801020  1
  N  N120  1  0.80522772  0.96166033  0.21889926  1
  N  N121  1  0.30522772  0.53833967  0.78110074  1
  N  N122  1  0.19477228  0.46166033  0.28110074  1
  N  N123  1  0.69477228  0.03833967  0.71889926  1
  N  N124  1  0.19477228  0.03833967  0.78110074  1
  N  N125  1  0.69477228  0.46166033  0.21889926  1
  N  N126  1  0.80522772  0.53833967  0.71889926  1
  N  N127  1  0.30522772  0.96166033  0.28110074  1
  Cl  Cl128  1  0.93206624  0.67828301  0.57508923  1
  Cl  Cl129  1  0.43206624  0.82171699  0.42491077  1
  Cl  Cl130  1  0.06793376  0.17828301  0.92491077  1
  Cl  Cl131  1  0.56793376  0.32171699  0.07508923  1
  Cl  Cl132  1  0.06793376  0.32171699  0.42491077  1
  Cl  Cl133  1  0.56793376  0.17828301  0.57508923  1
  Cl  Cl134  1  0.93206624  0.82171699  0.07508923  1
  Cl  Cl135  1  0.43206624  0.67828301  0.92491077  1
  Cl  Cl136  1  0.54665048  0.72070225  0.17825831  1
  Cl  Cl137  1  0.04665048  0.77929775  0.82174169  1
  Cl  Cl138  1  0.45334952  0.22070225  0.32174169  1
  Cl  Cl139  1  0.95334952  0.27929775  0.67825831  1
  Cl  Cl140  1  0.45334952  0.27929775  0.82174169  1
  Cl  Cl141  1  0.95334952  0.22070225  0.17825831  1
  Cl  Cl142  1  0.54665048  0.77929775  0.67825831  1
  Cl  Cl143  1  0.04665048  0.72070225  0.32174169  1
