# generated using pymatgen
data_LiMo2P3O13
_symmetry_space_group_name_H-M   'P 1'
_cell_length_a   8.82088710
_cell_length_b   8.92879555
_cell_length_c   8.92925150
_cell_angle_alpha   105.64570459
_cell_angle_beta   69.34392725
_cell_angle_gamma   69.35449803
_symmetry_Int_Tables_number   1
_chemical_formula_structural   LiMo2P3O13
_chemical_formula_sum   'Li2 Mo4 P6 O26'
_cell_volume   549.91173501
_cell_formula_units_Z   2
loop_
 _symmetry_equiv_pos_site_id
 _symmetry_equiv_pos_as_xyz
  1  'x, y, z'
loop_
 _atom_site_type_symbol
 _atom_site_label
 _atom_site_symmetry_multiplicity
 _atom_site_fract_x
 _atom_site_fract_y
 _atom_site_fract_z
 _atom_site_occupancy
  Li  Li0  1  0.50000000  0.00000000  0.00000000  1
  Li  Li1  1  0.00000000  0.50000000  0.50000000  1
  Mo  Mo2  1  0.82824610  0.82774174  0.16240308  1
  Mo  Mo3  1  0.32836696  0.66247745  0.32767630  1
  Mo  Mo4  1  0.17175390  0.17225826  0.83759692  1
  Mo  Mo5  1  0.67163304  0.33752255  0.67232370  1
  P  P6  1  0.55910097  0.25993124  0.34862426  1
  P  P7  1  0.94092657  0.15129485  0.24000009  1
  P  P8  1  0.05907343  0.84870515  0.75999991  1
  P  P9  1  0.75002779  0.51163036  0.98832002  1
  P  P10  1  0.44089903  0.74006876  0.65137574  1
  P  P11  1  0.24997221  0.48836964  0.01167998  1
  O  O12  1  0.09294184  0.74587963  0.56955707  1
  O  O13  1  0.58140272  0.49990009  0.10219941  1
  O  O14  1  0.03311359  0.03712444  0.79772994  1
  O  O15  1  0.40043107  0.39963143  0.34977299  1
  O  O16  1  0.90047081  0.84973020  0.89956251  1
  O  O17  1  0.53317308  0.29753269  0.53702903  1
  O  O18  1  0.74999336  0.26103703  0.23902786  1
  O  O19  1  0.76874033  0.80278541  0.35318457  1
  O  O20  1  0.23125967  0.19721459  0.64681543  1
  O  O21  1  0.08127085  0.60223514  0.00010195  1
  O  O22  1  0.79671028  0.44247841  0.78920156  1
  O  O23  1  0.73092547  0.14692509  0.69742979  1
  O  O24  1  0.59283190  0.06962351  0.24572012  1
  O  O25  1  0.29680683  0.28923557  0.94246113  1
  O  O26  1  0.96688641  0.96287556  0.20227006  1
  O  O27  1  0.90705816  0.25412037  0.43044293  1
  O  O28  1  0.91872915  0.39776486  0.99989805  1
  O  O29  1  0.41859728  0.50009991  0.89780059  1
  O  O30  1  0.26907453  0.85307491  0.30257021  1
  O  O31  1  0.46682692  0.70246731  0.46297097  1
  O  O32  1  0.20328972  0.55752159  0.21079844  1
  O  O33  1  0.59956893  0.60036857  0.65022701  1
  O  O34  1  0.40716810  0.93037649  0.75427988  1
  O  O35  1  0.70319317  0.71076443  0.05753887  1
  O  O36  1  0.25000664  0.73896297  0.76097214  1
  O  O37  1  0.09952919  0.15026980  0.10043749  1
