# generated using pymatgen
data_VO2
_symmetry_space_group_name_H-M   'P 1'
_cell_length_a   7.72902197
_cell_length_b   8.59806472
_cell_length_c   8.64903425
_cell_angle_alpha   90.17193088
_cell_angle_beta   89.96367591
_cell_angle_gamma   90.06496942
_symmetry_Int_Tables_number   1
_chemical_formula_structural   VO2
_chemical_formula_sum   'V16 O32'
_cell_volume   574.76530884
_cell_formula_units_Z   16
loop_
 _symmetry_equiv_pos_site_id
 _symmetry_equiv_pos_as_xyz
  1  'x, y, z'
loop_
 _atom_site_type_symbol
 _atom_site_label
 _atom_site_symmetry_multiplicity
 _atom_site_fract_x
 _atom_site_fract_y
 _atom_site_fract_z
 _atom_site_occupancy
  V  V0  1  0.37165622  0.46090287  0.74740618  1
  V  V1  1  0.87520611  0.74930787  0.05566745  1
  V  V2  1  0.12587677  0.24007574  0.55009116  1
  V  V3  1  0.62709749  0.96187459  0.24974622  1
  V  V4  1  0.12469994  0.53746536  0.25078616  1
  V  V5  1  0.62412057  0.26062272  0.54757217  1
  V  V6  1  0.87673630  0.44927773  0.75747325  1
  V  V7  1  0.37428252  0.75210707  0.05472447  1
  V  V8  1  0.37629776  0.75809564  0.45235098  1
  V  V9  1  0.87322480  0.04980438  0.75823971  1
  V  V10  1  0.62335187  0.25409039  0.94307694  1
  V  V11  1  0.12662333  0.24017657  0.95116866  1
  V  V12  1  0.62605759  0.55052579  0.24250005  1
  V  V13  1  0.37781363  0.05060290  0.75746658  1
  V  V14  1  0.12204599  0.94354981  0.25135738  1
  V  V15  1  0.87440453  0.74877805  0.46234283  1
  O  O16  1  0.61879103  0.40324325  0.74537272  1
  O  O17  1  0.13064377  0.40151111  0.74761235  1
  O  O18  1  0.11858283  0.75015209  0.40238998  1
  O  O19  1  0.87547837  0.25179909  0.60286631  1
  O  O20  1  0.87579098  0.25232238  0.89952653  1
  O  O21  1  0.86827892  0.90234013  0.25054931  1
  O  O22  1  0.63120116  0.74249235  0.40129316  1
  O  O23  1  0.12538470  0.75280514  0.10137589  1
  O  O24  1  0.36927241  0.59973647  0.25223434  1
  O  O25  1  0.62559259  0.10152499  0.74847262  1
  O  O26  1  0.37511973  0.24567938  0.60097575  1
  O  O27  1  0.38092521  0.90129808  0.25553498  1
  O  O28  1  0.88125469  0.59708141  0.25011894  1
  O  O29  1  0.62432646  0.74656379  0.10251537  1
  O  O30  1  0.12539493  0.10085383  0.74837893  1
  O  O31  1  0.37444103  0.24905494  0.89990953  1
  O  O32  1  0.62550384  0.08398331  0.40681480  1
  O  O33  1  0.12557239  0.41563856  0.40552017  1
  O  O34  1  0.87576169  0.59380457  0.58422902  1
  O  O35  1  0.87466848  0.91146598  0.90001751  1
  O  O36  1  0.62482038  0.41124714  0.09917118  1
  O  O37  1  0.12549457  0.09930723  0.08815211  1
  O  O38  1  0.37596182  0.90299563  0.58660923  1
  O  O39  1  0.37497818  0.58392627  0.90024306  1
  O  O40  1  0.12576011  0.41776119  0.09293234  1
  O  O41  1  0.62453250  0.40455951  0.41289955  1
  O  O42  1  0.62418270  0.08380532  0.09731787  1
  O  O43  1  0.37528645  0.91118855  0.90075079  1
  O  O44  1  0.12516954  0.09804291  0.41098272  1
  O  O45  1  0.87375206  0.90669584  0.58203277  1
  O  O46  1  0.87463949  0.58649153  0.90032012  1
  O  O47  1  0.37394154  0.58337053  0.59090985  1
