# generated using pymatgen
data_Li6Co3P8O29
_symmetry_space_group_name_H-M   'P 1'
_cell_length_a   9.89398787
_cell_length_b   9.87909868
_cell_length_c   13.93398921
_cell_angle_alpha   89.50295491
_cell_angle_beta   89.66145231
_cell_angle_gamma   60.44359356
_symmetry_Int_Tables_number   1
_chemical_formula_structural   Li6Co3P8O29
_chemical_formula_sum   'Li12 Co6 P16 O58'
_cell_volume   1184.68165342
_cell_formula_units_Z   2
loop_
 _symmetry_equiv_pos_site_id
 _symmetry_equiv_pos_as_xyz
  1  'x, y, z'
loop_
 _atom_site_type_symbol
 _atom_site_label
 _atom_site_symmetry_multiplicity
 _atom_site_fract_x
 _atom_site_fract_y
 _atom_site_fract_z
 _atom_site_occupancy
  Li  Li0  1  0.90669455  0.77318375  0.43792343  1
  Li  Li1  1  0.31688334  0.90826121  0.43477553  1
  Li  Li2  1  0.67391169  0.23323209  0.06349644  1
  Li  Li3  1  0.90669224  0.32618774  0.93490528  1
  Li  Li4  1  0.68163646  0.09028966  0.56605310  1
  Li  Li5  1  0.77361300  0.31746309  0.43940783  1
  Li  Li6  1  0.09091139  0.67556746  0.06493817  1
  Li  Li7  1  0.00312548  0.00010347  0.99912733  1
  Li  Li8  1  0.33076421  0.32989364  0.38024270  1
  Li  Li9  1  0.32902115  0.32490414  0.87857385  1
  Li  Li10  1  0.33060042  0.76914043  0.93988106  1
  Li  Li11  1  0.22669294  0.68512369  0.56300627  1
  Co  Co12  1  0.57033263  0.99784504  0.75407647  1
  Co  Co13  1  0.56808788  0.43141602  0.24980592  1
  Co  Co14  1  0.43283313  0.00397972  0.24087204  1
  Co  Co15  1  0.43607357  0.56484744  0.74840765  1
  Co  Co16  1  0.00377304  0.42760773  0.74345387  1
  Co  Co17  1  0.99880595  0.56565624  0.24549711  1
  P  P18  1  0.34051049  0.33364378  0.62808066  1
  P  P19  1  0.66631484  0.67015526  0.36887159  1
  P  P20  1  0.33368333  0.33733470  0.12537172  1
  P  P21  1  0.09701640  0.67748981  0.84077160  1
  P  P22  1  0.91273246  0.31421882  0.15475535  1
  P  P23  1  0.32466773  0.91044052  0.66071328  1
  P  P24  1  0.67614916  0.22878113  0.84200024  1
  P  P25  1  0.66652774  0.65845247  0.86915563  1
  P  P26  1  0.31775301  0.77074801  0.15997882  1
  P  P27  1  0.76476140  0.32454902  0.65881804  1
  P  P28  1  0.09152581  0.22624296  0.33894064  1
  P  P29  1  0.22126385  0.08942103  0.84204762  1
  P  P30  1  0.77703785  0.91618057  0.15929453  1
  P  P31  1  0.23194798  0.67237701  0.34321774  1
  P  P32  1  0.91253955  0.76751861  0.65937539  1
  P  P33  1  0.67581155  0.09051899  0.34551992  1
  O  O34  1  0.11499154  0.37000017  0.32576403  1
  O  O35  1  0.78155625  0.21413550  0.74952531  1
  O  O36  1  0.74820632  -0.00036480  0.43672969  1
  O  O37  1  0.21180397  0.78455850  0.25243716  1
  O  O38  1  0.51468019  0.81676948  0.33536456  1
  O  O39  1  0.32865558  0.34861954  0.51827644  1
  O  O40  1  0.19120811  0.49147765  0.15921649  1
  O  O41  1  0.19756804  0.32874898  0.67021862  1
  O  O42  1  0.90961320  0.34139074  0.65770862  1
  O  O43  1  0.66623813  0.25224625  0.34516804  1
  O  O44  1  0.33091734  0.49190112  0.66174755  1
  O  O45  1  0.61656005  0.48642347  0.67723292  1
  O  O46  1  0.74384600  0.25263790  0.56872592  1
  O  O47  1  0.00553018  0.78514712  0.75044127  1
  O  O48  1  0.91854482  0.74979706  0.15931168  1
  O  O49  1  0.01064021  0.20360642  0.24389769  1
  O  O50  1  0.26283604  0.66248138  0.83804862  1
  O  O51  1  0.11207431  0.51573379  0.83263731  1
  O  O52  1  0.74798409  0.33283740  0.16304455  1
  O  O53  1  0.02573087  0.76678592  0.93308251  1
  O  O54  1  0.79078727  0.99417932  0.25876163  1
  O  O55  1  0.81003280  0.50520247  0.84130087  1
  O  O56  1  0.76304649  0.23405163  0.93039379  1
  O  O57  1  0.67126947  0.51776674  0.33802659  1
  O  O58  1  0.47293345  0.61887706  0.17223676  1
  O  O59  1  0.51270844  0.37384105  0.82891780  1
  O  O60  1  0.07655249  0.25541089  0.83913646  1
  O  O61  1  0.33776241  0.32799015  0.01550038  1
  O  O62  1  0.49064773  0.32128467  0.15961523  1
  O  O63  1  0.79125884  0.00898771  0.07709375  1
  O  O64  1  0.25392471  0.08012259  0.34290428  1
  O  O65  1  0.25265186  0.97925424  0.56367060  1
  O  O66  1  0.37160215  0.50773952  0.32550962  1
  O  O67  1  0.31900720  0.19699242  0.16611901  1
  O  O68  1  0.62206753  0.91488911  0.16677936  1
  O  O69  1  0.22864684  0.77415269  0.07025284  1
  O  O70  1  0.65509112  0.08427824  0.84101754  1
  O  O71  1  0.51109854  0.11493520  0.32537049  1
  O  O72  1  0.21076104  0.99270223  0.92308988  1
  O  O73  1  0.75375030  0.91633807  0.66036594  1
  O  O74  1  0.50922933  0.66902019  0.83823428  1
  O  O75  1  0.00388555  0.75403886  0.56891527  1
  O  O76  1  0.90897995  0.47184080  0.16984749  1
  O  O77  1  0.33562872  0.74703766  0.66178748  1
  O  O78  1  0.65232195  0.67948259  0.48060957  1
  O  O79  1  0.81361359  0.67468906  0.33702191  1
  O  O80  1  0.49260464  0.18914755  0.66049006  1
  O  O81  1  0.90000292  0.61935460  0.67892910  1
  O  O82  1  0.98588504  0.23301168  0.06205548  1
  O  O83  1  0.08070217  0.66210868  0.34381202  1
  O  O84  1  0.48119011  0.90201014  0.67940670  1
  O  O85  1  0.68101306  0.79926716  0.83217478  1
  O  O86  1  0.25029328  0.74880336  0.43197190  1
  O  O87  1  0.64595321  0.68285268  0.97962791  1
  O  O88  1  0.99000008  0.24356859  0.42443419  1
  O  O89  1  0.20599590  0.00915238  0.74372041  1
  O  O90  1  0.33820688  0.91499517  0.16343609  1
  O  O91  1  0.36848843  0.10493201  0.83500573  1
