# generated using pymatgen
data_CaDyMnSnO6
_symmetry_space_group_name_H-M   'P 1'
_cell_length_a   5.46114212
_cell_length_b   5.82848710
_cell_length_c   7.71238854
_cell_angle_alpha   90.00000000
_cell_angle_beta   89.61554396
_cell_angle_gamma   90.00000000
_symmetry_Int_Tables_number   1
_chemical_formula_structural   CaDyMnSnO6
_chemical_formula_sum   'Ca2 Dy2 Mn2 Sn2 O12'
_cell_volume   245.48131572
_cell_formula_units_Z   2
loop_
 _symmetry_equiv_pos_site_id
 _symmetry_equiv_pos_as_xyz
  1  'x, y, z'
loop_
 _atom_site_type_symbol
 _atom_site_label
 _atom_site_symmetry_multiplicity
 _atom_site_fract_x
 _atom_site_fract_y
 _atom_site_fract_z
 _atom_site_occupancy
  Ca  Ca0  1  0.48733387  0.44141263  0.74855554  1
  Ca  Ca1  1  0.98733387  0.05858737  0.24855554  1
  Dy  Dy2  1  0.02095738  0.92299495  0.75252608  1
  Dy  Dy3  1  0.52095738  0.57700505  0.25252608  1
  Mn  Mn4  1  0.00347906  0.49612750  0.49981564  1
  Mn  Mn5  1  0.50347906  0.00387250  0.99981564  1
  Sn  Sn6  1  0.50174221  0.01056693  0.49955415  1
  Sn  Sn7  1  0.00174221  0.48943307  0.99955415  1
  O  O8  1  0.12430671  0.45779452  0.25817337  1
  O  O9  1  0.19186821  0.17962964  0.94511967  1
  O  O10  1  0.18948659  0.17774977  0.56318212  1
  O  O11  1  0.29289367  0.69783822  0.55089457  1
  O  O12  1  0.29175484  0.69271750  0.94142392  1
  O  O13  1  0.39617746  0.95684454  0.24075494  1
  O  O14  1  0.62430671  0.04220548  0.75817337  1
  O  O15  1  0.68948659  0.32225023  0.06318212  1
  O  O16  1  0.69186821  0.32037036  0.44511967  1
  O  O17  1  0.79175484  0.80728250  0.44142392  1
  O  O18  1  0.79289367  0.80216178  0.05089457  1
  O  O19  1  0.89617746  0.54315546  0.74075494  1
