# generated using pymatgen
data_Mn2CuO4
_symmetry_space_group_name_H-M   'P 1'
_cell_length_a   6.02532180
_cell_length_b   6.02532189
_cell_length_c   29.90970953
_cell_angle_alpha   60.38922369
_cell_angle_beta   60.38922320
_cell_angle_gamma   59.72613331
_symmetry_Int_Tables_number   1
_chemical_formula_structural   Mn2CuO4
_chemical_formula_sum   'Mn20 Cu10 O40'
_cell_volume   770.67362892
_cell_formula_units_Z   10
loop_
 _symmetry_equiv_pos_site_id
 _symmetry_equiv_pos_as_xyz
  1  'x, y, z'
loop_
 _atom_site_type_symbol
 _atom_site_label
 _atom_site_symmetry_multiplicity
 _atom_site_fract_x
 _atom_site_fract_y
 _atom_site_fract_z
 _atom_site_occupancy
  Mn  Mn0  1  0.00394053  0.00394053  0.00026812  1
  Mn  Mn1  1  0.00356069  0.00356069  0.20047454  1
  Mn  Mn2  1  0.12722613  0.62400829  0.12481574  1
  Mn  Mn3  1  0.62400829  0.12722613  0.12481574  1
  Mn  Mn4  1  0.00337106  0.00337106  0.40060457  1
  Mn  Mn5  1  0.62444860  0.62444860  0.02521317  1
  Mn  Mn6  1  0.12736606  0.62400134  0.32483745  1
  Mn  Mn7  1  0.62440576  0.62440576  0.22536398  1
  Mn  Mn8  1  0.62400134  0.12736606  0.32483745  1
  Mn  Mn9  1  0.00458406  0.00458406  0.59968317  1
  Mn  Mn10  1  0.12760147  0.62380693  0.52485822  1
  Mn  Mn11  1  0.62380693  0.12760147  0.52485822  1
  Mn  Mn12  1  0.62430065  0.62430065  0.42548791  1
  Mn  Mn13  1  0.12533267  0.62205000  0.72583966  1
  Mn  Mn14  1  0.62678596  0.62678596  0.62571511  1
  Mn  Mn15  1  0.62205000  0.12533267  0.72583966  1
  Mn  Mn16  1  0.62300164  0.62300164  0.72565614  1
  Mn  Mn17  1  0.12683050  0.62696825  0.92403936  1
  Mn  Mn18  1  0.62212871  0.62212871  0.82528001  1
  Mn  Mn19  1  0.62696825  0.12683050  0.92403936  1
  Cu  Cu20  1  0.24924512  0.24924512  0.04903559  1
  Cu  Cu21  1  0.24807741  0.24807741  0.24970284  1
  Cu  Cu22  1  0.62446172  0.62446172  0.12479696  1
  Cu  Cu23  1  0.24807784  0.24807784  0.44961256  1
  Cu  Cu24  1  0.62459213  0.62459213  0.32487796  1
  Cu  Cu25  1  0.25157052  0.25157052  0.64975106  1
  Cu  Cu26  1  0.99685592  0.99685592  0.80109634  1
  Cu  Cu27  1  0.62459762  0.62459762  0.52511492  1
  Cu  Cu28  1  0.24743317  0.24743317  0.85029112  1
  Cu  Cu29  1  0.62641963  0.62641963  0.92387926  1
  O  O30  1  0.38046389  0.38046389  0.07654940  1
  O  O31  1  0.38033532  0.83658946  0.07607662  1
  O  O32  1  0.37951642  0.37951642  0.16738641  1
  O  O33  1  0.83658946  0.38033532  0.07607662  1
  O  O34  1  0.38064445  0.38064445  0.27665339  1
  O  O35  1  0.41678274  0.86867030  0.17361836  1
  O  O36  1  0.86943295  0.86943295  0.08312836  1
  O  O37  1  0.86867030  0.41678274  0.17361836  1
  O  O38  1  0.38009913  0.38009913  0.36731149  1
  O  O39  1  0.38015964  0.83577643  0.27629041  1
  O  O40  1  0.83577643  0.38015964  0.27629041  1
  O  O41  1  0.86701077  0.86701077  0.17312443  1
  O  O42  1  0.37988995  0.37988995  0.47690783  1
  O  O43  1  0.41636634  0.86840595  0.37353648  1
  O  O44  1  0.86840595  0.41636634  0.37353648  1
  O  O45  1  0.38075653  0.38075653  0.56758992  1
  O  O46  1  0.86865982  0.86865982  0.28322356  1
  O  O47  1  0.37972735  0.83599554  0.47620093  1
  O  O48  1  0.83599554  0.37972735  0.47620093  1
  O  O49  1  0.86740922  0.86740922  0.37295096  1
  O  O50  1  0.38108523  0.38108523  0.67941942  1
  O  O51  1  0.41573221  0.86863074  0.57449690  1
  O  O52  1  0.86704975  0.86704975  0.48338592  1
  O  O53  1  0.86863074  0.41573221  0.57449690  1
  O  O54  1  0.38417797  0.38417797  0.76885773  1
  O  O55  1  0.39379823  0.83899619  0.67703209  1
  O  O56  1  0.83899619  0.39379823  0.67703209  1
  O  O57  1  0.87029148  0.87029148  0.57183911  1
  O  O58  1  0.37974872  0.37974872  0.87764751  1
  O  O59  1  0.40828616  0.85547972  0.77347900  1
  O  O60  1  0.86343621  0.86343621  0.68271785  1
  O  O61  1  0.37944435  0.83820642  0.87552851  1
  O  O62  1  0.85547972  0.40828616  0.77347900  1
  O  O63  1  0.38247826  0.38247826  0.96675648  1
  O  O64  1  0.83820642  0.37944435  0.87552851  1
  O  O65  1  0.86605466  0.86605466  0.77173074  1
  O  O66  1  0.41847349  0.86964374  0.97308404  1
  O  O67  1  0.87036888  0.87036888  0.88168258  1
  O  O68  1  0.86964374  0.41847349  0.97308404  1
  O  O69  1  0.86887501  0.86887501  0.97176403  1
