# generated using pymatgen
data_Na6Zr2Si4O17
_symmetry_space_group_name_H-M   'P 1'
_cell_length_a   5.38857726
_cell_length_b   5.38857726
_cell_length_c   14.26004489
_cell_angle_alpha   89.12388107
_cell_angle_beta   89.12388107
_cell_angle_gamma   62.28620348
_symmetry_Int_Tables_number   1
_chemical_formula_structural   Na6Zr2Si4O17
_chemical_formula_sum   'Na6 Zr2 Si4 O17'
_cell_volume   366.50615662
_cell_formula_units_Z   1
loop_
 _symmetry_equiv_pos_site_id
 _symmetry_equiv_pos_as_xyz
  1  'x, y, z'
loop_
 _atom_site_type_symbol
 _atom_site_label
 _atom_site_symmetry_multiplicity
 _atom_site_fract_x
 _atom_site_fract_y
 _atom_site_fract_z
 _atom_site_occupancy
  Na  Na0  1  0.17436826  0.17436826  0.11887557  1
  Na  Na1  1  0.82563174  0.82563174  0.88112443  1
  Na  Na2  1  0.49296950  0.49296950  0.24456281  1
  Na  Na3  1  0.50703050  0.50703050  0.75543719  1
  Na  Na4  1  0.81667800  0.81667800  0.37620480  1
  Na  Na5  1  0.18332200  0.18332200  0.62379520  1
  Zr  Zr6  1  0.50000000  0.50000000  0.00000000  1
  Zr  Zr7  1  0.50000000  0.50000000  0.50000000  1
  Si  Si8  1  0.15948001  0.15948001  0.37747115  1
  Si  Si9  1  0.84051999  0.84051999  0.62252885  1
  Si  Si10  1  0.84408127  0.84408127  0.11785105  1
  Si  Si11  1  0.15591873  0.15591873  0.88214895  1
  O  O12  1  0.76658651  0.76658651  0.22259322  1
  O  O13  1  0.23341349  0.23341349  0.77740678  1
  O  O14  1  0.71109590  0.18683418  0.10429377  1
  O  O15  1  0.18683418  0.71109590  0.10429377  1
  O  O16  1  0.28890410  0.81316582  0.89570623  1
  O  O17  1  0.81316582  0.28890410  0.89570623  1
  O  O18  1  0.23176401  0.23176401  0.27184843  1
  O  O19  1  0.76823599  0.76823599  0.72815157  1
  O  O20  1  0.80903088  0.31805488  0.38497253  1
  O  O21  1  0.31805488  0.80903088  0.38497253  1
  O  O22  1  0.19096912  0.68194512  0.61502747  1
  O  O23  1  0.68194512  0.19096912  0.61502747  1
  O  O24  1  0.71717493  0.71717493  0.03845004  1
  O  O25  1  0.28282507  0.28282507  0.96154996  1
  O  O26  1  0.29271780  0.29271780  0.45331201  1
  O  O27  1  0.70728220  0.70728220  0.54668799  1
  O  O28  1  0.00000000  0.00000000  0.50000000  1
