# generated using pymatgen
data_Tl3SnSe4
_symmetry_space_group_name_H-M   'P 1'
_cell_length_a   8.36892649
_cell_length_b   8.42498023
_cell_length_c   15.29312746
_cell_angle_alpha   90.00000000
_cell_angle_beta   99.23075561
_cell_angle_gamma   90.00000000
_symmetry_Int_Tables_number   1
_chemical_formula_structural   Tl3SnSe4
_chemical_formula_sum   'Tl12 Sn4 Se16'
_cell_volume   1064.32493507
_cell_formula_units_Z   4
loop_
 _symmetry_equiv_pos_site_id
 _symmetry_equiv_pos_as_xyz
  1  'x, y, z'
loop_
 _atom_site_type_symbol
 _atom_site_label
 _atom_site_symmetry_multiplicity
 _atom_site_fract_x
 _atom_site_fract_y
 _atom_site_fract_z
 _atom_site_occupancy
  Tl  Tl0  1  0.50768755  0.97452310  0.61666407  1
  Tl  Tl1  1  0.49231245  0.47452310  0.88333593  1
  Tl  Tl2  1  0.49231245  0.02547690  0.38333593  1
  Tl  Tl3  1  0.50768755  0.52547690  0.11666407  1
  Tl  Tl4  1  0.73362798  0.60809946  0.63668048  1
  Tl  Tl5  1  0.26637202  0.10809946  0.86331952  1
  Tl  Tl6  1  0.26637202  0.39190054  0.36331952  1
  Tl  Tl7  1  0.73362798  0.89190054  0.13668048  1
  Tl  Tl8  1  0.90204048  0.17348156  0.61367953  1
  Tl  Tl9  1  0.09795952  0.67348156  0.88632047  1
  Tl  Tl10  1  0.09795952  0.82651844  0.38632047  1
  Tl  Tl11  1  0.90204048  0.32651844  0.11367953  1
  Sn  Sn12  1  0.29788492  0.40208391  0.62408874  1
  Sn  Sn13  1  0.70211508  0.90208391  0.87591126  1
  Sn  Sn14  1  0.70211508  0.59791609  0.37591126  1
  Sn  Sn15  1  0.29788492  0.09791609  0.12408874  1
  Se  Se16  1  0.66477835  0.35812330  0.47432047  1
  Se  Se17  1  0.33522165  0.85812330  0.02567953  1
  Se  Se18  1  0.33522165  0.64187670  0.52567953  1
  Se  Se19  1  0.66477835  0.14187670  0.97432047  1
  Se  Se20  1  0.08191261  0.42990236  0.72752487  1
  Se  Se21  1  0.91808739  0.92990236  0.77247513  1
  Se  Se22  1  0.91808739  0.57009764  0.27247513  1
  Se  Se23  1  0.08191261  0.07009764  0.22752487  1
  Se  Se24  1  0.19516091  0.34084623  0.02473523  1
  Se  Se25  1  0.80483909  0.84084623  0.47526477  1
  Se  Se26  1  0.80483909  0.65915377  0.97526477  1
  Se  Se27  1  0.19516091  0.15915377  0.52473523  1
  Se  Se28  1  0.43669778  0.80550052  0.78198315  1
  Se  Se29  1  0.56330222  0.30550052  0.71801685  1
  Se  Se30  1  0.56330222  0.19449948  0.21801685  1
  Se  Se31  1  0.43669778  0.69449948  0.28198315  1
