# generated using pymatgen
data_CdH4S2O5
_symmetry_space_group_name_H-M   'P 1'
_cell_length_a   5.91577994
_cell_length_b   7.22913598
_cell_length_c   14.29432863
_cell_angle_alpha   90.00000000
_cell_angle_beta   101.86835737
_cell_angle_gamma   90.00000000
_symmetry_Int_Tables_number   1
_chemical_formula_structural   CdH4S2O5
_chemical_formula_sum   'Cd4 H16 S8 O20'
_cell_volume   598.24277040
_cell_formula_units_Z   4
loop_
 _symmetry_equiv_pos_site_id
 _symmetry_equiv_pos_as_xyz
  1  'x, y, z'
loop_
 _atom_site_type_symbol
 _atom_site_label
 _atom_site_symmetry_multiplicity
 _atom_site_fract_x
 _atom_site_fract_y
 _atom_site_fract_z
 _atom_site_occupancy
  Cd  Cd0  1  0.45006499  0.18336624  0.81725653  1
  Cd  Cd1  1  0.95006499  0.31663376  0.31725653  1
  Cd  Cd2  1  0.54993501  0.81663376  0.18274347  1
  Cd  Cd3  1  0.04993501  0.68336624  0.68274347  1
  H  H4  1  0.72465331  0.16276999  0.01629616  1
  H  H5  1  0.22465331  0.33723001  0.51629616  1
  H  H6  1  0.27534669  0.83723001  0.98370384  1
  H  H7  1  0.77534669  0.66276999  0.48370384  1
  H  H8  1  0.21957198  0.16164189  0.98402279  1
  H  H9  1  0.71957198  0.33835811  0.48402279  1
  H  H10  1  0.78042802  0.83835811  0.01597721  1
  H  H11  1  0.28042802  0.66164189  0.51597721  1
  H  H12  1  0.76450774  0.36088619  0.97230862  1
  H  H13  1  0.26450774  0.13911381  0.47230862  1
  H  H14  1  0.23549226  0.63911381  0.02769138  1
  H  H15  1  0.73549226  0.86088619  0.52769138  1
  H  H16  1  0.03192569  0.14789320  0.88932867  1
  H  H17  1  0.53192569  0.35210680  0.38932867  1
  H  H18  1  0.96807431  0.85210680  0.11067133  1
  H  H19  1  0.46807431  0.64789320  0.61067133  1
  S  S20  1  0.33285006  0.53837944  0.82795279  1
  S  S21  1  0.83285006  0.96162056  0.32795279  1
  S  S22  1  0.66714994  0.46162056  0.17204721  1
  S  S23  1  0.16714994  0.03837944  0.67204721  1
  S  S24  1  0.63822946  0.68986301  0.83728860  1
  S  S25  1  0.13822946  0.81013699  0.33728860  1
  S  S26  1  0.36177054  0.31013699  0.16271140  1
  S  S27  1  0.86177054  0.18986301  0.66271140  1
  O  O28  1  0.81300257  0.59520104  0.90840588  1
  O  O29  1  0.31300257  0.90479896  0.40840588  1
  O  O30  1  0.18699743  0.40479896  0.09159412  1
  O  O31  1  0.68699743  0.09520104  0.59159412  1
  O  O32  1  0.69498234  0.69779276  0.74103846  1
  O  O33  1  0.19498234  0.80220724  0.24103846  1
  O  O34  1  0.30501766  0.30220724  0.25896154  1
  O  O35  1  0.80501766  0.19779276  0.75896154  1
  O  O36  1  0.58374298  0.87506304  0.87153068  1
  O  O37  1  0.08374298  0.62493696  0.37153068  1
  O  O38  1  0.41625702  0.12493696  0.12846932  1
  O  O39  1  0.91625702  0.37506304  0.62846932  1
  O  O40  1  0.72681617  0.23017702  0.95716381  1
  O  O41  1  0.22681617  0.26982298  0.45716381  1
  O  O42  1  0.27318383  0.76982298  0.04283619  1
  O  O43  1  0.77318383  0.73017702  0.54283619  1
  O  O44  1  0.18956534  0.10906397  0.91938137  1
  O  O45  1  0.68956534  0.39093603  0.41938137  1
  O  O46  1  0.81043466  0.89093603  0.08061863  1
  O  O47  1  0.31043466  0.60906397  0.58061863  1
