# generated using pymatgen
data_ZrU4O10
_symmetry_space_group_name_H-M   'P 1'
_cell_length_a   3.80448631
_cell_length_b   6.56737582
_cell_length_c   15.62197196
_cell_angle_alpha   93.89377560
_cell_angle_beta   96.97409637
_cell_angle_gamma   89.97811732
_symmetry_Int_Tables_number   1
_chemical_formula_structural   ZrU4O10
_chemical_formula_sum   'Zr2 U8 O20'
_cell_volume   386.52819012
_cell_formula_units_Z   2
loop_
 _symmetry_equiv_pos_site_id
 _symmetry_equiv_pos_as_xyz
  1  'x, y, z'
loop_
 _atom_site_type_symbol
 _atom_site_label
 _atom_site_symmetry_multiplicity
 _atom_site_fract_x
 _atom_site_fract_y
 _atom_site_fract_z
 _atom_site_occupancy
  Zr  Zr0  1  0.79278309  0.60258851  0.60137554  1
  Zr  Zr1  1  0.99864427  0.99640544  0.99962382  1
  U  U2  1  0.39618276  0.80108966  0.80000581  1
  U  U3  1  0.89838492  0.30048264  0.79981311  1
  U  U4  1  0.70250734  0.89979876  0.40161596  1
  U  U5  1  0.10137001  0.69969059  0.19878134  1
  U  U6  1  0.30104823  0.10171502  0.60056804  1
  U  U7  1  0.20244517  0.40210368  0.40270225  1
  U  U8  1  0.60157574  0.19822394  0.19820744  1
  U  U9  1  0.49910505  0.49744832  0.99908195  1
  O  O10  1  0.92479634  0.97261075  0.85318603  1
  O  O11  1  0.47496137  0.83113527  0.95164800  1
  O  O12  1  0.32141134  0.76942335  0.64888259  1
  O  O13  1  0.97363913  0.31572307  0.95139857  1
  O  O14  1  0.77607853  0.91941744  0.55370669  1
  O  O15  1  0.86742972  0.62697928  0.74600016  1
  O  O16  1  0.42028485  0.47698643  0.84982115  1
  O  O17  1  0.73090050  0.57686199  0.45566870  1
  O  O18  1  0.37419314  0.12535502  0.74997276  1
  O  O19  1  0.17832249  0.72523844  0.35087848  1
  O  O20  1  0.62922250  0.87452784  0.24981641  1
  O  O21  1  0.27988429  0.43514384  0.55359886  1
  O  O22  1  0.82654917  0.28322656  0.64786581  1
  O  O23  1  0.12596067  0.37351452  0.24923746  1
  O  O24  1  0.02238296  0.68103682  0.04605234  1
  O  O25  1  0.22617837  0.07604228  0.45255237  1
  O  O26  1  0.57567427  0.52341686  0.14779310  1
  O  O27  1  0.67673447  0.22679725  0.35176867  1
  O  O28  1  0.07484682  0.02307302  0.14494570  1
  O  O29  1  0.52526748  0.16491441  0.04721289  1
