# generated using pymatgen
data_LaBi5O9
_symmetry_space_group_name_H-M   'P 1'
_cell_length_a   3.96593480
_cell_length_b   9.59980284
_cell_length_c   6.99842083
_cell_angle_alpha   81.57218441
_cell_angle_beta   89.98190832
_cell_angle_gamma   101.93226522
_symmetry_Int_Tables_number   1
_chemical_formula_structural   LaBi5O9
_chemical_formula_sum   'La1 Bi5 O9'
_cell_volume   257.74389133
_cell_formula_units_Z   1
loop_
 _symmetry_equiv_pos_site_id
 _symmetry_equiv_pos_as_xyz
  1  'x, y, z'
loop_
 _atom_site_type_symbol
 _atom_site_label
 _atom_site_symmetry_multiplicity
 _atom_site_fract_x
 _atom_site_fract_y
 _atom_site_fract_z
 _atom_site_occupancy
  La  La0  1  0.50819077  0.01582014  0.48952919  1
  Bi  Bi1  1  0.66451114  0.32950504  0.08747192  1
  Bi  Bi2  1  0.83755759  0.67502041  0.40230597  1
  Bi  Bi3  1  0.33067568  0.66184206  0.87446634  1
  Bi  Bi4  1  0.17426892  0.34818130  0.61483855  1
  Bi  Bi5  1  0.99732655  0.99407082  0.98178707  1
  O  O6  1  0.64003425  0.28000087  0.41043216  1
  O  O7  1  0.95527110  0.91021960  0.36050134  1
  O  O8  1  0.84552231  0.69156335  0.04068417  1
  O  O9  1  0.54948703  0.09924655  0.10969119  1
  O  O10  1  0.74516193  0.49028213  0.69072294  1
  O  O11  1  0.35750292  0.71524671  0.53920332  1
  O  O12  1  0.44619163  0.89258352  0.83618978  1
  O  O13  1  0.05351052  0.10725743  0.66822524  1
  O  O14  1  0.15028567  0.30085806  0.94065081  1
