# generated using pymatgen
data_YbTiO3
_symmetry_space_group_name_H-M   'P 1'
_cell_length_a   5.84682798
_cell_length_b   5.84682788
_cell_length_c   5.84682775
_cell_angle_alpha   53.88953830
_cell_angle_beta   53.88953544
_cell_angle_gamma   53.88953493
_symmetry_Int_Tables_number   1
_chemical_formula_structural   YbTiO3
_chemical_formula_sum   'Yb2 Ti2 O6'
_cell_volume   121.15370421
_cell_formula_units_Z   2
loop_
 _symmetry_equiv_pos_site_id
 _symmetry_equiv_pos_as_xyz
  1  'x, y, z'
loop_
 _atom_site_type_symbol
 _atom_site_label
 _atom_site_symmetry_multiplicity
 _atom_site_fract_x
 _atom_site_fract_y
 _atom_site_fract_z
 _atom_site_occupancy
  Yb  Yb0  1  0.36114312  0.36114312  0.36114312  1
  Yb  Yb1  1  0.63885688  0.63885688  0.63885688  1
  Ti  Ti2  1  0.14824585  0.14824585  0.14824585  1
  Ti  Ti3  1  0.85175415  0.85175415  0.85175415  1
  O  O4  1  0.02618310  0.81031332  0.43464751  1
  O  O5  1  0.43464751  0.02618310  0.81031332  1
  O  O6  1  0.81031332  0.43464751  0.02618310  1
  O  O7  1  0.18968668  0.56535249  0.97381690  1
  O  O8  1  0.56535249  0.97381690  0.18968668  1
  O  O9  1  0.97381690  0.18968668  0.56535249  1
