# generated using pymatgen
data_FeH12(NF2)3
_symmetry_space_group_name_H-M   'P 1'
_cell_length_a   9.14989006
_cell_length_b   9.14031061
_cell_length_c   9.13516879
_cell_angle_alpha   90.00000000
_cell_angle_beta   90.00000000
_cell_angle_gamma   90.00000000
_symmetry_Int_Tables_number   1
_chemical_formula_structural   FeH12(NF2)3
_chemical_formula_sum   'Fe4 H48 N12 F24'
_cell_volume   764.00008417
_cell_formula_units_Z   4
loop_
 _symmetry_equiv_pos_site_id
 _symmetry_equiv_pos_as_xyz
  1  'x, y, z'
loop_
 _atom_site_type_symbol
 _atom_site_label
 _atom_site_symmetry_multiplicity
 _atom_site_fract_x
 _atom_site_fract_y
 _atom_site_fract_z
 _atom_site_occupancy
  Fe  Fe0  1  0.00076512  0.49854455  0.49881471  1
  Fe  Fe1  1  0.49923488  0.50145545  0.99881471  1
  Fe  Fe2  1  0.50076512  0.00145545  0.50118529  1
  Fe  Fe3  1  0.99923488  0.99854455  0.00118529  1
  H  H4  1  0.82068975  0.69787716  0.32135151  1
  H  H5  1  0.67931025  0.30212284  0.82135151  1
  H  H6  1  0.32068975  0.80212284  0.67864849  1
  H  H7  1  0.17931025  0.19787716  0.17864849  1
  H  H8  1  0.81542971  0.81858724  0.18409936  1
  H  H9  1  0.68457029  0.18141276  0.68409936  1
  H  H10  1  0.31542971  0.68141276  0.81590064  1
  H  H11  1  0.18457029  0.31858724  0.31590064  1
  H  H12  1  0.67641146  0.81936321  0.30170999  1
  H  H13  1  0.82358854  0.18063679  0.80170999  1
  H  H14  1  0.17641146  0.68063679  0.69829001  1
  H  H15  1  0.32358854  0.31936321  0.19829001  1
  H  H16  1  0.69693348  0.67890566  0.17943050  1
  H  H17  1  0.80306652  0.32109434  0.67943050  1
  H  H18  1  0.19693348  0.82109434  0.82056950  1
  H  H19  1  0.30306652  0.17890566  0.32056950  1
  H  H20  1  0.82302033  0.69419668  0.81428091  1
  H  H21  1  0.67697967  0.30580332  0.31428091  1
  H  H22  1  0.32302033  0.80580332  0.18571909  1
  H  H23  1  0.17697967  0.19419668  0.68571909  1
  H  H24  1  0.80547532  0.81764783  0.67821584  1
  H  H25  1  0.69452468  0.18235217  0.17821584  1
  H  H26  1  0.30547532  0.68235217  0.32178416  1
  H  H27  1  0.19452468  0.31764783  0.82178416  1
  H  H28  1  0.68618054  0.81391273  0.81525646  1
  H  H29  1  0.81381946  0.18608727  0.31525646  1
  H  H30  1  0.18618054  0.68608727  0.18474354  1
  H  H31  1  0.31381946  0.31391273  0.68474354  1
  H  H32  1  0.68320787  0.67899014  0.69344931  1
  H  H33  1  0.81679213  0.32100986  0.19344931  1
  H  H34  1  0.18320787  0.82100986  0.30655069  1
  H  H35  1  0.31679213  0.17899014  0.80655069  1
  H  H36  1  0.43093006  0.93793896  0.93793643  1
  H  H37  1  0.06906994  0.06206104  0.43793643  1
  H  H38  1  0.93093006  0.56206104  0.06206357  1
  H  H39  1  0.56906994  0.43793896  0.56206357  1
  H  H40  1  0.56283446  0.93715855  0.06727497  1
  H  H41  1  0.93716554  0.06284145  0.56727497  1
  H  H42  1  0.06283446  0.56284145  0.93272503  1
  H  H43  1  0.43716554  0.43715855  0.43272503  1
  H  H44  1  0.56107421  0.06821732  0.93620761  1
  H  H45  1  0.93892579  0.93178268  0.43620761  1
  H  H46  1  0.06107421  0.43178268  0.06379239  1
  H  H47  1  0.43892579  0.56821732  0.56379239  1
  H  H48  1  0.43446454  0.06521585  0.06519981  1
  H  H49  1  0.06553546  0.93478415  0.56519981  1
  H  H50  1  0.93446454  0.43478415  0.93480019  1
  H  H51  1  0.56553546  0.56521585  0.43480019  1
  N  N52  1  0.75126577  0.75133741  0.24828533  1
  N  N53  1  0.74873423  0.24866259  0.74828533  1
  N  N54  1  0.25126577  0.74866259  0.75171467  1
  N  N55  1  0.24873423  0.25133741  0.25171467  1
  N  N56  1  0.75031565  0.75032923  0.74947749  1
  N  N57  1  0.74968435  0.24967077  0.24947749  1
  N  N58  1  0.25031565  0.74967077  0.25052251  1
  N  N59  1  0.24968435  0.25032923  0.75052251  1
  N  N60  1  0.49941266  0.00058601  0.00054067  1
  N  N61  1  0.00058734  -0.00058601  0.50054067  1
  N  N62  1  -0.00058734  0.49941399  0.99945933  1
  N  N63  1  0.50058734  0.50058601  0.49945933  1
  F  F64  1  0.96594714  0.70730119  0.45585847  1
  F  F65  1  0.53405286  0.29269881  0.95585847  1
  F  F66  1  0.46594714  0.79269881  0.54414153  1
  F  F67  1  0.03405286  0.20730119  0.04414153  1
  F  F68  1  0.02506040  0.28949613  0.53938057  1
  F  F69  1  0.47493960  0.71050387  0.03938057  1
  F  F70  1  0.52506040  0.21050387  0.46061943  1
  F  F71  1  0.97493960  0.78949613  0.96061943  1
  F  F72  1  0.21174328  0.51767264  0.46499012  1
  F  F73  1  0.28825672  0.48232736  0.96499012  1
  F  F74  1  0.71174328  0.98232736  0.53500988  1
  F  F75  1  0.78825672  0.01767264  0.03500988  1
  F  F76  1  0.79048433  0.47434741  0.53969525  1
  F  F77  1  0.70951567  0.52565259  0.03969525  1
  F  F78  1  0.29048433  0.02565259  0.46030475  1
  F  F79  1  0.20951567  0.97434741  0.96030475  1
  F  F80  1  0.97399921  0.45633040  0.29030008  1
  F  F81  1  0.52600079  0.54366960  0.79030008  1
  F  F82  1  0.47399921  0.04366960  0.70969992  1
  F  F83  1  0.02600079  0.95633040  0.20969992  1
  F  F84  1  0.03528583  0.54927161  0.70607583  1
  F  F85  1  0.46471417  0.45072839  0.20607583  1
  F  F86  1  0.53528583  0.95072839  0.29392417  1
  F  F87  1  0.96471417  0.04927161  0.79392417  1
