# generated using pymatgen
data_K3NaP4(H2O7)2
_symmetry_space_group_name_H-M   'P 1'
_cell_length_a   9.43427154
_cell_length_b   9.43427154
_cell_length_c   11.35392990
_cell_angle_alpha   80.91422375
_cell_angle_beta   99.08577625
_cell_angle_gamma   134.09748837
_symmetry_Int_Tables_number   1
_chemical_formula_structural   K3NaP4(H2O7)2
_chemical_formula_sum   'K6 Na2 P8 H8 O28'
_cell_volume   714.99090515
_cell_formula_units_Z   2
loop_
 _symmetry_equiv_pos_site_id
 _symmetry_equiv_pos_as_xyz
  1  'x, y, z'
loop_
 _atom_site_type_symbol
 _atom_site_label
 _atom_site_symmetry_multiplicity
 _atom_site_fract_x
 _atom_site_fract_y
 _atom_site_fract_z
 _atom_site_occupancy
  K  K0  1  0.55223759  0.83216978  0.01156943  1
  K  K1  1  0.83216978  0.55223759  0.48843057  1
  K  K2  1  0.44776241  0.16783022  0.98843057  1
  K  K3  1  0.16783022  0.44776241  0.51156943  1
  K  K4  1  0.13763231  0.13763231  0.25000000  1
  K  K5  1  0.86236769  0.86236769  0.75000000  1
  Na  Na6  1  0.00000000  0.50000000  0.00000000  1
  Na  Na7  1  0.50000000  0.00000000  0.50000000  1
  P  P8  1  0.82512461  0.21963331  0.74433316  1
  P  P9  1  0.21963331  0.82512461  0.75566684  1
  P  P10  1  0.17487539  0.78036669  0.25566684  1
  P  P11  1  0.78036669  0.17487539  0.24433316  1
  P  P12  1  0.18176986  0.32236293  0.89687345  1
  P  P13  1  0.32236293  0.18176986  0.60312655  1
  P  P14  1  0.81823014  0.67763707  0.10312655  1
  P  P15  1  0.67763707  0.81823014  0.39687345  1
  H  H16  1  0.87666242  0.47668934  0.76828010  1
  H  H17  1  0.47668934  0.87666242  0.73171990  1
  H  H18  1  0.12333758  0.52331066  0.23171990  1
  H  H19  1  0.52331066  0.12333758  0.26828010  1
  H  H20  1  0.39049312  0.51235909  0.75866146  1
  H  H21  1  0.51235909  0.39049312  0.74133854  1
  H  H22  1  0.60950688  0.48764091  0.24133854  1
  H  H23  1  0.48764091  0.60950688  0.25866146  1
  O  O24  1  0.81404673  0.25958411  0.61119561  1
  O  O25  1  0.25958411  0.81404673  0.88880439  1
  O  O26  1  0.18595327  0.74041589  0.38880439  1
  O  O27  1  0.74041589  0.18595327  0.11119561  1
  O  O28  1  0.80307087  0.33858772  0.81308847  1
  O  O29  1  0.33858772  0.80307087  0.68691153  1
  O  O30  1  0.19692913  0.66141228  0.18691153  1
  O  O31  1  0.66141228  0.19692913  0.31308847  1
  O  O32  1  0.68477276  0.00557345  0.79426015  1
  O  O33  1  0.00557345  0.68477276  0.70573985  1
  O  O34  1  0.31522724  0.99442655  0.20573985  1
  O  O35  1  0.99442655  0.31522724  0.29426015  1
  O  O36  1  0.05007112  0.31813971  0.78049929  1
  O  O37  1  0.31813971  0.05007112  0.71950071  1
  O  O38  1  0.94992888  0.68186029  0.21950071  1
  O  O39  1  0.68186029  0.94992888  0.28049929  1
  O  O40  1  0.17268478  0.38972725  0.00405989  1
  O  O41  1  0.38972725  0.17268478  0.49594011  1
  O  O42  1  0.82731522  0.61027275  0.99594011  1
  O  O43  1  0.61027275  0.82731522  0.50405989  1
  O  O44  1  0.40156908  0.51058914  0.84541315  1
  O  O45  1  0.51058914  0.40156908  0.65458685  1
  O  O46  1  0.59843092  0.48941086  0.15458685  1
  O  O47  1  0.48941086  0.59843092  0.34541315  1
  O  O48  1  0.14455253  0.13944674  0.90256729  1
  O  O49  1  0.13944674  0.14455253  0.59743271  1
  O  O50  1  0.85544747  0.86055326  0.09743271  1
  O  O51  1  0.86055326  0.85544747  0.40256729  1
