# generated using pymatgen
data_Ca4Y2Al7Cr2SiO24
_symmetry_space_group_name_H-M   'P 1'
_cell_length_a   10.55798343
_cell_length_b   10.51509466
_cell_length_c   10.53389334
_cell_angle_alpha   109.21564263
_cell_angle_beta   109.74901507
_cell_angle_gamma   109.46362442
_symmetry_Int_Tables_number   1
_chemical_formula_structural   Ca4Y2Al7Cr2SiO24
_chemical_formula_sum   'Ca8 Y4 Al14 Cr4 Si2 O48'
_cell_volume   900.06885540
_cell_formula_units_Z   2
loop_
 _symmetry_equiv_pos_site_id
 _symmetry_equiv_pos_as_xyz
  1  'x, y, z'
loop_
 _atom_site_type_symbol
 _atom_site_label
 _atom_site_symmetry_multiplicity
 _atom_site_fract_x
 _atom_site_fract_y
 _atom_site_fract_z
 _atom_site_occupancy
  Ca  Ca0  1  0.37452517  0.75277405  0.12720356  1
  Ca  Ca1  1  0.24552868  0.37007954  0.12287529  1
  Ca  Ca2  1  0.75298039  0.62746449  0.87759790  1
  Ca  Ca3  1  0.62737151  0.24972862  0.87395484  1
  Ca  Ca4  1  0.37243818  0.12082606  0.24795095  1
  Ca  Ca5  1  0.88010257  0.75293258  0.62438695  1
  Ca  Ca6  1  0.74701381  0.12189780  0.37643743  1
  Ca  Ca7  1  0.87778195  0.62821842  0.25556441  1
  Y  Y8  1  0.25256059  0.87852639  0.62345752  1
  Y  Y9  1  0.11930606  0.37167262  0.74374545  1
  Y  Y10  1  0.11791581  0.24620630  0.37325667  1
  Y  Y11  1  0.63058109  0.88023405  0.75374194  1
  Al  Al12  1  0.24477046  0.12043879  0.87444268  1
  Al  Al13  1  0.24876484  0.62703787  0.37701716  1
  Al  Al14  1  0.37188225  0.62315230  0.74623742  1
  Al  Al15  1  0.00093598  0.99984500  0.99843130  1
  Al  Al16  1  0.37232946  0.24580272  0.62609421  1
  Al  Al17  1  0.62914959  0.75646795  0.37569507  1
  Al  Al18  1  0.50164350  0.00134207  0.50158547  1
  Al  Al19  1  0.75102437  0.36991275  0.62279048  1
  Al  Al20  1  0.63044808  0.37769712  0.25481201  1
  Al  Al21  1  0.75405077  0.87998973  0.12415459  1
  Al  Al22  1  0.87412710  0.12277678  0.74846636  1
  Al  Al23  1  0.99704162  0.49646170  0.49766302  1
  Al  Al24  1  0.87705922  0.24914739  0.12515544  1
  Al  Al25  1  0.99696641  0.00059270  0.49899310  1
  Cr  Cr26  1  0.99980682  0.50105918  0.00203451  1
  Cr  Cr27  1  0.50197220  0.49938390  0.49866231  1
  Cr  Cr28  1  0.50140064  0.50035109  0.00204714  1
  Cr  Cr29  1  0.50180068  0.00135548  0.00126458  1
  Si  Si30  1  0.12500830  0.75081311  0.87380018  1
  Si  Si31  1  0.12662930  0.87674566  0.25280281  1
  O  O32  1  0.10553729  0.98288701  0.67492243  1
  O  O33  1  0.11515699  0.60610176  0.91117693  1
  O  O34  1  0.01740320  0.32170762  0.89654770  1
  O  O35  1  0.09137967  0.70160070  0.69431830  1
  O  O36  1  0.08879396  0.88884681  0.39584873  1
  O  O37  1  0.10477257  0.62288701  0.42985628  1
  O  O38  1  0.17948724  0.47864628  0.59756625  1
  O  O39  1  0.41960410  0.81920526  0.79726311  1
  O  O40  1  0.30234513  0.31872670  0.91419921  1
  O  O41  1  0.38072062  0.57734648  0.89736819  1
  O  O42  1  0.30599566  0.91310742  0.30228176  1
  O  O43  1  0.01780103  0.19302974  0.12078604  1
  O  O44  1  0.17912900  0.20063760  0.57987333  1
  O  O45  1  0.19512128  0.58052595  0.18004876  1
  O  O46  1  0.40241551  0.81994153  0.52079083  1
  O  O47  1  0.30326277  0.48284103  0.38653613  1
  O  O48  1  0.30614128  0.89112937  0.00654584  1
  O  O49  1  0.11215937  0.00733236  0.20161092  1
  O  O50  1  0.39763132  0.07671991  0.88211935  1
  O  O51  1  0.51568323  0.61815506  0.69407961  1
  O  O52  1  0.51303794  0.40344694  0.82173251  1
  O  O53  1  0.38226329  0.30750818  0.48643655  1
  O  O54  1  0.57459329  0.89784271  0.38183814  1
  O  O55  1  0.19490454  0.11502066  0.01664943  1
  O  O56  1  0.80205474  0.88127225  0.97835324  1
  O  O57  1  0.41584168  0.09647023  0.61764146  1
  O  O58  1  0.61027054  0.69493740  0.51413463  1
  O  O59  1  0.48779114  0.59626378  0.17776943  1
  O  O60  1  0.48844898  0.38981131  0.30946250  1
  O  O61  1  0.59561701  0.91590101  0.10875766  1
  O  O62  1  0.88175032  0.98115367  0.80326439  1
  O  O63  1  0.68254516  0.09731480  0.98065458  1
  O  O64  1  0.68820557  0.51031552  0.61106592  1
  O  O65  1  0.59507761  0.17990626  0.48475067  1
  O  O66  1  0.80782242  0.42541402  0.82227639  1
  O  O67  1  0.82067747  0.80594347  0.41856536  1
  O  O68  1  0.68025919  0.07751884  0.69735686  1
  O  O69  1  0.99522269  0.80075415  0.88671935  1
  O  O70  1  0.61109761  0.41833097  0.09865835  1
  O  O71  1  0.69054177  0.67982055  0.07989776  1
  O  O72  1  0.57661471  0.17954504  0.19219411  1
  O  O73  1  0.82146741  0.51596926  0.40489182  1
  O  O74  1  0.90548278  0.38524630  0.58534518  1
  O  O75  1  0.92638181  0.11993023  0.60508244  1
  O  O76  1  0.92395200  0.30538660  0.32025074  1
  O  O77  1  0.99365842  0.69582093  0.11006196  1
  O  O78  1  0.88621998  0.40146413  0.08138491  1
  O  O79  1  0.90274124  0.01938102  0.31874120  1
