# generated using pymatgen
data_SrH3C3O7
_symmetry_space_group_name_H-M   'P 1'
_cell_length_a   6.41556039
_cell_length_b   17.04841070
_cell_length_c   5.80551884
_cell_angle_alpha   90.00000000
_cell_angle_beta   97.52082068
_cell_angle_gamma   90.00000000
_symmetry_Int_Tables_number   1
_chemical_formula_structural   SrH3C3O7
_chemical_formula_sum   'Sr4 H12 C12 O28'
_cell_volume   629.51675748
_cell_formula_units_Z   4
loop_
 _symmetry_equiv_pos_site_id
 _symmetry_equiv_pos_as_xyz
  1  'x, y, z'
loop_
 _atom_site_type_symbol
 _atom_site_label
 _atom_site_symmetry_multiplicity
 _atom_site_fract_x
 _atom_site_fract_y
 _atom_site_fract_z
 _atom_site_occupancy
  Sr  Sr0  1  0.62103483  0.91848126  0.76423461  1
  Sr  Sr1  1  0.12103483  0.58151874  0.26423461  1
  Sr  Sr2  1  0.37896517  0.08151874  0.23576539  1
  Sr  Sr3  1  0.87896517  0.41848126  0.73576539  1
  H  H4  1  0.71847455  0.56926295  0.47465092  1
  H  H5  1  0.21847455  0.93073705  0.97465092  1
  H  H6  1  0.28152545  0.43073705  0.52534908  1
  H  H7  1  0.78152545  0.06926295  0.02534908  1
  H  H8  1  0.87120944  0.60397457  0.69869043  1
  H  H9  1  0.37120944  0.89602543  0.19869043  1
  H  H10  1  0.12879056  0.39602543  0.30130957  1
  H  H11  1  0.62879056  0.10397457  0.80130957  1
  H  H12  1  0.35516810  0.74584135  0.99894018  1
  H  H13  1  0.85516810  0.75415865  0.49894018  1
  H  H14  1  0.64483190  0.25415865  0.00105982  1
  H  H15  1  0.14483190  0.24584135  0.50105982  1
  C  C16  1  0.87045862  0.73811528  0.92487095  1
  C  C17  1  0.37045862  0.76188472  0.42487095  1
  C  C18  1  0.12954138  0.26188472  0.07512905  1
  C  C19  1  0.62954138  0.23811528  0.57512905  1
  C  C20  1  0.91479523  0.01781047  0.40540000  1
  C  C21  1  0.41479523  0.48218953  0.90540000  1
  C  C22  1  0.08520477  0.98218953  0.59460000  1
  C  C23  1  0.58520477  0.51781047  0.09460000  1
  C  C24  1  0.84866197  0.77917587  0.16052416  1
  C  C25  1  0.34866197  0.72082413  0.66052416  1
  C  C26  1  0.15133803  0.22082413  0.83947584  1
  C  C27  1  0.65133803  0.27917587  0.33947584  1
  O  O28  1  0.88053422  0.73049433  0.33916055  1
  O  O29  1  0.38053422  0.76950567  0.83916055  1
  O  O30  1  0.11946578  0.26950567  0.66083945  1
  O  O31  1  0.61946578  0.23049433  0.16083945  1
  O  O32  1  0.82519611  0.78103188  0.74584243  1
  O  O33  1  0.32519611  0.71896812  0.24584243  1
  O  O34  1  0.17480389  0.21896812  0.25415757  1
  O  O35  1  0.67480389  0.28103188  0.75415757  1
  O  O36  1  0.64134475  0.06405657  0.92725345  1
  O  O37  1  0.14134475  0.43594343  0.42725345  1
  O  O38  1  0.35865525  0.93594343  0.07274655  1
  O  O39  1  0.85865525  0.56405657  0.57274655  1
  O  O40  1  0.72338804  0.00783809  0.43049100  1
  O  O41  1  0.22338804  0.49216191  0.93049100  1
  O  O42  1  0.27661196  0.99216191  0.56950900  1
  O  O43  1  0.77661196  0.50783809  0.06950900  1
  O  O44  1  0.92566026  0.66731907  0.93003727  1
  O  O45  1  0.42566026  0.83268093  0.43003727  1
  O  O46  1  0.07433974  0.33268093  0.06996273  1
  O  O47  1  0.57433974  0.16731907  0.56996273  1
  O  O48  1  0.98257097  0.05460255  0.24002900  1
  O  O49  1  0.48257097  0.44539745  0.74002900  1
  O  O50  1  0.01742903  0.94539745  0.75997100  1
  O  O51  1  0.51742903  0.55460255  0.25997100  1
  O  O52  1  0.80314634  0.84919523  0.17075431  1
  O  O53  1  0.30314634  0.65080477  0.67075431  1
  O  O54  1  0.19685366  0.15080477  0.82924569  1
  O  O55  1  0.69685366  0.34919523  0.32924569  1
