# generated using pymatgen
data_NaSbO3
_symmetry_space_group_name_H-M   'P 1'
_cell_length_a   5.48889117
_cell_length_b   8.62151122
_cell_length_c   5.42710382
_cell_angle_alpha   90.00000000
_cell_angle_beta   90.00000000
_cell_angle_gamma   90.00000000
_symmetry_Int_Tables_number   1
_chemical_formula_structural   NaSbO3
_chemical_formula_sum   'Na4 Sb4 O12'
_cell_volume   256.82432028
_cell_formula_units_Z   4
loop_
 _symmetry_equiv_pos_site_id
 _symmetry_equiv_pos_as_xyz
  1  'x, y, z'
loop_
 _atom_site_type_symbol
 _atom_site_label
 _atom_site_symmetry_multiplicity
 _atom_site_fract_x
 _atom_site_fract_y
 _atom_site_fract_z
 _atom_site_occupancy
  Na  Na0  1  0.00000000  0.18341851  0.75000000  1
  Na  Na1  1  0.00000000  0.81658149  0.25000000  1
  Na  Na2  1  0.50000000  0.68341851  0.25000000  1
  Na  Na3  1  0.50000000  0.31658149  0.75000000  1
  Sb  Sb4  1  0.00000000  0.40418527  0.25000000  1
  Sb  Sb5  1  0.00000000  0.59581473  0.75000000  1
  Sb  Sb6  1  0.50000000  0.09581473  0.25000000  1
  Sb  Sb7  1  0.50000000  0.90418527  0.75000000  1
  O  O8  1  0.18278588  0.42184869  0.56776383  1
  O  O9  1  0.18278588  0.57815131  0.06776383  1
  O  O10  1  0.25000000  0.75000000  0.61745048  1
  O  O11  1  0.25000000  0.25000000  0.11745048  1
  O  O12  1  0.31721412  0.07815131  0.56776383  1
  O  O13  1  0.31721412  0.92184869  0.06776383  1
  O  O14  1  0.68278588  0.07815131  0.93223617  1
  O  O15  1  0.68278588  0.92184869  0.43223617  1
  O  O16  1  0.75000000  0.75000000  0.88254952  1
  O  O17  1  0.75000000  0.25000000  0.38254952  1
  O  O18  1  0.81721412  0.42184869  0.93223617  1
  O  O19  1  0.81721412  0.57815131  0.43223617  1
