# generated using pymatgen
data_LiZrPCO7
_symmetry_space_group_name_H-M   'P 1'
_cell_length_a   8.89924143
_cell_length_b   6.63093014
_cell_length_c   5.68270669
_cell_angle_alpha   90.00000000
_cell_angle_beta   88.38631804
_cell_angle_gamma   90.00000000
_symmetry_Int_Tables_number   1
_chemical_formula_structural   LiZrPCO7
_chemical_formula_sum   'Li2 Zr2 P2 C2 O14'
_cell_volume   335.20494346
_cell_formula_units_Z   2
loop_
 _symmetry_equiv_pos_site_id
 _symmetry_equiv_pos_as_xyz
  1  'x, y, z'
loop_
 _atom_site_type_symbol
 _atom_site_label
 _atom_site_symmetry_multiplicity
 _atom_site_fract_x
 _atom_site_fract_y
 _atom_site_fract_z
 _atom_site_occupancy
  Li  Li0  1  0.15644088  0.56761657  0.25412899  1
  Li  Li1  1  0.84355912  0.06761657  0.74587101  1
  Zr  Zr2  1  0.34162430  0.74536174  0.79607266  1
  Zr  Zr3  1  0.65837570  0.24536174  0.20392734  1
  P  P4  1  0.44817356  0.24176659  0.72135937  1
  P  P5  1  0.55182644  0.74176659  0.27864063  1
  C  C6  1  0.05245042  0.74394772  0.73835423  1
  C  C7  1  0.94754958  0.24394772  0.26164577  1
  O  O8  1  0.07881906  0.29334319  0.29401541  1
  O  O9  1  0.11540176  0.72639254  0.94857033  1
  O  O10  1  0.15634230  0.71465252  0.56369529  1
  O  O11  1  0.34967337  0.05765218  0.78620788  1
  O  O12  1  0.36375085  0.43196052  0.80220658  1
  O  O13  1  0.39920836  0.72645241  0.15085756  1
  O  O14  1  0.48315690  0.24870402  0.45385971  1
  O  O15  1  0.51684310  0.74870402  0.54614029  1
  O  O16  1  0.60079164  0.22645241  0.84914244  1
  O  O17  1  0.63624915  0.93196052  0.19779342  1
  O  O18  1  0.65032663  0.55765218  0.21379212  1
  O  O19  1  0.84365770  0.21465252  0.43630471  1
  O  O20  1  0.88459824  0.22639254  0.05142967  1
  O  O21  1  0.92118094  0.79334319  0.70598459  1
