# generated using pymatgen
data_TiOF2
_symmetry_space_group_name_H-M   'P 1'
_cell_length_a   5.70402048
_cell_length_b   8.93589996
_cell_length_c   5.22731847
_cell_angle_alpha   90.00000000
_cell_angle_beta   91.98868228
_cell_angle_gamma   90.00000000
_symmetry_Int_Tables_number   1
_chemical_formula_structural   TiOF2
_chemical_formula_sum   'Ti4 O4 F8'
_cell_volume   266.27885446
_cell_formula_units_Z   4
loop_
 _symmetry_equiv_pos_site_id
 _symmetry_equiv_pos_as_xyz
  1  'x, y, z'
loop_
 _atom_site_type_symbol
 _atom_site_label
 _atom_site_symmetry_multiplicity
 _atom_site_fract_x
 _atom_site_fract_y
 _atom_site_fract_z
 _atom_site_occupancy
  Ti  Ti0  1  0.01987273  0.46757997  0.88102000  1
  Ti  Ti1  1  0.29309834  0.19003387  0.54408478  1
  Ti  Ti2  1  0.70690166  0.69003387  0.45591522  1
  Ti  Ti3  1  0.98012727  0.96757997  0.11898000  1
  O  O4  1  0.07940960  0.13317905  0.29956684  1
  O  O5  1  0.22768075  0.36882807  0.68509082  1
  O  O6  1  0.77231925  0.86882807  0.31490918  1
  O  O7  1  0.92059040  0.63317905  0.70043316  1
  F  F8  1  0.27137435  0.05453226  0.80314454  1
  F  F9  1  0.19235083  0.49479154  0.17176056  1
  F  F10  1  0.20975484  0.83085247  0.12944117  1
  F  F11  1  0.56808415  0.19065077  0.39275545  1
  F  F12  1  0.43191585  0.69065077  0.60724455  1
  F  F13  1  0.79024516  0.33085247  0.87055883  1
  F  F14  1  0.80764917  0.99479154  0.82823944  1
  F  F15  1  0.72862565  0.55453226  0.19685546  1
