# generated using pymatgen
data_P3H10N3O8
_symmetry_space_group_name_H-M   'P 1'
_cell_length_a   7.10117618
_cell_length_b   10.25577571
_cell_length_c   15.78388853
_cell_angle_alpha   90.00000000
_cell_angle_beta   90.00000000
_cell_angle_gamma   93.99774900
_symmetry_Int_Tables_number   1
_chemical_formula_structural   P3H10N3O8
_chemical_formula_sum   'P12 H40 N12 O32'
_cell_volume   1146.71314326
_cell_formula_units_Z   4
loop_
 _symmetry_equiv_pos_site_id
 _symmetry_equiv_pos_as_xyz
  1  'x, y, z'
loop_
 _atom_site_type_symbol
 _atom_site_label
 _atom_site_symmetry_multiplicity
 _atom_site_fract_x
 _atom_site_fract_y
 _atom_site_fract_z
 _atom_site_occupancy
  P  P0  1  0.72568218  0.30367681  0.85331773  1
  P  P1  1  0.27431782  0.19632319  0.35331773  1
  P  P2  1  0.27431782  0.69632319  0.14668227  1
  P  P3  1  0.72568218  0.80367681  0.64668227  1
  P  P4  1  0.01588234  0.25743806  0.72077175  1
  P  P5  1  0.98411766  0.24256194  0.22077175  1
  P  P6  1  0.98411766  0.74256194  0.27922825  1
  P  P7  1  0.01588234  0.75743806  0.77922825  1
  P  P8  1  0.62046789  0.29136527  0.67012628  1
  P  P9  1  0.37953211  0.20863473  0.17012628  1
  P  P10  1  0.37953211  0.70863473  0.32987372  1
  P  P11  1  0.62046789  0.79136527  0.82987372  1
  H  H12  1  0.34000091  0.13287583  0.00854696  1
  H  H13  1  0.65999909  0.36712417  0.50854696  1
  H  H14  1  0.65999909  0.86712417  0.99145304  1
  H  H15  1  0.34000091  0.63287583  0.49145304  1
  H  H16  1  0.85795855  0.18820054  0.59960069  1
  H  H17  1  0.14204145  0.31179946  0.09960069  1
  H  H18  1  0.14204145  0.81179946  0.40039931  1
  H  H19  1  0.85795855  0.68820054  0.90039931  1
  H  H20  1  0.18062117  0.43681090  0.68272934  1
  H  H21  1  0.81937883  0.06318910  0.18272934  1
  H  H22  1  0.81937883  0.56318910  0.31727066  1
  H  H23  1  0.18062117  0.93681090  0.81727066  1
  H  H24  1  0.36590658  0.15808772  0.68823123  1
  H  H25  1  0.63409342  0.34191228  0.18823123  1
  H  H26  1  0.63409342  0.84191228  0.31176877  1
  H  H27  1  0.36590658  0.65808772  0.81176877  1
  H  H28  1  0.07966017  0.42219336  0.93773055  1
  H  H29  1  0.92033983  0.07780664  0.43773055  1
  H  H30  1  0.92033983  0.57780664  0.06226945  1
  H  H31  1  0.07966017  0.92219336  0.56226945  1
  H  H32  1  0.61360386  0.46433803  0.76542644  1
  H  H33  1  0.38639614  0.03566197  0.26542644  1
  H  H34  1  0.38639614  0.53566197  0.23457356  1
  H  H35  1  0.61360386  0.96433803  0.73457356  1
  H  H36  1  0.93982086  0.14427755  0.84127564  1
  H  H37  1  0.06017914  0.35572245  0.34127564  1
  H  H38  1  0.06017914  0.85572245  0.15872436  1
  H  H39  1  0.93982086  0.64427755  0.65872436  1
  H  H40  1  0.25683826  0.25228722  0.95681565  1
  H  H41  1  0.74316174  0.24771278  0.45681565  1
  H  H42  1  0.74316174  0.74771278  0.04318435  1
  H  H43  1  0.25683826  0.75228722  0.54318435  1
  H  H44  1  0.23741937  0.47565980  0.00212543  1
  H  H45  1  0.76258063  0.02434020  0.50212543  1
  H  H46  1  0.76258063  0.52434020  0.99787457  1
  H  H47  1  0.23741937  0.97565980  0.49787457  1
  H  H48  1  0.45490956  0.17569004  0.91406012  1
  H  H49  1  0.54509044  0.32430996  0.41406012  1
  H  H50  1  0.54509044  0.82430996  0.08593988  1
  H  H51  1  0.45490956  0.67569004  0.58593988  1
  N  N52  1  0.64280732  0.36794904  0.76320818  1
  N  N53  1  0.35719268  0.13205096  0.26320818  1
  N  N54  1  0.35719268  0.63205096  0.23679182  1
  N  N55  1  0.64280732  0.86794904  0.73679182  1
  N  N56  1  0.84070318  0.24971705  0.64989242  1
  N  N57  1  0.15929682  0.25028295  0.14989242  1
  N  N58  1  0.15929682  0.75028295  0.35010758  1
  N  N59  1  0.84070318  0.74971705  0.85010758  1
  N  N60  1  0.92016672  0.23370788  0.81585938  1
  N  N61  1  0.07983328  0.26629212  0.31585938  1
  N  N62  1  0.07983328  0.76629212  0.18414062  1
  N  N63  1  0.92016672  0.73370788  0.68414062  1
  O  O64  1  0.60380438  0.18317980  0.88121012  1
  O  O65  1  0.39619562  0.31682020  0.38121012  1
  O  O66  1  0.39619562  0.81682020  0.11878988  1
  O  O67  1  0.60380438  0.68317980  0.61878988  1
  O  O68  1  0.09554211  0.40585647  0.72825989  1
  O  O69  1  0.90445789  0.09414353  0.22825989  1
  O  O70  1  0.90445789  0.59414353  0.27174011  1
  O  O71  1  0.09554211  0.90585647  0.77174011  1
  O  O72  1  0.54354475  0.37678887  0.60403088  1
  O  O73  1  0.45645525  0.12321113  0.10403088  1
  O  O74  1  0.45645525  0.62321113  0.39596912  1
  O  O75  1  0.54354475  0.87678887  0.89596912  1
  O  O76  1  0.15607152  0.16259046  0.69732090  1
  O  O77  1  0.84392848  0.33740954  0.19732090  1
  O  O78  1  0.84392848  0.83740954  0.30267910  1
  O  O79  1  0.15607152  0.66259046  0.80267910  1
  O  O80  1  0.51063665  0.15445727  0.68371928  1
  O  O81  1  0.48936335  0.34554273  0.18371928  1
  O  O82  1  0.48936335  0.84554273  0.31628072  1
  O  O83  1  0.51063665  0.65445727  0.81628072  1
  O  O84  1  0.30079782  0.16074723  0.95049051  1
  O  O85  1  0.69920218  0.33925277  0.45049051  1
  O  O86  1  0.69920218  0.83925277  0.04950949  1
  O  O87  1  0.30079782  0.66074723  0.54950949  1
  O  O88  1  0.77295455  0.41198863  0.91449423  1
  O  O89  1  0.22704545  0.08801137  0.41449423  1
  O  O90  1  0.22704545  0.58801137  0.08550577  1
  O  O91  1  0.77295455  0.91198863  0.58550577  1
  O  O92  1  0.19708544  0.40052884  0.96523118  1
  O  O93  1  0.80291456  0.09947116  0.46523118  1
  O  O94  1  0.80291456  0.59947116  0.03476882  1
  O  O95  1  0.19708544  0.90052884  0.53476882  1
