# generated using pymatgen
data_Na3SnPCO7
_symmetry_space_group_name_H-M   'P 1'
_cell_length_a   9.39423979
_cell_length_b   5.49610722
_cell_length_c   7.26567549
_cell_angle_alpha   90.00000000
_cell_angle_beta   90.00000000
_cell_angle_gamma   83.62275699
_symmetry_Int_Tables_number   1
_chemical_formula_structural   Na3SnPCO7
_chemical_formula_sum   'Na6 Sn2 P2 C2 O14'
_cell_volume   372.81821366
_cell_formula_units_Z   2
loop_
 _symmetry_equiv_pos_site_id
 _symmetry_equiv_pos_as_xyz
  1  'x, y, z'
loop_
 _atom_site_type_symbol
 _atom_site_label
 _atom_site_symmetry_multiplicity
 _atom_site_fract_x
 _atom_site_fract_y
 _atom_site_fract_z
 _atom_site_occupancy
  Na  Na0  1  0.09414328  0.77886151  0.25000000  1
  Na  Na1  1  0.27524450  0.24949249  0.02001557  1
  Na  Na2  1  0.27524450  0.24949249  0.47998443  1
  Na  Na3  1  0.72475550  0.75050751  0.97998443  1
  Na  Na4  1  0.72475550  0.75050751  0.52001557  1
  Na  Na5  1  0.90585672  0.22113849  0.75000000  1
  Sn  Sn6  1  0.34238211  0.74073428  0.75000000  1
  Sn  Sn7  1  0.65761789  0.25926572  0.25000000  1
  P  P8  1  0.40490650  0.71183369  0.25000000  1
  P  P9  1  0.59509350  0.28816631  0.75000000  1
  C  C10  1  0.03804155  0.68094376  0.75000000  1
  C  C11  1  0.96195845  0.31905624  0.25000000  1
  O  O12  1  0.07674150  0.90021182  0.75000000  1
  O  O13  1  0.09512335  0.35599883  0.25000000  1
  O  O14  1  0.13864268  0.49188206  0.75000000  1
  O  O15  1  0.31909400  0.82408144  0.07937764  1
  O  O16  1  0.31909400  0.82408144  0.42062236  1
  O  O17  1  0.40216997  0.42816021  0.25000000  1
  O  O18  1  0.43495598  0.23864767  0.75000000  1
  O  O19  1  0.56504402  0.76135233  0.25000000  1
  O  O20  1  0.59783003  0.57183979  0.75000000  1
  O  O21  1  0.68090600  0.17591856  0.57937764  1
  O  O22  1  0.68090600  0.17591856  0.92062236  1
  O  O23  1  0.86135732  0.50811794  0.25000000  1
  O  O24  1  0.90487665  0.64400117  0.75000000  1
  O  O25  1  0.92325850  0.09978818  0.25000000  1
