# generated using pymatgen
data_LiHfPCO7
_symmetry_space_group_name_H-M   'P 1'
_cell_length_a   8.84346379
_cell_length_b   6.59913833
_cell_length_c   5.54879019
_cell_angle_alpha   90.00000000
_cell_angle_beta   87.06122761
_cell_angle_gamma   90.00000000
_symmetry_Int_Tables_number   1
_chemical_formula_structural   LiHfPCO7
_chemical_formula_sum   'Li2 Hf2 P2 C2 O14'
_cell_volume   323.39732045
_cell_formula_units_Z   2
loop_
 _symmetry_equiv_pos_site_id
 _symmetry_equiv_pos_as_xyz
  1  'x, y, z'
loop_
 _atom_site_type_symbol
 _atom_site_label
 _atom_site_symmetry_multiplicity
 _atom_site_fract_x
 _atom_site_fract_y
 _atom_site_fract_z
 _atom_site_occupancy
  Li  Li0  1  0.16346422  0.54735646  0.25286790  1
  Li  Li1  1  0.83653578  0.04735646  0.74713210  1
  Hf  Hf2  1  0.33844744  0.75253084  0.79693449  1
  Hf  Hf3  1  0.66155256  0.25253084  0.20306551  1
  P  P4  1  0.44178145  0.24870518  0.72534363  1
  P  P5  1  0.55821855  0.74870518  0.27465637  1
  C  C6  1  0.05246558  0.73774529  0.73213119  1
  C  C7  1  0.94753442  0.23774529  0.26786881  1
  O  O8  1  0.08060557  0.27855229  0.30386087  1
  O  O9  1  0.11252948  0.73065325  0.94887515  1
  O  O10  1  0.16073077  0.70892344  0.55594419  1
  O  O11  1  0.34296581  0.06196718  0.78812018  1
  O  O12  1  0.35613407  0.44027823  0.80930007  1
  O  O13  1  0.40676051  0.73392098  0.14400597  1
  O  O14  1  0.48279160  0.25721686  0.45126495  1
  O  O15  1  0.51720840  0.75721686  0.54873505  1
  O  O16  1  0.59323949  0.23392098  0.85599403  1
  O  O17  1  0.64386593  0.94027823  0.19069993  1
  O  O18  1  0.65703419  0.56196718  0.21187982  1
  O  O19  1  0.83926923  0.20892344  0.44405581  1
  O  O20  1  0.88747052  0.23065325  0.05112485  1
  O  O21  1  0.91939443  0.77855229  0.69613913  1
