# generated using pymatgen
data_Na2CuO2
_symmetry_space_group_name_H-M   'P 1'
_cell_length_a   5.38667329
_cell_length_b   5.38667329
_cell_length_c   8.24148555
_cell_angle_alpha   90.00000000
_cell_angle_beta   90.00000000
_cell_angle_gamma   31.77747500
_symmetry_Int_Tables_number   1
_chemical_formula_structural   Na2CuO2
_chemical_formula_sum   'Na4 Cu2 O4'
_cell_volume   125.93471587
_cell_formula_units_Z   2
loop_
 _symmetry_equiv_pos_site_id
 _symmetry_equiv_pos_as_xyz
  1  'x, y, z'
loop_
 _atom_site_type_symbol
 _atom_site_label
 _atom_site_symmetry_multiplicity
 _atom_site_fract_x
 _atom_site_fract_y
 _atom_site_fract_z
 _atom_site_occupancy
  Na  Na0  1  0.14719064  0.14719064  0.66812126  1
  Na  Na1  1  0.39352156  0.39352156  0.84853882  1
  Na  Na2  1  0.85280936  0.85280936  0.16812126  1
  Na  Na3  1  0.60647844  0.60647844  0.34853882  1
  Cu  Cu4  1  0.12231006  0.12231006  0.00343197  1
  Cu  Cu5  1  0.87768994  0.87768994  0.50343197  1
  O  O6  1  0.27492046  0.27492046  0.40335660  1
  O  O7  1  0.51704426  0.51704426  0.09144136  1
  O  O8  1  0.48295574  0.48295574  0.59144136  1
  O  O9  1  0.72507954  0.72507954  0.90335660  1
