# generated using pymatgen
data_Ba2Nb8O11
_symmetry_space_group_name_H-M   'P 1'
_cell_length_a   6.00409936
_cell_length_b   6.00409936
_cell_length_c   9.28344987
_cell_angle_alpha   71.13275431
_cell_angle_beta   71.13275431
_cell_angle_gamma   90.00000000
_symmetry_Int_Tables_number   1
_chemical_formula_structural   Ba2Nb8O11
_chemical_formula_sum   'Ba2 Nb8 O11'
_cell_volume   297.61419446
_cell_formula_units_Z   1
loop_
 _symmetry_equiv_pos_site_id
 _symmetry_equiv_pos_as_xyz
  1  'x, y, z'
loop_
 _atom_site_type_symbol
 _atom_site_label
 _atom_site_symmetry_multiplicity
 _atom_site_fract_x
 _atom_site_fract_y
 _atom_site_fract_z
 _atom_site_occupancy
  Ba  Ba0  1  0.00000000  0.00000000  0.00000000  1
  Ba  Ba1  1  0.50000000  0.50000000  0.00000000  1
  Nb  Nb2  1  0.00000000  0.00000000  0.50000000  1
  Nb  Nb3  1  0.50000000  0.00000000  0.50000000  1
  Nb  Nb4  1  0.00000000  0.50000000  0.50000000  1
  Nb  Nb5  1  0.87313528  0.37313528  0.25372945  1
  Nb  Nb6  1  0.37334813  0.87334813  0.25330373  1
  Nb  Nb7  1  0.50000000  0.50000000  0.50000000  1
  Nb  Nb8  1  0.12686472  0.62686472  0.74627055  1
  Nb  Nb9  1  0.62665187  0.12665187  0.74669627  1
  O  O10  1  0.50000000  0.00000000  0.00000000  1
  O  O11  1  0.12834178  0.12997282  0.24168541  1
  O  O12  1  0.62997282  0.12997282  0.24168541  1
  O  O13  1  0.25000000  0.25000000  0.50000000  1
  O  O14  1  0.12834178  0.62834178  0.24168541  1
  O  O15  1  0.37002718  0.37165822  0.75831459  1
  O  O16  1  0.62997282  0.62834178  0.24168541  1
  O  O17  1  0.75000000  0.75000000  0.50000000  1
  O  O18  1  0.37002718  0.87002718  0.75831459  1
  O  O19  1  0.87165822  0.37165822  0.75831459  1
  O  O20  1  0.87165822  0.87002718  0.75831459  1
