# generated using pymatgen
data_Na3(CoO2)4
_symmetry_space_group_name_H-M   'P 1'
_cell_length_a   5.94593303
_cell_length_b   5.94593303
_cell_length_c   6.45201428
_cell_angle_alpha   117.15623545
_cell_angle_beta   117.15623545
_cell_angle_gamma   60.98951081
_symmetry_Int_Tables_number   1
_chemical_formula_structural   Na3(CoO2)4
_chemical_formula_sum   'Na3 Co4 O8'
_cell_volume   169.20191868
_cell_formula_units_Z   1
loop_
 _symmetry_equiv_pos_site_id
 _symmetry_equiv_pos_as_xyz
  1  'x, y, z'
loop_
 _atom_site_type_symbol
 _atom_site_label
 _atom_site_symmetry_multiplicity
 _atom_site_fract_x
 _atom_site_fract_y
 _atom_site_fract_z
 _atom_site_occupancy
  Na  Na0  1  0.50000000  0.00000000  0.50000000  1
  Na  Na1  1  0.00000000  0.50000000  0.50000000  1
  Na  Na2  1  0.50000000  0.50000000  0.50000000  1
  Co  Co3  1  0.50000000  0.00000000  0.00000000  1
  Co  Co4  1  0.00000000  0.00000000  0.00000000  1
  Co  Co5  1  0.50000000  0.50000000  0.00000000  1
  Co  Co6  1  0.00000000  0.50000000  0.00000000  1
  O  O7  1  0.23399621  0.23399621  0.20268819  1
  O  O8  1  0.72388645  0.23290037  0.18863467  1
  O  O9  1  0.23290037  0.72388645  0.18863467  1
  O  O10  1  0.71555663  0.71555663  0.18814878  1
  O  O11  1  0.76709963  0.27611355  0.81136533  1
  O  O12  1  0.28444337  0.28444337  0.81185122  1
  O  O13  1  0.76600379  0.76600379  0.79731181  1
  O  O14  1  0.27611355  0.76709963  0.81136533  1
