# generated using pymatgen
data_TiO2
_symmetry_space_group_name_H-M   'P 1'
_cell_length_a   18.70762319
_cell_length_b   4.80244988
_cell_length_c   2.98093150
_cell_angle_alpha   90.00000000
_cell_angle_beta   90.00000000
_cell_angle_gamma   90.00000000
_symmetry_Int_Tables_number   1
_chemical_formula_structural   TiO2
_chemical_formula_sum   'Ti8 O16'
_cell_volume   267.81410799
_cell_formula_units_Z   8
loop_
 _symmetry_equiv_pos_site_id
 _symmetry_equiv_pos_as_xyz
  1  'x, y, z'
loop_
 _atom_site_type_symbol
 _atom_site_label
 _atom_site_symmetry_multiplicity
 _atom_site_fract_x
 _atom_site_fract_y
 _atom_site_fract_z
 _atom_site_occupancy
  Ti  Ti0  1  0.06934387  0.40917659  0.25000000  1
  Ti  Ti1  1  0.18809755  0.90946171  0.75000000  1
  Ti  Ti2  1  0.31190245  0.40946171  0.25000000  1
  Ti  Ti3  1  0.43065613  0.90917659  0.75000000  1
  Ti  Ti4  1  0.56934387  0.09082341  0.25000000  1
  Ti  Ti5  1  0.68809755  0.59053829  0.75000000  1
  Ti  Ti6  1  0.81190245  0.09053829  0.25000000  1
  Ti  Ti7  1  0.93065613  0.59082341  0.75000000  1
  O  O8  1  0.01349943  0.28630549  0.75000000  1
  O  O9  1  0.13661652  0.11511129  0.25000000  1
  O  O10  1  0.11911936  0.62240914  0.75000000  1
  O  O11  1  0.26021977  0.25751853  0.75000000  1
  O  O12  1  0.23978023  0.75751853  0.25000000  1
  O  O13  1  0.38088064  0.12240914  0.25000000  1
  O  O14  1  0.36338348  0.61511129  0.75000000  1
  O  O15  1  0.48650057  0.78630549  0.25000000  1
  O  O16  1  0.51349943  0.21369451  0.75000000  1
  O  O17  1  0.63661652  0.38488871  0.25000000  1
  O  O18  1  0.61911936  0.87759086  0.75000000  1
  O  O19  1  0.76021977  0.24248147  0.75000000  1
  O  O20  1  0.73978023  0.74248147  0.25000000  1
  O  O21  1  0.88088064  0.37759086  0.25000000  1
  O  O22  1  0.86338348  0.88488871  0.75000000  1
  O  O23  1  0.98650057  0.71369451  0.25000000  1
