# generated using pymatgen
data_Al2O3
_symmetry_space_group_name_H-M   'P 1'
_cell_length_a   7.73831201
_cell_length_b   3.19963969
_cell_length_c   10.70086042
_cell_angle_alpha   89.98294085
_cell_angle_beta   28.53378742
_cell_angle_gamma   101.90487039
_symmetry_Int_Tables_number   1
_chemical_formula_structural   Al2O3
_chemical_formula_sum   'Al4 O6'
_cell_volume   114.11767055
_cell_formula_units_Z   2
loop_
 _symmetry_equiv_pos_site_id
 _symmetry_equiv_pos_as_xyz
  1  'x, y, z'
loop_
 _atom_site_type_symbol
 _atom_site_label
 _atom_site_symmetry_multiplicity
 _atom_site_fract_x
 _atom_site_fract_y
 _atom_site_fract_z
 _atom_site_occupancy
  Al  Al0  1  0.37426958  0.67700788  0.21929052  1
  Al  Al1  1  0.18724363  0.58500045  0.65609531  1
  Al  Al2  1  0.62575278  0.30314465  0.78069233  1
  Al  Al3  1  0.81269195  0.39635877  0.34394029  1
  O  O4  1  0.13326084  0.55820053  0.52300601  1
  O  O5  1  0.39689420  0.68871318  0.95620451  1
  O  O6  1  0.60315296  0.29143596  0.04377795  1
  O  O7  1  0.22756657  0.10501791  0.70360976  1
  O  O8  1  0.77241282  0.87644710  0.29640640  1
  O  O9  1  0.86675366  0.42495956  0.47697792  1
