# generated using pymatgen
data_Mg6TiZn
_symmetry_space_group_name_H-M   'P 1'
_cell_length_a   6.25893569
_cell_length_b   6.25893521
_cell_length_c   4.88910001
_cell_angle_alpha   90.00000000
_cell_angle_beta   90.00000000
_cell_angle_gamma   120.08497514
_symmetry_Int_Tables_number   1
_chemical_formula_structural   Mg6TiZn
_chemical_formula_sum   'Mg6 Ti1 Zn1'
_cell_volume   165.72498532
_cell_formula_units_Z   1
loop_
 _symmetry_equiv_pos_site_id
 _symmetry_equiv_pos_as_xyz
  1  'x, y, z'
loop_
 _atom_site_type_symbol
 _atom_site_label
 _atom_site_symmetry_multiplicity
 _atom_site_fract_x
 _atom_site_fract_y
 _atom_site_fract_z
 _atom_site_occupancy
  Mg  Mg0  1  0.17042980  0.84396058  0.25000000  1
  Mg  Mg1  1  0.65603942  0.32957020  0.25000000  1
  Mg  Mg2  1  0.66719573  0.83280427  0.25000000  1
  Mg  Mg3  1  0.32531771  0.65960934  0.75000000  1
  Mg  Mg4  1  0.84039066  0.17468229  0.75000000  1
  Mg  Mg5  1  0.83422843  0.66577157  0.75000000  1
  Ti  Ti6  1  0.32596315  0.17403685  0.75000000  1
  Zn  Zn7  1  0.18043511  0.31956489  0.25000000  1
