# generated using pymatgen
data_Li3Cu4SnO8
_symmetry_space_group_name_H-M   'P 1'
_cell_length_a   6.29657994
_cell_length_b   6.29658013
_cell_length_c   6.24745256
_cell_angle_alpha   82.03560873
_cell_angle_beta   55.35758623
_cell_angle_gamma   55.00822435
_symmetry_Int_Tables_number   1
_chemical_formula_structural   Li3Cu4SnO8
_chemical_formula_sum   'Li3 Cu4 Sn1 O8'
_cell_volume   160.35911828
_cell_formula_units_Z   1
loop_
 _symmetry_equiv_pos_site_id
 _symmetry_equiv_pos_as_xyz
  1  'x, y, z'
loop_
 _atom_site_type_symbol
 _atom_site_label
 _atom_site_symmetry_multiplicity
 _atom_site_fract_x
 _atom_site_fract_y
 _atom_site_fract_z
 _atom_site_occupancy
  Li  Li0  1  0.00000000  0.00000000  0.50000000  1
  Li  Li1  1  0.50000000  0.00000000  0.50000000  1
  Li  Li2  1  0.50000000  0.50000000  0.50000000  1
  Cu  Cu3  1  0.00000000  0.50000000  0.50000000  1
  Cu  Cu4  1  0.00000000  0.00000000  0.00000000  1
  Cu  Cu5  1  0.50000000  0.00000000  0.00000000  1
  Cu  Cu6  1  0.00000000  0.50000000  0.00000000  1
  Sn  Sn7  1  0.50000000  0.50000000  0.00000000  1
  O  O8  1  0.46965139  0.27417581  0.80452442  1
  O  O9  1  0.99942623  0.24121962  0.70917383  1
  O  O10  1  0.53204579  0.70860005  0.70917383  1
  O  O11  1  0.96290409  0.79558141  0.83267733  1
  O  O12  1  0.03709491  0.20441859  0.16732267  1
  O  O13  1  0.46795421  0.29139995  0.29082617  1
  O  O14  1  0.00057377  0.75878038  0.29082617  1
  O  O15  1  0.53034861  0.72582419  0.19547558  1
