# generated using pymatgen
data_CeZr6O14
_symmetry_space_group_name_H-M   'P 1'
_cell_length_a   3.68250437
_cell_length_b   25.72219683
_cell_length_c   5.29756432
_cell_angle_alpha   90.00000000
_cell_angle_beta   90.00000000
_cell_angle_gamma   90.00000000
_symmetry_Int_Tables_number   1
_chemical_formula_structural   CeZr6O14
_chemical_formula_sum   'Ce2 Zr12 O28'
_cell_volume   501.79642910
_cell_formula_units_Z   2
loop_
 _symmetry_equiv_pos_site_id
 _symmetry_equiv_pos_as_xyz
  1  'x, y, z'
loop_
 _atom_site_type_symbol
 _atom_site_label
 _atom_site_symmetry_multiplicity
 _atom_site_fract_x
 _atom_site_fract_y
 _atom_site_fract_z
 _atom_site_occupancy
  Ce  Ce0  1  0.50000000  0.92933688  0.50105196  1
  Ce  Ce1  1  0.50000000  0.64209112  0.50105196  1
  Zr  Zr2  1  0.00000000  0.00283797  0.00028770  1
  Zr  Zr3  1  0.00000000  0.14412594  0.99917566  1
  Zr  Zr4  1  0.00000000  0.28571400  0.99946846  1
  Zr  Zr5  1  0.00000000  0.42730306  0.99917566  1
  Zr  Zr6  1  0.00000000  0.56859103  0.00028770  1
  Zr  Zr7  1  0.00000000  0.71554651  0.99994459  1
  Zr  Zr8  1  0.00000000  0.85588149  0.99994459  1
  Zr  Zr9  1  0.50000000  0.21496321  0.50054571  1
  Zr  Zr10  1  0.50000000  0.49785555  0.50003616  1
  Zr  Zr11  1  0.50000000  0.78571400  0.49982112  1
  Zr  Zr12  1  0.50000000  0.07357345  0.50003616  1
  Zr  Zr13  1  0.50000000  0.35646579  0.50054571  1
  O  O14  1  0.00000000  0.21494766  0.19805718  1
  O  O15  1  0.00000000  0.07394117  0.20145622  1
  O  O16  1  0.00000000  0.07244179  0.69943576  1
  O  O17  1  0.00000000  0.35648034  0.19805718  1
  O  O18  1  0.00000000  0.35683408  0.69756006  1
  O  O19  1  0.00000000  0.49748783  0.20145622  1
  O  O20  1  0.00000000  0.49898621  0.69943576  1
  O  O21  1  0.00000000  0.64207165  0.20952325  1
  O  O22  1  0.00000000  0.64245432  0.73768990  1
  O  O23  1  0.00000000  0.78571400  0.20600021  1
  O  O24  1  0.00000000  0.21459392  0.69756006  1
  O  O25  1  0.00000000  0.78571400  0.70216765  1
  O  O26  1  0.00000000  0.92935735  0.20952325  1
  O  O27  1  0.00000000  0.92897368  0.73768990  1
  O  O28  1  0.50000000  0.71671148  0.27970958  1
  O  O29  1  0.50000000  0.71783775  0.79229087  1
  O  O30  1  0.50000000  0.85471652  0.27970958  1
  O  O31  1  0.50000000  0.00454090  0.28160912  1
  O  O32  1  0.50000000  0.00433243  0.79392913  1
  O  O33  1  0.50000000  0.14449280  0.30053846  1
  O  O34  1  0.50000000  0.14331554  0.80120075  1
  O  O35  1  0.50000000  0.28571400  0.30178021  1
  O  O36  1  0.50000000  0.28571400  0.80268022  1
  O  O37  1  0.50000000  0.42693520  0.30053846  1
  O  O38  1  0.50000000  0.42811346  0.80120075  1
  O  O39  1  0.50000000  0.56688810  0.28160912  1
  O  O40  1  0.50000000  0.56709657  0.79392913  1
  O  O41  1  0.50000000  0.85359025  0.79229087  1
