# generated using pymatgen
data_LaNb3O9
_symmetry_space_group_name_H-M   'P 1'
_cell_length_a   8.90045416
_cell_length_b   5.62343410
_cell_length_c   8.96857881
_cell_angle_alpha   71.76466354
_cell_angle_beta   66.65109570
_cell_angle_gamma   71.65192817
_symmetry_Int_Tables_number   1
_chemical_formula_structural   LaNb3O9
_chemical_formula_sum   'La2 Nb6 O18'
_cell_volume   381.94795572
_cell_formula_units_Z   2
loop_
 _symmetry_equiv_pos_site_id
 _symmetry_equiv_pos_as_xyz
  1  'x, y, z'
loop_
 _atom_site_type_symbol
 _atom_site_label
 _atom_site_symmetry_multiplicity
 _atom_site_fract_x
 _atom_site_fract_y
 _atom_site_fract_z
 _atom_site_occupancy
  La  La0  1  0.34097143  0.32644112  0.99886827  1
  La  La1  1  0.66268407  0.66219767  0.99814246  1
  Nb  Nb2  1  0.08186958  0.58162262  0.74741411  1
  Nb  Nb3  1  0.24255710  0.74123521  0.26419252  1
  Nb  Nb4  1  0.59275728  0.06845538  0.25715967  1
  Nb  Nb5  1  0.40997066  0.92196241  0.73945748  1
  Nb  Nb6  1  0.76071461  0.24931573  0.73219875  1
  Nb  Nb7  1  0.92260896  0.40781560  0.24821088  1
  O  O8  1  0.00027475  0.50044180  0.99957241  1
  O  O9  1  0.09602077  0.09486951  0.22971906  1
  O  O10  1  0.09420423  0.57844522  0.23363085  1
  O  O11  1  0.64818397  0.17834826  0.00136662  1
  O  O12  1  0.34815169  0.82819460  0.99796597  1
  O  O13  1  0.49782806  0.00335221  0.49910752  1
  O  O14  1  0.16637701  0.66791257  0.50241280  1
  O  O15  1  0.42266126  0.42920119  0.22364080  1
  O  O16  1  0.25162673  0.25133441  0.76657333  1
  O  O17  1  0.74630766  0.27093566  0.23245476  1
  O  O18  1  0.25139568  0.73103343  0.76564657  1
  O  O19  1  0.42108452  0.92926161  0.22525135  1
  O  O20  1  0.57530186  0.07581245  0.77492560  1
  O  O21  1  0.83262760  0.33583837  0.49660130  1
  O  O22  1  0.57538011  0.57407642  0.77449780  1
  O  O23  1  0.74663146  0.74919787  0.22984202  1
  O  O24  1  0.90260029  0.42088262  0.76902975  1
  O  O25  1  0.90083368  0.90352906  0.76858835  1
