# generated using pymatgen
data_Li5SbS4
_symmetry_space_group_name_H-M   'P 1'
_cell_length_a   7.30966112
_cell_length_b   7.30966112
_cell_length_c   7.92020926
_cell_angle_alpha   90.00000000
_cell_angle_beta   90.00000000
_cell_angle_gamma   62.53586819
_symmetry_Int_Tables_number   1
_chemical_formula_structural   Li5SbS4
_chemical_formula_sum   'Li10 Sb2 S8'
_cell_volume   375.49269170
_cell_formula_units_Z   2
loop_
 _symmetry_equiv_pos_site_id
 _symmetry_equiv_pos_as_xyz
  1  'x, y, z'
loop_
 _atom_site_type_symbol
 _atom_site_label
 _atom_site_symmetry_multiplicity
 _atom_site_fract_x
 _atom_site_fract_y
 _atom_site_fract_z
 _atom_site_occupancy
  Li  Li0  1  0.24337615  0.87929378  0.30703260  1
  Li  Li1  1  0.12070622  0.75662385  0.80703260  1
  Li  Li2  1  0.41481529  0.84367235  0.01669808  1
  Li  Li3  1  0.15632765  0.58518471  0.51669808  1
  Li  Li4  1  0.14116962  0.14116962  0.69802472  1
  Li  Li5  1  0.85883038  0.85883038  0.19802472  1
  Li  Li6  1  0.58518471  0.15632765  0.51669808  1
  Li  Li7  1  0.84367235  0.41481529  0.01669808  1
  Li  Li8  1  0.75662385  0.12070622  0.80703260  1
  Li  Li9  1  0.87929378  0.24337615  0.30703260  1
  Sb  Sb10  1  0.33396613  0.33396613  0.09483174  1
  Sb  Sb11  1  0.66603387  0.66603387  0.59483174  1
  S  S12  1  0.50333980  0.98411693  0.76648057  1
  S  S13  1  0.01588307  0.49666020  0.26648057  1
  S  S14  1  0.02166312  0.02166312  0.02993737  1
  S  S15  1  0.97833688  0.97833688  0.52993737  1
  S  S16  1  0.48103995  0.48103995  0.71248468  1
  S  S17  1  0.51896005  0.51896005  0.21248468  1
  S  S18  1  0.49666020  0.01588307  0.26648057  1
  S  S19  1  0.98411693  0.50333980  0.76648057  1
