# generated using pymatgen
data_LiSnPO4
_symmetry_space_group_name_H-M   'P 1'
_cell_length_a   25.14235366
_cell_length_b   5.39672005
_cell_length_c   8.68467713
_cell_angle_alpha   90.00000000
_cell_angle_beta   90.00000000
_cell_angle_gamma   90.00000000
_symmetry_Int_Tables_number   1
_chemical_formula_structural   LiSnPO4
_chemical_formula_sum   'Li12 Sn12 P12 O48'
_cell_volume   1178.39122100
_cell_formula_units_Z   12
loop_
 _symmetry_equiv_pos_site_id
 _symmetry_equiv_pos_as_xyz
  1  'x, y, z'
loop_
 _atom_site_type_symbol
 _atom_site_label
 _atom_site_symmetry_multiplicity
 _atom_site_fract_x
 _atom_site_fract_y
 _atom_site_fract_z
 _atom_site_occupancy
  Li  Li0  1  0.09046707  0.24168285  0.07076686  1
  Li  Li1  1  0.07372058  0.72471620  0.58216128  1
  Li  Li2  1  0.25946586  0.23476568  0.41703910  1
  Li  Li3  1  0.24053414  0.73476568  0.91703910  1
  Li  Li4  1  0.42627942  0.22471620  0.08216128  1
  Li  Li5  1  0.40953293  0.74168285  0.57076686  1
  Li  Li6  1  0.59046707  0.24168285  0.42923314  1
  Li  Li7  1  0.57372058  0.72471620  0.91783872  1
  Li  Li8  1  0.75946586  0.23476568  0.08296090  1
  Li  Li9  1  0.74053414  0.73476568  0.58296090  1
  Li  Li10  1  0.92627942  0.22471620  0.41783872  1
  Li  Li11  1  0.90953293  0.74168285  0.92923314  1
  Sn  Sn12  1  0.98214061  0.24132804  0.74208938  1
  Sn  Sn13  1  0.18387401  0.71678446  0.24308012  1
  Sn  Sn14  1  0.14928410  0.25725324  0.75059970  1
  Sn  Sn15  1  0.35071590  0.75725324  0.25059970  1
  Sn  Sn16  1  0.31612599  0.21678446  0.74308012  1
  Sn  Sn17  1  0.51785939  0.74132804  0.24208938  1
  Sn  Sn18  1  0.48214061  0.24132804  0.75791062  1
  Sn  Sn19  1  0.68387401  0.71678446  0.25691988  1
  Sn  Sn20  1  0.64928410  0.25725324  0.74940030  1
  Sn  Sn21  1  0.85071590  0.75725324  0.24940030  1
  Sn  Sn22  1  0.81612599  0.21678446  0.75691988  1
  Sn  Sn23  1  0.01785939  0.74132804  0.25791062  1
  P  P24  1  0.06162263  0.22472488  0.41799320  1
  P  P25  1  0.10420859  0.75508203  0.91591384  1
  P  P26  1  0.22668703  0.22747672  0.07639749  1
  P  P27  1  0.27331297  0.72747672  0.57639749  1
  P  P28  1  0.39579141  0.25508203  0.41591384  1
  P  P29  1  0.43837737  0.72472488  0.91799320  1
  P  P30  1  0.56162263  0.22472488  0.08200680  1
  P  P31  1  0.60420859  0.75508203  0.58408616  1
  P  P32  1  0.72668703  0.22747672  0.42360251  1
  P  P33  1  0.77331297  0.72747672  0.92360251  1
  P  P34  1  0.89579141  0.25508203  0.08408616  1
  P  P35  1  0.93837737  0.72472488  0.58200680  1
  O  O36  1  0.00232157  0.19637596  0.45961411  1
  O  O37  1  0.07017413  0.87821396  0.04298768  1
  O  O38  1  0.09803589  0.91426803  0.76384025  1
  O  O39  1  0.08403401  0.48566643  0.88127243  1
  O  O40  1  0.06582757  0.38089034  0.26545441  1
  O  O41  1  0.08471960  0.95731884  0.39047063  1
  O  O42  1  0.09394093  0.36280772  0.54374176  1
  O  O43  1  0.16388411  0.74815857  0.95724515  1
  O  O44  1  0.16745441  0.24199322  0.03220821  1
  O  O45  1  0.23929473  0.59630768  0.45155617  1
  O  O46  1  0.25143376  0.99526857  0.60699088  1
  O  O47  1  0.26895439  0.57275657  0.73050936  1
  O  O48  1  0.23104561  0.07275657  0.23050936  1
  O  O49  1  0.24856624  0.49526857  0.10699088  1
  O  O50  1  0.26070527  0.09630768  0.95155617  1
  O  O51  1  0.33254559  0.74199322  0.53220821  1
  O  O52  1  0.33611589  0.24815857  0.45724515  1
  O  O53  1  0.40605907  0.86280772  0.04374176  1
  O  O54  1  0.41528040  0.45731884  0.89047063  1
  O  O55  1  0.43417243  0.88089034  0.76545441  1
  O  O56  1  0.41596599  0.98566643  0.38127243  1
  O  O57  1  0.40196411  0.41426803  0.26384025  1
  O  O58  1  0.42982587  0.37821396  0.54298768  1
  O  O59  1  0.49767843  0.69637596  0.95961411  1
  O  O60  1  0.50232157  0.19637596  0.04038589  1
  O  O61  1  0.57017413  0.87821396  0.45701232  1
  O  O62  1  0.59803589  0.91426803  0.73615975  1
  O  O63  1  0.58403401  0.48566643  0.61872757  1
  O  O64  1  0.56582757  0.38089034  0.23454559  1
  O  O65  1  0.58471960  0.95731884  0.10952937  1
  O  O66  1  0.59394093  0.36280772  0.95625824  1
  O  O67  1  0.66388411  0.74815857  0.54275485  1
  O  O68  1  0.66745441  0.24199322  0.46779179  1
  O  O69  1  0.73929473  0.59630768  0.04844383  1
  O  O70  1  0.75143376  0.99526857  0.89300912  1
  O  O71  1  0.76895439  0.57275657  0.76949064  1
  O  O72  1  0.73104561  0.07275657  0.26949064  1
  O  O73  1  0.74856624  0.49526857  0.39300912  1
  O  O74  1  0.76070527  0.09630768  0.54844383  1
  O  O75  1  0.83254559  0.74199322  0.96779179  1
  O  O76  1  0.83611589  0.24815857  0.04275485  1
  O  O77  1  0.90605907  0.86280772  0.45625824  1
  O  O78  1  0.91528040  0.45731884  0.60952937  1
  O  O79  1  0.93417243  0.88089034  0.73454559  1
  O  O80  1  0.91596599  0.98566643  0.11872757  1
  O  O81  1  0.90196411  0.41426803  0.23615975  1
  O  O82  1  0.92982587  0.37821396  0.95701232  1
  O  O83  1  0.99767843  0.69637596  0.54038589  1
