# generated using pymatgen
data_H6C2N4O
_symmetry_space_group_name_H-M   'P 1'
_cell_length_a   3.93840299
_cell_length_b   11.31905384
_cell_length_c   11.09859306
_cell_angle_alpha   90.00000000
_cell_angle_beta   92.46663523
_cell_angle_gamma   90.00000000
_symmetry_Int_Tables_number   1
_chemical_formula_structural   H6C2N4O
_chemical_formula_sum   'H24 C8 N16 O4'
_cell_volume   494.30570750
_cell_formula_units_Z   4
loop_
 _symmetry_equiv_pos_site_id
 _symmetry_equiv_pos_as_xyz
  1  'x, y, z'
loop_
 _atom_site_type_symbol
 _atom_site_label
 _atom_site_symmetry_multiplicity
 _atom_site_fract_x
 _atom_site_fract_y
 _atom_site_fract_z
 _atom_site_occupancy
  H  H0  1  0.18569889  0.37871029  0.80114434  1
  H  H1  1  0.23398314  0.50127136  0.89246039  1
  H  H2  1  0.25777565  0.92926720  0.91070049  1
  H  H3  1  0.18569889  0.12128971  0.30114434  1
  H  H4  1  0.23398314  0.99872864  0.39246039  1
  H  H5  1  0.25777565  0.57073280  0.41070049  1
  H  H6  1  0.38815845  0.64620124  0.54258891  1
  H  H7  1  0.50871961  0.38592878  0.91130654  1
  H  H8  1  0.38815845  0.85379876  0.04258891  1
  H  H9  1  0.51269872  0.47495556  0.78703602  1
  H  H10  1  0.48730128  0.97495556  0.71296398  1
  H  H11  1  0.50871961  0.11407122  0.41130654  1
  H  H12  1  0.49128039  0.88592878  0.58869346  1
  H  H13  1  0.51269872  0.02504444  0.28703602  1
  H  H14  1  0.48730128  0.52504444  0.21296398  1
  H  H15  1  0.61184155  0.14620124  0.95741109  1
  H  H16  1  0.49128039  0.61407122  0.08869346  1
  H  H17  1  0.61184155  0.35379876  0.45741109  1
  H  H18  1  0.74222435  0.42926720  0.58929951  1
  H  H19  1  0.76601686  0.00127136  0.60753961  1
  H  H20  1  0.81430111  0.87871029  0.69885566  1
  H  H21  1  0.74222435  0.07073280  0.08929951  1
  H  H22  1  0.76601686  0.49872864  0.10753961  1
  H  H23  1  0.81430111  0.62128971  0.19885566  1
  C  C24  1  0.08894574  0.16236679  0.75568906  1
  C  C25  1  0.08894574  0.33763321  0.25568906  1
  C  C26  1  0.17509288  0.74931164  0.90886702  1
  C  C27  1  0.17509288  0.75068836  0.40886702  1
  C  C28  1  0.82490712  0.24931164  0.59113298  1
  C  C29  1  0.82490712  0.25068836  0.09113298  1
  C  C30  1  0.91105426  0.66236679  0.74431094  1
  C  C31  1  0.91105426  0.83763321  0.24431094  1
  N  N32  1  0.04078454  0.75718694  0.79212000  1
  N  N33  1  0.04078454  0.74281306  0.29212000  1
  N  N34  1  0.21699239  0.08011810  0.80659600  1
  N  N35  1  0.29468823  0.85141807  0.95591931  1
  N  N36  1  0.21699239  0.41988190  0.30659600  1
  N  N37  1  0.29468823  0.64858193  0.45591931  1
  N  N38  1  0.35801462  0.43382214  0.84834129  1
  N  N39  1  0.35801462  0.06617786  0.34834129  1
  N  N40  1  0.64198538  0.93382214  0.65165871  1
  N  N41  1  0.64198538  0.56617786  0.15165871  1
  N  N42  1  0.70531177  0.35141807  0.54408069  1
  N  N43  1  0.78300761  0.58011810  0.69340400  1
  N  N44  1  0.70531177  0.14858193  0.04408069  1
  N  N45  1  0.78300761  0.91988190  0.19340400  1
  N  N46  1  0.95921546  0.25718694  0.70788000  1
  N  N47  1  0.95921546  0.24281306  0.20788000  1
  O  O48  1  0.18998627  0.65301771  0.96836351  1
  O  O49  1  0.18998627  0.84698229  0.46836351  1
  O  O50  1  0.81001373  0.15301771  0.53163649  1
  O  O51  1  0.81001373  0.34698229  0.03163649  1
