# generated using pymatgen
data_LiSi2(BiO3)3
_symmetry_space_group_name_H-M   'P 1'
_cell_length_a   7.64721890
_cell_length_b   10.72627070
_cell_length_c   10.72527424
_cell_angle_alpha   90.00000000
_cell_angle_beta   89.56271944
_cell_angle_gamma   90.00000000
_symmetry_Int_Tables_number   1
_chemical_formula_structural   LiSi2(BiO3)3
_chemical_formula_sum   'Li4 Si8 Bi12 O36'
_cell_volume   879.72722504
_cell_formula_units_Z   4
loop_
 _symmetry_equiv_pos_site_id
 _symmetry_equiv_pos_as_xyz
  1  'x, y, z'
loop_
 _atom_site_type_symbol
 _atom_site_label
 _atom_site_symmetry_multiplicity
 _atom_site_fract_x
 _atom_site_fract_y
 _atom_site_fract_z
 _atom_site_occupancy
  Li  Li0  1  0.12597705  0.46027866  0.64567898  1
  Li  Li1  1  0.12597705  0.03972134  0.14567898  1
  Li  Li2  1  0.87402295  0.96027866  0.85432102  1
  Li  Li3  1  0.87402295  0.53972134  0.35432102  1
  Si  Si4  1  0.17517546  0.12775240  0.69569980  1
  Si  Si5  1  0.17517546  0.37224760  0.19569980  1
  Si  Si6  1  0.39546451  0.62780823  0.81044251  1
  Si  Si7  1  0.39546451  0.87219177  0.31044251  1
  Si  Si8  1  0.60453549  0.12780823  0.68955749  1
  Si  Si9  1  0.60453549  0.37219177  0.18955749  1
  Si  Si10  1  0.82482454  0.62775240  0.80430020  1
  Si  Si11  1  0.82482454  0.87224760  0.30430020  1
  Bi  Bi12  1  0.11864781  0.80235126  0.59072038  1
  Bi  Bi13  1  0.11864781  0.69764874  0.09072038  1
  Bi  Bi14  1  0.33524490  0.93588602  0.89787540  1
  Bi  Bi15  1  0.36561714  0.29943426  0.90930148  1
  Bi  Bi16  1  0.33524490  0.56411398  0.39787540  1
  Bi  Bi17  1  0.36561714  0.20056574  0.40930148  1
  Bi  Bi18  1  0.63438286  0.79943426  0.59069852  1
  Bi  Bi19  1  0.66475510  0.43588602  0.60212460  1
  Bi  Bi20  1  0.63438286  0.70056574  0.09069852  1
  Bi  Bi21  1  0.66475510  0.06411398  0.10212460  1
  Bi  Bi22  1  0.88135219  0.30235126  0.90927962  1
  Bi  Bi23  1  0.88135219  0.19764874  0.40927962  1
  O  O24  1  0.11060015  0.99675028  0.75940567  1
  O  O25  1  0.11060015  0.50324972  0.25940567  1
  O  O26  1  0.12316762  0.61565670  0.51996564  1
  O  O27  1  0.10474988  0.25126079  0.77199971  1
  O  O28  1  0.12316762  0.88434330  0.01996564  1
  O  O29  1  0.10474988  0.24873921  0.27199971  1
  O  O30  1  0.14979211  0.13495167  0.54409611  1
  O  O31  1  0.14979211  0.36504833  0.04409611  1
  O  O32  1  0.31361105  0.49580802  0.77370721  1
  O  O33  1  0.31361105  0.00419198  0.27370721  1
  O  O34  1  0.35769660  0.38646344  0.49792730  1
  O  O35  1  0.32875647  0.74870888  0.72667357  1
  O  O36  1  0.35769660  0.11353656  0.99792730  1
  O  O37  1  0.32875647  0.75129112  0.22667357  1
  O  O38  1  0.38473708  0.66502324  0.96019292  1
  O  O39  1  0.38950908  0.13073032  0.72371623  1
  O  O40  1  0.38473708  0.83497676  0.46019292  1
  O  O41  1  0.38950908  0.36926968  0.22371623  1
  O  O42  1  0.61049092  0.63073032  0.77628377  1
  O  O43  1  0.61526292  0.16502324  0.53980708  1
  O  O44  1  0.61049092  0.86926968  0.27628377  1
  O  O45  1  0.61526292  0.33497676  0.03980708  1
  O  O46  1  0.67124353  0.24870888  0.77332643  1
  O  O47  1  0.64230340  0.88646344  0.00207270  1
  O  O48  1  0.67124353  0.25129112  0.27332643  1
  O  O49  1  0.64230340  0.61353656  0.50207270  1
  O  O50  1  0.68638895  0.99580802  0.72629279  1
  O  O51  1  0.68638895  0.50419198  0.22629279  1
  O  O52  1  0.85020789  0.63495167  0.95590389  1
  O  O53  1  0.85020789  0.86504833  0.45590389  1
  O  O54  1  0.89525012  0.75126079  0.72800029  1
  O  O55  1  0.87683238  0.11565670  0.98003436  1
  O  O56  1  0.89525012  0.74873921  0.22800029  1
  O  O57  1  0.87683238  0.38434330  0.48003436  1
  O  O58  1  0.88939985  0.49675028  0.74059433  1
  O  O59  1  0.88939985  0.00324972  0.24059433  1
