# generated using pymatgen
data_Sb(PO3)4
_symmetry_space_group_name_H-M   'P 1'
_cell_length_a   7.48643514
_cell_length_b   7.48387329
_cell_length_c   10.14510812
_cell_angle_alpha   82.25091092
_cell_angle_beta   69.65759811
_cell_angle_gamma   110.23451585
_symmetry_Int_Tables_number   1
_chemical_formula_structural   Sb(PO3)4
_chemical_formula_sum   'Sb2 P8 O24'
_cell_volume   478.58531560
_cell_formula_units_Z   2
loop_
 _symmetry_equiv_pos_site_id
 _symmetry_equiv_pos_as_xyz
  1  'x, y, z'
loop_
 _atom_site_type_symbol
 _atom_site_label
 _atom_site_symmetry_multiplicity
 _atom_site_fract_x
 _atom_site_fract_y
 _atom_site_fract_z
 _atom_site_occupancy
  Sb  Sb0  1  0.00000000  0.50000000  0.00000000  1
  Sb  Sb1  1  0.00000000  0.00000000  0.50000000  1
  P  P2  1  0.99805477  0.32347171  0.68972762  1
  P  P3  1  0.27233998  0.72824602  0.47248185  1
  P  P4  1  0.70075940  0.74502796  0.02757176  1
  P  P5  1  0.48717409  0.31228527  0.18950904  1
  P  P6  1  0.51282591  0.68771473  0.81049096  1
  P  P7  1  0.29924060  0.25497204  0.97242824  1
  P  P8  1  0.72766002  0.27175398  0.52751815  1
  P  P9  1  0.00194523  0.67652829  0.31027238  1
  O  O10  1  0.04420592  0.66228850  0.15588482  1
  O  O11  1  0.13342189  0.31808849  0.06920367  1
  O  O12  1  0.19202787  0.67049628  0.34430717  1
  O  O13  1  0.11314176  0.79726705  0.56922325  1
  O  O14  1  0.20653350  0.50535526  0.57089819  1
  O  O15  1  0.02787628  0.13568463  0.66836070  1
  O  O16  1  0.49998199  0.84184221  0.40934300  1
  O  O17  1  0.31870632  0.20037499  0.34370562  1
  O  O18  1  0.42398225  0.22264569  0.07076760  1
  O  O19  1  0.30338531  0.69608156  0.83208552  1
  O  O20  1  0.51477135  0.53630869  0.15554772  1
  O  O21  1  0.75114258  0.90910780  0.09053568  1
  O  O22  1  0.24885742  0.09089220  0.90946432  1
  O  O23  1  0.48522865  0.46369131  0.84445228  1
  O  O24  1  0.69661469  0.30391844  0.16791448  1
  O  O25  1  0.57601775  0.77735431  0.92923240  1
  O  O26  1  0.68129368  0.79962501  0.65629438  1
  O  O27  1  0.50001801  0.15815779  0.59065700  1
  O  O28  1  0.97212372  0.86431537  0.33163930  1
  O  O29  1  0.79346650  0.49464474  0.42910181  1
  O  O30  1  0.88685824  0.20273295  0.43077675  1
  O  O31  1  0.80797213  0.32950372  0.65569283  1
  O  O32  1  0.86657811  0.68191151  0.93079633  1
  O  O33  1  0.95579408  0.33771150  0.84411518  1
