# generated using pymatgen
data_LiSn(PO3)4
_symmetry_space_group_name_H-M   'P 1'
_cell_length_a   7.44683403
_cell_length_b   7.46469343
_cell_length_c   10.06274449
_cell_angle_alpha   80.65990121
_cell_angle_beta   70.43645715
_cell_angle_gamma   109.19009366
_symmetry_Int_Tables_number   1
_chemical_formula_structural   LiSn(PO3)4
_chemical_formula_sum   'Li2 Sn2 P8 O24'
_cell_volume   473.90400810
_cell_formula_units_Z   2
loop_
 _symmetry_equiv_pos_site_id
 _symmetry_equiv_pos_as_xyz
  1  'x, y, z'
loop_
 _atom_site_type_symbol
 _atom_site_label
 _atom_site_symmetry_multiplicity
 _atom_site_fract_x
 _atom_site_fract_y
 _atom_site_fract_z
 _atom_site_occupancy
  Li  Li0  1  0.99630247  0.49664204  0.00159554  1
  Li  Li1  1  0.00557561  0.00237617  0.49832237  1
  Sn  Sn2  1  0.20171925  0.95085248  0.74988198  1
  Sn  Sn3  1  0.79892025  0.04800839  0.25092541  1
  P  P4  1  0.99700621  0.68767293  0.30171458  1
  P  P5  1  0.25648115  0.71834432  0.47830305  1
  P  P6  1  0.69822413  0.73450204  0.02197058  1
  P  P7  1  0.51124081  0.70279298  0.80265596  1
  P  P8  1  0.48993124  0.29802799  0.19752282  1
  P  P9  1  0.30386569  0.26623296  0.97787582  1
  P  P10  1  0.74373884  0.28194291  0.51964716  1
  P  P11  1  0.00289017  0.31223796  0.69747629  1
  O  O12  1  0.03611103  0.65139933  0.15752828  1
  O  O13  1  0.12515707  0.80396536  0.57644708  1
  O  O14  1  0.18787553  0.68812770  0.34584451  1
  O  O15  1  0.48990587  0.82608591  0.41464049  1
  O  O16  1  0.30111964  0.71268355  0.82663398  1
  O  O17  1  0.20469073  0.49613899  0.56456719  1
  O  O18  1  0.11907477  0.29654609  0.07789278  1
  O  O19  1  0.74515155  0.90304842  0.08598516  1
  O  O20  1  0.56035707  0.77003744  0.93696547  1
  O  O21  1  0.69189317  0.80783679  0.65856341  1
  O  O22  1  0.53616784  0.53295279  0.15401117  1
  O  O23  1  0.04178616  0.12923063  0.67232889  1
  O  O24  1  0.96289597  0.87309678  0.32581214  1
  O  O25  1  0.46549007  0.46836154  0.84689830  1
  O  O26  1  0.30888555  0.19200739  0.34133587  1
  O  O27  1  0.44214565  0.23181616  0.06280453  1
  O  O28  1  0.26130012  0.09970972  0.91142258  1
  O  O29  1  0.88168272  0.70174334  0.92256325  1
  O  O30  1  0.79460152  0.50539662  0.43601943  1
  O  O31  1  0.69890022  0.28639231  0.17440222  1
  O  O32  1  0.51063050  0.17174260  0.58293758  1
  O  O33  1  0.81238937  0.30942382  0.65226095  1
  O  O34  1  0.87675184  0.19926073  0.41955561  1
  O  O35  1  0.96047525  0.34738882  0.84222554  1
