# generated using pymatgen
data_SbNO
_symmetry_space_group_name_H-M   'P 1'
_cell_length_a   4.19408160
_cell_length_b   9.52451524
_cell_length_c   3.34361497
_cell_angle_alpha   67.29200802
_cell_angle_beta   90.00000000
_cell_angle_gamma   77.28080749
_symmetry_Int_Tables_number   1
_chemical_formula_structural   SbNO
_chemical_formula_sum   'Sb2 N2 O2'
_cell_volume   119.65168664
_cell_formula_units_Z   2
loop_
 _symmetry_equiv_pos_site_id
 _symmetry_equiv_pos_as_xyz
  1  'x, y, z'
loop_
 _atom_site_type_symbol
 _atom_site_label
 _atom_site_symmetry_multiplicity
 _atom_site_fract_x
 _atom_site_fract_y
 _atom_site_fract_z
 _atom_site_occupancy
  Sb  Sb0  1  0.17180878  0.65638244  0.32598013  1
  Sb  Sb1  1  0.82819122  0.34361756  0.67401987  1
  N  N2  1  0.53239985  0.93520030  0.54835717  1
  N  N3  1  0.46760015  0.06479970  0.45164283  1
  O  O4  1  0.29136015  0.41727870  0.62444057  1
  O  O5  1  0.70863985  0.58272130  0.37555943  1
