# generated using pymatgen
data_Li3Sb3(PO4)4
_symmetry_space_group_name_H-M   'P 1'
_cell_length_a   9.12173806
_cell_length_b   11.30885366
_cell_length_c   6.78703930
_cell_angle_alpha   90.00000000
_cell_angle_beta   104.94768161
_cell_angle_gamma   90.00000000
_symmetry_Int_Tables_number   1
_chemical_formula_structural   Li3Sb3(PO4)4
_chemical_formula_sum   'Li6 Sb6 P8 O32'
_cell_volume   676.43549543
_cell_formula_units_Z   2
loop_
 _symmetry_equiv_pos_site_id
 _symmetry_equiv_pos_as_xyz
  1  'x, y, z'
loop_
 _atom_site_type_symbol
 _atom_site_label
 _atom_site_symmetry_multiplicity
 _atom_site_fract_x
 _atom_site_fract_y
 _atom_site_fract_z
 _atom_site_occupancy
  Li  Li0  1  0.08439468  0.59601463  0.57482070  1
  Li  Li1  1  0.08032237  0.88953048  0.06952766  1
  Li  Li2  1  0.34815707  0.19945061  0.16756669  1
  Li  Li3  1  0.65184293  0.69945061  0.33243331  1
  Li  Li4  1  0.91560532  0.09601463  0.92517930  1
  Li  Li5  1  0.91967763  0.38953048  0.43047234  1
  Sb  Sb6  1  0.26158644  0.88674634  0.64007776  1
  Sb  Sb7  1  0.29159052  0.61230488  0.16753389  1
  Sb  Sb8  1  0.32543793  0.31827776  0.61489648  1
  Sb  Sb9  1  0.67456207  0.81827776  0.88510352  1
  Sb  Sb10  1  0.73841356  0.38674634  0.85992224  1
  Sb  Sb11  1  0.70840948  0.11230488  0.33246611  1
  P  P12  1  0.11449407  0.36865491  0.89356648  1
  P  P13  1  0.08266388  0.11676866  0.38497776  1
  P  P14  1  0.40567854  0.59683747  0.73042931  1
  P  P15  1  0.39005426  0.91534165  0.16649640  1
  P  P16  1  0.59432146  0.09683747  0.76957069  1
  P  P17  1  0.60994574  0.41534165  0.33350360  1
  P  P18  1  0.88550593  0.86865491  0.60643352  1
  P  P19  1  0.91733612  0.61676866  0.11502224  1
  O  O20  1  0.07893870  0.43462160  0.68866299  1
  O  O21  1  0.02807539  0.80653478  0.56664541  1
  O  O22  1  0.03547557  0.04417646  0.19154699  1
  O  O23  1  0.04780545  0.69338310  0.07357918  1
  O  O24  1  0.14827177  0.04100168  0.58393359  1
  O  O25  1  0.23560183  0.27080735  0.87962713  1
  O  O26  1  0.19061219  0.44864804  0.08238568  1
  O  O27  1  0.29617340  0.63935862  0.85949441  1
  O  O28  1  0.27035998  0.93305363  0.95423738  1
  O  O29  1  0.21853133  0.20146266  0.37399638  1
  O  O30  1  0.28966457  0.87482154  0.30868106  1
  O  O31  1  0.29693954  0.57876769  0.51644746  1
  O  O32  1  0.47718553  0.19603978  0.77580190  1
  O  O33  1  0.49001746  0.48111546  0.81359840  1
  O  O34  1  0.49269251  0.31839754  0.34848301  1
  O  O35  1  0.50998254  0.98111546  0.68640160  1
  O  O36  1  0.46647191  0.03788168  0.23381371  1
  O  O37  1  0.52281447  0.69603978  0.72419810  1
  O  O38  1  0.53352809  0.53788168  0.26618629  1
  O  O39  1  0.50730749  0.81839754  0.15151699  1
  O  O40  1  0.72964002  0.43305363  0.54576262  1
  O  O41  1  0.70382660  0.13935862  0.64050559  1
  O  O42  1  0.76439817  0.77080735  0.62037287  1
  O  O43  1  0.70306046  0.07876769  0.98355254  1
  O  O44  1  0.71033543  0.37482154  0.19131894  1
  O  O45  1  0.85172823  0.54100168  0.91606641  1
  O  O46  1  0.78146867  0.70146266  0.12600362  1
  O  O47  1  0.80938781  0.94864804  0.41761432  1
  O  O48  1  0.97192461  0.30653478  0.93335459  1
  O  O49  1  0.92106130  0.93462160  0.81133701  1
  O  O50  1  0.95219455  0.19338310  0.42642082  1
  O  O51  1  0.96452443  0.54417646  0.30845301  1
