# generated using pymatgen
data_Y6O5F8
_symmetry_space_group_name_H-M   'P 1'
_cell_length_a   5.52527159
_cell_length_b   9.18223166
_cell_length_c   5.51818127
_cell_angle_alpha   107.50201850
_cell_angle_beta   89.89461982
_cell_angle_gamma   90.03795442
_symmetry_Int_Tables_number   1
_chemical_formula_structural   Y6O5F8
_chemical_formula_sum   'Y6 O5 F8'
_cell_volume   267.00031774
_cell_formula_units_Z   1
loop_
 _symmetry_equiv_pos_site_id
 _symmetry_equiv_pos_as_xyz
  1  'x, y, z'
loop_
 _atom_site_type_symbol
 _atom_site_label
 _atom_site_symmetry_multiplicity
 _atom_site_fract_x
 _atom_site_fract_y
 _atom_site_fract_z
 _atom_site_occupancy
  Y  Y0  1  0.78844258  0.49265281  0.22916693  1
  Y  Y1  1  0.79806913  0.16815754  0.58289188  1
  Y  Y2  1  0.78719037  0.84350891  0.94161451  1
  Y  Y3  1  0.20177816  0.16823440  0.08524151  1
  Y  Y4  1  0.21287095  0.84356889  0.40176364  1
  Y  Y5  1  0.21178327  0.49254152  0.76328120  1
  O  O6  1  0.00001028  0.98873407  0.74421680  1
  O  O7  1  -0.00000451  0.00867778  0.25423957  1
  O  O8  1  0.99995011  0.32649528  0.91318556  1
  O  O9  1  0.99987011  0.34732755  0.42360947  1
  O  O10  1  0.00006619  0.66714710  0.08360043  1
  F  F11  1  0.50023429  0.09806267  0.79941923  1
  F  F12  1  0.50003171  0.67611030  0.08754914  1
  F  F13  1  0.50009907  0.96753114  0.23386750  1
  F  F14  1  0.49995232  0.81406804  0.65699583  1
  F  F15  1  0.49983541  0.38291788  0.94170456  1
  F  F16  1  0.49957497  0.25331942  0.37723553  1
  F  F17  1  0.50011721  0.53673637  0.51828825  1
  F  F18  1  0.00012838  0.66812233  0.58408550  1
