# generated using pymatgen
data_NbH14C4NO14
_symmetry_space_group_name_H-M   'P 1'
_cell_length_a   12.43819177
_cell_length_b   16.48530382
_cell_length_c   6.64356411
_cell_angle_alpha   90.00000000
_cell_angle_beta   92.70519750
_cell_angle_gamma   90.00000000
_symmetry_Int_Tables_number   1
_chemical_formula_structural   NbH14C4NO14
_chemical_formula_sum   'Nb4 H56 C16 N4 O56'
_cell_volume   1360.72726015
_cell_formula_units_Z   4
loop_
 _symmetry_equiv_pos_site_id
 _symmetry_equiv_pos_as_xyz
  1  'x, y, z'
loop_
 _atom_site_type_symbol
 _atom_site_label
 _atom_site_symmetry_multiplicity
 _atom_site_fract_x
 _atom_site_fract_y
 _atom_site_fract_z
 _atom_site_occupancy
  Nb  Nb0  1  0.20117199  0.11005538  0.21083362  1
  Nb  Nb1  1  0.29882801  0.61005538  0.28916638  1
  Nb  Nb2  1  0.70117199  0.38994462  0.71083362  1
  Nb  Nb3  1  0.79882801  0.88994462  0.78916638  1
  H  H4  1  0.02606012  0.84349447  0.39062903  1
  H  H5  1  0.05010227  0.08559867  0.68647016  1
  H  H6  1  0.07279374  0.51319273  0.77695986  1
  H  H7  1  0.07608883  0.39129544  0.27875588  1
  H  H8  1  0.10195926  0.59113681  0.90886706  1
  H  H9  1  0.13565378  0.31707304  0.69010902  1
  H  H10  1  0.12860243  0.95305433  0.30196028  1
  H  H11  1  0.14352277  0.32026419  0.19512919  1
  H  H12  1  0.17542756  0.00656403  0.86155344  1
  H  H13  1  0.20201014  0.23287834  0.61455367  1
  H  H14  1  0.21803526  0.26488930  0.85516033  1
  H  H15  1  0.22978583  0.82053230  0.83144101  1
  H  H16  1  0.22515926  0.56540921  0.68889500  1
  H  H17  1  0.23873810  0.44557854  0.21933352  1
  H  H18  1  0.27484074  0.06540921  0.81110500  1
  H  H19  1  0.27021417  0.32053230  0.66855899  1
  H  H20  1  0.26126190  0.94557854  0.28066648  1
  H  H21  1  0.28196474  0.76488930  0.64483967  1
  H  H22  1  0.29798986  0.73287834  0.88544633  1
  H  H23  1  0.32457244  0.50656403  0.63844656  1
  H  H24  1  0.36434622  0.81707304  0.80989098  1
  H  H25  1  0.35647723  0.82026419  0.30487081  1
  H  H26  1  0.37139757  0.45305433  0.19803972  1
  H  H27  1  0.39804074  0.09113681  0.59113294  1
  H  H28  1  0.42720626  0.01319273  0.72304014  1
  H  H29  1  0.42391117  0.89129544  0.22124412  1
  H  H30  1  0.44989773  0.58559867  0.81352984  1
  H  H31  1  0.47393988  0.34349447  0.10937097  1
  H  H32  1  0.52606012  0.65650553  0.89062903  1
  H  H33  1  0.55010227  0.41440133  0.18647016  1
  H  H34  1  0.57608883  0.10870456  0.77875588  1
  H  H35  1  0.57279374  0.98680727  0.27695986  1
  H  H36  1  0.60195926  0.90886319  0.40886706  1
  H  H37  1  0.62860243  0.54694567  0.80196028  1
  H  H38  1  0.64352277  0.17973581  0.69512919  1
  H  H39  1  0.63565378  0.18292696  0.19010902  1
  H  H40  1  0.67542756  0.49343597  0.36155344  1
  H  H41  1  0.70201014  0.26712166  0.11455367  1
  H  H42  1  0.71803526  0.23511070  0.35516033  1
  H  H43  1  0.73873810  0.05442146  0.71933352  1
  H  H44  1  0.72978583  0.67946770  0.33144101  1
  H  H45  1  0.72515926  0.93459079  0.18889500  1
  H  H46  1  0.76126190  0.55442146  0.78066648  1
  H  H47  1  0.77484074  0.43459079  0.31110500  1
  H  H48  1  0.77021417  0.17946770  0.16855899  1
  H  H49  1  0.78196474  0.73511070  0.14483967  1
  H  H50  1  0.79798986  0.76712166  0.38544633  1
  H  H51  1  0.82457244  0.99343597  0.13844656  1
  H  H52  1  0.85647723  0.67973581  0.80487081  1
  H  H53  1  0.87139757  0.04694567  0.69803972  1
  H  H54  1  0.86434622  0.68292696  0.30989098  1
  H  H55  1  0.89804074  0.40886319  0.09113294  1
  H  H56  1  0.92391117  0.60870456  0.72124412  1
  H  H57  1  0.92720626  0.48680727  0.22304014  1
  H  H58  1  0.94989773  0.91440133  0.31352984  1
  H  H59  1  0.97393988  0.15650553  0.60937097  1
  C  C60  1  0.00174109  0.79850010  0.92198256  1
  C  C61  1  0.03890339  0.88387445  0.86046282  1
  C  C62  1  0.05616238  0.60951854  0.31439087  1
  C  C63  1  0.09259913  0.69026297  0.41228751  1
  C  C64  1  0.40740087  0.19026297  0.08771249  1
  C  C65  1  0.44383762  0.10951854  0.18560913  1
  C  C66  1  0.46109661  0.38387445  0.63953718  1
  C  C67  1  0.49825891  0.29850010  0.57801744  1
  C  C68  1  0.50174109  0.70149990  0.42198256  1
  C  C69  1  0.53890339  0.61612555  0.36046282  1
  C  C70  1  0.55616238  0.89048146  0.81439087  1
  C  C71  1  0.59259913  0.80973703  0.91228751  1
  C  C72  1  0.90740087  0.30973703  0.58771249  1
  C  C73  1  0.94383762  0.39048146  0.68560913  1
  C  C74  1  0.96109661  0.11612555  0.13953718  1
  C  C75  1  0.99825891  0.20149990  0.07801744  1
  N  N76  1  0.20621652  0.28386319  0.70793027  1
  N  N77  1  0.29378348  0.78386319  0.79206973  1
  N  N78  1  0.70621652  0.21613681  0.20793027  1
  N  N79  1  0.79378348  0.71613681  0.29206973  1
  O  O80  1  0.02444952  0.89575029  0.31817785  1
  O  O81  1  0.02719259  0.73984499  0.47430905  1
  O  O82  1  0.04048762  0.40946509  0.70667169  1
  O  O83  1  0.03981354  0.06713083  0.18470422  1
  O  O84  1  0.06505143  0.74386606  0.97114326  1
  O  O85  1  0.09551898  0.57087474  0.77054570  1
  O  O86  1  0.10397756  0.20757147  0.08640964  1
  O  O87  1  0.13562470  0.90256591  0.85455787  1
  O  O88  1  0.13529225  0.56569585  0.25555662  1
  O  O89  1  0.14992482  0.37449009  0.25530997  1
  O  O90  1  0.20454687  0.06246143  0.87982613  1
  O  O91  1  0.19691588  0.69913739  0.41897375  1
  O  O92  1  0.19934952  0.14840213  0.45790305  1
  O  O93  1  0.19876186  0.98412957  0.29466356  1
  O  O94  1  0.29545313  0.56246143  0.62017387  1
  O  O95  1  0.30123814  0.48412957  0.20533644  1
  O  O96  1  0.30065048  0.64840213  0.04209695  1
  O  O97  1  0.30308412  0.19913739  0.08102625  1
  O  O98  1  0.35007518  0.87449009  0.24469003  1
  O  O99  1  0.36437530  0.40256591  0.64544213  1
  O  O100  1  0.36470775  0.06569585  0.24444338  1
  O  O101  1  0.39602244  0.70757147  0.41359036  1
  O  O102  1  0.40448102  0.07087474  0.72945430  1
  O  O103  1  0.43494857  0.24386606  0.52885674  1
  O  O104  1  0.45951238  0.90946509  0.79332831  1
  O  O105  1  0.46018646  0.56713083  0.31529578  1
  O  O106  1  0.47280741  0.23984499  0.02569095  1
  O  O107  1  0.47555048  0.39575029  0.18182215  1
  O  O108  1  0.52444952  0.60424971  0.81817785  1
  O  O109  1  0.52719259  0.76015501  0.97430905  1
  O  O110  1  0.53981354  0.43286917  0.68470422  1
  O  O111  1  0.54048762  0.09053491  0.20667169  1
  O  O112  1  0.56505143  0.75613394  0.47114326  1
  O  O113  1  0.59551898  0.92912526  0.27054570  1
  O  O114  1  0.60397756  0.29242853  0.58640964  1
  O  O115  1  0.63529225  0.93430415  0.75555662  1
  O  O116  1  0.63562470  0.59743409  0.35455787  1
  O  O117  1  0.64992482  0.12550991  0.75530997  1
  O  O118  1  0.69691588  0.80086261  0.91897375  1
  O  O119  1  0.69934952  0.35159787  0.95790305  1
  O  O120  1  0.69876186  0.51587043  0.79466356  1
  O  O121  1  0.70454687  0.43753857  0.37982613  1
  O  O122  1  0.80123814  0.01587043  0.70533644  1
  O  O123  1  0.80065048  0.85159787  0.54209695  1
  O  O124  1  0.80308412  0.30086261  0.58102625  1
  O  O125  1  0.79545313  0.93753857  0.12017387  1
  O  O126  1  0.85007518  0.62550991  0.74469003  1
  O  O127  1  0.86470775  0.43430415  0.74444338  1
  O  O128  1  0.86437530  0.09743409  0.14544213  1
  O  O129  1  0.89602244  0.79242853  0.91359036  1
  O  O130  1  0.90448102  0.42912526  0.22945430  1
  O  O131  1  0.93494857  0.25613394  0.02885674  1
  O  O132  1  0.96018646  0.93286917  0.81529578  1
  O  O133  1  0.95951238  0.59053491  0.29332831  1
  O  O134  1  0.97280741  0.26015501  0.52569095  1
  O  O135  1  0.97555048  0.10424971  0.68182215  1
