# generated using pymatgen
data_P4WO13
_symmetry_space_group_name_H-M   'P 1'
_cell_length_a   5.21283750
_cell_length_b   7.99310556
_cell_length_c   13.95489243
_cell_angle_alpha   78.48245784
_cell_angle_beta   86.59211221
_cell_angle_gamma   81.32080741
_symmetry_Int_Tables_number   1
_chemical_formula_structural   P4WO13
_chemical_formula_sum   'P8 W2 O26'
_cell_volume   562.96448276
_cell_formula_units_Z   2
loop_
 _symmetry_equiv_pos_site_id
 _symmetry_equiv_pos_as_xyz
  1  'x, y, z'
loop_
 _atom_site_type_symbol
 _atom_site_label
 _atom_site_symmetry_multiplicity
 _atom_site_fract_x
 _atom_site_fract_y
 _atom_site_fract_z
 _atom_site_occupancy
  P  P0  1  0.11912080  0.79501111  0.12736874  1
  P  P1  1  0.33834835  0.57487691  0.31534384  1
  P  P2  1  0.30384348  0.64762140  0.80306732  1
  P  P3  1  0.67968116  0.34913138  0.20320563  1
  P  P4  1  0.63880073  0.43010520  0.67772925  1
  P  P5  1  0.99019319  0.10352180  0.35173790  1
  P  P6  1  0.87249055  0.20799226  0.86312791  1
  P  P7  1  0.99553262  0.88012281  0.65121911  1
  W  W8  1  0.43362714  0.04874965  0.75413728  1
  W  W9  1  0.55512874  0.94748246  0.24086586  1
  O  O10  1  0.17056016  0.01966412  0.66989941  1
  O  O11  1  0.27059963  0.01343055  0.33009732  1
  O  O12  1  0.16071831  0.12453369  0.84302935  1
  O  O13  1  0.15317835  0.75747548  0.02944014  1
  O  O14  1  0.03221122  0.73937778  0.75436941  1
  O  O15  1  0.16755325  0.63379766  0.21787832  1
  O  O16  1  0.06403634  0.80787285  0.56382625  1
  O  O17  1  0.19130242  0.55910094  0.40760994  1
  O  O18  1  0.30297572  0.92409929  0.15078556  1
  O  O19  1  0.28513270  0.50626498  0.88531260  1
  O  O20  1  0.55326615  0.19056580  0.18395819  1
  O  O21  1  0.50443891  0.39792106  0.29677797  1
  O  O22  1  0.45054054  0.28618937  0.69190239  1
  O  O23  1  0.46869670  0.59620756  0.70842946  1
  O  O24  1  0.54294816  0.70843802  0.29885666  1
  O  O25  1  0.43078716  0.80921285  0.81796480  1
  O  O26  1  0.70565620  0.49255687  0.12275644  1
  O  O27  1  0.69879858  0.07345668  0.83860953  1
  O  O28  1  0.76553840  0.46804645  0.58207255  1
  O  O29  1  0.94739798  0.25581634  0.25369155  1
  O  O30  1  0.81817801  0.25209191  0.95904712  1
  O  O31  1  0.94026527  0.16421274  0.44357018  1
  O  O32  1  0.83224322  0.36237569  0.76824400  1
  O  O33  1  0.70861751  0.96817130  0.66460456  1
  O  O34  1  0.83821046  0.88345732  0.15392410  1
  O  O35  1  0.80518387  0.97248972  0.33142038  1
