# generated using pymatgen
data_Sb5O7F
_symmetry_space_group_name_H-M   'P 1'
_cell_length_a   6.79025105
_cell_length_b   12.92777741
_cell_length_c   11.98253061
_cell_angle_alpha   90.00000000
_cell_angle_beta   91.76342155
_cell_angle_gamma   90.00000000
_symmetry_Int_Tables_number   1
_chemical_formula_structural   Sb5O7F
_chemical_formula_sum   'Sb20 O28 F4'
_cell_volume   1051.36258569
_cell_formula_units_Z   4
loop_
 _symmetry_equiv_pos_site_id
 _symmetry_equiv_pos_as_xyz
  1  'x, y, z'
loop_
 _atom_site_type_symbol
 _atom_site_label
 _atom_site_symmetry_multiplicity
 _atom_site_fract_x
 _atom_site_fract_y
 _atom_site_fract_z
 _atom_site_occupancy
  Sb  Sb0  1  0.05466555  0.25699197  0.91652919  1
  Sb  Sb1  1  0.08573813  0.23289973  0.26005188  1
  Sb  Sb2  1  0.09788327  0.26544071  0.56499215  1
  Sb  Sb3  1  0.25151965  0.94935448  0.42213395  1
  Sb  Sb4  1  0.23395269  0.04866126  0.10127741  1
  Sb  Sb5  1  0.26604731  0.54866126  0.39872259  1
  Sb  Sb6  1  0.24848035  0.44935448  0.07786505  1
  Sb  Sb7  1  0.40211673  0.76544071  0.93500785  1
  Sb  Sb8  1  0.41426187  0.73289973  0.23994812  1
  Sb  Sb9  1  0.44533445  0.75699197  0.58347081  1
  Sb  Sb10  1  0.55466555  0.24300803  0.41652919  1
  Sb  Sb11  1  0.58573813  0.26710027  0.76005188  1
  Sb  Sb12  1  0.59788327  0.23455929  0.06499215  1
  Sb  Sb13  1  0.75151965  0.55064552  0.92213395  1
  Sb  Sb14  1  0.73395269  0.45133874  0.60127741  1
  Sb  Sb15  1  0.76604731  0.95133874  0.89872259  1
  Sb  Sb16  1  0.74848035  0.05064552  0.57786605  1
  Sb  Sb17  1  0.90211673  0.73455929  0.43500785  1
  Sb  Sb18  1  0.91426187  0.76710027  0.73994812  1
  Sb  Sb19  1  0.94533445  0.74300803  0.08347081  1
  O  O20  1  0.01287483  0.39362928  0.99039620  1
  O  O21  1  0.04051290  0.61294332  0.49240389  1
  O  O22  1  0.05208247  0.17362297  0.05833030  1
  O  O23  1  0.11053955  0.83012245  0.49989335  1
  O  O24  1  0.17018481  0.64965807  0.27644187  1
  O  O25  1  0.19751618  0.37078183  0.21579907  1
  O  O26  1  0.25431898  0.75441799  0.08438967  1
  O  O27  1  0.24568102  0.25441799  0.41561033  1
  O  O28  1  0.30248382  0.87078183  0.28420093  1
  O  O29  1  0.32981519  0.14965807  0.22355813  1
  O  O30  1  0.38946045  0.33012245  0.00010665  1
  O  O31  1  0.44791753  0.67362297  0.44166970  1
  O  O32  1  0.45948710  0.11294332  0.00759611  1
  O  O33  1  0.48712517  0.89362928  0.50960380  1
  O  O34  1  0.51287483  0.10637072  0.49039620  1
  O  O35  1  0.54051290  0.88705668  0.99240389  1
  O  O36  1  0.55208247  0.32637703  0.55833030  1
  O  O37  1  0.61053955  0.66987755  0.99989335  1
  O  O38  1  0.67018481  0.85034193  0.77644187  1
  O  O39  1  0.69751618  0.12921817  0.71579907  1
  O  O40  1  0.75431898  0.74558201  0.58438967  1
  O  O41  1  0.74568102  0.24558201  0.91561033  1
  O  O42  1  0.80248382  0.62921817  0.78420093  1
  O  O43  1  0.82981519  0.35034193  0.72355813  1
  O  O44  1  0.88946045  0.16987755  0.50010665  1
  O  O45  1  0.94791753  0.82637703  0.94166970  1
  O  O46  1  0.95948710  0.38705668  0.50759611  1
  O  O47  1  0.98712517  0.60637072  0.00960380  1
  F  F48  1  0.00187280  0.96451493  0.77792088  1
  F  F49  1  0.49812720  0.46451493  0.72207912  1
  F  F50  1  0.50187280  0.53548507  0.27792088  1
  F  F51  1  0.99812720  0.03548507  0.22207912  1
