# generated using pymatgen
data_Li3CuF6
_symmetry_space_group_name_H-M   'P 1'
_cell_length_a   12.86516076
_cell_length_b   10.50436267
_cell_length_c   10.50409822
_cell_angle_alpha   119.99922404
_cell_angle_beta   35.26493016
_cell_angle_gamma   144.73544903
_symmetry_Int_Tables_number   1
_chemical_formula_structural   Li3CuF6
_chemical_formula_sum   'Li12 Cu4 F24'
_cell_volume   409.78677067
_cell_formula_units_Z   4
loop_
 _symmetry_equiv_pos_site_id
 _symmetry_equiv_pos_as_xyz
  1  'x, y, z'
loop_
 _atom_site_type_symbol
 _atom_site_label
 _atom_site_symmetry_multiplicity
 _atom_site_fract_x
 _atom_site_fract_y
 _atom_site_fract_z
 _atom_site_occupancy
  Li  Li0  1  0.25104719  0.00128573  0.00029814  1
  Li  Li1  1  0.49903713  0.99803804  0.00000477  1
  Li  Li2  1  0.24941189  0.49967388  0.00034296  1
  Li  Li3  1  0.25053109  0.00053388  0.49895426  1
  Li  Li4  1  0.49715478  0.99823964  0.50196249  1
  Li  Li5  1  0.49925716  0.50021649  0.00000486  1
  Li  Li6  1  0.24889986  0.49983742  0.50101240  1
  Li  Li7  1  0.75099516  0.00126898  0.00032256  1
  Li  Li8  1  0.49895748  0.49978201  0.50157150  1
  Li  Li9  1  0.74940880  0.49968073  0.00034056  1
  Li  Li10  1  0.75052487  0.00053246  0.49895683  1
  Li  Li11  1  0.74895840  0.49989603  0.50094936  1
  Cu  Cu12  1  0.99911452  0.49951104  0.00086928  1
  Cu  Cu13  1  0.99925499  0.99930705  0.00008067  1
  Cu  Cu14  1  0.99953604  0.49950379  0.50027099  1
  Cu  Cu15  1  0.00016211  0.00056897  0.49988348  1
  F  F16  1  0.11796596  0.67249761  0.12472254  1
  F  F17  1  0.25818775  0.01530643  0.31052327  1
  F  F18  1  0.63423464  0.20331974  0.81237527  1
  F  F19  1  0.36680325  0.79689924  0.18765920  1
  F  F20  1  0.22684031  0.98423130  0.70297015  1
  F  F21  1  0.11862777  0.37582572  0.31131105  1
  F  F22  1  0.74133476  0.98417588  0.68839028  1
  F  F23  1  0.22695376  0.67276149  0.51579104  1
  F  F24  1  0.36647670  0.31233627  0.87599518  1
  F  F25  1  0.87909571  0.32579607  0.87786334  1
  F  F26  1  0.22685639  0.79694111  0.82765403  1
  F  F27  1  0.74212135  0.81201601  0.81225686  1
  F  F28  1  0.25892219  0.18985868  0.18756268  1
  F  F29  1  0.77225993  0.20335847  0.17437797  1
  F  F30  1  0.25805781  0.31259900  0.48459237  1
  F  F31  1  0.77237839  0.32599313  0.48459698  1
  F  F32  1  0.63393715  0.68765504  0.12281710  1
  F  F33  1  0.36532229  0.62268767  0.70373480  1
  F  F34  1  0.77229065  0.01541215  0.29652759  1
  F  F35  1  0.87970745  0.62262515  0.68918382  1
  F  F36  1  0.11871515  0.18865657  0.82711097  1
  F  F37  1  0.87976634  0.81073862  0.17386813  1
  F  F38  1  0.63278140  0.37586495  0.29730767  1
  F  F39  1  0.74121843  0.68788959  0.51572461  1
