# generated using pymatgen
data_Bi5O7F
_symmetry_space_group_name_H-M   'P 1'
_cell_length_a   5.27617118
_cell_length_b   14.66020823
_cell_length_c   14.66020823
_cell_angle_alpha   113.79125706
_cell_angle_beta   79.63322756
_cell_angle_gamma   100.36677244
_symmetry_Int_Tables_number   1
_chemical_formula_structural   Bi5O7F
_chemical_formula_sum   'Bi20 O28 F4'
_cell_volume   1013.37698041
_cell_formula_units_Z   4
loop_
 _symmetry_equiv_pos_site_id
 _symmetry_equiv_pos_as_xyz
  1  'x, y, z'
loop_
 _atom_site_type_symbol
 _atom_site_label
 _atom_site_symmetry_multiplicity
 _atom_site_fract_x
 _atom_site_fract_y
 _atom_site_fract_z
 _atom_site_occupancy
  Bi  Bi0  1  0.31841590  0.22750840  0.11263423  1
  Bi  Bi1  1  0.70354272  0.11263423  0.22750840  1
  Bi  Bi2  1  0.81841590  0.38736577  0.27249160  1
  Bi  Bi3  1  0.20354272  0.27249160  0.38736577  1
  Bi  Bi4  1  0.40456067  0.51574783  0.14291922  1
  Bi  Bi5  1  0.09543933  0.64291922  0.01574783  1
  Bi  Bi6  1  0.96826794  0.01574783  0.64291922  1
  Bi  Bi7  1  0.53173206  0.14291922  0.51574783  1
  Bi  Bi8  1  0.69858091  0.44858091  0.55141909  1
  Bi  Bi9  1  0.80141909  0.05141909  0.94858091  1
  Bi  Bi10  1  0.19858091  0.94858091  0.05141909  1
  Bi  Bi11  1  0.30141909  0.55141909  0.44858091  1
  Bi  Bi12  1  0.46826794  0.85708078  0.48425217  1
  Bi  Bi13  1  0.03173206  0.98425217  0.35708078  1
  Bi  Bi14  1  0.59543933  0.48425217  0.85708078  1
  Bi  Bi15  1  0.90456067  0.35708078  0.98425217  1
  Bi  Bi16  1  0.79645728  0.72750840  0.61263423  1
  Bi  Bi17  1  0.18158410  0.61263423  0.72750840  1
  Bi  Bi18  1  0.29645728  0.88736577  0.77249160  1
  Bi  Bi19  1  0.68158410  0.77249160  0.88736577  1
  O  O20  1  0.49685165  0.08399112  0.08245775  1
  O  O21  1  0.99531928  0.08245775  0.08399112  1
  O  O22  1  0.09854394  0.08186048  0.28037490  1
  O  O23  1  0.79705835  0.28037490  0.08186048  1
  O  O24  1  0.52029138  0.39888417  0.00275344  1
  O  O25  1  0.62416165  0.00275344  0.39888417  1
  O  O26  1  0.98902256  0.25000000  0.25000000  1
  O  O27  1  0.48902256  0.25000000  0.25000000  1
  O  O28  1  0.02029138  0.49724656  0.10111583  1
  O  O29  1  0.12416165  0.10111583  0.49724656  1
  O  O30  1  0.59854394  0.21962510  0.41813952  1
  O  O31  1  0.29705835  0.41813952  0.21962510  1
  O  O32  1  0.99685165  0.41754225  0.41600888  1
  O  O33  1  0.49531928  0.41600888  0.41754225  1
  O  O34  1  0.50468072  0.58399112  0.58245775  1
  O  O35  1  0.00314835  0.58245775  0.58399112  1
  O  O36  1  0.40145606  0.78037490  0.58186048  1
  O  O37  1  0.70294165  0.58186048  0.78037490  1
  O  O38  1  0.87583835  0.89888417  0.50275344  1
  O  O39  1  0.97970862  0.50275344  0.89888417  1
  O  O40  1  0.51097744  0.75000000  0.75000000  1
  O  O41  1  0.01097744  0.75000000  0.75000000  1
  O  O42  1  0.37583835  0.99724656  0.60111583  1
  O  O43  1  0.47970862  0.60111583  0.99724656  1
  O  O44  1  0.20294165  0.71962510  0.91813952  1
  O  O45  1  0.90145606  0.91813952  0.71962510  1
  O  O46  1  0.50314835  0.91600888  0.91754225  1
  O  O47  1  0.00468072  0.91754225  0.91600888  1
  F  F48  1  0.15305864  0.40305864  0.59694136  1
  F  F49  1  0.84694136  0.59694136  0.40305864  1
  F  F50  1  0.65305864  0.90305864  0.09694136  1
  F  F51  1  0.34694136  0.09694136  0.90305864  1
