# generated using pymatgen
data_Ga2NiO4
_symmetry_space_group_name_H-M   'P 1'
_cell_length_a   5.93513026
_cell_length_b   5.93513026
_cell_length_c   5.92213507
_cell_angle_alpha   60.07240282
_cell_angle_beta   90.00000000
_cell_angle_gamma   120.14480565
_symmetry_Int_Tables_number   1
_chemical_formula_structural   Ga2NiO4
_chemical_formula_sum   'Ga4 Ni2 O8'
_cell_volume   147.34869297
_cell_formula_units_Z   2
loop_
 _symmetry_equiv_pos_site_id
 _symmetry_equiv_pos_as_xyz
  1  'x, y, z'
loop_
 _atom_site_type_symbol
 _atom_site_label
 _atom_site_symmetry_multiplicity
 _atom_site_fract_x
 _atom_site_fract_y
 _atom_site_fract_z
 _atom_site_occupancy
  Ga  Ga0  1  0.62735435  0.25534473  0.11730192  1
  Ga  Ga1  1  0.62735435  0.25534473  0.62735435  1
  Ga  Ga2  1  0.24583712  0.50832675  0.24583712  1
  Ga  Ga3  1  0.11730192  0.74529230  0.62735435  1
  Ni  Ni4  1  0.00209578  0.99580743  0.00209578  1
  Ni  Ni5  1  0.62679353  0.74641195  0.62679353  1
  O  O6  1  0.85215904  0.24254589  0.37872705  1
  O  O7  1  0.38020542  0.23959016  0.38020542  1
  O  O8  1  0.87097347  0.72245299  0.40657354  1
  O  O9  1  0.86492390  0.27015221  0.86492390  1
  O  O10  1  0.87097347  0.72245299  0.87097347  1
  O  O11  1  0.40657354  0.25805307  0.87097347  1
  O  O12  1  0.37872705  0.76911390  0.37872705  1
  O  O13  1  0.37872705  0.76911390  0.85215904  1
