# generated using pymatgen
data_Li2VSi4O11
_symmetry_space_group_name_H-M   'P 1'
_cell_length_a   7.26223918
_cell_length_b   7.26223918
_cell_length_c   8.22152537
_cell_angle_alpha   81.25357973
_cell_angle_beta   98.74642027
_cell_angle_gamma   96.13107506
_symmetry_Int_Tables_number   1
_chemical_formula_structural   Li2VSi4O11
_chemical_formula_sum   'Li4 V2 Si8 O22'
_cell_volume   422.02115857
_cell_formula_units_Z   2
loop_
 _symmetry_equiv_pos_site_id
 _symmetry_equiv_pos_as_xyz
  1  'x, y, z'
loop_
 _atom_site_type_symbol
 _atom_site_label
 _atom_site_symmetry_multiplicity
 _atom_site_fract_x
 _atom_site_fract_y
 _atom_site_fract_z
 _atom_site_occupancy
  Li  Li0  1  0.08081572  0.08081572  0.75000000  1
  Li  Li1  1  0.35327374  0.35327374  0.75000000  1
  Li  Li2  1  0.64672626  0.64672626  0.25000000  1
  Li  Li3  1  0.91918428  0.91918428  0.25000000  1
  V  V4  1  0.00000000  0.50000000  0.50000000  1
  V  V5  1  0.50000000  0.00000000  0.00000000  1
  Si  Si6  1  0.34448090  0.77872353  0.65774061  1
  Si  Si7  1  0.22127647  0.65551910  0.15774061  1
  Si  Si8  1  0.74950895  0.84290540  0.56306823  1
  Si  Si9  1  0.84290540  0.74950895  0.93693177  1
  Si  Si10  1  0.15709460  0.25049105  0.06306823  1
  Si  Si11  1  0.25049105  0.15709460  0.43693177  1
  Si  Si12  1  0.77872353  0.34448090  0.84225939  1
  Si  Si13  1  0.65551910  0.22127647  0.34225939  1
  O  O14  1  0.23871101  0.94254106  0.52991524  1
  O  O15  1  0.39868133  0.85962945  0.83546512  1
  O  O16  1  0.05745894  0.76128899  0.02991524  1
  O  O17  1  0.14037055  0.60131867  0.33546512  1
  O  O18  1  0.21043267  0.58754416  0.67360654  1
  O  O19  1  0.41245584  0.78956733  0.17360654  1
  O  O20  1  0.53915356  0.74890644  0.58758965  1
  O  O21  1  0.15316929  0.26915123  0.55211293  1
  O  O22  1  0.25109356  0.46084644  0.08758965  1
  O  O23  1  0.86710881  0.86710881  0.75000000  1
  O  O24  1  0.26915123  0.15316929  0.94788707  1
  O  O25  1  0.73084877  0.84683071  0.05211293  1
  O  O26  1  0.13289119  0.13289119  0.25000000  1
  O  O27  1  0.74890644  0.53915356  0.91241035  1
  O  O28  1  0.84683071  0.73084877  0.44788707  1
  O  O29  1  0.46084644  0.25109356  0.41241035  1
  O  O30  1  0.58754416  0.21043267  0.82639346  1
  O  O31  1  0.78956733  0.41245584  0.32639346  1
  O  O32  1  0.85962945  0.39868133  0.66453488  1
  O  O33  1  0.94254106  0.23871101  0.97008476  1
  O  O34  1  0.60131867  0.14037055  0.16453488  1
  O  O35  1  0.76128899  0.05745894  0.47008476  1
