# generated using pymatgen
data_Hf5N5O2
_symmetry_space_group_name_H-M   'P 1'
_cell_length_a   3.06747922
_cell_length_b   5.43065245
_cell_length_c   9.11705571
_cell_angle_alpha   75.17307990
_cell_angle_beta   90.00000000
_cell_angle_gamma   73.59514671
_symmetry_Int_Tables_number   1
_chemical_formula_structural   Hf5N5O2
_chemical_formula_sum   'Hf5 N5 O2'
_cell_volume   140.41337050
_cell_formula_units_Z   1
loop_
 _symmetry_equiv_pos_site_id
 _symmetry_equiv_pos_as_xyz
  1  'x, y, z'
loop_
 _atom_site_type_symbol
 _atom_site_label
 _atom_site_symmetry_multiplicity
 _atom_site_fract_x
 _atom_site_fract_y
 _atom_site_fract_z
 _atom_site_occupancy
  Hf  Hf0  1  0.11364313  0.77271375  0.92730969  1
  Hf  Hf1  1  0.70187439  0.59625123  0.31088726  1
  Hf  Hf2  1  0.29477858  0.41044383  0.69132758  1
  Hf  Hf3  1  0.88812601  0.22374898  0.08064211  1
  Hf  Hf4  1  0.99858535  0.00282930  0.50335433  1
  N  N5  1  0.50374563  0.99250874  0.00799610  1
  N  N6  1  0.65487971  0.69024058  0.55585022  1
  N  N7  1  0.73813554  0.52372891  0.85604973  1
  N  N8  1  0.26370976  0.47258048  0.15105974  1
  N  N9  1  0.34205684  0.31588632  0.44954077  1
  O  O10  1  0.04458926  0.91082248  0.29107322  1
  O  O11  1  0.95460680  0.09078741  0.71683925  1
