# generated using pymatgen
data_Li4Cu5F17
_symmetry_space_group_name_H-M   'P 1'
_cell_length_a   6.45307431
_cell_length_b   9.53467640
_cell_length_c   11.37776218
_cell_angle_alpha   73.20826950
_cell_angle_beta   85.06236797
_cell_angle_gamma   69.86969390
_symmetry_Int_Tables_number   1
_chemical_formula_structural   Li4Cu5F17
_chemical_formula_sum   'Li8 Cu10 F34'
_cell_volume   629.19088496
_cell_formula_units_Z   2
loop_
 _symmetry_equiv_pos_site_id
 _symmetry_equiv_pos_as_xyz
  1  'x, y, z'
loop_
 _atom_site_type_symbol
 _atom_site_label
 _atom_site_symmetry_multiplicity
 _atom_site_fract_x
 _atom_site_fract_y
 _atom_site_fract_z
 _atom_site_occupancy
  Li  Li0  1  0.02133449  0.23502997  0.03188940  1
  Li  Li1  1  0.24564827  0.06853719  0.35684825  1
  Li  Li2  1  0.20850627  0.58254202  0.32466697  1
  Li  Li3  1  0.20230645  0.72033314  0.55164856  1
  Li  Li4  1  0.79769355  0.27966686  0.44835144  1
  Li  Li5  1  0.79149373  0.41745798  0.67533303  1
  Li  Li6  1  0.75435173  0.93146281  0.64315175  1
  Li  Li7  1  0.97866551  0.76497003  0.96811060  1
  Cu  Cu8  1  0.18500191  0.04173815  0.65616365  1
  Cu  Cu9  1  0.35074758  0.31436991  0.62066433  1
  Cu  Cu10  1  0.30190687  0.45056741  0.84007499  1
  Cu  Cu11  1  0.52366512  0.28515967  0.19426623  1
  Cu  Cu12  1  0.59471795  0.12607801  0.98531101  1
  Cu  Cu13  1  0.40528205  0.87392199  0.01468899  1
  Cu  Cu14  1  0.47633488  0.71484033  0.80573377  1
  Cu  Cu15  1  0.69809313  0.54943259  0.15992501  1
  Cu  Cu16  1  0.64925242  0.68563009  0.37933567  1
  Cu  Cu17  1  0.81499809  0.95826185  0.34383635  1
  F  F18  1  0.07009950  0.99917283  0.28034424  1
  F  F19  1  0.07792919  0.13036286  0.49016404  1
  F  F20  1  0.08504111  0.25520714  0.67834901  1
  F  F21  1  0.04830278  0.40597218  0.89639241  1
  F  F22  1  0.31840393  0.08282829  0.03422797  1
  F  F23  1  0.26322002  0.24595230  0.23926089  1
  F  F24  1  0.24828687  0.39637156  0.45714574  1
  F  F25  1  0.21672420  0.51518583  0.65714974  1
  F  F26  1  0.14680865  0.83260391  0.05502634  1
  F  F27  1  0.45936502  0.09714299  0.61025473  1
  F  F28  1  0.44454800  0.33917456  0.00845751  1
  F  F29  1  0.20679123  0.66106208  0.85934078  1
  F  F30  1  0.44032648  0.24985509  0.80119132  1
  F  F31  1  0.42672033  0.49511695  0.21370289  1
  F  F32  1  0.67018494  0.07118510  0.17807131  1
  F  F33  1  0.36705095  0.66597969  0.41558583  1
  F  F34  1  0.67872946  0.16318983  0.37078672  1
  F  F35  1  0.32127054  0.83681017  0.62921328  1
  F  F36  1  0.63294905  0.33402031  0.58441417  1
  F  F37  1  0.32981506  0.92881490  0.82192869  1
  F  F38  1  0.57327967  0.50488305  0.78629711  1
  F  F39  1  0.55967352  0.75014491  0.19880868  1
  F  F40  1  0.79320877  0.33893792  0.14065922  1
  F  F41  1  0.55545200  0.66082544  0.99154249  1
  F  F42  1  0.54063498  0.90285701  0.38974527  1
  F  F43  1  0.85319135  0.16739609  0.94497366  1
  F  F44  1  0.78327580  0.48481417  0.34285026  1
  F  F45  1  0.75171313  0.60362844  0.54285426  1
  F  F46  1  0.73677998  0.75404770  0.76073911  1
  F  F47  1  0.68159607  0.91717171  0.96577203  1
  F  F48  1  0.95169722  0.59402782  0.10360759  1
  F  F49  1  0.91495889  0.74479286  0.32165099  1
  F  F50  1  0.92207081  0.86963714  0.50983596  1
  F  F51  1  0.92990050  0.00082717  0.71965576  1
