# generated using pymatgen
data_Li2Mn3CrO8
_symmetry_space_group_name_H-M   'P 1'
_cell_length_a   5.88544889
_cell_length_b   5.88391706
_cell_length_c   9.44447820
_cell_angle_alpha   89.94186809
_cell_angle_beta   90.02905827
_cell_angle_gamma   119.99139122
_symmetry_Int_Tables_number   1
_chemical_formula_structural   Li2Mn3CrO8
_chemical_formula_sum   'Li4 Mn6 Cr2 O16'
_cell_volume   283.26451891
_cell_formula_units_Z   2
loop_
 _symmetry_equiv_pos_site_id
 _symmetry_equiv_pos_as_xyz
  1  'x, y, z'
loop_
 _atom_site_type_symbol
 _atom_site_label
 _atom_site_symmetry_multiplicity
 _atom_site_fract_x
 _atom_site_fract_y
 _atom_site_fract_z
 _atom_site_occupancy
  Li  Li0  1  0.33332832  0.66659049  0.89215451  1
  Li  Li1  1  0.00001898  0.00012802  0.99777665  1
  Li  Li2  1  0.99998102  0.00010903  0.49777665  1
  Li  Li3  1  0.66667168  0.33326217  0.39215451  1
  Mn  Mn4  1  0.17064086  0.82952605  0.21487327  1
  Mn  Mn5  1  0.17050542  0.34104053  0.21491582  1
  Mn  Mn6  1  0.65891064  0.82957959  0.21489319  1
  Mn  Mn7  1  0.34108936  0.17066894  0.71489319  1
  Mn  Mn8  1  0.82935914  0.65888519  0.71487327  1
  Mn  Mn9  1  0.82949458  0.17053512  0.71491582  1
  Cr  Cr10  1  0.33326769  0.66686609  0.48845143  1
  Cr  Cr11  1  0.66673231  0.33359840  0.98845143  1
  O  O12  1  0.16162642  0.83835657  0.60240174  1
  O  O13  1  0.03986317  0.51987032  0.33784461  1
  O  O14  1  0.33318467  0.66615148  0.10110828  1
  O  O15  1  0.00011728  0.00040387  0.30874213  1
  O  O16  1  0.99988272  0.00028660  0.80874213  1
  O  O17  1  0.16141422  0.32297535  0.60251983  1
  O  O18  1  0.48016813  0.96030085  0.33801584  1
  O  O19  1  0.47995234  0.51985653  0.33775610  1
  O  O20  1  0.32306389  0.16153629  0.10246659  1
  O  O21  1  0.67693611  0.83847240  0.60246659  1
  O  O22  1  0.51983187  0.48013272  0.83801584  1
  O  O23  1  0.52004766  0.03990419  0.83775610  1
  O  O24  1  0.66681533  0.33296680  0.60110828  1
  O  O25  1  0.83837358  0.67672915  0.10240174  1
  O  O26  1  0.96013683  0.48000714  0.83784461  1
  O  O27  1  0.83858578  0.16156113  0.10251983  1
