# generated using pymatgen
data_Li2FeBO4
_symmetry_space_group_name_H-M   'P 1'
_cell_length_a   5.82714844
_cell_length_b   10.78449099
_cell_length_c   4.81521527
_cell_angle_alpha   89.99946645
_cell_angle_beta   90.00016394
_cell_angle_gamma   90.00011411
_symmetry_Int_Tables_number   1
_chemical_formula_structural   Li2FeBO4
_chemical_formula_sum   'Li8 Fe4 B4 O16'
_cell_volume   302.60175389
_cell_formula_units_Z   4
loop_
 _symmetry_equiv_pos_site_id
 _symmetry_equiv_pos_as_xyz
  1  'x, y, z'
loop_
 _atom_site_type_symbol
 _atom_site_label
 _atom_site_symmetry_multiplicity
 _atom_site_fract_x
 _atom_site_fract_y
 _atom_site_fract_z
 _atom_site_occupancy
  Li  Li0  1  0.99662230  0.41603657  0.19732348  1
  Li  Li1  1  0.99662536  0.91603897  0.30267913  1
  Li  Li2  1  0.50337544  0.91603974  0.30267808  1
  Li  Li3  1  0.50337884  0.41603689  0.19732395  1
  Li  Li4  1  0.49662327  0.08396165  0.69732473  1
  Li  Li5  1  0.49662392  0.58396167  0.80267691  1
  Li  Li6  1  0.00337761  0.58396151  0.80267548  1
  Li  Li7  1  0.00337730  0.08396172  0.69732447  1
  Fe  Fe8  1  0.24999650  0.17821700  0.18839169  1
  Fe  Fe9  1  0.25000074  0.67822790  0.31160386  1
  Fe  Fe10  1  0.75000065  0.32176846  0.68839072  1
  Fe  Fe11  1  0.74999993  0.82178617  0.81161213  1
  B  B12  1  0.24999818  0.33576618  0.68244227  1
  B  B13  1  0.25000020  0.83577816  0.81755401  1
  B  B14  1  0.75000064  0.66423236  0.31755849  1
  B  B15  1  0.74999783  0.16422365  0.18244423  1
  O  O16  1  0.03706017  0.40263447  0.78040404  1
  O  O17  1  0.03705760  0.90263385  0.71959666  1
  O  O18  1  0.25000008  0.33311690  0.37369923  1
  O  O19  1  0.25000061  0.70408000  0.70725602  1
  O  O20  1  0.25000040  0.83310526  0.12631434  1
  O  O21  1  0.24999955  0.20408536  0.79272860  1
  O  O22  1  0.46294326  0.90263429  0.71959643  1
  O  O23  1  0.46293834  0.40263483  0.78040684  1
  O  O24  1  0.53706393  0.59736506  0.21959509  1
  O  O25  1  0.53705455  0.09736756  0.28040619  1
  O  O26  1  0.74999912  0.66688446  0.62629682  1
  O  O27  1  0.75000148  0.16689392  0.87368463  1
  O  O28  1  0.74999955  0.29592072  0.29273492  1
  O  O29  1  0.75000207  0.79591448  0.20727029  1
  O  O30  1  0.96294159  0.59736374  0.21959761  1
  O  O31  1  0.96294098  0.09736649  0.28040866  1
