# generated using pymatgen
data_Li4Cr3Ni3(WO8)2
_symmetry_space_group_name_H-M   'P 1'
_cell_length_a   5.93116695
_cell_length_b   5.97153413
_cell_length_c   9.65264229
_cell_angle_alpha   90.00739801
_cell_angle_beta   90.37694958
_cell_angle_gamma   120.22282464
_symmetry_Int_Tables_number   1
_chemical_formula_structural   Li4Cr3Ni3(WO8)2
_chemical_formula_sum   'Li4 Cr3 Ni3 W2 O16'
_cell_volume   295.40004018
_cell_formula_units_Z   1
loop_
 _symmetry_equiv_pos_site_id
 _symmetry_equiv_pos_as_xyz
  1  'x, y, z'
loop_
 _atom_site_type_symbol
 _atom_site_label
 _atom_site_symmetry_multiplicity
 _atom_site_fract_x
 _atom_site_fract_y
 _atom_site_fract_z
 _atom_site_occupancy
  Li  Li0  1  0.32969037  0.66492065  0.90698004  1
  Li  Li1  1  0.99883179  0.99936571  0.98685736  1
  Li  Li2  1  0.00104335  0.00053288  0.49187663  1
  Li  Li3  1  0.66239769  0.33121847  0.40555024  1
  Cr  Cr4  1  0.17405759  0.83291314  0.21481894  1
  Cr  Cr5  1  0.17408266  0.34118291  0.21480826  1
  Cr  Cr6  1  0.35018231  0.17521801  0.72237743  1
  Ni  Ni7  1  0.66048982  0.83024629  0.21482343  1
  Ni  Ni8  1  0.83176463  0.66066748  0.71133970  1
  Ni  Ni9  1  0.83177422  0.17104732  0.71134385  1
  W  W10  1  0.33916238  0.66960770  0.48723064  1
  W  W11  1  0.67799383  0.33895856  0.98930859  1
  O  O12  1  0.18135800  0.83384235  0.59029230  1
  O  O13  1  0.03802688  0.51905586  0.34341188  1
  O  O14  1  0.32730302  0.66364765  0.10764544  1
  O  O15  1  0.00598522  0.00304624  0.30589296  1
  O  O16  1  0.01924880  0.00959560  0.79624825  1
  O  O17  1  0.18138007  0.34758170  0.59027212  1
  O  O18  1  0.47301166  0.96053278  0.34990245  1
  O  O19  1  0.47302286  0.51251053  0.34986746  1
  O  O20  1  0.34432030  0.17215846  0.09360667  1
  O  O21  1  0.65897732  0.82944278  0.58495438  1
  O  O22  1  0.50265214  0.46447621  0.84909708  1
  O  O23  1  0.50271638  0.03829568  0.84909669  1
  O  O24  1  0.64060066  0.32022685  0.61096920  1
  O  O25  1  0.83240757  0.65808889  0.08773469  1
  O  O26  1  0.95506026  0.47757656  0.85382213  1
  O  O27  1  0.83245822  0.17434174  0.08771519  1
