# generated using pymatgen
data_Li4MnV(WO6)2
_symmetry_space_group_name_H-M   'P 1'
_cell_length_a   5.38004378
_cell_length_b   10.94000823
_cell_length_c   9.73689588
_cell_angle_alpha   27.69350658
_cell_angle_beta   51.71045361
_cell_angle_gamma   56.40522411
_symmetry_Int_Tables_number   1
_chemical_formula_structural   Li4MnV(WO6)2
_chemical_formula_sum   'Li4 Mn1 V1 W2 O12'
_cell_volume   209.03001312
_cell_formula_units_Z   1
loop_
 _symmetry_equiv_pos_site_id
 _symmetry_equiv_pos_as_xyz
  1  'x, y, z'
loop_
 _atom_site_type_symbol
 _atom_site_label
 _atom_site_symmetry_multiplicity
 _atom_site_fract_x
 _atom_site_fract_y
 _atom_site_fract_z
 _atom_site_occupancy
  Li  Li0  1  0.27476588  0.99372997  0.29905224  1
  Li  Li1  1  0.31603418  0.50679646  0.26924471  1
  Li  Li2  1  0.77195471  0.00054134  0.76038667  1
  Li  Li3  1  0.79051258  0.49901927  0.79681312  1
  Mn  Mn4  1  0.00322016  0.49981894  0.99699106  1
  V  V5  1  0.00167275  0.99595462  0.03034756  1
  W  W6  1  0.47691270  0.01312185  0.50572441  1
  W  W7  1  0.53364932  0.48993450  0.50746224  1
  O  O8  1  0.37107667  0.30297867  0.12940928  1
  O  O9  1  0.23109580  0.12470858  0.62259567  1
  O  O10  1  0.10997962  0.29953036  0.76144489  1
  O  O11  1  0.86052017  0.19279049  0.24084510  1
  O  O12  1  0.35771976  0.81407834  0.11810039  1
  O  O13  1  0.68977560  0.38195940  0.38648711  1
  O  O14  1  0.24189354  0.62850929  0.59477177  1
  O  O15  1  0.63021217  0.17791361  0.87779708  1
  O  O16  1  0.14364192  0.81963502  0.72052786  1
  O  O17  1  0.88008891  0.68854905  0.24040314  1
  O  O18  1  0.75300232  0.87607119  0.36166859  1
  O  O19  1  0.63347124  0.69436104  0.85113011  1
