# generated using pymatgen
data_Li2Fe(CO3)2
_symmetry_space_group_name_H-M   'P 1'
_cell_length_a   7.01680587
_cell_length_b   9.85872572
_cell_length_c   9.11028250
_cell_angle_alpha   90.00000000
_cell_angle_beta   115.87099303
_cell_angle_gamma   90.00000000
_symmetry_Int_Tables_number   1
_chemical_formula_structural   Li2Fe(CO3)2
_chemical_formula_sum   'Li8 Fe4 C8 O24'
_cell_volume   567.05847673
_cell_formula_units_Z   4
loop_
 _symmetry_equiv_pos_site_id
 _symmetry_equiv_pos_as_xyz
  1  'x, y, z'
loop_
 _atom_site_type_symbol
 _atom_site_label
 _atom_site_symmetry_multiplicity
 _atom_site_fract_x
 _atom_site_fract_y
 _atom_site_fract_z
 _atom_site_occupancy
  Li  Li0  1  0.36017076  0.60897585  0.84867102  1
  Li  Li1  1  0.15451236  0.31673585  0.56803319  1
  Li  Li2  1  0.36017076  0.89102415  0.34867102  1
  Li  Li3  1  0.15451236  0.18326415  0.06803319  1
  Li  Li4  1  0.84548764  0.81673585  0.93196681  1
  Li  Li5  1  0.63982924  0.10897585  0.65132898  1
  Li  Li6  1  0.84548764  0.68326415  0.43196681  1
  Li  Li7  1  0.63982924  0.39102415  0.15132898  1
  Fe  Fe8  1  0.48075177  0.12917961  0.92878794  1
  Fe  Fe9  1  0.48075177  0.37082039  0.42878794  1
  Fe  Fe10  1  0.51924823  0.62917961  0.57121206  1
  Fe  Fe11  1  0.51924823  0.87082039  0.07121206  1
  C  C12  1  0.07892240  0.97995432  0.86722900  1
  C  C13  1  0.07892240  0.52004568  0.36722900  1
  C  C14  1  0.52506888  0.38626269  0.78718444  1
  C  C15  1  0.47493112  0.88626269  0.71281556  1
  C  C16  1  0.52506888  0.11373731  0.28718444  1
  C  C17  1  0.47493112  0.61373731  0.21281556  1
  C  C18  1  0.92107760  0.47995432  0.63277100  1
  C  C19  1  0.92107760  0.02004568  0.13277100  1
  O  O20  1  0.12281794  0.46766366  0.70575178  1
  O  O21  1  0.16614119  0.09909631  0.87038931  1
  O  O22  1  0.12281794  0.03233634  0.20575178  1
  O  O23  1  0.16614119  0.40090369  0.37038931  1
  O  O24  1  0.19366544  0.62317363  0.44467914  1
  O  O25  1  0.53169507  0.33952583  0.92195596  1
  O  O26  1  0.44553390  0.01427819  0.72435656  1
  O  O27  1  0.51833983  0.80334661  0.83528393  1
  O  O28  1  0.48166017  0.30334661  0.66471607  1
  O  O29  1  0.55446610  0.51427819  0.77564344  1
  O  O30  1  0.19366544  0.87682637  0.94467914  1
  O  O31  1  0.46830493  0.83952583  0.57804404  1
  O  O32  1  0.53169507  0.16047417  0.42195596  1
  O  O33  1  0.80633456  0.12317363  0.05532086  1
  O  O34  1  0.44553390  0.48572181  0.22435656  1
  O  O35  1  0.51833983  0.69665339  0.33528393  1
  O  O36  1  0.48166017  0.19665339  0.16471607  1
  O  O37  1  0.55446610  0.98572181  0.27564344  1
  O  O38  1  0.46830493  0.66047417  0.07804404  1
  O  O39  1  0.80633456  0.37682637  0.55532086  1
  O  O40  1  0.83385881  0.59909631  0.62961069  1
  O  O41  1  0.87718206  0.96766366  0.79424822  1
  O  O42  1  0.83385881  0.90090369  0.12961069  1
  O  O43  1  0.87718206  0.53233634  0.29424822  1
