# generated using pymatgen
data_CrFe3Co2(PO4)6
_symmetry_space_group_name_H-M   'P 1'
_cell_length_a   8.41403402
_cell_length_b   8.64494285
_cell_length_c   8.64494286
_cell_angle_alpha   60.00000264
_cell_angle_beta   59.08794888
_cell_angle_gamma   59.08795033
_symmetry_Int_Tables_number   1
_chemical_formula_structural   CrFe3Co2(PO4)6
_chemical_formula_sum   'Cr1 Fe3 Co2 P6 O24'
_cell_volume   438.41648082
_cell_formula_units_Z   1
loop_
 _symmetry_equiv_pos_site_id
 _symmetry_equiv_pos_as_xyz
  1  'x, y, z'
loop_
 _atom_site_type_symbol
 _atom_site_label
 _atom_site_symmetry_multiplicity
 _atom_site_fract_x
 _atom_site_fract_y
 _atom_site_fract_z
 _atom_site_occupancy
  Cr  Cr0  1  0.57519268  0.14160277  0.14160277  1
  Fe  Fe1  1  0.06408496  0.64530468  0.64530468  1
  Fe  Fe2  1  0.43496123  0.85501259  0.85501259  1
  Fe  Fe3  1  0.93397515  0.35534128  0.35534128  1
  Co  Co4  1  0.00544587  0.99818504  0.99818504  1
  Co  Co5  1  0.49935226  0.50021591  0.50021591  1
  P  P6  1  0.25153657  0.25015935  0.54375546  1
  P  P7  1  0.25153657  0.95454862  0.25015935  1
  P  P8  1  0.25153657  0.54375546  0.95454862  1
  P  P9  1  0.74755331  0.45302382  0.04816644  1
  P  P10  1  0.74755331  0.04816644  0.75125743  1
  P  P11  1  0.74755331  0.75125743  0.45302382  1
  O  O12  1  0.06497540  0.10866963  0.32297704  1
  O  O13  1  0.06497540  0.50337793  0.10866963  1
  O  O14  1  0.06497540  0.32297704  0.50337793  1
  O  O15  1  0.22010253  0.09444434  0.74587418  1
  O  O16  1  0.43647071  0.17934337  0.38706983  1
  O  O17  1  0.28382224  0.40508801  0.55888741  1
  O  O18  1  0.22010253  0.93957895  0.09444434  1
  O  O19  1  0.28382224  0.75220234  0.40508801  1
  O  O20  1  0.56266014  0.60812132  0.00535420  1
  O  O21  1  0.28382224  0.55888741  0.75220234  1
  O  O22  1  0.77739065  0.25119455  0.06307615  1
  O  O23  1  0.56266014  0.00535420  0.82386434  1
  O  O24  1  0.43647071  0.99711609  0.17934337  1
  O  O25  1  0.22010253  0.74587418  0.93957895  1
  O  O26  1  0.71674679  0.43762361  0.24962549  1
  O  O27  1  0.43647071  0.38706983  0.99711609  1
  O  O28  1  0.71674679  0.24962549  0.59600412  1
  O  O29  1  0.77739065  0.06307615  0.90833765  1
  O  O30  1  0.71674679  0.59600412  0.43762361  1
  O  O31  1  0.56266014  0.82386434  0.60812132  1
  O  O32  1  0.77739065  0.90833765  0.25119455  1
  O  O33  1  0.93440295  0.68113427  0.49239058  1
  O  O34  1  0.93440295  0.49239058  0.89207220  1
  O  O35  1  0.93440295  0.89207220  0.68113427  1
