# generated using pymatgen
data_Li3V3P8O29
_symmetry_space_group_name_H-M   'P 1'
_cell_length_a   9.75792656
_cell_length_b   9.75493292
_cell_length_c   14.15807582
_cell_angle_alpha   90.01448259
_cell_angle_beta   90.30278397
_cell_angle_gamma   60.08142535
_symmetry_Int_Tables_number   1
_chemical_formula_structural   Li3V3P8O29
_chemical_formula_sum   'Li6 V6 P16 O58'
_cell_volume   1168.05890579
_cell_formula_units_Z   2
loop_
 _symmetry_equiv_pos_site_id
 _symmetry_equiv_pos_as_xyz
  1  'x, y, z'
loop_
 _atom_site_type_symbol
 _atom_site_label
 _atom_site_symmetry_multiplicity
 _atom_site_fract_x
 _atom_site_fract_y
 _atom_site_fract_z
 _atom_site_occupancy
  Li  Li0  1  0.90723835  0.32388420  0.54973078  1
  Li  Li1  1  0.32079851  0.90614162  0.06440874  1
  Li  Li2  1  0.32737075  0.76596654  0.55414333  1
  Li  Li3  1  0.69129730  0.08626691  0.94558029  1
  Li  Li4  1  0.08339854  0.22333170  0.94658624  1
  Li  Li5  1  0.97228286  0.98473787  0.48488083  1
  V  V6  1  0.56663469  0.43216632  0.24824542  1
  V  V7  1  0.43365537  0.56438641  0.75487213  1
  V  V8  1  0.56969313  0.99612567  0.74224692  1
  V  V9  1  0.43436954  0.00581603  0.25838754  1
  V  V10  1  0.00101236  0.56806771  0.24834817  1
  V  V11  1  0.99899609  0.44199156  0.74911025  1
  P  P12  1  0.91539758  0.77515750  0.84358336  1
  P  P13  1  0.78205186  0.91286924  0.33976830  1
  P  P14  1  0.91259400  0.31313602  0.33960243  1
  P  P15  1  0.66256160  0.67029530  0.13149477  1
  P  P16  1  0.66433255  0.66388427  0.63031571  1
  P  P17  1  0.77318661  0.31471820  0.84308879  1
  P  P18  1  0.68992585  0.22880717  0.65826280  1
  P  P19  1  0.32092749  0.91332383  0.84260735  1
  P  P20  1  0.68185058  0.08768900  0.15816597  1
  P  P21  1  0.31364549  0.77190881  0.34238499  1
  P  P22  1  0.22572402  0.68717831  0.15970510  1
  P  P23  1  0.33228926  0.33883344  0.36994049  1
  P  P24  1  0.33672480  0.32652276  0.86812254  1
  P  P25  1  0.08497600  0.69531791  0.65785897  1
  P  P26  1  0.22209194  0.08682236  0.66012438  1
  P  P27  1  0.08971999  0.22744772  0.15943058  1
  O  O28  1  0.00600661  0.78354945  0.57110878  1
  O  O29  1  0.91631263  0.73889017  0.33217600  1
  O  O30  1  0.74844419  0.00986618  0.06666213  1
  O  O31  1  0.74407544  0.91897948  0.83482202  1
  O  O32  1  0.90630178  0.62025669  0.81928584  1
  O  O33  1  0.81553890  0.66028294  0.17633078  1
  O  O34  1  0.91480198  0.46903118  0.32720695  1
  O  O35  1  0.00966276  0.23249485  0.06870589  1
  O  O36  1  0.91780271  0.34084679  0.83936270  1
  O  O37  1  0.67078132  0.81106990  0.67403774  1
  O  O38  1  0.61982242  0.91757040  0.33127846  1
  O  O39  1  0.81434459  0.51104418  0.67210890  1
  O  O40  1  0.66027503  0.66745715  0.02635142  1
  O  O41  1  0.66394434  0.66233245  0.52557058  1
  O  O42  1  0.65629214  0.52536300  0.17725560  1
  O  O43  1  0.48005426  0.90473121  0.81990142  1
  O  O44  1  0.51678360  0.82189380  0.17260234  1
  O  O45  1  0.74079130  0.34497577  0.33036806  1
  O  O46  1  0.79481740  0.20784978  0.75141136  1
  O  O47  1  0.78428121  0.21969454  0.57423786  1
  O  O48  1  0.76263100  0.23429539  0.92876482  1
  O  O49  1  0.61924030  0.47689968  0.82334879  1
  O  O50  1  0.51200961  0.67191790  0.67207357  1
  O  O51  1  0.65549636  0.25761249  0.16709139  1
  O  O52  1  0.46939794  0.61559333  0.32963515  1
  O  O53  1  0.34757249  0.91142955  0.33095967  1
  O  O54  1  0.79892375  0.99310542  0.24405283  1
  O  O55  1  0.79829290  0.99471313  0.42331552  1
  O  O56  1  0.21891365  0.99180349  0.57930709  1
  O  O57  1  0.65498224  0.08959558  0.66576954  1
  O  O58  1  0.53204445  0.38568069  0.67307652  1
  O  O59  1  0.34393344  0.74465189  0.83343785  1
  O  O60  1  0.48012471  0.33465372  0.32481213  1
  O  O61  1  0.37968224  0.52692319  0.17625574  1
  O  O62  1  0.23226270  0.77488674  0.07611487  1
  O  O63  1  0.22938801  0.78825843  0.43338106  1
  O  O64  1  0.20075969  0.79095475  0.25506633  1
  O  O65  1  0.25995679  0.65811077  0.66550489  1
  O  O66  1  0.48447052  0.17978041  0.82492997  1
  O  O67  1  0.52263496  0.09556859  0.18149918  1
  O  O68  1  0.33875530  0.47518004  0.82278574  1
  O  O69  1  0.33585722  0.32615445  0.97259713  1
  O  O70  1  0.33119944  0.33510454  0.47470991  1
  O  O71  1  0.18442838  0.48390565  0.32416838  1
  O  O72  1  0.38171989  0.08703719  0.67218093  1
  O  O73  1  0.33082753  0.18709056  0.32689841  1
  O  O74  1  0.08378561  0.65767304  0.16369137  1
  O  O75  1  0.00199888  0.79488514  0.75162014  1
  O  O76  1  0.99979858  0.76145975  0.93231519  1
  O  O77  1  0.08494470  0.53472312  0.67438807  1
  O  O78  1  0.18363301  0.33152229  0.82448158  1
  O  O79  1  0.09620003  0.38051249  0.17787722  1
  O  O80  1  0.25952700  0.08165104  0.16470517  1
  O  O81  1  0.25109579  0.99527260  0.93354537  1
  O  O82  1  0.20099777  0.01357493  0.75835157  1
  O  O83  1  0.08191994  0.25960000  0.66059791  1
  O  O84  1  0.98664212  0.22637662  0.42962235  1
  O  O85  1  0.00166637  0.20468512  0.24917666  1
