# generated using pymatgen
data_Co5O8
_symmetry_space_group_name_H-M   'P 1'
_cell_length_a   5.71419135
_cell_length_b   5.71419172
_cell_length_c   5.71419135
_cell_angle_alpha   90.00000527
_cell_angle_beta   59.99999994
_cell_angle_gamma   60.00000206
_symmetry_Int_Tables_number   1
_chemical_formula_structural   Co5O8
_chemical_formula_sum   'Co5 O8'
_cell_volume   131.93176161
_cell_formula_units_Z   1
loop_
 _symmetry_equiv_pos_site_id
 _symmetry_equiv_pos_as_xyz
  1  'x, y, z'
loop_
 _atom_site_type_symbol
 _atom_site_label
 _atom_site_symmetry_multiplicity
 _atom_site_fract_x
 _atom_site_fract_y
 _atom_site_fract_z
 _atom_site_occupancy
  Co  Co0  1  0.49596707  0.49798403  0.50201597  1
  Co  Co1  1  0.49596707  0.00604890  0.50201597  1
  Co  Co2  1  0.25000000  0.87500000  0.12500000  1
  Co  Co3  1  0.00403293  0.49798403  0.50201597  1
  Co  Co4  1  0.00403293  0.49798403  0.99395110  1
  O  O5  1  0.97501411  0.73750655  0.26249345  1
  O  O6  1  0.97501411  0.28747934  0.26249345  1
  O  O7  1  0.52498589  0.73750655  0.71252066  1
  O  O8  1  0.52498589  0.73750655  0.26249345  1
  O  O9  1  0.46509693  0.26745154  0.73254846  1
  O  O10  1  0.46509693  0.26745154  0.30235461  1
  O  O11  1  0.03490307  0.69764539  0.73254846  1
  O  O12  1  0.03490307  0.26745154  0.73254846  1
