# generated using pymatgen
data_Fe2Co(PO4)3
_symmetry_space_group_name_H-M   'P 1'
_cell_length_a   8.42170972
_cell_length_b   8.65283265
_cell_length_c   8.65283246
_cell_angle_alpha   60.00000312
_cell_angle_beta   59.08794243
_cell_angle_gamma   59.08794345
_symmetry_Int_Tables_number   1
_chemical_formula_structural   Fe2Co(PO4)3
_chemical_formula_sum   'Fe4 Co2 P6 O24'
_cell_volume   439.61770801
_cell_formula_units_Z   2
loop_
 _symmetry_equiv_pos_site_id
 _symmetry_equiv_pos_as_xyz
  1  'x, y, z'
loop_
 _atom_site_type_symbol
 _atom_site_label
 _atom_site_symmetry_multiplicity
 _atom_site_fract_x
 _atom_site_fract_y
 _atom_site_fract_z
 _atom_site_occupancy
  Fe  Fe0  1  0.06473554  0.64508782  0.64508782  1
  Fe  Fe1  1  0.56473554  0.14508782  0.14508782  1
  Fe  Fe2  1  0.43526446  0.85491218  0.85491218  1
  Fe  Fe3  1  0.93526446  0.35491218  0.35491218  1
  Co  Co4  1  0.00000000  0.00000000  0.00000000  1
  Co  Co5  1  0.50000000  0.50000000  0.50000000  1
  P  P6  1  0.25000000  0.25000000  0.54720779  1
  P  P7  1  0.25000000  0.95279221  0.25000000  1
  P  P8  1  0.25000000  0.54720779  0.95279221  1
  P  P9  1  0.75000000  0.45279221  0.04720779  1
  P  P10  1  0.75000000  0.04720779  0.75000000  1
  P  P11  1  0.75000000  0.75000000  0.45279221  1
  O  O12  1  0.06450788  0.10851462  0.32232736  1
  O  O13  1  0.06450788  0.50465014  0.10851462  1
  O  O14  1  0.06450788  0.32232736  0.50465014  1
  O  O15  1  0.21769019  0.09477654  0.74885034  1
  O  O16  1  0.43549212  0.17767264  0.39148538  1
  O  O17  1  0.28230981  0.40522346  0.56131807  1
  O  O18  1  0.21769019  0.93868193  0.09477654  1
  O  O19  1  0.28230981  0.75114966  0.40522346  1
  O  O20  1  0.56450788  0.60851462  0.00465014  1
  O  O21  1  0.28230981  0.56131807  0.75114966  1
  O  O22  1  0.78230981  0.25114966  0.06131807  1
  O  O23  1  0.56450788  0.00465014  0.82232736  1
  O  O24  1  0.43549212  0.99534986  0.17767264  1
  O  O25  1  0.21769019  0.74885034  0.93868193  1
  O  O26  1  0.71769019  0.43868193  0.24885034  1
  O  O27  1  0.43549212  0.39148538  0.99534986  1
  O  O28  1  0.71769019  0.24885034  0.59477654  1
  O  O29  1  0.78230981  0.06131807  0.90522346  1
  O  O30  1  0.71769019  0.59477654  0.43868193  1
  O  O31  1  0.56450788  0.82232736  0.60851462  1
  O  O32  1  0.78230981  0.90522346  0.25114966  1
  O  O33  1  0.93549212  0.67767264  0.49534986  1
  O  O34  1  0.93549212  0.49534986  0.89148538  1
  O  O35  1  0.93549212  0.89148538  0.67767264  1
