# generated using pymatgen
data_Li5Mn2Fe3(PO4)6
_symmetry_space_group_name_H-M   'P 1'
_cell_length_a   8.54833819
_cell_length_b   8.62437991
_cell_length_c   8.63285351
_cell_angle_alpha   61.71923297
_cell_angle_beta   62.05098089
_cell_angle_gamma   61.97367196
_symmetry_Int_Tables_number   1
_chemical_formula_structural   Li5Mn2Fe3(PO4)6
_chemical_formula_sum   'Li5 Mn2 Fe3 P6 O24'
_cell_volume   469.31465559
_cell_formula_units_Z   1
loop_
 _symmetry_equiv_pos_site_id
 _symmetry_equiv_pos_as_xyz
  1  'x, y, z'
loop_
 _atom_site_type_symbol
 _atom_site_label
 _atom_site_symmetry_multiplicity
 _atom_site_fract_x
 _atom_site_fract_y
 _atom_site_fract_z
 _atom_site_occupancy
  Li  Li0  1  0.75387708  0.14270989  0.35565706  1
  Li  Li1  1  0.19786322  0.85124396  0.66221457  1
  Li  Li2  1  0.66199322  0.19590932  0.85219385  1
  Li  Li3  1  0.85150925  0.66135811  0.19677080  1
  Li  Li4  1  0.84515792  0.83985103  0.84501143  1
  Mn  Mn5  1  0.00760482  0.99703905  0.99188344  1
  Mn  Mn6  1  0.48842421  0.50661159  0.50042345  1
  Fe  Fe7  1  0.14887249  0.14674202  0.14133656  1
  Fe  Fe8  1  0.35182138  0.35690217  0.35328077  1
  Fe  Fe9  1  0.65038329  0.65130197  0.65660792  1
  P  P10  1  0.05410712  0.75155517  0.45267847  1
  P  P11  1  0.45153152  0.05289884  0.75547271  1
  P  P12  1  0.75323680  0.45202698  0.05447138  1
  P  P13  1  0.25555602  0.54153035  0.95671347  1
  P  P14  1  0.54791576  0.95915155  0.25697416  1
  P  P15  1  0.94976041  0.25373200  0.53920636  1
  O  O16  1  0.11237220  0.32145199  0.47818622  1
  O  O17  1  0.33386926  0.49117079  0.10659219  1
  O  O18  1  0.04984867  0.91647765  0.26377614  1
  O  O19  1  0.52165845  0.10721488  0.32539434  1
  O  O20  1  0.03370935  0.80973131  0.60304737  1
  O  O21  1  0.24558694  0.59376901  0.42161228  1
  O  O22  1  0.25502024  0.06909200  0.90881153  1
  O  O23  1  0.43972816  0.23913054  0.58686343  1
  O  O24  1  0.18867169  0.38604479  0.99551665  1
  O  O25  1  0.59791197  0.41978762  0.25047128  1
  O  O26  1  0.09889753  0.73327620  0.94590236  1
  O  O27  1  0.38006704  0.00915774  0.19997366  1
  O  O28  1  0.60358854  0.02643224  0.81777382  1
  O  O29  1  0.90346119  0.25170862  0.07439135  1
  O  O30  1  0.40728884  0.56684607  0.75821502  1
  O  O31  1  0.81471178  0.60174173  0.03052276  1
  O  O32  1  0.56472090  0.76144396  0.41046003  1
  O  O33  1  0.73739505  0.94158808  0.09705689  1
  O  O34  1  0.75385431  0.40902506  0.57038313  1
  O  O35  1  0.96771232  0.19331404  0.38777765  1
  O  O36  1  0.49219275  0.88904154  0.69706688  1
  O  O37  1  0.94657610  0.09689587  0.73045656  1
  O  O38  1  0.69238426  0.49299325  0.89264410  1
  O  O39  1  0.88915696  0.68910200  0.49920897  1
