# generated using pymatgen
data_Li3V3P8O29
_symmetry_space_group_name_H-M   'P 1'
_cell_length_a   9.75880413
_cell_length_b   9.77230112
_cell_length_c   14.19072196
_cell_angle_alpha   90.01832636
_cell_angle_beta   90.28183940
_cell_angle_gamma   60.01544987
_symmetry_Int_Tables_number   1
_chemical_formula_structural   Li3V3P8O29
_chemical_formula_sum   'Li6 V6 P16 O58'
_cell_volume   1172.16723505
_cell_formula_units_Z   2
loop_
 _symmetry_equiv_pos_site_id
 _symmetry_equiv_pos_as_xyz
  1  'x, y, z'
loop_
 _atom_site_type_symbol
 _atom_site_label
 _atom_site_symmetry_multiplicity
 _atom_site_fract_x
 _atom_site_fract_y
 _atom_site_fract_z
 _atom_site_occupancy
  Li  Li0  1  0.76772475  0.32632841  0.05025192  1
  Li  Li1  1  0.32780983  0.90592226  0.05420979  1
  Li  Li2  1  0.69544880  0.22079536  0.44930824  1
  Li  Li3  1  0.32151764  0.77429026  0.56383039  1
  Li  Li4  1  0.08469246  0.68770691  0.44290448  1
  Li  Li5  1  0.98371093  0.97195176  0.98592422  1
  V  V6  1  0.56708550  0.43426520  0.24934428  1
  V  V7  1  0.43080649  0.56286587  0.75627030  1
  V  V8  1  0.56781571  0.99957967  0.75003796  1
  V  V9  1  0.43501986  0.00449036  0.25219589  1
  V  V10  1  0.99358339  0.56497665  0.24445807  1
  V  V11  1  0.00235074  0.43324119  0.74871103  1
  P  P12  1  0.91648461  0.77619740  0.83920575  1
  P  P13  1  0.77366577  0.91375577  0.34036476  1
  P  P14  1  0.91728258  0.31281023  0.34636797  1
  P  P15  1  0.66190020  0.66706328  0.12994880  1
  P  P16  1  0.66265976  0.66744004  0.63180458  1
  P  P17  1  0.77789300  0.31283411  0.83968043  1
  P  P18  1  0.68125020  0.22937481  0.66041067  1
  P  P19  1  0.31217510  0.91497300  0.84269516  1
  P  P20  1  0.69256428  0.08354550  0.15527799  1
  P  P21  1  0.31968898  0.77049808  0.34188207  1
  P  P22  1  0.22327421  0.68969028  0.16108680  1
  P  P23  1  0.33269523  0.33807552  0.36845596  1
  P  P24  1  0.33380006  0.32900761  0.87003411  1
  P  P25  1  0.08749277  0.68452025  0.65696822  1
  P  P26  1  0.22601338  0.08769098  0.66066808  1
  P  P27  1  0.08313230  0.22299922  0.16051729  1
  O  O28  1  0.01110653  0.75484648  0.56516191  1
  O  O29  1  0.91659264  0.74322463  0.33766239  1
  O  O30  1  0.78365261  0.00865516  0.06957208  1
  O  O31  1  0.74126685  0.91216477  0.83115628  1
  O  O32  1  0.92226262  0.61582716  0.82886103  1
  O  O33  1  0.80991323  0.67049898  0.17493709  1
  O  O34  1  0.90868069  0.47379782  0.32019951  1
  O  O35  1  0.99228595  0.22188069  0.07679682  1
  O  O36  1  0.91597716  0.34629678  0.83161644  1
  O  O37  1  0.65603385  0.81798411  0.67795973  1
  O  O38  1  0.61872130  0.90571358  0.32073715  1
  O  O39  1  0.81555360  0.52629040  0.67775680  1
  O  O40  1  0.66501650  0.65618933  0.02585803  1
  O  O41  1  0.66131159  0.67062067  0.52704198  1
  O  O42  1  0.67285704  0.51137949  0.17332334  1
  O  O43  1  0.46883571  0.91502080  0.83039263  1
  O  O44  1  0.51069696  0.81493220  0.16921441  1
  O  O45  1  0.74444463  0.33985471  0.33629570  1
  O  O46  1  0.79494122  0.20638518  0.74952495  1
  O  O47  1  0.75269002  0.23951026  0.57087267  1
  O  O48  1  0.78594303  0.22905053  0.92915931  1
  O  O49  1  0.61882849  0.47122590  0.82724674  1
  O  O50  1  0.51515975  0.66267395  0.67149852  1
  O  O51  1  0.65642054  0.25900535  0.16432511  1
  O  O52  1  0.48012209  0.61844617  0.32046141  1
  O  O53  1  0.34422910  0.91437170  0.33175337  1
  O  O54  1  0.79560747  0.99802505  0.24870156  1
  O  O55  1  0.76076971  0.00509411  0.42608368  1
  O  O56  1  0.23120895  0.99507074  0.57687447  1
  O  O57  1  0.65557082  0.08572485  0.66759678  1
  O  O58  1  0.52201295  0.38158092  0.68161165  1
  O  O59  1  0.34526566  0.74215721  0.82983621  1
  O  O60  1  0.48312226  0.33649193  0.32356578  1
  O  O61  1  0.38293182  0.53202947  0.17395255  1
  O  O62  1  0.21627530  0.78676827  0.07890902  1
  O  O63  1  0.25127339  0.75595021  0.43249699  1
  O  O64  1  0.20200838  0.78890028  0.25727531  1
  O  O65  1  0.25819441  0.65987150  0.66330884  1
  O  O66  1  0.48152093  0.18491941  0.82505276  1
  O  O67  1  0.53452615  0.08208458  0.17195962  1
  O  O68  1  0.33260014  0.48157134  0.82637497  1
  O  O69  1  0.33498923  0.33365379  0.97427370  1
  O  O70  1  0.34552597  0.33212230  0.47231481  1
  O  O71  1  0.18234845  0.48530660  0.32813194  1
  O  O72  1  0.38086430  0.09207112  0.67770594  1
  O  O73  1  0.33829372  0.18696056  0.32094704  1
  O  O74  1  0.08668694  0.65286089  0.16723409  1
  O  O75  1  0.99560121  0.79759916  0.74356093  1
  O  O76  1  0.99687265  0.79529379  0.92235686  1
  O  O77  1  0.09589231  0.52445531  0.67713214  1
  O  O78  1  0.18577997  0.33213456  0.82441645  1
  O  O79  1  0.08512790  0.38202123  0.17349644  1
  O  O80  1  0.25702371  0.08438603  0.16186504  1
  O  O81  1  0.22924359  0.98084778  0.93365827  1
  O  O82  1  0.19983934  0.00890233  0.75543681  1
  O  O83  1  0.08532984  0.25962596  0.66511249  1
  O  O84  1  0.99689147  0.24093084  0.43513295  1
  O  O85  1  0.00577581  0.20271211  0.25531928  1
