# generated using pymatgen
data_V3FeSb2(PO4)6
_symmetry_space_group_name_H-M   'P 1'
_cell_length_a   8.89795586
_cell_length_b   8.70525318
_cell_length_c   8.70525337
_cell_angle_alpha   59.99999702
_cell_angle_beta   60.71385480
_cell_angle_gamma   60.71385487
_symmetry_Int_Tables_number   1
_chemical_formula_structural   V3FeSb2(PO4)6
_chemical_formula_sum   'V3 Fe1 Sb2 P6 O24'
_cell_volume   481.88204463
_cell_formula_units_Z   1
loop_
 _symmetry_equiv_pos_site_id
 _symmetry_equiv_pos_as_xyz
  1  'x, y, z'
loop_
 _atom_site_type_symbol
 _atom_site_label
 _atom_site_symmetry_multiplicity
 _atom_site_fract_x
 _atom_site_fract_y
 _atom_site_fract_z
 _atom_site_occupancy
  V  V0  1  0.06083819  0.64638694  0.64638694  1
  V  V1  1  0.43702275  0.85432575  0.85432575  1
  V  V2  1  0.93983505  0.35338798  0.35338798  1
  Fe  Fe3  1  0.54910794  0.15029735  0.15029735  1
  Sb  Sb4  1  0.98410865  0.00529712  0.00529712  1
  Sb  Sb5  1  0.50123985  0.49958705  0.49958705  1
  P  P6  1  0.25055384  0.24924530  0.54106765  1
  P  P7  1  0.25055384  0.95913421  0.24924530  1
  P  P8  1  0.25055384  0.54106765  0.95913421  1
  P  P9  1  0.75061759  0.46014384  0.03909106  1
  P  P10  1  0.75061759  0.03909106  0.75014751  1
  P  P11  1  0.75061759  0.75014751  0.46014384  1
  O  O12  1  0.07559582  0.11483443  0.30160455  1
  O  O13  1  0.07559582  0.50796520  0.11483443  1
  O  O14  1  0.07559582  0.30160455  0.50796520  1
  O  O15  1  0.24560607  0.08492978  0.73217787  1
  O  O16  1  0.42712127  0.19872547  0.38369540  1
  O  O17  1  0.25624313  0.41632739  0.56062291  1
  O  O18  1  0.24560607  0.93728628  0.08492978  1
  O  O19  1  0.25624313  0.76680557  0.41632739  1
  O  O20  1  0.57645997  0.61426863  0.00718691  1
  O  O21  1  0.25624313  0.56062291  0.76680557  1
  O  O22  1  0.75709223  0.26528472  0.06031735  1
  O  O23  1  0.57645997  0.00718691  0.80208449  1
  O  O24  1  0.42712127  0.99045786  0.19872547  1
  O  O25  1  0.24560607  0.73217787  0.93728628  1
  O  O26  1  0.74484484  0.43743957  0.23286141  1
  O  O27  1  0.42712127  0.38369540  0.99045786  1
  O  O28  1  0.74484484  0.23286141  0.58485418  1
  O  O29  1  0.75709223  0.06031735  0.91730570  1
  O  O30  1  0.74484484  0.58485418  0.43743957  1
  O  O31  1  0.57645997  0.80208449  0.61426863  1
  O  O32  1  0.75709223  0.91730570  0.26528472  1
  O  O33  1  0.92514643  0.69798036  0.49252124  1
  O  O34  1  0.92514643  0.49252124  0.88435297  1
  O  O35  1  0.92514643  0.88435297  0.69798036  1
