# generated using pymatgen
data_LiFe(PO3)3
_symmetry_space_group_name_H-M   'P 1'
_cell_length_a   7.07361341
_cell_length_b   7.40666504
_cell_length_c   6.80583244
_cell_angle_alpha   102.80310909
_cell_angle_beta   95.32238535
_cell_angle_gamma   84.04074935
_symmetry_Int_Tables_number   1
_chemical_formula_structural   LiFe(PO3)3
_chemical_formula_sum   'Li2 Fe2 P6 O18'
_cell_volume   344.93055143
_cell_formula_units_Z   2
loop_
 _symmetry_equiv_pos_site_id
 _symmetry_equiv_pos_as_xyz
  1  'x, y, z'
loop_
 _atom_site_type_symbol
 _atom_site_label
 _atom_site_symmetry_multiplicity
 _atom_site_fract_x
 _atom_site_fract_y
 _atom_site_fract_z
 _atom_site_occupancy
  Li  Li0  1  0.27488876  0.12991875  0.92866201  1
  Li  Li1  1  0.72511124  0.87008125  0.07133799  1
  Fe  Fe2  1  0.14615119  0.15128008  0.43949677  1
  Fe  Fe3  1  0.85384881  0.84871992  0.56050323  1
  P  P4  1  0.15190398  0.54899200  0.77259127  1
  P  P5  1  0.29765339  0.77710014  0.15192795  1
  P  P6  1  0.38019238  0.77771671  0.58397398  1
  P  P7  1  0.61980762  0.22228329  0.41602602  1
  P  P8  1  0.70234661  0.22289986  0.84807205  1
  P  P9  1  0.84809602  0.45100800  0.22740873  1
  O  O10  1  0.02858842  0.33243198  0.25909585  1
  O  O11  1  0.15097449  0.33998446  0.71333989  1
  O  O12  1  0.13341727  0.92555095  0.19686597  1
  O  O13  1  0.23132384  0.94189618  0.63732564  1
  O  O14  1  0.22051464  0.59047383  0.00825898  1
  O  O15  1  0.32555768  0.60464139  0.66702841  1
  O  O16  1  0.35568669  0.68893580  0.34611981  1
  O  O17  1  0.41440615  0.19585028  0.35788101  1
  O  O18  1  0.53425981  0.17372283  0.93510904  1
  O  O19  1  0.46574019  0.82627717  0.06489096  1
  O  O20  1  0.58559385  0.80414972  0.64211899  1
  O  O21  1  0.64431331  0.31106420  0.65388019  1
  O  O22  1  0.67444232  0.39535861  0.33297159  1
  O  O23  1  0.77948536  0.40952617  0.99174102  1
  O  O24  1  0.76867616  0.05810382  0.36267436  1
  O  O25  1  0.86658273  0.07444905  0.80313403  1
  O  O26  1  0.84902551  0.66001554  0.28666111  1
  O  O27  1  0.97141158  0.66756802  0.74090415  1
