# generated using pymatgen
data_Li6(NiO2)5
_symmetry_space_group_name_H-M   'P 1'
_cell_length_a   7.93896059
_cell_length_b   5.17384243
_cell_length_c   5.63596488
_cell_angle_alpha   66.90567452
_cell_angle_beta   112.88797936
_cell_angle_gamma   87.57211762
_symmetry_Int_Tables_number   1
_chemical_formula_structural   Li6(NiO2)5
_chemical_formula_sum   'Li6 Ni5 O10'
_cell_volume   190.91914791
_cell_formula_units_Z   1
loop_
 _symmetry_equiv_pos_site_id
 _symmetry_equiv_pos_as_xyz
  1  'x, y, z'
loop_
 _atom_site_type_symbol
 _atom_site_label
 _atom_site_symmetry_multiplicity
 _atom_site_fract_x
 _atom_site_fract_y
 _atom_site_fract_z
 _atom_site_occupancy
  Li  Li0  1  0.25532079  0.26360203  0.86042347  1
  Li  Li1  1  0.04596123  0.82284896  0.61936501  1
  Li  Li2  1  0.70634194  0.81917651  0.13069824  1
  Li  Li3  1  0.55393589  0.37771901  0.98072836  1
  Li  Li4  1  0.89396622  0.38055987  0.46973995  1
  Li  Li5  1  0.34422270  0.93599311  0.73914306  1
  Ni  Ni6  1  0.99740898  0.00290878  0.00141702  1
  Ni  Ni7  1  0.19551910  0.40851856  0.20778388  1
  Ni  Ni8  1  0.60277514  0.19724748  0.59843089  1
  Ni  Ni9  1  0.40382733  0.79157148  0.39162145  1
  Ni  Ni10  1  0.80056799  0.59963945  0.80065135  1
  O  O11  1  0.44185627  0.21485447  0.23450545  1
  O  O12  1  0.22058904  0.84351450  0.98849786  1
  O  O13  1  0.02443525  0.43003601  0.80989556  1
  O  O14  1  0.37895387  0.35766173  0.61058361  1
  O  O15  1  0.84028555  0.01961404  0.63642361  1
  O  O16  1  0.15825098  0.98433100  0.36544981  1
  O  O17  1  0.65240046  0.60453681  0.43817260  1
  O  O18  1  0.94766846  0.59429078  0.16263896  1
  O  O19  1  0.75978952  0.18032037  0.96393569  1
  O  O20  1  0.57579129  0.77079306  0.78976217  1
