# generated using pymatgen
data_Li4V2Fe5O12
_symmetry_space_group_name_H-M   'P 1'
_cell_length_a   5.12407424
_cell_length_b   9.06229213
_cell_length_c   9.97310050
_cell_angle_alpha   89.99999763
_cell_angle_beta   101.65823507
_cell_angle_gamma   90.00000401
_symmetry_Int_Tables_number   1
_chemical_formula_structural   Li4V2Fe5O12
_chemical_formula_sum   'Li8 V4 Fe10 O24'
_cell_volume   453.55569836
_cell_formula_units_Z   2
loop_
 _symmetry_equiv_pos_site_id
 _symmetry_equiv_pos_as_xyz
  1  'x, y, z'
loop_
 _atom_site_type_symbol
 _atom_site_label
 _atom_site_symmetry_multiplicity
 _atom_site_fract_x
 _atom_site_fract_y
 _atom_site_fract_z
 _atom_site_occupancy
  Li  Li0  1  0.24287395  0.07952503  0.99562307  1
  Li  Li1  1  0.76298695  0.07785667  0.50756559  1
  Li  Li2  1  0.49189639  0.42092039  0.75301540  1
  Li  Li3  1  0.74829732  0.41641913  0.50098344  1
  Li  Li4  1  0.25712605  0.57952503  0.50437693  1
  Li  Li5  1  0.73701305  0.57785667  0.99243441  1
  Li  Li6  1  0.00810361  0.92092039  0.74698460  1
  Li  Li7  1  0.75170268  0.91641913  0.99901656  1
  V  V8  1  0.00455121  0.25456152  0.75704330  1
  V  V9  1  0.49531942  0.25301226  0.24434365  1
  V  V10  1  0.00468058  0.75301226  0.25565635  1
  V  V11  1  0.49544879  0.75456152  0.74295670  1
  Fe  Fe12  1  0.00157837  0.07709414  0.25799805  1
  Fe  Fe13  1  0.49610038  0.07438399  0.74282207  1
  Fe  Fe14  1  0.25640420  0.24415194  0.50333663  1
  Fe  Fe15  1  0.74159741  0.25361886  0.99799603  1
  Fe  Fe16  1  0.01119952  0.42143039  0.25183060  1
  Fe  Fe17  1  0.00389962  0.57438399  0.75717793  1
  Fe  Fe18  1  0.49842163  0.57709414  0.24200195  1
  Fe  Fe19  1  0.24359580  0.74415194  0.99666337  1
  Fe  Fe20  1  0.75840259  0.75361886  0.50200397  1
  Fe  Fe21  1  0.48880048  0.92143039  0.24816940  1
  O  O22  1  0.12636030  0.10092731  0.63966146  1
  O  O23  1  0.40355283  0.09450876  0.36421451  1
  O  O24  1  0.36473918  0.23598019  0.86522138  1
  O  O25  1  0.61442092  0.09083853  0.12158207  1
  O  O26  1  0.86465643  0.10030461  0.87590547  1
  O  O27  1  0.11213360  0.25044788  0.13513310  1
  O  O28  1  0.11130392  0.40856166  0.64058578  1
  O  O29  1  0.65161084  0.23915201  0.63981460  1
  O  O30  1  0.86653160  0.26045503  0.36554669  1
  O  O31  1  0.37050477  0.41213909  0.37337246  1
  O  O32  1  0.63936244  0.40874691  0.12864198  1
  O  O33  1  0.86592582  0.40636969  0.86767151  1
  O  O34  1  0.09644717  0.59450876  0.13578549  1
  O  O35  1  0.37363970  0.60092731  0.86033854  1
  O  O36  1  0.13526082  0.73598019  0.63477862  1
  O  O37  1  0.63534357  0.60030461  0.62409453  1
  O  O38  1  0.38786640  0.75044788  0.36486690  1
  O  O39  1  0.88557908  0.59083853  0.37841793  1
  O  O40  1  0.84838916  0.73915201  0.86018540  1
  O  O41  1  0.12949523  0.91213909  0.12662754  1
  O  O42  1  0.38869608  0.90856166  0.85941422  1
  O  O43  1  0.63346840  0.76045403  0.13445331  1
  O  O44  1  0.63407418  0.90636969  0.63232849  1
  O  O45  1  0.86063756  0.90874691  0.37135802  1
