# generated using pymatgen
data_Li2Fe(PO3)4
_symmetry_space_group_name_H-M   'P 1'
_cell_length_a   9.37521345
_cell_length_b   9.37581787
_cell_length_c   4.66945613
_cell_angle_alpha   89.99467627
_cell_angle_beta   90.00912643
_cell_angle_gamma   89.95268150
_symmetry_Int_Tables_number   1
_chemical_formula_structural   Li2Fe(PO3)4
_chemical_formula_sum   'Li4 Fe2 P8 O24'
_cell_volume   410.44641868
_cell_formula_units_Z   2
loop_
 _symmetry_equiv_pos_site_id
 _symmetry_equiv_pos_as_xyz
  1  'x, y, z'
loop_
 _atom_site_type_symbol
 _atom_site_label
 _atom_site_symmetry_multiplicity
 _atom_site_fract_x
 _atom_site_fract_y
 _atom_site_fract_z
 _atom_site_occupancy
  Li  Li0  1  0.99998293  0.00001260  0.50002996  1
  Li  Li1  1  0.00004005  0.49994699  0.49999113  1
  Li  Li2  1  0.50000591  0.50004504  0.49997038  1
  Li  Li3  1  0.49999434  0.99998270  0.50001845  1
  Fe  Fe4  1  0.25003297  0.24993490  0.50000252  1
  Fe  Fe5  1  0.75009027  0.75002445  0.49999827  1
  P  P6  1  0.02590713  0.75010944  0.00007260  1
  P  P7  1  0.25008168  0.52587809  0.00004509  1
  P  P8  1  0.24991016  0.97413926  0.00006639  1
  P  P9  1  0.47408456  0.74991354  0.00007117  1
  P  P10  1  0.52585705  0.25008832  -0.00006541  1
  P  P11  1  0.75009092  0.02591079  -0.00005958  1
  P  P12  1  0.74991351  0.47408692  -0.00007879  1
  P  P13  1  0.97414168  0.24989815  -0.00005547  1
  O  O14  1  0.04977345  0.31999532  0.24563471  1
  O  O15  1  0.04969928  0.17991114  0.75433647  1
  O  O16  1  0.13455698  0.86543579  0.85505030  1
  O  O17  1  0.13460273  0.63461982  0.14490057  1
  O  O18  1  0.17993747  0.04972360  0.24567330  1
  O  O19  1  0.17995340  0.45028229  0.75435314  1
  O  O20  1  0.32008975  0.45028497  0.24568215  1
  O  O21  1  0.32001442  0.04974446  0.75437219  1
  O  O22  1  0.36539644  0.86538355  0.14493169  1
  O  O23  1  0.36539562  0.63461731  0.85504722  1
  O  O24  1  0.45028479  0.17997549  0.24564533  1
  O  O25  1  0.45023825  0.32007383  0.75429134  1
  O  O26  1  0.54974755  0.67992381  0.24565051  1
  O  O27  1  0.54970640  0.82007788  0.75428103  1
  O  O28  1  0.63459430  0.13460698  0.85508796  1
  O  O29  1  0.63459234  0.36541927  0.14490115  1
  O  O30  1  0.67995622  0.95026450  0.24574814  1
  O  O31  1  0.67992957  0.54974727  0.75432290  1
  O  O32  1  0.82007898  0.54969609  0.24573733  1
  O  O33  1  0.82006034  0.95029032  0.75438324  1
  O  O34  1  0.86541096  0.13457533  0.14497625  1
  O  O35  1  0.86538047  0.36539244  0.85509141  1
  O  O36  1  0.95024803  0.67997064  0.75426394  1
  O  O37  1  0.95028109  0.82007671  0.24563001  1
