# generated using pymatgen
data_Mn2InCuTe4
_symmetry_space_group_name_H-M   'P 1'
_cell_length_a   5.85571385
_cell_length_b   5.85571385
_cell_length_c   7.15561125
_cell_angle_alpha   65.84733365
_cell_angle_beta   65.84733365
_cell_angle_gamma   90.00000000
_symmetry_Int_Tables_number   1
_chemical_formula_structural   Mn2InCuTe4
_chemical_formula_sum   'Mn2 In1 Cu1 Te4'
_cell_volume   200.11045224
_cell_formula_units_Z   1
loop_
 _symmetry_equiv_pos_site_id
 _symmetry_equiv_pos_as_xyz
  1  'x, y, z'
loop_
 _atom_site_type_symbol
 _atom_site_label
 _atom_site_symmetry_multiplicity
 _atom_site_fract_x
 _atom_site_fract_y
 _atom_site_fract_z
 _atom_site_occupancy
  Mn  Mn0  1  0.25000000  0.75000000  0.50000000  1
  Mn  Mn1  1  0.75000000  0.25000000  0.50000000  1
  In  In2  1  0.50000000  0.50000000  0.00000000  1
  Cu  Cu3  1  0.00000000  0.00000000  0.00000000  1
  Te  Te4  1  0.50000000  0.00000000  0.00000000  1
  Te  Te5  1  0.76527871  0.76527871  0.46944257  1
  Te  Te6  1  0.00000000  0.50000000  0.00000000  1
  Te  Te7  1  0.23472129  0.23472129  0.53055743  1
