# generated using pymatgen
data_LiFe(PO3)3
_symmetry_space_group_name_H-M   'P 1'
_cell_length_a   6.49888897
_cell_length_b   6.47811937
_cell_length_c   9.76374232
_cell_angle_alpha   89.98047524
_cell_angle_beta   90.20538606
_cell_angle_gamma   119.87990924
_symmetry_Int_Tables_number   1
_chemical_formula_structural   LiFe(PO3)3
_chemical_formula_sum   'Li2 Fe2 P6 O18'
_cell_volume   356.41492870
_cell_formula_units_Z   2
loop_
 _symmetry_equiv_pos_site_id
 _symmetry_equiv_pos_as_xyz
  1  'x, y, z'
loop_
 _atom_site_type_symbol
 _atom_site_label
 _atom_site_symmetry_multiplicity
 _atom_site_fract_x
 _atom_site_fract_y
 _atom_site_fract_z
 _atom_site_occupancy
  Li  Li0  1  0.66918830  0.34203081  0.49996939  1
  Li  Li1  1  0.66918524  0.32718382  0.99996721  1
  Fe  Fe2  1  0.33349771  0.66939175  0.00001178  1
  Fe  Fe3  1  0.33343989  0.66398740  0.49999976  1
  P  P4  1  0.02900111  0.75054192  0.75023557  1
  P  P5  1  0.24816829  0.96973183  0.24948726  1
  P  P6  1  0.02894840  0.27840986  0.25017863  1
  P  P7  1  0.24808917  0.27835798  0.74939032  1
  P  P8  1  0.72213808  0.97147385  0.75037350  1
  P  P9  1  0.72214656  0.75073083  0.25031573  1
  O  O10  1  0.04084702  0.63772959  0.88235336  1
  O  O11  1  0.03101371  0.63563772  0.61678723  1
  O  O12  1  0.36438485  0.96504321  0.11741959  1
  O  O13  1  0.35836120  0.95972768  0.38293562  1
  O  O14  1  0.03094617  0.39541603  0.11685518  1
  O  O15  1  0.04086602  0.40312042  0.38241197  1
  O  O16  1  0.35846688  0.39861278  0.88288979  1
  O  O17  1  0.36435550  0.39935295  0.61739063  1
  O  O18  1  0.59850600  0.95733881  0.61738144  1
  O  O19  1  0.60571155  0.97252606  0.88309977  1
  O  O20  1  0.23417974  0.20975010  0.24943203  1
  O  O21  1  0.23417604  0.02443939  0.74938081  1
  O  O22  1  0.60571648  0.63316055  0.38317630  1
  O  O23  1  0.59857297  0.64123173  0.11747975  1
  O  O24  1  0.79011713  0.76503170  0.75499758  1
  O  O25  1  0.97492708  0.76453304  0.24554587  1
  O  O26  1  0.79013594  0.02511123  0.25504365  1
  O  O27  1  0.97491295  0.21039598  0.74549128  1
