# generated using pymatgen
data_Li3Ti2Fe3O10
_symmetry_space_group_name_H-M   'P 1'
_cell_length_a   5.20863507
_cell_length_b   5.14982524
_cell_length_c   7.83735544
_cell_angle_alpha   73.51885350
_cell_angle_beta   106.53254393
_cell_angle_gamma   101.85509966
_symmetry_Int_Tables_number   1
_chemical_formula_structural   Li3Ti2Fe3O10
_chemical_formula_sum   'Li3 Ti2 Fe3 O10'
_cell_volume   191.46771496
_cell_formula_units_Z   1
loop_
 _symmetry_equiv_pos_site_id
 _symmetry_equiv_pos_as_xyz
  1  'x, y, z'
loop_
 _atom_site_type_symbol
 _atom_site_label
 _atom_site_symmetry_multiplicity
 _atom_site_fract_x
 _atom_site_fract_y
 _atom_site_fract_z
 _atom_site_occupancy
  Li  Li0  1  0.21271301  0.51685624  0.39341802  1
  Li  Li1  1  0.50000000  0.00000000  0.50000000  1
  Li  Li2  1  0.78728699  0.48314376  0.60658198  1
  Ti  Ti3  1  0.11584021  0.01853811  0.68819543  1
  Ti  Ti4  1  0.88415979  0.98146189  0.31180457  1
  Fe  Fe5  1  0.00000000  0.50000000  0.00000000  1
  Fe  Fe6  1  0.68756436  0.96944837  0.89756107  1
  Fe  Fe7  1  0.31243564  0.03055163  0.10243893  1
  O  O8  1  0.04121261  0.23090595  0.85661352  1
  O  O9  1  0.10554460  0.78297175  0.52467607  1
  O  O10  1  0.32143538  0.78685547  0.93899257  1
  O  O11  1  0.20142632  0.25554626  0.22862870  1
  O  O12  1  0.45964161  0.19477112  0.66748792  1
  O  O13  1  0.54035839  0.80522888  0.33251208  1
  O  O14  1  0.79857368  0.74445374  0.77137130  1
  O  O15  1  0.67856462  0.21314453  0.06100743  1
  O  O16  1  0.89445540  0.21702825  0.47532393  1
  O  O17  1  0.95878739  0.76909405  0.14338648  1
