# generated using pymatgen
data_Li2Fe3P9O28
_symmetry_space_group_name_H-M   'P 1'
_cell_length_a   7.10128157
_cell_length_b   9.25100607
_cell_length_c   9.03706821
_cell_angle_alpha   68.56038106
_cell_angle_beta   98.43862527
_cell_angle_gamma   70.69618303
_symmetry_Int_Tables_number   1
_chemical_formula_structural   Li2Fe3P9O28
_chemical_formula_sum   'Li2 Fe3 P9 O28'
_cell_volume   496.74955451
_cell_formula_units_Z   1
loop_
 _symmetry_equiv_pos_site_id
 _symmetry_equiv_pos_as_xyz
  1  'x, y, z'
loop_
 _atom_site_type_symbol
 _atom_site_label
 _atom_site_symmetry_multiplicity
 _atom_site_fract_x
 _atom_site_fract_y
 _atom_site_fract_z
 _atom_site_occupancy
  Li  Li0  1  0.95061742  0.51571228  0.92288246  1
  Li  Li1  1  0.54938258  0.98428772  0.07711754  1
  Fe  Fe2  1  0.75000000  0.75000000  0.50000000  1
  Fe  Fe3  1  0.48073963  0.51239216  0.97757464  1
  Fe  Fe4  1  0.01926037  0.98760784  0.02242536  1
  P  P5  1  0.56410945  0.28836149  0.75933618  1
  P  P6  1  0.03496248  0.81656300  0.75888848  1
  P  P7  1  0.93970399  0.32680572  0.70560875  1
  P  P8  1  0.39061222  0.86087144  0.66725417  1
  P  P9  1  0.25000000  0.25000000  0.50000000  1
  P  P10  1  0.56029601  0.17319428  0.29439125  1
  P  P11  1  0.10938778  0.63912856  0.33274583  1
  P  P12  1  0.93589055  0.21163851  0.24066382  1
  P  P13  1  0.46503752  0.68343700  0.24111152  1
  O  O14  1  0.67271149  0.11568576  0.91481366  1
  O  O15  1  0.16429059  0.62970464  0.89201835  1
  O  O16  1  0.51291502  0.73042996  0.84879242  1
  O  O17  1  0.06579604  0.19315572  0.88410919  1
  O  O18  1  0.99955481  0.94543029  0.82830434  1
  O  O19  1  0.49188570  0.44103770  0.79668373  1
  O  O20  1  0.88592088  0.50372754  0.69830317  1
  O  O21  1  0.35920077  0.04316066  0.65481162  1
  O  O22  1  0.83166106  0.83246945  0.65972989  1
  O  O23  1  0.37141456  0.30452631  0.63576092  1
  O  O24  1  0.72333765  0.30951864  0.65134201  1
  O  O25  1  0.16059550  0.86557175  0.62700245  1
  O  O26  1  0.47460220  0.82096108  0.53713289  1
  O  O27  1  0.03356825  0.29643229  0.56841984  1
  O  O28  1  0.02539780  0.67903892  0.46286711  1
  O  O29  1  0.46643175  0.20356771  0.43158016  1
  O  O30  1  0.77666235  0.19048136  0.34865799  1
  O  O31  1  0.33940450  0.63442825  0.37299755  1
  O  O32  1  0.66833894  0.66753055  0.34027011  1
  O  O33  1  0.12858544  0.19547369  0.36423908  1
  O  O34  1  0.61407912  0.99627246  0.30169683  1
  O  O35  1  0.14079923  0.45683934  0.34518838  1
  O  O36  1  0.50044519  0.55456971  0.17169566  1
  O  O37  1  0.00811430  0.05896230  0.20331627  1
  O  O38  1  0.98708498  0.76957004  0.15120758  1
  O  O39  1  0.43420396  0.30684428  0.11589081  1
  O  O40  1  0.82728851  0.38431424  0.08518634  1
  O  O41  1  0.33570941  0.87029536  0.10798165  1
