# generated using pymatgen
data_LiFe5P3O13
_symmetry_space_group_name_H-M   'P 1'
_cell_length_a   6.38370217
_cell_length_b   8.55378399
_cell_length_c   9.72834769
_cell_angle_alpha   94.23552102
_cell_angle_beta   91.34400321
_cell_angle_gamma   89.88535176
_symmetry_Int_Tables_number   1
_chemical_formula_structural   LiFe5P3O13
_chemical_formula_sum   'Li2 Fe10 P6 O26'
_cell_volume   529.61799930
_cell_formula_units_Z   2
loop_
 _symmetry_equiv_pos_site_id
 _symmetry_equiv_pos_as_xyz
  1  'x, y, z'
loop_
 _atom_site_type_symbol
 _atom_site_label
 _atom_site_symmetry_multiplicity
 _atom_site_fract_x
 _atom_site_fract_y
 _atom_site_fract_z
 _atom_site_occupancy
  Li  Li0  1  0.23879257  0.40698288  0.44624213  1
  Li  Li1  1  0.76120743  0.59301712  0.55375787  1
  Fe  Fe2  1  0.00142496  0.12797099  0.77640689  1
  Fe  Fe3  1  0.25175639  0.84837639  0.90264926  1
  Fe  Fe4  1  0.25614099  0.78640740  0.56487156  1
  Fe  Fe5  1  0.25071823  0.57520154  0.10107511  1
  Fe  Fe6  1  0.50722626  0.12809080  0.77687882  1
  Fe  Fe7  1  0.49277374  0.87190920  0.22312118  1
  Fe  Fe8  1  0.74928177  0.42479846  0.89892489  1
  Fe  Fe9  1  0.74385901  0.21359260  0.43512844  1
  Fe  Fe10  1  0.74824361  0.15162361  0.09735074  1
  Fe  Fe11  1  0.99857504  0.87202901  0.22359311  1
  P  P12  1  0.25404942  0.47245637  0.75384891  1
  P  P13  1  0.24760085  0.10794309  0.48029061  1
  P  P14  1  0.25092600  0.17633518  0.09581129  1
  P  P15  1  0.74907400  0.82366482  0.90418871  1
  P  P16  1  0.75239915  0.89205691  0.51970939  1
  P  P17  1  0.74595058  0.52754363  0.24615109  1
  O  O18  1  0.05319243  0.37045327  0.75663617  1
  O  O19  1  0.05629355  0.21296345  0.45702330  1
  O  O20  1  0.05087856  0.10632272  0.15637054  1
  O  O21  1  0.25671796  0.12523874  0.93797965  1
  O  O22  1  0.25731006  0.59849214  0.87742183  1
  O  O23  1  0.25115275  0.05110669  0.63315653  1
  O  O24  1  0.25179345  0.55530790  0.61454216  1
  O  O25  1  0.24898083  0.95143822  0.38813836  1
  O  O26  1  0.23962337  0.80360864  0.10166407  1
  O  O27  1  0.24847518  0.35278924  0.12673667  1
  O  O28  1  0.45514233  0.37006001  0.76197165  1
  O  O29  1  0.43373057  0.21735322  0.46074234  1
  O  O30  1  0.54820403  0.89127555  0.83568950  1
  O  O31  1  0.45179597  0.10872445  0.16431050  1
  O  O32  1  0.56626943  0.78264678  0.53925766  1
  O  O33  1  0.54485767  0.62993999  0.23802835  1
  O  O34  1  0.75152482  0.64721076  0.87326333  1
  O  O35  1  0.76037663  0.19639136  0.89833593  1
  O  O36  1  0.75101917  0.04856178  0.61186164  1
  O  O37  1  0.74820655  0.44469210  0.38545784  1
  O  O38  1  0.74884725  0.94889331  0.36684347  1
  O  O39  1  0.74268994  0.40150786  0.12257817  1
  O  O40  1  0.74328204  0.87476126  0.06202035  1
  O  O41  1  0.94912144  0.89367728  0.84362946  1
  O  O42  1  0.94370645  0.78703655  0.54297670  1
  O  O43  1  0.94680757  0.62954673  0.24336383  1
