# generated using pymatgen
data_Li2Mn3(PO4)4
_symmetry_space_group_name_H-M   'P 1'
_cell_length_a   7.70480568
_cell_length_b   10.96374677
_cell_length_c   7.64466143
_cell_angle_alpha   74.30902606
_cell_angle_beta   101.81166028
_cell_angle_gamma   74.22516884
_symmetry_Int_Tables_number   1
_chemical_formula_structural   Li2Mn3(PO4)4
_chemical_formula_sum   'Li4 Mn6 P8 O32'
_cell_volume   570.67759068
_cell_formula_units_Z   2
loop_
 _symmetry_equiv_pos_site_id
 _symmetry_equiv_pos_as_xyz
  1  'x, y, z'
loop_
 _atom_site_type_symbol
 _atom_site_label
 _atom_site_symmetry_multiplicity
 _atom_site_fract_x
 _atom_site_fract_y
 _atom_site_fract_z
 _atom_site_occupancy
  Li  Li0  1  0.21787192  0.26926639  0.47190212  1
  Li  Li1  1  0.74780806  0.01224091  0.22886120  1
  Li  Li2  1  0.47865721  0.48497868  0.51956970  1
  Li  Li3  1  0.72429567  0.26948427  0.96871664  1
  Mn  Mn4  1  0.25059190  0.22520450  0.99659176  1
  Mn  Mn5  1  0.29519709  0.71972876  0.04379909  1
  Mn  Mn6  1  0.74594188  0.22198900  0.49833452  1
  Mn  Mn7  1  0.25763631  0.79089448  0.50968737  1
  Mn  Mn8  1  0.80344894  0.71530286  0.55354363  1
  Mn  Mn9  1  0.75435170  0.78613488  0.00353007  1
  P  P10  1  0.04769408  0.09795627  0.28969473  1
  P  P11  1  0.37833668  0.39981942  0.12829942  1
  P  P12  1  0.11103701  0.59995359  0.36142232  1
  P  P13  1  0.54335123  0.09398753  0.79645897  1
  P  P14  1  0.46394654  0.90504174  0.21572525  1
  P  P15  1  0.88185031  0.39747482  0.63096926  1
  P  P16  1  0.61496042  0.59654289  0.86506942  1
  P  P17  1  0.96534924  0.90613905  0.71673680  1
  O  O18  1  0.04768484  0.16492351  0.07955725  1
  O  O19  1  0.43538762  0.05629002  0.18089240  1
  O  O20  1  0.19355852  0.10579799  0.44275645  1
  O  O21  1  0.23684816  0.32720315  0.17969107  1
  O  O22  1  0.22477885  0.45234691  0.46799299  1
  O  O23  1  0.04704989  0.67808349  0.49591412  1
  O  O24  1  0.54727001  0.67565202  0.99727848  1
  O  O25  1  0.25623895  0.67123932  0.30194630  1
  O  O26  1  0.53961154  0.38139134  0.30323899  1
  O  O27  1  0.04985757  0.37763823  0.79518735  1
  O  O28  1  0.31872190  0.88573878  0.06610632  1
  O  O29  1  0.06388351  0.94646128  0.31617799  1
  O  O30  1  0.83266613  0.16280807  0.28558454  1
  O  O31  1  0.33492858  0.16635670  0.79348502  1
  O  O32  1  0.54592129  0.16835133  0.58949993  1
  O  O33  1  0.92945339  0.05701014  0.67870581  1
  O  O34  1  0.17263002  0.83068880  0.72606759  1
  O  O35  1  0.67454365  0.83876724  0.22101217  1
  O  O36  1  0.47162897  0.83072509  0.42259325  1
  O  O37  1  0.69298972  0.09854228  0.95450343  1
  O  O38  1  0.44759024  0.62186675  0.68905990  1
  O  O39  1  0.94363426  0.62451023  0.19274621  1
  O  O40  1  0.72782117  0.33702115  0.68362784  1
  O  O41  1  0.43989985  0.32672830  0.98960877  1
  O  O42  1  0.93106382  0.32308851  0.49062957  1
  O  O43  1  0.77667756  0.55150763  0.52460837  1
  O  O44  1  0.27497994  0.55303042  0.02394884  1
  O  O45  1  0.71448745  0.44837989  0.96696293  1
  O  O46  1  0.74874691  0.67466801  0.79937537  1
  O  O47  1  0.81988409  0.88753685  0.56194022  1
  O  O48  1  0.56789089  0.94394519  0.81509595  1
  O  O49  1  0.96817552  0.83222335  0.92263130  1
