# generated using pymatgen
data_Li4Ti2Ni5O12
_symmetry_space_group_name_H-M   'P 1'
_cell_length_a   5.00766086
_cell_length_b   8.93522638
_cell_length_c   9.84684490
_cell_angle_alpha   90.00000336
_cell_angle_beta   101.35508794
_cell_angle_gamma   90.00000491
_symmetry_Int_Tables_number   1
_chemical_formula_structural   Li4Ti2Ni5O12
_chemical_formula_sum   'Li8 Ti4 Ni10 O24'
_cell_volume   431.96872184
_cell_formula_units_Z   2
loop_
 _symmetry_equiv_pos_site_id
 _symmetry_equiv_pos_as_xyz
  1  'x, y, z'
loop_
 _atom_site_type_symbol
 _atom_site_label
 _atom_site_symmetry_multiplicity
 _atom_site_fract_x
 _atom_site_fract_y
 _atom_site_fract_z
 _atom_site_occupancy
  Li  Li0  1  0.24569543  0.07379463  0.98723051  1
  Li  Li1  1  0.74839100  0.06781684  0.51097133  1
  Li  Li2  1  0.49286653  0.41915654  0.75176981  1
  Li  Li3  1  0.25430457  0.57379463  0.51276949  1
  Li  Li4  1  0.75283348  0.42224526  0.50493148  1
  Li  Li5  1  0.75160900  0.56781684  0.98902867  1
  Li  Li6  1  0.00713347  0.91915654  0.74823019  1
  Li  Li7  1  0.74716652  0.92224526  0.99506852  1
  Ti  Ti8  1  0.99521031  0.25944139  0.74622864  1
  Ti  Ti9  1  0.48245247  0.24858190  0.23358116  1
  Ti  Ti10  1  0.01754753  0.74858190  0.26641884  1
  Ti  Ti11  1  0.50478969  0.75944139  0.75377136  1
  Ni  Ni12  1  0.00131690  0.08269132  0.25408563  1
  Ni  Ni13  1  0.49794577  0.08116682  0.74757351  1
  Ni  Ni14  1  0.26011081  0.24647615  0.50527526  1
  Ni  Ni15  1  0.00324156  0.41895855  0.24988299  1
  Ni  Ni16  1  0.74640943  0.25625797  0.99176354  1
  Ni  Ni17  1  0.00205423  0.58116682  0.75242649  1
  Ni  Ni18  1  0.49868310  0.58269132  0.24591437  1
  Ni  Ni19  1  0.23988919  0.74647615  0.99472474  1
  Ni  Ni20  1  0.75359057  0.75625797  0.50823646  1
  Ni  Ni21  1  0.49675844  0.91895855  0.25011701  1
  O  O22  1  0.13993675  0.09654661  0.63617862  1
  O  O23  1  0.40008788  0.09100603  0.35880636  1
  O  O24  1  0.37363161  0.23003964  0.85961998  1
  O  O25  1  0.13055583  0.24638435  0.12792869  1
  O  O26  1  0.62313178  0.09545063  0.12828030  1
  O  O27  1  0.85781824  0.09628632  0.86587318  1
  O  O28  1  0.64337700  0.24439047  0.62294312  1
  O  O29  1  0.12284031  0.40602562  0.62874124  1
  O  O30  1  0.36680559  0.40683407  0.36198002  1
  O  O31  1  0.88467563  0.26381765  0.36025154  1
  O  O32  1  0.64968473  0.41179112  0.13699505  1
  O  O33  1  0.87827260  0.41332913  0.85990960  1
  O  O34  1  0.09991212  0.59100603  0.14119364  1
  O  O35  1  0.36006325  0.59654661  0.86382138  1
  O  O36  1  0.12636839  0.73003964  0.64038002  1
  O  O37  1  0.64218176  0.59628632  0.63412682  1
  O  O38  1  0.36944417  0.74638435  0.37207131  1
  O  O39  1  0.87686822  0.59545063  0.37171970  1
  O  O40  1  0.13319441  0.90683407  0.13801998  1
  O  O41  1  0.85662300  0.74439047  0.87705688  1
  O  O42  1  0.61532437  0.76381765  0.13974846  1
  O  O43  1  0.37715969  0.90602562  0.87125876  1
  O  O44  1  0.62172740  0.91332913  0.64009040  1
  O  O45  1  0.85031527  0.91179112  0.36300495  1
