# generated using pymatgen
data_V2Fe3P6WO24
_symmetry_space_group_name_H-M   'P 1'
_cell_length_a   8.62140937
_cell_length_b   8.67160431
_cell_length_c   8.67160456
_cell_angle_alpha   59.99999685
_cell_angle_beta   59.80722042
_cell_angle_gamma   59.80721420
_symmetry_Int_Tables_number   1
_chemical_formula_structural   V2Fe3P6WO24
_chemical_formula_sum   'V2 Fe3 P6 W1 O24'
_cell_volume   457.07820865
_cell_formula_units_Z   1
loop_
 _symmetry_equiv_pos_site_id
 _symmetry_equiv_pos_as_xyz
  1  'x, y, z'
loop_
 _atom_site_type_symbol
 _atom_site_label
 _atom_site_symmetry_multiplicity
 _atom_site_fract_x
 _atom_site_fract_y
 _atom_site_fract_z
 _atom_site_occupancy
  V  V0  1  0.00683722  0.99772126  0.99772126  1
  V  V1  1  0.50154035  0.49948688  0.49948688  1
  Fe  Fe2  1  0.06810604  0.64396465  0.64396465  1
  Fe  Fe3  1  0.43653675  0.85448775  0.85448775  1
  Fe  Fe4  1  0.93208435  0.35597222  0.35597222  1
  P  P5  1  0.24487340  0.25235819  0.54860572  1
  P  P6  1  0.24487340  0.95416368  0.25235819  1
  P  P7  1  0.24487340  0.54860572  0.95416368  1
  P  P8  1  0.74881431  0.46257334  0.04448614  1
  P  P9  1  0.74881431  0.04448614  0.74412520  1
  P  P10  1  0.74881431  0.74412520  0.46257334  1
  W  W11  1  0.57072709  0.14309064  0.14309064  1
  O  O12  1  0.07067961  0.11067039  0.31791975  1
  O  O13  1  0.07067961  0.50073125  0.11067039  1
  O  O14  1  0.07067961  0.31791975  0.50073125  1
  O  O15  1  0.23167473  0.08819701  0.73869537  1
  O  O16  1  0.43171237  0.18083944  0.38830068  1
  O  O17  1  0.27397303  0.41136116  0.55402236  1
  O  O18  1  0.23167473  0.94143289  0.08819701  1
  O  O19  1  0.27397303  0.76064245  0.41136116  1
  O  O20  1  0.56743857  0.61229090  0.00481156  1
  O  O21  1  0.27397303  0.55402236  0.76064245  1
  O  O22  1  0.76375001  0.26083705  0.06523178  1
  O  O23  1  0.56743857  0.00481156  0.81545897  1
  O  O24  1  0.43171237  -0.00085349  0.18083944  1
  O  O25  1  0.23167473  0.73869537  0.94143289  1
  O  O26  1  0.73045768  0.43990443  0.24083395  1
  O  O27  1  0.43171237  0.38830068  -0.00085349  1
  O  O28  1  0.73045768  0.24083395  0.58880494  1
  O  O29  1  0.76375001  0.06523178  0.91018216  1
  O  O30  1  0.73045768  0.58880494  0.43990443  1
  O  O31  1  0.56743857  0.81545897  0.61229090  1
  O  O32  1  0.76375001  0.91018216  0.26083705  1
  O  O33  1  0.93134767  0.69070631  0.49232618  1
  O  O34  1  0.93134767  0.49232618  0.88561984  1
  O  O35  1  0.93134767  0.88561984  0.69070631  1
