# generated using pymatgen
data_Li4Ti2Ni3O10
_symmetry_space_group_name_H-M   'P 1'
_cell_length_a   7.80574409
_cell_length_b   6.52787091
_cell_length_c   7.75764310
_cell_angle_alpha   114.41843642
_cell_angle_beta   84.39300639
_cell_angle_gamma   90.22683788
_symmetry_Int_Tables_number   1
_chemical_formula_structural   Li4Ti2Ni3O10
_chemical_formula_sum   'Li8 Ti4 Ni6 O20'
_cell_volume   357.91974506
_cell_formula_units_Z   2
loop_
 _symmetry_equiv_pos_site_id
 _symmetry_equiv_pos_as_xyz
  1  'x, y, z'
loop_
 _atom_site_type_symbol
 _atom_site_label
 _atom_site_symmetry_multiplicity
 _atom_site_fract_x
 _atom_site_fract_y
 _atom_site_fract_z
 _atom_site_occupancy
  Li  Li0  1  0.15114916  0.05922268  0.39476362  1
  Li  Li1  1  0.05194092  0.36225620  0.80408504  1
  Li  Li2  1  0.99761750  0.49804578  0.48994077  1
  Li  Li3  1  0.50238250  0.00195422  0.51005923  1
  Li  Li4  1  0.44805908  0.13774380  0.19591496  1
  Li  Li5  1  0.34885084  0.44077732  0.60523638  1
  Li  Li6  1  0.66322756  0.56811227  0.40032970  1
  Li  Li7  1  0.83677244  0.93188773  0.59967030  1
  Ti  Ti8  1  0.29412369  0.60651444  0.30443826  1
  Ti  Ti9  1  0.20587631  0.89348556  0.69556174  1
  Ti  Ti10  1  0.80071055  0.07776147  0.30925616  1
  Ti  Ti11  1  0.69928945  0.42223853  0.69074384  1
  Ni  Ni12  1  0.09429783  0.20419443  0.09849648  1
  Ni  Ni13  1  0.40570217  0.29580557  0.90150352  1
  Ni  Ni14  1  0.25000000  0.75000000  0.00000000  1
  Ni  Ni15  1  0.75000000  0.25000000  0.00000000  1
  Ni  Ni16  1  0.59879591  0.70464631  0.09746349  1
  Ni  Ni17  1  0.90120409  0.79535369  0.90253651  1
  O  O18  1  0.30089011  0.04193561  0.95820000  1
  O  O19  1  0.28897842  0.16720369  0.67435026  1
  O  O20  1  0.21102158  0.33279631  0.32564974  1
  O  O21  1  0.13304955  0.64549867  0.75851504  1
  O  O22  1  0.19910989  0.45806439  0.04180000  1
  O  O23  1  0.09743736  0.78856772  0.46919398  1
  O  O24  1  0.62263289  0.15953401  0.77626075  1
  O  O25  1  0.02374666  0.94358430  0.15152633  1
  O  O26  1  0.47625334  0.55641570  0.84847367  1
  O  O27  1  0.59565424  0.27870039  0.45702006  1
  O  O28  1  0.40256264  0.71143228  0.53080602  1
  O  O29  1  0.51119027  0.42530276  0.13854173  1
  O  O30  1  0.98880973  0.07469724  0.86145827  1
  O  O31  1  0.36695045  0.85450133  0.24148496  1
  O  O32  1  0.90434576  0.22129961  0.54297994  1
  O  O33  1  0.81103982  0.50776595  0.93214047  1
  O  O34  1  0.87736711  0.34046599  0.22373925  1
  O  O35  1  0.78350293  0.66278123  0.65388525  1
  O  O36  1  0.71649707  0.83721877  0.34611475  1
  O  O37  1  0.68896018  0.99223405  0.06785953  1
