# generated using pymatgen
data_Li3V3P8O29
_symmetry_space_group_name_H-M   'P 1'
_cell_length_a   9.77576162
_cell_length_b   9.79948349
_cell_length_c   14.42803041
_cell_angle_alpha   89.12888453
_cell_angle_beta   89.00104128
_cell_angle_gamma   59.99000234
_symmetry_Int_Tables_number   1
_chemical_formula_structural   Li3V3P8O29
_chemical_formula_sum   'Li6 V6 P16 O58'
_cell_volume   1196.65654000
_cell_formula_units_Z   2
loop_
 _symmetry_equiv_pos_site_id
 _symmetry_equiv_pos_as_xyz
  1  'x, y, z'
loop_
 _atom_site_type_symbol
 _atom_site_label
 _atom_site_symmetry_multiplicity
 _atom_site_fract_x
 _atom_site_fract_y
 _atom_site_fract_z
 _atom_site_occupancy
  Li  Li0  1  0.07567781  0.21630890  0.94911152  1
  Li  Li1  1  0.22921284  0.07848133  0.43344703  1
  Li  Li2  1  0.22669638  0.69261259  0.94358650  1
  Li  Li3  1  0.91228533  0.30838491  0.54625079  1
  Li  Li4  1  0.78294851  0.91645738  0.55520902  1
  Li  Li5  1  0.90552268  0.77751884  0.06241709  1
  V  V6  1  0.00627009  0.56587371  0.25594433  1
  V  V7  1  0.43781301  0.99246753  0.24404766  1
  V  V8  1  0.43861236  0.56636649  0.74544603  1
  V  V9  1  0.56538709  0.43335548  0.25043548  1
  V  V10  1  0.56347118  0.00634574  0.75439853  1
  V  V11  1  0.99885657  0.43390825  0.75018431  1
  P  P12  1  0.09013791  0.23389234  0.16046293  1
  P  P13  1  0.23323176  0.08972777  0.65516768  1
  P  P14  1  0.08992090  0.68406762  0.66279567  1
  P  P15  1  0.33566045  0.32474217  0.36925789  1
  P  P16  1  0.32658945  0.33770257  0.86761418  1
  P  P17  1  0.23100174  0.68396777  0.15891212  1
  P  P18  1  0.31138116  0.77053096  0.33928156  1
  P  P19  1  0.68652384  0.08990189  0.16380826  1
  P  P20  1  0.31263134  0.91301932  0.83389107  1
  P  P21  1  0.68845936  0.22865225  0.66288850  1
  P  P22  1  0.76751888  0.31399009  0.84433500  1
  P  P23  1  0.67501586  0.66212933  0.13138675  1
  P  P24  1  0.67221098  0.67001269  0.63271530  1
  P  P25  1  0.90787047  0.31925232  0.33664714  1
  P  P26  1  0.76569065  0.91355582  0.34198678  1
  P  P27  1  0.91147838  0.76820012  0.84112864  1
  O  O28  1  0.99738669  0.23977904  0.42305718  1
  O  O29  1  0.08262428  0.25608369  0.66657503  1
  O  O30  1  0.21863194  0.98520576  0.73800431  1
  O  O31  1  0.22380793  0.00897530  0.91491941  1
  O  O32  1  0.09797391  0.38432784  0.18075885  1
  O  O33  1  0.25839974  0.08846282  0.17107248  1
  O  O34  1  0.17992113  0.33396298  0.82408164  1
  O  O35  1  0.09613704  0.52306569  0.67982306  1
  O  O36  1  0.99103991  0.75744436  0.93062245  1
  O  O37  1  0.08317604  0.66241286  0.16727922  1
  O  O38  1  0.33405736  0.17725219  0.33058856  1
  O  O39  1  0.18306984  0.47626139  0.32508272  1
  O  O40  1  0.38370497  0.09749494  0.67986550  1
  O  O41  1  0.32389367  0.33237023  0.47188829  1
  O  O42  1  0.31808954  0.33076388  0.97004635  1
  O  O43  1  0.52465026  0.09476857  0.17786867  1
  O  O44  1  0.32917621  0.48609745  0.82869484  1
  O  O45  1  0.47676772  0.18719170  0.82341811  1
  O  O46  1  0.26068037  0.65465739  0.66791704  1
  O  O47  1  0.21289519  0.79469427  0.24405274  1
  O  O48  1  0.23347772  0.75323942  0.06709718  1
  O  O49  1  0.22680131  0.76991456  0.42412023  1
  O  O50  1  0.38225315  0.52341456  0.17837899  1
  O  O51  1  0.47874026  0.33293526  0.32447293  1
  O  O52  1  0.66081298  0.08561081  0.66411034  1
  O  O53  1  0.33911519  0.74325884  0.83602249  1
  O  O54  1  0.52499704  0.38276884  0.67794400  1
  O  O55  1  0.23944165  0.02298083  0.56304459  1
  O  O56  1  0.76178435  0.98268097  0.43275231  1
  O  O57  1  0.47242220  0.61593362  0.32096929  1
  O  O58  1  0.65498756  0.26043109  0.16718455  1
  O  O59  1  0.78346504  0.01384784  0.25870219  1
  O  O60  1  0.34118125  0.91361246  0.33319994  1
  O  O61  1  0.52309829  0.66683985  0.67701970  1
  O  O62  1  0.61485075  0.47400464  0.82033358  1
  O  O63  1  0.76407883  0.23905943  0.93246642  1
  O  O64  1  0.77305288  0.23644466  0.57878895  1
  O  O65  1  0.78751031  0.20602611  0.75504887  1
  O  O66  1  0.74035831  0.34292771  0.33406219  1
  O  O67  1  0.52420644  0.81441580  0.17568599  1
  O  O68  1  0.47642725  0.90462627  0.82014449  1
  O  O69  1  0.66651601  0.51991110  0.17666856  1
  O  O70  1  0.68162782  0.65657691  0.53032247  1
  O  O71  1  0.66778983  0.67185030  0.02868930  1
  O  O72  1  0.61599611  0.90365435  0.32067675  1
  O  O73  1  0.81842293  0.51779815  0.67665694  1
  O  O74  1  0.66911393  0.81997889  0.67075453  1
  O  O75  1  0.91330641  0.34032113  0.83429454  1
  O  O76  1  0.99615424  0.21295517  0.24795079  1
  O  O77  1  0.01459653  0.23789526  0.07211521  1
  O  O78  1  0.89941136  0.48089673  0.32168119  1
  O  O79  1  0.82326477  0.66423667  0.16898336  1
  O  O80  1  0.74366272  0.91346926  0.83064806  1
  O  O81  1  0.90138426  0.61792537  0.82147587  1
  O  O82  1  0.77586720  0.99530472  0.08242312  1
  O  O83  1  0.91067135  0.74466439  0.32843379  1
  O  O84  1  0.99637937  0.77031700  0.58116995  1
  O  O85  1  0.01161569  0.78471751  0.75711518  1
