# generated using pymatgen
data_Li5VP2(O4F)2
_symmetry_space_group_name_H-M   'P 1'
_cell_length_a   10.09456559
_cell_length_b   10.09621058
_cell_length_c   6.57593337
_cell_angle_alpha   90.00494591
_cell_angle_beta   89.98571716
_cell_angle_gamma   120.01081917
_symmetry_Int_Tables_number   1
_chemical_formula_structural   Li5VP2(O4F)2
_chemical_formula_sum   'Li15 V3 P6 O24 F6'
_cell_volume   580.34560344
_cell_formula_units_Z   3
loop_
 _symmetry_equiv_pos_site_id
 _symmetry_equiv_pos_as_xyz
  1  'x, y, z'
loop_
 _atom_site_type_symbol
 _atom_site_label
 _atom_site_symmetry_multiplicity
 _atom_site_fract_x
 _atom_site_fract_y
 _atom_site_fract_z
 _atom_site_occupancy
  Li  Li0  1  0.16702659  0.83404768  0.50284491  1
  Li  Li1  1  0.33344302  0.66664911  0.56102103  1
  Li  Li2  1  0.33362463  0.66685738  0.95903023  1
  Li  Li3  1  0.99989139  0.00006300  0.44862588  1
  Li  Li4  1  0.99968613  0.99976843  0.05148264  1
  Li  Li5  1  0.16598340  0.33305313  0.50298343  1
  Li  Li6  1  0.66694670  0.83291305  0.50292693  1
  Li  Li7  1  0.46325350  0.48127343  0.73757870  1
  Li  Li8  1  0.31948641  0.13389152  0.27143633  1
  Li  Li9  1  0.81430041  0.67994827  0.27191278  1
  Li  Li10  1  0.66664604  0.33336479  0.97837344  1
  Li  Li11  1  0.66670404  0.33330537  0.49168857  1
  Li  Li12  1  0.51879325  0.98217567  0.73732323  1
  Li  Li13  1  0.01844672  0.53717669  0.73777008  1
  Li  Li14  1  0.86569688  0.18562317  0.27163980  1
  V  V15  1  0.16712838  0.83382739  0.00448637  1
  V  V16  1  0.16614107  0.33327757  0.00450389  1
  V  V17  1  0.66671560  0.83288910  0.00446770  1
  P  P18  1  0.03562981  0.52137130  0.26620319  1
  P  P19  1  0.48574229  0.96428065  0.26603701  1
  P  P20  1  0.29830609  0.14677747  0.74379515  1
  P  P21  1  0.47876752  0.51415088  0.26581056  1
  P  P22  1  0.84850417  0.70180129  0.74399681  1
  P  P23  1  0.85306466  0.15162423  0.74413292  1
  O  O24  1  0.01933477  0.73992385  0.76639949  1
  O  O25  1  0.11698418  0.62495996  0.07608680  1
  O  O26  1  0.11466071  0.61145164  0.46065491  1
  O  O27  1  0.31574086  0.92863653  0.24181798  1
  O  O28  1  0.07165270  0.38730726  0.24207277  1
  O  O29  1  0.49657274  0.88538100  0.46071847  1
  O  O30  1  0.50762045  0.88239374  0.07630726  1
  O  O31  1  0.25989620  0.27924356  0.76626203  1
  O  O32  1  0.37527010  0.49190417  0.07564021  1
  O  O33  1  0.38866703  0.50317432  0.46023850  1
  O  O34  1  0.22164314  0.05693860  0.54818895  1
  O  O35  1  0.21663592  0.04241424  0.93284757  1
  O  O36  1  0.61297811  0.68422203  0.24170107  1
  O  O37  1  0.72048282  0.98073541  0.76649680  1
  O  O38  1  0.54171941  0.40389647  0.26315572  1
  O  O39  1  0.47203770  0.21239324  0.74961334  1
  O  O40  1  0.82619827  0.78404084  0.93264653  1
  O  O41  1  0.83542205  0.77829175  0.54814489  1
  O  O42  1  0.74011862  0.52819333  0.75040462  1
  O  O43  1  0.59638258  0.13739878  0.26288211  1
  O  O44  1  0.86240659  0.45843536  0.26353883  1
  O  O45  1  0.78738507  0.25963684  0.74977475  1
  O  O46  1  0.94306004  0.16475208  0.54864178  1
  O  O47  1  0.95726277  0.17436172  0.93335363  1
  F  F48  1  0.02742547  0.84607497  0.22496062  1
  F  F49  1  0.30618733  0.82028055  0.78447685  1
  F  F50  1  0.17985677  0.48589554  0.78438412  1
  F  F51  1  0.15361011  0.18117161  0.22491524  1
  F  F52  1  0.51437666  0.69399688  0.78391308  1
  F  F53  1  0.81847810  0.97238015  0.22541851  1
