# generated using pymatgen
data_LiMn2F5
_symmetry_space_group_name_H-M   'P 1'
_cell_length_a   9.12989935
_cell_length_b   6.95128253
_cell_length_c   6.50470699
_cell_angle_alpha   90.00000000
_cell_angle_beta   96.29515355
_cell_angle_gamma   90.00000000
_symmetry_Int_Tables_number   1
_chemical_formula_structural   LiMn2F5
_chemical_formula_sum   'Li4 Mn8 F20'
_cell_volume   410.32884448
_cell_formula_units_Z   4
loop_
 _symmetry_equiv_pos_site_id
 _symmetry_equiv_pos_as_xyz
  1  'x, y, z'
loop_
 _atom_site_type_symbol
 _atom_site_label
 _atom_site_symmetry_multiplicity
 _atom_site_fract_x
 _atom_site_fract_y
 _atom_site_fract_z
 _atom_site_occupancy
  Li  Li0  1  0.19722297  0.88864786  0.01653233  1
  Li  Li1  1  0.19722297  0.61135214  0.51653233  1
  Li  Li2  1  0.80277703  0.38864786  0.48346767  1
  Li  Li3  1  0.80277703  0.11135214  0.98346767  1
  Mn  Mn4  1  0.14471573  0.36033987  0.02467824  1
  Mn  Mn5  1  0.14471573  0.13966013  0.52467824  1
  Mn  Mn6  1  0.47368601  0.36900526  0.75265501  1
  Mn  Mn7  1  0.52631399  0.86900526  0.74734499  1
  Mn  Mn8  1  0.47368601  0.13099474  0.25265501  1
  Mn  Mn9  1  0.52631399  0.63099474  0.24734499  1
  Mn  Mn10  1  0.85528427  0.86033987  0.47532176  1
  Mn  Mn11  1  0.85528427  0.63966013  0.97532176  1
  F  F12  1  0.09069312  0.66134567  0.01068749  1
  F  F13  1  0.13623448  0.09994672  0.84764983  1
  F  F14  1  0.09069312  0.83865433  0.51068749  1
  F  F15  1  0.13623448  0.40005328  0.34764983  1
  F  F16  1  0.24914940  0.43238991  0.73999799  1
  F  F17  1  0.24914940  0.06761009  0.23999799  1
  F  F18  1  0.41382115  0.66540471  0.52409519  1
  F  F19  1  0.39213839  0.09531022  0.61954231  1
  F  F20  1  0.41382115  0.83459529  0.02409519  1
  F  F21  1  0.39213839  0.40468978  0.11954231  1
  F  F22  1  0.60786161  0.59531022  0.88045769  1
  F  F23  1  0.58617885  0.16540471  0.97590481  1
  F  F24  1  0.60786161  0.90468978  0.38045769  1
  F  F25  1  0.58617885  0.33459529  0.47590481  1
  F  F26  1  0.75085060  0.93238991  0.76000201  1
  F  F27  1  0.75085060  0.56761009  0.26000201  1
  F  F28  1  0.86376552  0.59994672  0.65235017  1
  F  F29  1  0.90930688  0.16134567  0.48931251  1
  F  F30  1  0.86376552  0.90005328  0.15235017  1
  F  F31  1  0.90930688  0.33865433  0.98931251  1
