# generated using pymatgen
data_LiFe4(PO4)3
_symmetry_space_group_name_H-M   'P 1'
_cell_length_a   10.11167684
_cell_length_b   6.42471932
_cell_length_c   15.81783554
_cell_angle_alpha   90.00000000
_cell_angle_beta   90.00000000
_cell_angle_gamma   90.00000000
_symmetry_Int_Tables_number   1
_chemical_formula_structural   LiFe4(PO4)3
_chemical_formula_sum   'Li4 Fe16 P12 O48'
_cell_volume   1027.60071196
_cell_formula_units_Z   4
loop_
 _symmetry_equiv_pos_site_id
 _symmetry_equiv_pos_as_xyz
  1  'x, y, z'
loop_
 _atom_site_type_symbol
 _atom_site_label
 _atom_site_symmetry_multiplicity
 _atom_site_fract_x
 _atom_site_fract_y
 _atom_site_fract_z
 _atom_site_occupancy
  Li  Li0  1  0.25592418  0.75000000  0.71380237  1
  Li  Li1  1  0.24407582  0.25000000  0.21380237  1
  Li  Li2  1  0.75592418  0.75000000  0.78619763  1
  Li  Li3  1  0.74407582  0.25000000  0.28619763  1
  Fe  Fe4  1  0.05484907  0.25000000  0.62382601  1
  Fe  Fe5  1  0.06553950  0.75000000  0.12673047  1
  Fe  Fe6  1  0.24754224  0.49821682  0.94038428  1
  Fe  Fe7  1  0.24754224  0.00178318  0.94038428  1
  Fe  Fe8  1  0.25245776  0.50178318  0.44038428  1
  Fe  Fe9  1  0.25245776  0.99821682  0.44038428  1
  Fe  Fe10  1  0.43446050  0.25000000  0.62673047  1
  Fe  Fe11  1  0.44515093  0.75000000  0.12382601  1
  Fe  Fe12  1  0.55484907  0.25000000  0.87617399  1
  Fe  Fe13  1  0.56553950  0.75000000  0.37326953  1
  Fe  Fe14  1  0.74754224  0.00178318  0.55961572  1
  Fe  Fe15  1  0.74754224  0.49821682  0.55961572  1
  Fe  Fe16  1  0.75245776  0.50178318  0.05961572  1
  Fe  Fe17  1  0.75245776  0.99821682  0.05961572  1
  Fe  Fe18  1  0.93446050  0.25000000  0.87326953  1
  Fe  Fe19  1  0.94515093  0.75000000  0.37617399  1
  P  P20  1  0.03194077  0.75000000  0.56451511  1
  P  P21  1  0.04499546  0.25000000  0.06012783  1
  P  P22  1  0.20265654  0.25000000  0.77139992  1
  P  P23  1  0.29734346  0.75000000  0.27139992  1
  P  P24  1  0.45500454  0.75000000  0.56012783  1
  P  P25  1  0.46805923  0.25000000  0.06451511  1
  P  P26  1  0.53194077  0.75000000  0.93548489  1
  P  P27  1  0.54499546  0.25000000  0.43987217  1
  P  P28  1  0.70265654  0.25000000  0.72860008  1
  P  P29  1  0.79734346  0.75000000  0.22860008  1
  P  P30  1  0.95500454  0.75000000  0.93987217  1
  P  P31  1  0.96805923  0.25000000  0.43548489  1
  O  O32  1  0.04893060  0.25000000  0.76547478  1
  O  O33  1  0.06392789  0.94186041  0.61736846  1
  O  O34  1  0.06392789  0.55813959  0.61736846  1
  O  O35  1  0.09740887  0.05796386  0.10678904  1
  O  O36  1  0.09740887  0.44203614  0.10678904  1
  O  O37  1  0.10480997  0.25000000  0.96693371  1
  O  O38  1  0.10932317  0.75000000  0.95069318  1
  O  O39  1  0.11734333  0.75000000  0.47996786  1
  O  O40  1  0.11724854  0.25000000  0.46602359  1
  O  O41  1  0.24685523  0.54628925  0.31493345  1
  O  O42  1  0.24685523  0.95371075  0.31493345  1
  O  O43  1  0.24752799  0.25000000  0.67818956  1
  O  O44  1  0.25247201  0.75000000  0.17818956  1
  O  O45  1  0.25314477  0.04628925  0.81493345  1
  O  O46  1  0.25314477  0.45371075  0.81493345  1
  O  O47  1  0.38275146  0.75000000  0.96602359  1
  O  O48  1  0.38265667  0.25000000  0.97996786  1
  O  O49  1  0.39067683  0.25000000  0.45069318  1
  O  O50  1  0.39519003  0.75000000  0.46693371  1
  O  O51  1  0.40259113  0.94203614  0.60678904  1
  O  O52  1  0.40259113  0.55796386  0.60678904  1
  O  O53  1  0.43607211  0.05813959  0.11736846  1
  O  O54  1  0.43607211  0.44186041  0.11736846  1
  O  O55  1  0.45106940  0.75000000  0.26547478  1
  O  O56  1  0.54893060  0.25000000  0.73452522  1
  O  O57  1  0.56392789  0.55813959  0.88263154  1
  O  O58  1  0.56392789  0.94186041  0.88263154  1
  O  O59  1  0.59740887  0.05796386  0.39321096  1
  O  O60  1  0.59740887  0.44203614  0.39321096  1
  O  O61  1  0.60480997  0.25000000  0.53306629  1
  O  O62  1  0.60932317  0.75000000  0.54930682  1
  O  O63  1  0.61734333  0.75000000  0.02003214  1
  O  O64  1  0.61724854  0.25000000  0.03397641  1
  O  O65  1  0.74685523  0.54628925  0.18506655  1
  O  O66  1  0.74685523  0.95371075  0.18506655  1
  O  O67  1  0.74752799  0.25000000  0.82181044  1
  O  O68  1  0.75247201  0.75000000  0.32181044  1
  O  O69  1  0.75314477  0.04628925  0.68506655  1
  O  O70  1  0.75314477  0.45371075  0.68506655  1
  O  O71  1  0.88275146  0.75000000  0.53397641  1
  O  O72  1  0.88265667  0.25000000  0.52003214  1
  O  O73  1  0.89067683  0.25000000  0.04930682  1
  O  O74  1  0.89519003  0.75000000  0.03306629  1
  O  O75  1  0.90259113  0.55796386  0.89321096  1
  O  O76  1  0.90259113  0.94203614  0.89321096  1
  O  O77  1  0.93607211  0.05813959  0.38263154  1
  O  O78  1  0.93607211  0.44186041  0.38263154  1
  O  O79  1  0.95106940  0.75000000  0.23452522  1
