# generated using pymatgen
data_Li4V3P8O29
_symmetry_space_group_name_H-M   'P 1'
_cell_length_a   9.77606815
_cell_length_b   9.77552846
_cell_length_c   14.01746578
_cell_angle_alpha   89.85076654
_cell_angle_beta   89.85501554
_cell_angle_gamma   60.30953581
_symmetry_Int_Tables_number   1
_chemical_formula_structural   Li4V3P8O29
_chemical_formula_sum   'Li8 V6 P16 O58'
_cell_volume   1163.72095633
_cell_formula_units_Z   2
loop_
 _symmetry_equiv_pos_site_id
 _symmetry_equiv_pos_as_xyz
  1  'x, y, z'
loop_
 _atom_site_type_symbol
 _atom_site_label
 _atom_site_symmetry_multiplicity
 _atom_site_fract_x
 _atom_site_fract_y
 _atom_site_fract_z
 _atom_site_occupancy
  Li  Li0  1  0.08789545  0.22863771  0.93965403  1
  Li  Li1  1  0.22836544  0.08797920  0.43992890  1
  Li  Li2  1  0.09379651  0.68164173  0.44418130  1
  Li  Li3  1  0.68245195  0.09389720  0.94416738  1
  Li  Li4  1  0.32014310  0.90469231  0.05815920  1
  Li  Li5  1  0.90489320  0.31936645  0.55816928  1
  Li  Li6  1  0.77419384  0.91254153  0.55883177  1
  Li  Li7  1  0.91216308  0.77471659  0.05867512  1
  V  V8  1  0.00247463  0.56532199  0.24961024  1
  V  V9  1  0.43308345  0.99714216  0.25026845  1
  V  V10  1  0.43236961  0.56725355  0.74964205  1
  V  V11  1  0.56718551  0.43251819  0.24969920  1
  V  V12  1  0.56533335  0.00235936  0.74984910  1
  V  V13  1  0.99702843  0.43306093  0.74998510  1
  P  P14  1  0.08849605  0.22939704  0.15647236  1
  P  P15  1  0.22957988  0.08830497  0.65652101  1
  P  P16  1  0.08883511  0.68016881  0.66113364  1
  P  P17  1  0.33205720  0.33362258  0.37161313  1
  P  P18  1  0.33387290  0.33223255  0.87187472  1
  P  P19  1  0.23258874  0.68384143  0.15677403  1
  P  P20  1  0.31654636  0.76676175  0.34352241  1
  P  P21  1  0.68016670  0.08898123  0.16109065  1
  P  P22  1  0.31796625  0.91045323  0.83941636  1
  P  P23  1  0.68398038  0.23226082  0.65680455  1
  P  P24  1  0.76701076  0.31644482  0.84330112  1
  P  P25  1  0.66729246  0.66621917  0.12885549  1
  P  P26  1  0.66571101  0.66746799  0.62868520  1
  P  P27  1  0.91058983  0.31797642  0.33940180  1
  P  P28  1  0.76937860  0.90983341  0.34281219  1
  P  P29  1  0.90977500  0.76925795  0.84282096  1
  O  O30  1  0.99894843  0.24437203  0.42960054  1
  O  O31  1  0.08210731  0.25382294  0.65963774  1
  O  O32  1  0.20814440  0.00052663  0.74898818  1
  O  O33  1  0.24427549  0.99863533  0.92962137  1
  O  O34  1  0.09865515  0.38092053  0.17949937  1
  O  O35  1  0.25394962  0.08194416  0.15982496  1
  O  O36  1  0.18744500  0.32554844  0.83390981  1
  O  O37  1  0.09749184  0.51949203  0.67766146  1
  O  O38  1  0.98803465  0.76808312  0.93360499  1
  O  O39  1  0.08493444  0.66114906  0.15962474  1
  O  O40  1  0.32557722  0.18725894  0.33330306  1
  O  O41  1  0.18113035  0.48836773  0.32836744  1
  O  O42  1  0.38081153  0.09877227  0.67982935  1
  O  O43  1  0.32322852  0.34582229  0.47747197  1
  O  O44  1  0.34705738  0.32429287  0.97770228  1
  O  O45  1  0.51967689  0.09725806  0.17742926  1
  O  O46  1  0.33633586  0.47742544  0.82457282  1
  O  O47  1  0.48859286  0.18095264  0.82875703  1
  O  O48  1  0.25586060  0.65902495  0.66605258  1
  O  O49  1  0.20997961  0.78929611  0.25012372  1
  O  O50  1  0.23936759  0.76639037  0.06982132  1
  O  O51  1  0.23515204  0.75674499  0.43026046  1
  O  O52  1  0.38323588  0.52291273  0.17531980  1
  O  O53  1  0.47727763  0.33650848  0.32484618  1
  O  O54  1  0.66083645  0.08488761  0.65980343  1
  O  O55  1  0.34144501  0.74328917  0.83553726  1
  O  O56  1  0.52330109  0.38318723  0.67524527  1
  O  O57  1  0.24565604  0.00419166  0.56573024  1
  O  O58  1  0.76779440  0.98811929  0.43368590  1
  O  O59  1  0.47743138  0.61703521  0.32333304  1
  O  O60  1  0.65901713  0.25603210  0.16605088  1
  O  O61  1  0.79102126  0.99878059  0.25101355  1
  O  O62  1  0.33749747  0.91454503  0.34074056  1
  O  O63  1  0.51844471  0.66778144  0.67517246  1
  O  O64  1  0.61719947  0.47720022  0.82320032  1
  O  O65  1  0.75800565  0.23491423  0.93023876  1
  O  O66  1  0.76694360  0.23821355  0.56984185  1
  O  O67  1  0.78958023  0.20946319  0.75012191  1
  O  O68  1  0.74342323  0.34147442  0.33563934  1
  O  O69  1  0.51420247  0.81361769  0.16766836  1
  O  O70  1  0.47916820  0.90312347  0.82156766  1
  O  O71  1  0.66703925  0.51898254  0.17494006  1
  O  O72  1  0.66583841  0.67265567  0.52263605  1
  O  O73  1  0.67271740  0.66732460  0.02281697  1
  O  O74  1  0.62233543  0.89679880  0.32310206  1
  O  O75  1  0.81346347  0.51413215  0.66720866  1
  O  O76  1  0.66868127  0.81859572  0.67069630  1
  O  O77  1  0.91466003  0.33761622  0.84012766  1
  O  O78  1  0.00054947  0.20819994  0.24893524  1
  O  O79  1  0.00466560  0.24516215  0.06558636  1
  O  O80  1  0.90345442  0.47904003  0.32144016  1
  O  O81  1  0.81863431  0.66857545  0.17094465  1
  O  O82  1  0.74198180  0.92054633  0.83627409  1
  O  O83  1  0.89667243  0.62228984  0.82307839  1
  O  O84  1  0.75736402  0.00172358  0.07105109  1
  O  O85  1  0.92060339  0.74203320  0.33621909  1
  O  O86  1  0.00157195  0.75700683  0.57104420  1
  O  O87  1  0.99858950  0.79107562  0.75098304  1
