# generated using pymatgen
data_FeOF
_symmetry_space_group_name_H-M   'P 1'
_cell_length_a   6.71518220
_cell_length_b   14.25830537
_cell_length_c   3.09897945
_cell_angle_alpha   90.00000000
_cell_angle_beta   90.00000000
_cell_angle_gamma   135.05653753
_symmetry_Int_Tables_number   1
_chemical_formula_structural   FeOF
_chemical_formula_sum   'Fe6 O6 F6'
_cell_volume   209.60442196
_cell_formula_units_Z   6
loop_
 _symmetry_equiv_pos_site_id
 _symmetry_equiv_pos_as_xyz
  1  'x, y, z'
loop_
 _atom_site_type_symbol
 _atom_site_label
 _atom_site_symmetry_multiplicity
 _atom_site_fract_x
 _atom_site_fract_y
 _atom_site_fract_z
 _atom_site_occupancy
  Fe  Fe0  1  0.99509537  0.01119842  0.00000000  1
  Fe  Fe1  1  0.03904258  0.34426109  0.00000000  1
  Fe  Fe2  1  0.03880958  0.67811025  0.00000000  1
  Fe  Fe3  1  0.46187783  0.31806362  0.50000000  1
  Fe  Fe4  1  0.46169435  0.65180591  0.50000000  1
  Fe  Fe5  1  0.49188819  0.98492854  0.50000000  1
  O  O6  1  0.19323265  0.33221583  0.50000000  1
  O  O7  1  0.19736222  0.66873010  0.50000000  1
  O  O8  1  0.31507620  0.20407716  0.00000000  1
  O  O9  1  0.30553176  0.53737807  0.00000000  1
  O  O10  1  0.29718177  0.87087458  0.00000000  1
  O  O11  1  0.80536587  0.00043740  0.50000000  1
  F  F12  1  0.19675253  0.00065986  0.50000000  1
  F  F13  1  0.69726515  0.46535564  0.00000000  1
  F  F14  1  0.70600871  0.79856042  0.00000000  1
  F  F15  1  0.68943669  0.13185160  0.00000000  1
  F  F16  1  0.80659740  0.33544298  0.50000000  1
  F  F17  1  0.80177917  0.66605050  0.50000000  1
