# generated using pymatgen
data_Co4OF11
_symmetry_space_group_name_H-M   'P 1'
_cell_length_a   7.26404977
_cell_length_b   5.06705939
_cell_length_c   5.35041435
_cell_angle_alpha   90.06689311
_cell_angle_beta   93.76144796
_cell_angle_gamma   90.88190649
_symmetry_Int_Tables_number   1
_chemical_formula_structural   Co4OF11
_chemical_formula_sum   'Co4 O1 F11'
_cell_volume   196.48671325
_cell_formula_units_Z   1
loop_
 _symmetry_equiv_pos_site_id
 _symmetry_equiv_pos_as_xyz
  1  'x, y, z'
loop_
 _atom_site_type_symbol
 _atom_site_label
 _atom_site_symmetry_multiplicity
 _atom_site_fract_x
 _atom_site_fract_y
 _atom_site_fract_z
 _atom_site_occupancy
  Co  Co0  1  0.99375714  0.49611018  0.49954739  1
  Co  Co1  1  0.99982405  0.99877407  0.99993856  1
  Co  Co2  1  0.51300831  0.49096697  0.49877861  1
  Co  Co3  1  0.49954228  0.99670458  0.99918244  1
  O  O4  1  0.75931593  0.40695739  0.50286371  1
  F  F5  1  0.25337157  0.88187665  0.00099677  1
  F  F6  1  0.05666605  0.19723712  0.31200830  1
  F  F7  1  0.24091849  0.60595483  0.50007154  1
  F  F8  1  0.05782624  0.29932831  0.81573191  1
  F  F9  1  0.55627373  0.80911856  0.31634105  1
  F  F10  1  0.44088471  0.30858747  0.18821991  1
  F  F11  1  0.56234760  0.68952509  0.81199489  1
  F  F12  1  0.44030845  0.19296387  0.68419128  1
  F  F13  1  0.93813076  0.70087604  0.18258669  1
  F  F14  1  0.94198142  0.80310086  0.68864245  1
  F  F15  1  0.74584425  0.12191902  0.99890350  1
