# generated using pymatgen
data_Li3V3P8O29
_symmetry_space_group_name_H-M   'P 1'
_cell_length_a   9.78664856
_cell_length_b   9.78713596
_cell_length_c   14.27488557
_cell_angle_alpha   89.26631647
_cell_angle_beta   89.27203227
_cell_angle_gamma   60.04553998
_symmetry_Int_Tables_number   1
_chemical_formula_structural   Li3V3P8O29
_chemical_formula_sum   'Li6 V6 P16 O58'
_cell_volume   1184.52671645
_cell_formula_units_Z   2
loop_
 _symmetry_equiv_pos_site_id
 _symmetry_equiv_pos_as_xyz
  1  'x, y, z'
loop_
 _atom_site_type_symbol
 _atom_site_label
 _atom_site_symmetry_multiplicity
 _atom_site_fract_x
 _atom_site_fract_y
 _atom_site_fract_z
 _atom_site_occupancy
  Li  Li0  1  0.08260229  0.22237472  0.94402380  1
  Li  Li1  1  0.22565255  0.09310738  0.43698615  1
  Li  Li2  1  0.22388136  0.69544904  0.94620315  1
  Li  Li3  1  0.30459049  0.77626382  0.55372464  1
  Li  Li4  1  0.77757058  0.91745539  0.55600402  1
  Li  Li5  1  0.90680885  0.77443320  0.06300062  1
  V  V6  1  0.00535209  0.56319641  0.25820325  1
  V  V7  1  0.43676923  0.99462875  0.24179387  1
  V  V8  1  0.44057579  0.55939734  0.74995701  1
  V  V9  1  0.56908622  0.43090036  0.25001278  1
  V  V10  1  0.56653376  0.00469559  0.75695719  1
  V  V11  1  0.99522584  0.43352839  0.74303965  1
  P  P12  1  0.08641173  0.23513711  0.15843964  1
  P  P13  1  0.23655252  0.08524000  0.65812325  1
  P  P14  1  0.08907845  0.68418447  0.66088023  1
  P  P15  1  0.33727456  0.32582752  0.36994001  1
  P  P16  1  0.32446762  0.33745428  0.86844130  1
  P  P17  1  0.23038668  0.68143248  0.16056904  1
  P  P18  1  0.31862131  0.76953261  0.33944667  1
  P  P19  1  0.68706455  0.08897763  0.16128345  1
  P  P20  1  0.31584463  0.91087839  0.83905202  1
  P  P21  1  0.68932416  0.22700405  0.65822732  1
  P  P22  1  0.77290405  0.31076125  0.84192014  1
  P  P23  1  0.67411041  0.66271723  0.13009321  1
  P  P24  1  0.66257868  0.67559055  0.63148961  1
  P  P25  1  0.91103762  0.31290605  0.33873495  1
  P  P26  1  0.76490981  0.91351598  0.34156011  1
  P  P27  1  0.91484727  0.76335466  0.84185921  1
  O  O28  1  0.00568569  0.22664618  0.42122485  1
  O  O29  1  0.09039367  0.25305371  0.66728919  1
  O  O30  1  0.21795423  0.98615716  0.74307422  1
  O  O31  1  0.22854900  0.00656498  0.92117332  1
  O  O32  1  0.09486044  0.38526952  0.18062846  1
  O  O33  1  0.25559456  0.09034057  0.17041154  1
  O  O34  1  0.17899903  0.33421665  0.82692899  1
  O  O35  1  0.09574453  0.52231789  0.67667282  1
  O  O36  1  0.99507374  0.75426593  0.93202074  1
  O  O37  1  0.08324379  0.65984850  0.16636998  1
  O  O38  1  0.33510089  0.17878195  0.33062635  1
  O  O39  1  0.18443854  0.47759125  0.32600800  1
  O  O40  1  0.38654032  0.09399301  0.67897568  1
  O  O41  1  0.32777828  0.33353319  0.47368426  1
  O  O42  1  0.32545647  0.33690095  0.97212793  1
  O  O43  1  0.52418070  0.09578541  0.17582037  1
  O  O44  1  0.32779248  0.48716449  0.82633831  1
  O  O45  1  0.47612004  0.18721835  0.82458931  1
  O  O46  1  0.25855406  0.65942827  0.66064391  1
  O  O47  1  0.21016070  0.78979099  0.25002221  1
  O  O48  1  0.23469012  0.75571667  0.06990633  1
  O  O49  1  0.24443655  0.76511834  0.43008984  1
  O  O50  1  0.38289467  0.52225093  0.17916056  1
  O  O51  1  0.47991487  0.33443744  0.32462253  1
  O  O52  1  0.66203969  0.08284104  0.66635946  1
  O  O53  1  0.34056604  0.74144768  0.83926881  1
  O  O54  1  0.52547878  0.38100640  0.68071320  1
  O  O55  1  0.24552592  0.00507128  0.56798617  1
  O  O56  1  0.75998225  0.98478794  0.43275599  1
  O  O57  1  0.47786367  0.61709431  0.32083250  1
  O  O58  1  0.65729602  0.25926793  0.16532694  1
  O  O59  1  0.78483140  0.01141666  0.25669677  1
  O  O60  1  0.34015666  0.91671221  0.33363840  1
  O  O61  1  0.51291244  0.67220730  0.67358062  1
  O  O62  1  0.61894585  0.47455241  0.81926038  1
  O  O63  1  0.76111883  0.23917029  0.93040346  1
  O  O64  1  0.76088575  0.23874064  0.56970821  1
  O  O65  1  0.79234053  0.20756875  0.75010717  1
  O  O66  1  0.74072783  0.34265919  0.33472026  1
  O  O67  1  0.52233289  0.81553375  0.17402009  1
  O  O68  1  0.47775585  0.90412874  0.82325015  1
  O  O69  1  0.66560717  0.52002297  0.17539307  1
  O  O70  1  0.66338223  0.67444697  0.52781139  1
  O  O71  1  0.66632711  0.67230855  0.02634122  1
  O  O72  1  0.61473635  0.90511151  0.31935843  1
  O  O73  1  0.81274521  0.52394886  0.67544438  1
  O  O74  1  0.66590262  0.82106125  0.67293508  1
  O  O75  1  0.91703901  0.33811111  0.83378667  1
  O  O76  1  0.98851871  0.21521418  0.24329392  1
  O  O77  1  0.01507998  0.24011988  0.06722743  1
  O  O78  1  0.90418451  0.47580381  0.32418055  1
  O  O79  1  0.82116337  0.66490220  0.16938851  1
  O  O80  1  0.74700195  0.90947292  0.83274328  1
  O  O81  1  0.90596357  0.61347046  0.82099023  1
  O  O82  1  0.77330620  0.99438858  0.07876403  1
  O  O83  1  0.90968102  0.74433513  0.32956974  1
  O  O84  1  0.99338760  0.77156217  0.57878598  1
  O  O85  1  0.01393454  0.78196190  0.75691954  1
