# generated using pymatgen
data_LiP2WO8
_symmetry_space_group_name_H-M   'P 1'
_cell_length_a   4.86777154
_cell_length_b   4.86777154
_cell_length_c   7.03914447
_cell_angle_alpha   94.05065265
_cell_angle_beta   85.94934735
_cell_angle_gamma   113.07075950
_symmetry_Int_Tables_number   1
_chemical_formula_structural   LiP2WO8
_chemical_formula_sum   'Li1 P2 W1 O8'
_cell_volume   152.90290833
_cell_formula_units_Z   1
loop_
 _symmetry_equiv_pos_site_id
 _symmetry_equiv_pos_as_xyz
  1  'x, y, z'
loop_
 _atom_site_type_symbol
 _atom_site_label
 _atom_site_symmetry_multiplicity
 _atom_site_fract_x
 _atom_site_fract_y
 _atom_site_fract_z
 _atom_site_occupancy
  Li  Li0  1  0.00000000  0.00000000  0.00000000  1
  P  P1  1  0.33858648  0.66141352  0.72912097  1
  P  P2  1  0.66141352  0.33858648  0.27087903  1
  W  W3  1  0.00000000  0.00000000  0.50000000  1
  O  O4  1  0.23517027  0.76482973  0.54817007  1
  O  O5  1  0.23655231  0.76344769  0.91333201  1
  O  O6  1  0.69060709  0.78190393  0.70222813  1
  O  O7  1  0.21809607  0.30939291  0.70222813  1
  O  O8  1  0.78190393  0.69060709  0.29777187  1
  O  O9  1  0.30939291  0.21809607  0.29777187  1
  O  O10  1  0.76344769  0.23655231  0.08666799  1
  O  O11  1  0.76482973  0.23517027  0.45182993  1
