# generated using pymatgen
data_Li3V3(PO4)4
_symmetry_space_group_name_H-M   'P 1'
_cell_length_a   9.16457450
_cell_length_b   8.56369707
_cell_length_c   9.11185308
_cell_angle_alpha   102.13025628
_cell_angle_beta   104.19335345
_cell_angle_gamma   115.04001999
_symmetry_Int_Tables_number   1
_chemical_formula_structural   Li3V3(PO4)4
_chemical_formula_sum   'Li6 V6 P8 O32'
_cell_volume   586.64703099
_cell_formula_units_Z   2
loop_
 _symmetry_equiv_pos_site_id
 _symmetry_equiv_pos_as_xyz
  1  'x, y, z'
loop_
 _atom_site_type_symbol
 _atom_site_label
 _atom_site_symmetry_multiplicity
 _atom_site_fract_x
 _atom_site_fract_y
 _atom_site_fract_z
 _atom_site_occupancy
  Li  Li0  1  0.99020747  0.79762636  0.53510482  1
  Li  Li1  1  0.05077811  0.80929340  0.16265857  1
  Li  Li2  1  0.12065361  0.59046046  0.30685217  1
  Li  Li3  1  0.87934639  0.40953954  0.69314783  1
  Li  Li4  1  0.94922189  0.19070660  0.83734143  1
  Li  Li5  1  0.00979253  0.20237364  0.46489518  1
  V  V6  1  0.50233190  0.00185490  0.80352299  1
  V  V7  1  0.38165452  0.35697326  0.81302367  1
  V  V8  1  0.22247954  0.28877496  0.26212246  1
  V  V9  1  0.77752046  0.71122504  0.73787754  1
  V  V10  1  0.61834548  0.64302674  0.18697633  1
  V  V11  1  0.49766810  0.99814510  0.19647701  1
  P  P12  1  0.33087810  0.56316826  0.63040321  1
  P  P13  1  0.19381301  0.01810793  0.92454895  1
  P  P14  1  0.22816374  0.55482776  0.02831390  1
  P  P15  1  0.30428519  0.04796380  0.47055094  1
  P  P16  1  0.69571481  0.95203620  0.52944906  1
  P  P17  1  0.77183626  0.44517224  0.97168610  1
  P  P18  1  0.80618699  0.98189207  0.07545105  1
  P  P19  1  0.66912190  0.43683174  0.36959679  1
  O  O20  1  0.04775354  0.83347449  0.79089197  1
  O  O21  1  0.07114080  0.45570525  0.87442209  1
  O  O22  1  0.15947677  0.84706338  0.41721227  1
  O  O23  1  0.20930562  0.39502701  0.66556384  1
  O  O24  1  0.32306791  0.73502539  0.71023857  1
  O  O25  1  0.19717111  0.17660110  0.86326846  1
  O  O26  1  0.26177330  0.51138417  0.44508962  1
  O  O27  1  0.27821139  0.75766411  0.11194772  1
  O  O28  1  0.21490172  0.15959430  0.41979756  1
  O  O29  1  0.19569541  0.44778803  0.14465822  1
  O  O30  1  0.51015199  0.57330837  0.70740172  1
  O  O31  1  0.37637482  0.03109371  0.96114146  1
  O  O32  1  0.39000813  0.13261328  0.66325367  1
  O  O33  1  0.56383848  0.92900989  0.61006967  1
  O  O34  1  0.16986990  0.04877515  0.08888853  1
  O  O35  1  0.60167389  0.43615981  0.99726911  1
  O  O36  1  0.39832611  0.56384019  0.00273089  1
  O  O37  1  0.83013010  0.95122485  0.91111147  1
  O  O38  1  0.43616152  0.07099011  0.38993033  1
  O  O39  1  0.60999187  0.86738672  0.33674633  1
  O  O40  1  0.62362518  0.96890629  0.03885854  1
  O  O41  1  0.48984801  0.42669163  0.29259828  1
  O  O42  1  0.80430459  0.55221197  0.85534178  1
  O  O43  1  0.78509828  0.84040570  0.58020244  1
  O  O44  1  0.72178861  0.24233589  0.88805228  1
  O  O45  1  0.73822670  0.48861583  0.55491038  1
  O  O46  1  0.80282889  0.82339890  0.13673154  1
  O  O47  1  0.67693209  0.26497461  0.28976143  1
  O  O48  1  0.79069438  0.60497299  0.33443616  1
  O  O49  1  0.84052323  0.15293662  0.58278773  1
  O  O50  1  0.92885920  0.54429475  0.12557791  1
  O  O51  1  0.95224646  0.16652551  0.20910803  1
