# generated using pymatgen
data_Mn2GaCu3
_symmetry_space_group_name_H-M   'P 1'
_cell_length_a   4.89797966
_cell_length_b   4.89847433
_cell_length_c   7.87357384
_cell_angle_alpha   90.00000000
_cell_angle_beta   90.00000000
_cell_angle_gamma   59.99666510
_symmetry_Int_Tables_number   1
_chemical_formula_structural   Mn2GaCu3
_chemical_formula_sum   'Mn4 Ga2 Cu6'
_cell_volume   163.59339102
_cell_formula_units_Z   2
loop_
 _symmetry_equiv_pos_site_id
 _symmetry_equiv_pos_as_xyz
  1  'x, y, z'
loop_
 _atom_site_type_symbol
 _atom_site_label
 _atom_site_symmetry_multiplicity
 _atom_site_fract_x
 _atom_site_fract_y
 _atom_site_fract_z
 _atom_site_occupancy
  Mn  Mn0  1  0.33342318  0.33328841  0.56203048  1
  Mn  Mn1  1  0.66657682  0.66671159  0.43796952  1
  Mn  Mn2  1  0.66657682  0.66671159  0.06203048  1
  Mn  Mn3  1  0.33342318  0.33328841  0.93796952  1
  Ga  Ga4  1  -0.00000000  0.00000000  0.50000000  1
  Ga  Ga5  1  -0.00000000  0.00000000  0.00000000  1
  Cu  Cu6  1  0.82864135  0.34275527  0.75000000  1
  Cu  Cu7  1  0.34278606  0.82860697  0.75000000  1
  Cu  Cu8  1  0.82864135  0.82860339  0.75000000  1
  Cu  Cu9  1  0.17135865  0.65724473  0.25000000  1
  Cu  Cu10  1  0.65721394  0.17139303  0.25000000  1
  Cu  Cu11  1  0.17135865  0.17139661  0.25000000  1
