# generated using pymatgen
data_LiV4(PO4)3
_symmetry_space_group_name_H-M   'P 1'
_cell_length_a   6.82829665
_cell_length_b   10.72735261
_cell_length_c   6.82829665
_cell_angle_alpha   71.44192336
_cell_angle_beta   90.00000000
_cell_angle_gamma   108.55807664
_symmetry_Int_Tables_number   1
_chemical_formula_structural   LiV4(PO4)3
_chemical_formula_sum   'Li2 V8 P6 O24'
_cell_volume   446.64163070
_cell_formula_units_Z   2
loop_
 _symmetry_equiv_pos_site_id
 _symmetry_equiv_pos_as_xyz
  1  'x, y, z'
loop_
 _atom_site_type_symbol
 _atom_site_label
 _atom_site_symmetry_multiplicity
 _atom_site_fract_x
 _atom_site_fract_y
 _atom_site_fract_z
 _atom_site_occupancy
  Li  Li0  1  0.25000000  0.50000000  0.25000000  1
  Li  Li1  1  0.50000000  0.00000000  0.50000000  1
  V  V2  1  0.37500000  0.25000000  0.12000611  1
  V  V3  1  0.77293817  0.54587635  0.22706183  1
  V  V4  1  0.62999389  0.75000000  0.37500000  1
  V  V5  1  0.87500000  0.25000000  0.62999389  1
  V  V6  1  0.22706183  0.45412365  0.77293817  1
  V  V7  1  0.97706183  0.95412365  0.52293817  1
  V  V8  1  0.52293817  0.04587635  0.97706183  1
  V  V9  1  0.12000611  0.75000000  0.87500000  1
  P  P10  1  0.00000000  0.00000000  0.00000000  1
  P  P11  1  0.87500000  0.25000000  0.22759863  1
  P  P12  1  0.37500000  0.25000000  0.52240137  1
  P  P13  1  0.22759863  0.75000000  0.37500000  1
  P  P14  1  0.75000000  0.50000000  0.75000000  1
  P  P15  1  0.52240137  0.75000000  0.87500000  1
  O  O16  1  0.23107239  0.08479267  0.00468317  1
  O  O17  1  0.66931126  0.21028332  0.13051461  1
  O  O18  1  0.08068874  0.28971668  0.09079793  1
  O  O19  1  0.61948539  0.71028332  0.08068874  1
  O  O20  1  0.27689309  0.12156841  0.44391499  1
  O  O21  1  0.47310691  0.37843159  0.31548240  1
  O  O22  1  0.90532569  0.37843159  0.30608501  1
  O  O23  1  0.84467431  0.12156841  0.43451760  1
  O  O24  1  0.09079793  0.71028332  0.20902795  1
  O  O25  1  0.91052416  0.91520733  0.23107239  1
  O  O26  1  0.43451760  0.87843159  0.27689309  1
  O  O27  1  0.20902795  0.28971668  0.61948539  1
  O  O28  1  0.54097205  0.21028332  0.65920207  1
  O  O29  1  0.30608501  0.62156841  0.47310691  1
  O  O30  1  0.74531683  0.58479267  0.51892761  1
  O  O31  1  0.89627972  0.41520733  0.74531683  1
  O  O32  1  0.85372028  0.08479267  0.91052416  1
  O  O33  1  0.13051461  0.78971668  0.54097205  1
  O  O34  1  0.65920207  0.78971668  0.66931126  1
  O  O35  1  0.51892761  0.41520733  0.83947584  1
  O  O36  1  0.83947584  0.58479267  0.89627972  1
  O  O37  1  0.31548240  0.62156841  0.90532569  1
  O  O38  1  0.44391499  0.87843159  0.84467431  1
  O  O39  1  0.00468317  0.91520733  0.85372028  1
