# generated using pymatgen
data_LiP4WO12
_symmetry_space_group_name_H-M   'P 1'
_cell_length_a   7.67211864
_cell_length_b   9.20970343
_cell_length_c   14.49815206
_cell_angle_alpha   90.00000000
_cell_angle_beta   98.23791896
_cell_angle_gamma   90.00000000
_symmetry_Int_Tables_number   1
_chemical_formula_structural   LiP4WO12
_chemical_formula_sum   'Li4 P16 W4 O48'
_cell_volume   1013.83927371
_cell_formula_units_Z   4
loop_
 _symmetry_equiv_pos_site_id
 _symmetry_equiv_pos_as_xyz
  1  'x, y, z'
loop_
 _atom_site_type_symbol
 _atom_site_label
 _atom_site_symmetry_multiplicity
 _atom_site_fract_x
 _atom_site_fract_y
 _atom_site_fract_z
 _atom_site_occupancy
  Li  Li0  1  0.01773530  0.58263427  0.92740682  1
  Li  Li1  1  0.48226470  0.08263427  0.57259318  1
  Li  Li2  1  0.51773530  0.91736573  0.42740682  1
  Li  Li3  1  0.98226470  0.41736573  0.07259318  1
  P  P4  1  0.07447291  0.27876250  0.42606350  1
  P  P5  1  0.11783071  0.05741226  0.77332854  1
  P  P6  1  0.20101535  0.24121329  0.95051482  1
  P  P7  1  0.23563082  0.05267469  0.30827202  1
  P  P8  1  0.29898465  0.74121329  0.54948518  1
  P  P9  1  0.38216929  0.55741226  0.72667146  1
  P  P10  1  0.26436918  0.55267469  0.19172798  1
  P  P11  1  0.57447291  0.22123750  0.92606350  1
  P  P12  1  0.42552709  0.77876250  0.07393650  1
  P  P13  1  0.73563082  0.44732531  0.80827202  1
  P  P14  1  0.61783071  0.44258774  0.27332854  1
  P  P15  1  0.70101535  0.25878671  0.45051482  1
  P  P16  1  0.76436918  0.94732531  0.69172798  1
  P  P17  1  0.79898465  0.75878671  0.04948518  1
  P  P18  1  0.88216929  0.94258774  0.22667146  1
  P  P19  1  0.92552709  0.72123750  0.57393650  1
  W  W20  1  0.00825711  0.63215107  0.35661319  1
  W  W21  1  0.50825711  0.86784893  0.85661319  1
  W  W22  1  0.49174289  0.13215107  0.14338681  1
  W  W23  1  0.99174289  0.36784893  0.64338681  1
  O  O24  1  0.08675066  0.37213088  0.95624616  1
  O  O25  1  0.10204412  0.13091054  0.87317035  1
  O  O26  1  0.05325193  0.04484160  0.23749593  1
  O  O27  1  0.13124106  0.30521586  0.52858960  1
  O  O28  1  0.10638853  0.16428616  0.69478532  1
  O  O29  1  0.12383013  0.78867234  0.59297372  1
  O  O30  1  0.08976022  0.40590546  0.36317390  1
  O  O31  1  0.22671312  0.45825758  0.72087106  1
  O  O32  1  0.18415549  0.14455153  0.39728306  1
  O  O33  1  0.14491426  0.64743155  0.23899017  1
  O  O34  1  0.27328688  0.95825758  0.77912894  1
  O  O35  1  0.30038660  0.90958669  0.34506784  1
  O  O36  1  0.24440172  0.65603904  0.46138826  1
  O  O37  1  0.37616987  0.28867234  0.90702628  1
  O  O38  1  0.39361147  0.66428616  0.80521468  1
  O  O39  1  0.36875894  0.80521586  0.97141040  1
  O  O40  1  0.25559828  0.15603904  0.03861174  1
  O  O41  1  0.19961340  0.40958669  0.15493216  1
  O  O42  1  0.39795588  0.63091054  0.62682965  1
  O  O43  1  0.35508574  0.14743155  0.26100983  1
  O  O44  1  0.41324934  0.87213088  0.54375384  1
  O  O45  1  0.31584451  0.64455153  0.10271694  1
  O  O46  1  0.55325193  0.45515840  0.73749593  1
  O  O47  1  0.41023978  0.90590546  0.13682610  1
  O  O48  1  0.58976022  0.09409454  0.86317390  1
  O  O49  1  0.44674807  0.54484160  0.26250407  1
  O  O50  1  0.68415549  0.35544847  0.89728306  1
  O  O51  1  0.58675066  0.12786912  0.45624616  1
  O  O52  1  0.64491426  0.85256845  0.73899017  1
  O  O53  1  0.60204412  0.36908946  0.37317035  1
  O  O54  1  0.80038660  0.59041331  0.84506784  1
  O  O55  1  0.74440172  0.84396096  0.96138826  1
  O  O56  1  0.63124106  0.19478414  0.02858960  1
  O  O57  1  0.60638853  0.33571384  0.19478532  1
  O  O58  1  0.62383013  0.71132766  0.09297372  1
  O  O59  1  0.75559828  0.34396096  0.53861174  1
  O  O60  1  0.69961340  0.09041331  0.65493216  1
  O  O61  1  0.72671312  0.04174242  0.22087106  1
  O  O62  1  0.85508574  0.35256845  0.76100983  1
  O  O63  1  0.81584451  0.85544847  0.60271694  1
  O  O64  1  0.77328688  0.54174242  0.27912894  1
  O  O65  1  0.91023978  0.59409454  0.63682610  1
  O  O66  1  0.87616987  0.21132766  0.40702628  1
  O  O67  1  0.89361147  0.83571384  0.30521468  1
  O  O68  1  0.86875894  0.69478414  0.47141040  1
  O  O69  1  0.94674807  0.95515840  0.76250407  1
  O  O70  1  0.89795588  0.86908946  0.12682965  1
  O  O71  1  0.91324934  0.62786912  0.04375384  1
