# generated using pymatgen
data_LiP2WO7
_symmetry_space_group_name_H-M   'P 1'
_cell_length_a   7.37456307
_cell_length_b   8.29882072
_cell_length_c   9.88065758
_cell_angle_alpha   90.00000000
_cell_angle_beta   110.90156262
_cell_angle_gamma   90.00000000
_symmetry_Int_Tables_number   1
_chemical_formula_structural   LiP2WO7
_chemical_formula_sum   'Li4 P8 W4 O28'
_cell_volume   564.90568538
_cell_formula_units_Z   4
loop_
 _symmetry_equiv_pos_site_id
 _symmetry_equiv_pos_as_xyz
  1  'x, y, z'
loop_
 _atom_site_type_symbol
 _atom_site_label
 _atom_site_symmetry_multiplicity
 _atom_site_fract_x
 _atom_site_fract_y
 _atom_site_fract_z
 _atom_site_occupancy
  Li  Li0  1  0.29860698  0.47815960  0.77318676  1
  Li  Li1  1  0.29860698  0.02184040  0.27318676  1
  Li  Li2  1  0.70139302  0.97815960  0.72681324  1
  Li  Li3  1  0.70139302  0.52184040  0.22681324  1
  P  P4  1  0.08257200  0.25717717  0.95821451  1
  P  P5  1  0.08257200  0.24282283  0.45821451  1
  P  P6  1  0.33373946  0.71634697  0.54966616  1
  P  P7  1  0.66626054  0.21634697  0.95033384  1
  P  P8  1  0.33373946  0.78365303  0.04966616  1
  P  P9  1  0.66626054  0.28365303  0.45033384  1
  P  P10  1  0.91742800  0.75717717  0.54178549  1
  P  P11  1  0.91742800  0.74282283  0.04178549  1
  W  W12  1  0.25592225  0.00124129  0.74854238  1
  W  W13  1  0.25592225  0.49875971  0.24854238  1
  W  W14  1  0.74407775  0.50124129  0.75145762  1
  W  W15  1  0.74407775  0.99875871  0.25145762  1
  O  O16  1  0.04465748  0.41263838  0.86610685  1
  O  O17  1  0.18541437  0.12772963  0.90633781  1
  O  O18  1  0.04465748  0.08736162  0.36610685  1
  O  O19  1  0.12689816  0.67497214  0.56628174  1
  O  O20  1  0.31611897  0.79087124  0.89139783  1
  O  O21  1  0.18555644  0.21848247  0.62091112  1
  O  O22  1  0.18541437  0.37227037  0.40633781  1
  O  O23  1  0.39421743  0.88778360  0.60861797  1
  O  O24  1  0.12689816  0.82502786  0.06628174  1
  O  O25  1  0.31611897  0.70912876  0.39139783  1
  O  O26  1  0.54836730  0.08333140  0.84975324  1
  O  O27  1  0.18555644  0.28151753  0.12091112  1
  O  O28  1  0.45163270  0.58333140  0.65024676  1
  O  O29  1  0.60578257  0.38778360  0.89138203  1
  O  O30  1  0.39421743  0.61221640  0.10861797  1
  O  O31  1  0.54836730  0.41666860  0.34975324  1
  O  O32  1  0.81444356  0.71848247  0.87908888  1
  O  O33  1  0.45163270  0.91666860  0.15024676  1
  O  O34  1  0.68388103  0.29087124  0.60860217  1
  O  O35  1  0.87310184  0.17497214  0.93371826  1
  O  O36  1  0.60578257  0.11221640  0.39138203  1
  O  O37  1  0.81458563  0.62772963  0.59366219  1
  O  O38  1  0.81444356  0.78151753  0.37908888  1
  O  O39  1  0.68388103  0.20912876  0.10860217  1
  O  O40  1  0.87310184  0.32502786  0.43371826  1
  O  O41  1  0.95534252  0.91263838  0.63389315  1
  O  O42  1  0.81458563  0.87227037  0.09366219  1
  O  O43  1  0.95534252  0.58736162  0.13389315  1
