# generated using pymatgen
data_LiV2(CO3)4
_symmetry_space_group_name_H-M   'P 1'
_cell_length_a   6.12293767
_cell_length_b   6.12293689
_cell_length_c   5.99683107
_cell_angle_alpha   77.46705122
_cell_angle_beta   102.53295552
_cell_angle_gamma   90.33528263
_symmetry_Int_Tables_number   1
_chemical_formula_structural   LiV2(CO3)4
_chemical_formula_sum   'Li1 V2 C4 O12'
_cell_volume   214.03584775
_cell_formula_units_Z   1
loop_
 _symmetry_equiv_pos_site_id
 _symmetry_equiv_pos_as_xyz
  1  'x, y, z'
loop_
 _atom_site_type_symbol
 _atom_site_label
 _atom_site_symmetry_multiplicity
 _atom_site_fract_x
 _atom_site_fract_y
 _atom_site_fract_z
 _atom_site_occupancy
  Li  Li0  1  0.59851657  0.59851657  0.25000000  1
  V  V1  1  0.19899808  0.19899808  0.25000000  1
  V  V2  1  0.80519284  0.80519284  0.75000000  1
  C  C3  1  0.11027338  0.69617844  0.20262071  1
  C  C4  1  0.30897130  0.88216807  0.71235475  1
  C  C5  1  0.69617844  0.11027338  0.29737929  1
  C  C6  1  0.88216807  0.30897130  0.78764525  1
  O  O7  1  0.07962670  0.31262531  0.93029265  1
  O  O8  1  0.12191446  0.79805261  0.72780961  1
  O  O9  1  0.19851593  0.88621366  0.20570107  1
  O  O10  1  0.24182691  0.51889942  0.29384086  1
  O  O11  1  0.31262531  0.07962670  0.56970735  1
  O  O12  1  0.49305077  0.78026217  0.83087679  1
  O  O13  1  0.51889942  0.24182691  0.20615914  1
  O  O14  1  0.67838476  0.90196763  0.39773470  1
  O  O15  1  0.78026217  0.49305077  0.66912321  1
  O  O16  1  0.79805261  0.12191446  0.77219039  1
  O  O17  1  0.88621366  0.19851593  0.29429893  1
  O  O18  1  0.90196763  0.67838476  0.10226530  1
