# generated using pymatgen
data_Li2CrPO4F
_symmetry_space_group_name_H-M   'P 1'
_cell_length_a   5.20017314
_cell_length_b   13.26772917
_cell_length_c   11.44402662
_cell_angle_alpha   90.00000000
_cell_angle_beta   90.00000000
_cell_angle_gamma   90.00000000
_symmetry_Int_Tables_number   1
_chemical_formula_structural   Li2CrPO4F
_chemical_formula_sum   'Li16 Cr8 P8 O32 F8'
_cell_volume   789.57476713
_cell_formula_units_Z   8
loop_
 _symmetry_equiv_pos_site_id
 _symmetry_equiv_pos_as_xyz
  1  'x, y, z'
loop_
 _atom_site_type_symbol
 _atom_site_label
 _atom_site_symmetry_multiplicity
 _atom_site_fract_x
 _atom_site_fract_y
 _atom_site_fract_z
 _atom_site_occupancy
  Li  Li0  1  0.21964942  0.24039638  0.18099202  1
  Li  Li1  1  0.21964942  0.75960362  0.68099202  1
  Li  Li2  1  0.23181119  0.63586766  0.40185850  1
  Li  Li3  1  0.23181119  0.36413234  0.90185850  1
  Li  Li4  1  0.26818881  0.13586766  0.40185850  1
  Li  Li5  1  0.26818881  0.86413234  0.90185850  1
  Li  Li6  1  0.28035058  0.25960362  0.68099202  1
  Li  Li7  1  0.28035058  0.74039638  0.18099202  1
  Li  Li8  1  0.71964942  0.25960362  0.81900798  1
  Li  Li9  1  0.71964942  0.74039638  0.31900798  1
  Li  Li10  1  0.73181119  0.13586766  0.09814150  1
  Li  Li11  1  0.73181119  0.86413234  0.59814150  1
  Li  Li12  1  0.76818881  0.36413234  0.59814150  1
  Li  Li13  1  0.76818881  0.63586766  0.09814150  1
  Li  Li14  1  0.78035058  0.75960362  0.81900798  1
  Li  Li15  1  0.78035058  0.24039638  0.31900798  1
  Cr  Cr16  1  0.23362329  0.48823120  0.67087203  1
  Cr  Cr17  1  0.23362329  0.51176880  0.17087203  1
  Cr  Cr18  1  0.26637671  0.01176880  0.17087203  1
  Cr  Cr19  1  0.26637671  0.98823120  0.67087203  1
  Cr  Cr20  1  0.73362329  0.98823120  0.82912797  1
  Cr  Cr21  1  0.73362329  0.01176880  0.32912797  1
  Cr  Cr22  1  0.76637671  0.51176880  0.32912797  1
  Cr  Cr23  1  0.76637671  0.48823120  0.82912797  1
  P  P24  1  0.19904928  0.12631422  0.91274401  1
  P  P25  1  0.19904928  0.87368578  0.41274401  1
  P  P26  1  0.30095072  0.37368578  0.41274401  1
  P  P27  1  0.30095072  0.62631422  0.91274401  1
  P  P28  1  0.69904928  0.37368578  0.08725599  1
  P  P29  1  0.69904928  0.62631422  0.58725599  1
  P  P30  1  0.80095072  0.12631422  0.58725599  1
  P  P31  1  0.80095072  0.87368578  0.08725599  1
  O  O32  1  0.10260079  0.12509413  0.59205734  1
  O  O33  1  0.10260079  0.87490587  0.09205734  1
  O  O34  1  0.20106448  0.46965266  0.34556462  1
  O  O35  1  0.20106448  0.53034734  0.84556462  1
  O  O36  1  0.18625491  0.27851026  0.35873607  1
  O  O37  1  0.18625491  0.72148974  0.85873607  1
  O  O38  1  0.20944267  0.61688908  0.04170237  1
  O  O39  1  0.20944267  0.38311092  0.54170237  1
  O  O40  1  0.29055733  0.11688908  0.04170237  1
  O  O41  1  0.29055733  0.88311092  0.54170237  1
  O  O42  1  0.31374509  0.22148974  0.85873607  1
  O  O43  1  0.31374509  0.77851026  0.35873607  1
  O  O44  1  0.29893552  0.96965266  0.34556462  1
  O  O45  1  0.29893552  0.03034734  0.84556462  1
  O  O46  1  0.39739921  0.37490587  0.09205734  1
  O  O47  1  0.39739921  0.62509413  0.59205734  1
  O  O48  1  0.60260079  0.62509413  0.90794266  1
  O  O49  1  0.60260079  0.37490587  0.40794266  1
  O  O50  1  0.70106448  0.03034734  0.65443538  1
  O  O51  1  0.70106448  0.96965266  0.15443538  1
  O  O52  1  0.68625491  0.22148974  0.64126393  1
  O  O53  1  0.68625491  0.77851026  0.14126393  1
  O  O54  1  0.70944267  0.11688908  0.45829763  1
  O  O55  1  0.70944267  0.88311092  0.95829763  1
  O  O56  1  0.79055733  0.38311092  0.95829763  1
  O  O57  1  0.79055733  0.61688908  0.45829763  1
  O  O58  1  0.81374509  0.27851026  0.14126393  1
  O  O59  1  0.81374509  0.72148974  0.64126393  1
  O  O60  1  0.79893552  0.46965266  0.15443538  1
  O  O61  1  0.79893552  0.53034734  0.65443538  1
  O  O62  1  0.89739921  0.12509413  0.90794266  1
  O  O63  1  0.89739921  0.87490587  0.40794266  1
  F  F64  1  0.00000000  0.11971370  0.25000000  1
  F  F65  1  0.00000000  0.64049677  0.25000000  1
  F  F66  1  0.00000000  0.35950323  0.75000000  1
  F  F67  1  0.00000000  0.88028630  0.75000000  1
  F  F68  1  0.50000000  0.14049677  0.25000000  1
  F  F69  1  0.50000000  0.61971370  0.25000000  1
  F  F70  1  0.50000000  0.38028630  0.75000000  1
  F  F71  1  0.50000000  0.85950323  0.75000000  1
