# generated using pymatgen
data_La8Ni4O17
_symmetry_space_group_name_H-M   'P 1'
_cell_length_a   6.90271652
_cell_length_b   7.79377286
_cell_length_c   8.74090422
_cell_angle_alpha   63.09051890
_cell_angle_beta   67.59658096
_cell_angle_gamma   73.43279036
_symmetry_Int_Tables_number   1
_chemical_formula_structural   La8Ni4O17
_chemical_formula_sum   'La8 Ni4 O17'
_cell_volume   384.04240335
_cell_formula_units_Z   1
loop_
 _symmetry_equiv_pos_site_id
 _symmetry_equiv_pos_as_xyz
  1  'x, y, z'
loop_
 _atom_site_type_symbol
 _atom_site_label
 _atom_site_symmetry_multiplicity
 _atom_site_fract_x
 _atom_site_fract_y
 _atom_site_fract_z
 _atom_site_occupancy
  La  La0  1  0.71700527  0.90950072  0.82785817  1
  La  La1  1  0.70730136  0.41028772  0.82454695  1
  La  La2  1  0.27981732  0.83774065  0.67327920  1
  La  La3  1  0.27453160  0.33644133  0.68155670  1
  La  La4  1  0.72376183  0.66068760  0.31331318  1
  La  La5  1  0.71307781  0.16271009  0.32168069  1
  La  La6  1  0.28584802  0.09072532  0.17693710  1
  La  La7  1  0.28859840  0.58332939  0.18633066  1
  Ni  Ni8  1  0.99505088  0.24797619  0.50500343  1
  Ni  Ni9  1  0.99270794  0.75114548  0.50095644  1
  Ni  Ni10  1  0.00052088  0.99701432  0.00170286  1
  Ni  Ni11  1  0.00547848  0.50452305  0.99362449  1
  O  O12  1  0.34142793  0.98058920  0.91793716  1
  O  O13  1  0.34290238  0.47616395  0.84542836  1
  O  O14  1  0.96931292  0.12969698  0.76066810  1
  O  O15  1  0.97119941  0.62794833  0.75372753  1
  O  O16  1  0.65773734  0.29602643  0.57495244  1
  O  O17  1  0.65375596  0.79165041  0.58695786  1
  O  O18  1  0.01029604  0.99798997  0.49925611  1
  O  O19  1  0.34368112  0.17225246  0.48137516  1
  O  O20  1  0.34147399  0.70988094  0.41293005  1
  O  O21  1  0.01101709  0.50045743  0.49128669  1
  O  O22  1  0.00966688  0.37021493  0.24714779  1
  O  O23  1  0.66301012  0.98015092  0.08749127  1
  O  O24  1  0.49173797  0.31443634  0.12691163  1
  O  O25  1  0.66453338  0.60086096  0.08776673  1
  O  O26  1  0.98337201  0.88041927  0.25515589  1
  O  O27  1  0.05403681  0.74158832  0.99003428  1
  O  O28  1  0.97498987  0.25411330  0.00722006  1
