# generated using pymatgen
data_Li5FeHO4
_symmetry_space_group_name_H-M   'P 1'
_cell_length_a   8.95424878
_cell_length_b   9.13780895
_cell_length_c   10.81370893
_cell_angle_alpha   90.00000000
_cell_angle_beta   90.00000000
_cell_angle_gamma   90.00000000
_symmetry_Int_Tables_number   1
_chemical_formula_structural   Li5FeHO4
_chemical_formula_sum   'Li40 Fe8 H8 O32'
_cell_volume   884.80161315
_cell_formula_units_Z   8
loop_
 _symmetry_equiv_pos_site_id
 _symmetry_equiv_pos_as_xyz
  1  'x, y, z'
loop_
 _atom_site_type_symbol
 _atom_site_label
 _atom_site_symmetry_multiplicity
 _atom_site_fract_x
 _atom_site_fract_y
 _atom_site_fract_z
 _atom_site_occupancy
  Li  Li0  1  0.98159182  0.58472903  0.20196599  1
  Li  Li1  1  0.98159182  0.91527097  0.20196599  1
  Li  Li2  1  0.07405673  0.06592175  0.42885545  1
  Li  Li3  1  0.07405673  0.43407825  0.42885545  1
  Li  Li4  1  0.07843158  0.75000000  0.43161218  1
  Li  Li5  1  0.11809918  0.25000000  0.97692088  1
  Li  Li6  1  0.10796324  0.56912630  0.98658537  1
  Li  Li7  1  0.10796324  0.93087370  0.98658537  1
  Li  Li8  1  0.20501755  0.58807498  0.61993651  1
  Li  Li9  1  0.20501755  0.91192502  0.61993651  1
  Li  Li10  1  0.29498245  0.08807498  0.11993651  1
  Li  Li11  1  0.29498245  0.41192502  0.11993651  1
  Li  Li12  1  0.39203676  0.06912630  0.48658537  1
  Li  Li13  1  0.39203676  0.43087370  0.48658537  1
  Li  Li14  1  0.38190082  0.75000000  0.47692088  1
  Li  Li15  1  0.42156842  0.25000000  0.93161218  1
  Li  Li16  1  0.42594327  0.56592175  0.92885545  1
  Li  Li17  1  0.42594327  0.93407825  0.92885545  1
  Li  Li18  1  0.51840818  0.08472903  0.70196599  1
  Li  Li19  1  0.51840818  0.41527097  0.70196599  1
  Li  Li20  1  0.48159182  0.58472903  0.29803401  1
  Li  Li21  1  0.48159182  0.91527097  0.29803401  1
  Li  Li22  1  0.57405673  0.06592175  0.07114455  1
  Li  Li23  1  0.57405673  0.43407825  0.07114455  1
  Li  Li24  1  0.57843158  0.75000000  0.06838782  1
  Li  Li25  1  0.61809918  0.25000000  0.52307912  1
  Li  Li26  1  0.60796324  0.56912630  0.51341463  1
  Li  Li27  1  0.60796324  0.93087370  0.51341463  1
  Li  Li28  1  0.70501755  0.58807498  0.88006349  1
  Li  Li29  1  0.70501755  0.91192502  0.88006349  1
  Li  Li30  1  0.79498245  0.08807498  0.38006349  1
  Li  Li31  1  0.79498245  0.41192502  0.38006349  1
  Li  Li32  1  0.89203676  0.06912630  0.01341463  1
  Li  Li33  1  0.89203676  0.43087370  0.01341463  1
  Li  Li34  1  0.88190082  0.75000000  0.02307912  1
  Li  Li35  1  0.92156842  0.25000000  0.56838782  1
  Li  Li36  1  0.92594327  0.93407825  0.57114455  1
  Li  Li37  1  0.92594327  0.56592175  0.57114455  1
  Li  Li38  1  0.01840818  0.08472903  0.79803401  1
  Li  Li39  1  0.01840818  0.41527097  0.79803401  1
  Fe  Fe40  1  0.02262110  0.25000000  0.21818060  1
  Fe  Fe41  1  0.21085429  0.25000000  0.62447261  1
  Fe  Fe42  1  0.28914571  0.75000000  0.12447261  1
  Fe  Fe43  1  0.47737890  0.75000000  0.71818060  1
  Fe  Fe44  1  0.52262110  0.25000000  0.28181940  1
  Fe  Fe45  1  0.71085429  0.25000000  0.87552739  1
  Fe  Fe46  1  0.78914571  0.75000000  0.37552739  1
  Fe  Fe47  1  0.97737890  0.75000000  0.78181940  1
  H  H48  1  0.22536893  0.58285955  0.31526988  1
  H  H49  1  0.22536893  0.91714045  0.31526988  1
  H  H50  1  0.27463107  0.08285955  0.81526988  1
  H  H51  1  0.27463107  0.41714045  0.81526988  1
  H  H52  1  0.72536893  0.58285955  0.18473012  1
  H  H53  1  0.72536893  0.91714045  0.18473012  1
  H  H54  1  0.77463107  0.08285955  0.68473012  1
  H  H55  1  0.77463107  0.41714045  0.68473012  1
  O  O56  1  0.05457357  0.75000000  0.61605268  1
  O  O57  1  0.07437834  0.41724709  0.12056702  1
  O  O58  1  0.07437834  0.08275291  0.12056702  1
  O  O59  1  0.07891984  0.41557751  0.61897218  1
  O  O60  1  0.07891984  0.08442249  0.61897218  1
  O  O61  1  0.07738494  0.75000000  0.10737816  1
  O  O62  1  0.24382049  0.07445222  0.90250066  1
  O  O63  1  0.24382049  0.42554778  0.90250066  1
  O  O64  1  0.25617951  0.57445222  0.40250066  1
  O  O65  1  0.25617951  0.92554778  0.40250066  1
  O  O66  1  0.42261506  0.25000000  0.60737816  1
  O  O67  1  0.42108016  0.58442249  0.11897218  1
  O  O68  1  0.42108016  0.91557751  0.11897218  1
  O  O69  1  0.42562166  0.58275291  0.62056702  1
  O  O70  1  0.42562166  0.91724709  0.62056702  1
  O  O71  1  0.44542643  0.25000000  0.11605268  1
  O  O72  1  0.55457357  0.75000000  0.88394732  1
  O  O73  1  0.57437834  0.08275291  0.37943298  1
  O  O74  1  0.57437834  0.41724709  0.37943298  1
  O  O75  1  0.57891984  0.08442249  0.88102782  1
  O  O76  1  0.57891984  0.41557751  0.88102782  1
  O  O77  1  0.57738494  0.75000000  0.39262184  1
  O  O78  1  0.74382049  0.07445222  0.59749934  1
  O  O79  1  0.74382049  0.42554778  0.59749934  1
  O  O80  1  0.75617951  0.57445222  0.09749934  1
  O  O81  1  0.75617951  0.92554778  0.09749934  1
  O  O82  1  0.92261506  0.25000000  0.89262184  1
  O  O83  1  0.92108016  0.91557751  0.38102782  1
  O  O84  1  0.92108016  0.58442249  0.38102782  1
  O  O85  1  0.92562166  0.91724709  0.87943298  1
  O  O86  1  0.92562166  0.58275291  0.87943298  1
  O  O87  1  0.94542643  0.25000000  0.38394732  1
