# generated using pymatgen
data_Li4V3Ni3(TeO8)2
_symmetry_space_group_name_H-M   'P 1'
_cell_length_a   6.01238108
_cell_length_b   5.88193824
_cell_length_c   10.22974713
_cell_angle_alpha   89.85277498
_cell_angle_beta   89.76677793
_cell_angle_gamma   119.23191466
_symmetry_Int_Tables_number   1
_chemical_formula_structural   Li4V3Ni3(TeO8)2
_chemical_formula_sum   'Li4 V3 Ni3 Te2 O16'
_cell_volume   315.69123793
_cell_formula_units_Z   1
loop_
 _symmetry_equiv_pos_site_id
 _symmetry_equiv_pos_as_xyz
  1  'x, y, z'
loop_
 _atom_site_type_symbol
 _atom_site_label
 _atom_site_symmetry_multiplicity
 _atom_site_fract_x
 _atom_site_fract_y
 _atom_site_fract_z
 _atom_site_occupancy
  Li  Li0  1  0.31635132  0.65881476  0.90485101  1
  Li  Li1  1  0.01351581  0.00571703  0.98522310  1
  Li  Li2  1  0.00232203  0.99980886  0.49539124  1
  Li  Li3  1  0.67008730  0.33891674  0.40423517  1
  V  V4  1  0.19663484  0.84102921  0.22042893  1
  V  V5  1  0.18524887  0.34142726  0.22192483  1
  V  V6  1  0.35899738  0.17909118  0.73413690  1
  Ni  Ni7  1  0.66858357  0.83123050  0.20512370  1
  Ni  Ni8  1  0.82813764  0.65853788  0.71549045  1
  Ni  Ni9  1  0.82847886  0.16996162  0.71507560  1
  Te  Te10  1  0.33889397  0.67081404  0.51461616  1
  Te  Te11  1  0.70765532  0.35393968  0.99622479  1
  O  O12  1  0.16757046  0.83619074  0.60431047  1
  O  O13  1  0.02506630  0.52713654  0.31972624  1
  O  O14  1  0.31523926  0.67021744  0.10756253  1
  O  O15  1  0.00351413  0.99285770  0.30753168  1
  O  O16  1  0.02748857  0.01377059  0.80033815  1
  O  O17  1  0.16731916  0.33210940  0.60301094  1
  O  O18  1  0.47038003  0.98579079  0.31792505  1
  O  O19  1  0.46844006  0.48415440  0.31456571  1
  O  O20  1  0.28874714  0.13303938  0.11063852  1
  O  O21  1  0.67344158  0.83676538  0.59835531  1
  O  O22  1  0.48579140  0.46824324  0.83120874  1
  O  O23  1  0.48583693  0.01630588  0.83015423  1
  O  O24  1  0.62282695  0.31185572  0.61033236  1
  O  O25  1  0.85756796  0.68297786  0.09150272  1
  O  O26  1  0.95938779  0.47909809  0.85300506  1
  O  O27  1  0.86647839  0.18049607  0.09494942  1
