# generated using pymatgen
data_LiCo2C2O7
_symmetry_space_group_name_H-M   'P 1'
_cell_length_a   4.82941363
_cell_length_b   4.79531988
_cell_length_c   15.66035064
_cell_angle_alpha   89.20885049
_cell_angle_beta   88.36317176
_cell_angle_gamma   59.75360229
_symmetry_Int_Tables_number   1
_chemical_formula_structural   LiCo2C2O7
_chemical_formula_sum   'Li2 Co4 C4 O14'
_cell_volume   313.17212370
_cell_formula_units_Z   2
loop_
 _symmetry_equiv_pos_site_id
 _symmetry_equiv_pos_as_xyz
  1  'x, y, z'
loop_
 _atom_site_type_symbol
 _atom_site_label
 _atom_site_symmetry_multiplicity
 _atom_site_fract_x
 _atom_site_fract_y
 _atom_site_fract_z
 _atom_site_occupancy
  Li  Li0  1  0.99784633  0.99701797  0.49886140  1
  Li  Li1  1  0.99491765  0.00297355  0.99888885  1
  Co  Co2  1  0.68395750  0.65103166  0.36547553  1
  Co  Co3  1  0.64320245  0.67184847  0.13834437  1
  Co  Co4  1  0.33534546  0.34840628  0.86562993  1
  Co  Co5  1  0.31508342  0.32821866  0.63842573  1
  C  C6  1  0.33414058  0.33237490  0.41370306  1
  C  C7  1  0.32879619  0.33432679  0.08645480  1
  C  C8  1  0.66350796  0.66530093  0.58641243  1
  C  C9  1  0.66642784  0.66800541  0.91370206  1
  O  O10  1  0.07255030  0.61171048  0.41566673  1
  O  O11  1  0.38946257  0.92916667  0.91077504  1
  O  O12  1  0.31811683  0.61106696  0.08286553  1
  O  O13  1  0.38954181  0.67827448  0.58937650  1
  O  O14  1  0.06783205  0.32124820  0.08938012  1
  O  O15  1  0.67649678  0.92949734  0.58547869  1
  O  O16  1  0.68487649  0.67813150  0.24664337  1
  O  O17  1  0.36328349  0.32203886  0.74655867  1
  O  O18  1  0.31862151  0.07086603  0.41065647  1
  O  O19  1  0.92640487  0.68379681  0.91632858  1
  O  O20  1  0.60974005  0.31680419  0.41645399  1
  O  O21  1  0.68455423  0.38842570  0.91566208  1
  O  O22  1  0.60599513  0.07035784  0.08549469  1
  O  O23  1  0.92962849  0.38882031  0.58273937  1
