# generated using pymatgen
data_Li2V3(CO3)6
_symmetry_space_group_name_H-M   'P 1'
_cell_length_a   4.80714004
_cell_length_b   6.08332432
_cell_length_c   12.18673035
_cell_angle_alpha   100.89506290
_cell_angle_beta   90.02526761
_cell_angle_gamma   113.24108044
_symmetry_Int_Tables_number   1
_chemical_formula_structural   Li2V3(CO3)6
_chemical_formula_sum   'Li2 V3 C6 O18'
_cell_volume   320.44590259
_cell_formula_units_Z   1
loop_
 _symmetry_equiv_pos_site_id
 _symmetry_equiv_pos_as_xyz
  1  'x, y, z'
loop_
 _atom_site_type_symbol
 _atom_site_label
 _atom_site_symmetry_multiplicity
 _atom_site_fract_x
 _atom_site_fract_y
 _atom_site_fract_z
 _atom_site_occupancy
  Li  Li0  1  0.26171509  0.52025390  0.93819743  1
  Li  Li1  1  0.40495191  0.81307910  0.39513557  1
  V  V2  1  0.67172880  0.33513098  0.32898685  1
  V  V3  1  0.33333300  0.66666700  0.66666700  1
  V  V4  1  0.99493720  0.99820202  0.00434715  1
  C  C5  1  0.86872711  0.74467468  0.53283201  1
  C  C6  1  0.54173497  0.08150404  0.86529952  1
  C  C7  1  0.79793989  0.58865932  0.80050099  1
  C  C8  1  0.21166451  0.41602549  0.19936878  1
  C  C9  1  0.45500249  0.91730751  0.13396422  1
  C  C10  1  0.12493103  0.25182896  0.46803448  1
  O  O11  1  0.81852706  0.10893866  0.88283586  1
  O  O12  1  0.84813894  0.22439534  0.45049714  1
  O  O13  1  0.91042595  0.51089401  0.71432472  1
  O  O14  1  0.94983974  0.67121078  0.89792914  1
  O  O15  1  0.71682726  0.66212222  0.43540386  1
  O  O16  1  0.39975447  0.96425069  0.76531024  1
  O  O17  1  0.75624105  0.82243899  0.61900828  1
  O  O18  1  0.40469226  0.17020247  0.93875049  1
  O  O19  1  0.48234592  0.42603178  0.21245817  1
  O  O20  1  0.51935462  0.57744924  0.79218752  1
  O  O21  1  0.56529341  0.82322665  0.04899353  1
  O  O22  1  0.26197374  0.16313053  0.39458251  1
  O  O23  1  0.61047978  0.00812290  0.23004742  1
  O  O24  1  0.26691253  0.36908231  0.56802276  1
  O  O25  1  0.05618722  0.32521010  0.10328558  1
  O  O26  1  0.10137359  0.51010635  0.28433947  1
  O  O27  1  0.14731238  0.75588376  0.54114548  1
  O  O28  1  0.18432108  0.90730122  0.12087483  1
