# generated using pymatgen
data_Fe5P3O13
_symmetry_space_group_name_H-M   'P 1'
_cell_length_a   6.32142332
_cell_length_b   8.54820927
_cell_length_c   9.84760340
_cell_angle_alpha   94.79263422
_cell_angle_beta   89.99884843
_cell_angle_gamma   90.05214451
_symmetry_Int_Tables_number   1
_chemical_formula_structural   Fe5P3O13
_chemical_formula_sum   'Fe10 P6 O26'
_cell_volume   530.27269464
_cell_formula_units_Z   2
loop_
 _symmetry_equiv_pos_site_id
 _symmetry_equiv_pos_as_xyz
  1  'x, y, z'
loop_
 _atom_site_type_symbol
 _atom_site_label
 _atom_site_symmetry_multiplicity
 _atom_site_fract_x
 _atom_site_fract_y
 _atom_site_fract_z
 _atom_site_occupancy
  Fe  Fe0  1  0.99939389  0.11409037  0.76634901  1
  Fe  Fe1  1  0.25234854  0.84582136  0.90886373  1
  Fe  Fe2  1  0.24872061  0.76764750  0.55781012  1
  Fe  Fe3  1  0.24876189  0.58556741  0.11623322  1
  Fe  Fe4  1  0.50498226  0.11355815  0.76451623  1
  Fe  Fe5  1  0.49501774  0.88644185  0.23548377  1
  Fe  Fe6  1  0.75123811  0.41443259  0.88376678  1
  Fe  Fe7  1  0.75127939  0.23235250  0.44218988  1
  Fe  Fe8  1  0.74765146  0.15417864  0.09113527  1
  Fe  Fe9  1  0.00060611  0.88590863  0.23365099  1
  P  P10  1  0.25277288  0.47830076  0.77793097  1
  P  P11  1  0.24994725  0.11009035  0.48026885  1
  P  P12  1  0.24888907  0.18159190  0.08377788  1
  P  P13  1  0.75111093  0.81840810  0.91622212  1
  P  P14  1  0.75005275  0.88990965  0.51973115  1
  P  P15  1  0.74722712  0.52169924  0.22206903  1
  O  O16  1  0.04642867  0.37508208  0.78546241  1
  O  O17  1  0.05429425  0.20828775  0.46183270  1
  O  O18  1  0.04773251  0.11747908  0.15077940  1
  O  O19  1  0.25249137  0.11890566  0.92936177  1
  O  O20  1  0.24943471  0.05077041  0.63143092  1
  O  O21  1  0.25444530  0.59494442  0.91071605  1
  O  O22  1  0.25354705  0.56870713  0.65210978  1
  O  O23  1  0.24812073  0.80843076  0.11132148  1
  O  O24  1  0.24780051  0.95273503  0.38361787  1
  O  O25  1  0.24683963  0.36195386  0.10053275  1
  O  O26  1  0.44904579  0.20496212  0.46259895  1
  O  O27  1  0.45815207  0.37386833  0.78474536  1
  O  O28  1  0.44861891  0.11914105  0.15359872  1
  O  O29  1  0.55138109  0.88085895  0.84640128  1
  O  O30  1  0.54184793  0.62613167  0.21525464  1
  O  O31  1  0.55095421  0.79503788  0.53740105  1
  O  O32  1  0.75316037  0.63804614  0.89946725  1
  O  O33  1  0.75219949  0.04726497  0.61638213  1
  O  O34  1  0.75187927  0.19156924  0.88867852  1
  O  O35  1  0.74645295  0.43129287  0.34789022  1
  O  O36  1  0.74555470  0.40505558  0.08928395  1
  O  O37  1  0.75056529  0.94922959  0.36856908  1
  O  O38  1  0.74750863  0.88109434  0.07063823  1
  O  O39  1  0.95226749  0.88252092  0.84922060  1
  O  O40  1  0.94570575  0.79171225  0.53816730  1
  O  O41  1  0.95357133  0.62491792  0.21453759  1
