# generated using pymatgen
data_Li2(FeO2)3
_symmetry_space_group_name_H-M   'P 1'
_cell_length_a   9.04784339
_cell_length_b   5.34408153
_cell_length_c   5.34407940
_cell_angle_alpha   64.86544843
_cell_angle_beta   99.78262317
_cell_angle_gamma   80.21737170
_symmetry_Int_Tables_number   1
_chemical_formula_structural   Li2(FeO2)3
_chemical_formula_sum   'Li4 Fe6 O12'
_cell_volume   221.88159536
_cell_formula_units_Z   2
loop_
 _symmetry_equiv_pos_site_id
 _symmetry_equiv_pos_as_xyz
  1  'x, y, z'
loop_
 _atom_site_type_symbol
 _atom_site_label
 _atom_site_symmetry_multiplicity
 _atom_site_fract_x
 _atom_site_fract_y
 _atom_site_fract_z
 _atom_site_occupancy
  Li  Li0  1  0.00606034  0.24696561  0.25299285  1
  Li  Li1  1  0.32721523  0.58644259  0.91363066  1
  Li  Li2  1  0.50620924  0.99694053  0.00309631  1
  Li  Li3  1  0.82711632  0.33637675  0.66351765  1
  Fe  Fe4  1  0.99333200  0.75333916  0.74670691  1
  Fe  Fe5  1  0.16670567  0.16665991  0.83333163  1
  Fe  Fe6  1  0.33999637  0.07997694  0.41997719  1
  Fe  Fe7  1  0.49325398  0.50333085  0.49669103  1
  Fe  Fe8  1  0.66662855  0.41665813  0.08327461  1
  Fe  Fe9  1  0.84004200  0.83007505  0.17001511  1
  O  O10  1  0.99323842  0.98764494  0.96161677  1
  O  O11  1  0.99321961  0.51907210  0.53162447  1
  O  O12  1  0.16670476  0.38396997  0.05077690  1
  O  O13  1  0.34013035  0.29497984  0.65431823  1
  O  O14  1  0.16667709  0.94934100  0.61583625  1
  O  O15  1  0.34011421  0.86485164  0.18577344  1
  O  O16  1  0.49319749  0.28830464  0.26253964  1
  O  O17  1  0.49316136  0.71846043  0.73064300  1
  O  O18  1  0.66668162  0.19928777  0.86585692  1
  O  O19  1  0.66665355  0.63417705  0.30088490  1
  O  O20  1  0.84015877  0.06398112  0.38512764  1
  O  O21  1  0.84016806  0.59582895  0.95510089  1
