# generated using pymatgen
data_Li2Mn3P9O28
_symmetry_space_group_name_H-M   'P 1'
_cell_length_a   7.08448056
_cell_length_b   9.18142409
_cell_length_c   8.88929099
_cell_angle_alpha   69.34119669
_cell_angle_beta   98.47588591
_cell_angle_gamma   71.02269970
_symmetry_Int_Tables_number   1
_chemical_formula_structural   Li2Mn3P9O28
_chemical_formula_sum   'Li2 Mn3 P9 O28'
_cell_volume   488.65866914
_cell_formula_units_Z   1
loop_
 _symmetry_equiv_pos_site_id
 _symmetry_equiv_pos_as_xyz
  1  'x, y, z'
loop_
 _atom_site_type_symbol
 _atom_site_label
 _atom_site_symmetry_multiplicity
 _atom_site_fract_x
 _atom_site_fract_y
 _atom_site_fract_z
 _atom_site_occupancy
  Li  Li0  1  0.96186681  0.52261461  0.96133233  1
  Li  Li1  1  0.53813319  0.97738539  0.03866767  1
  Mn  Mn2  1  0.75000000  0.75000000  0.50000000  1
  Mn  Mn3  1  0.49057084  0.50939266  0.98578955  1
  Mn  Mn4  1  0.00942916  0.99060734  0.01421045  1
  P  P5  1  0.55109663  0.30410408  0.75476677  1
  P  P6  1  0.03593778  0.81857658  0.76133457  1
  P  P7  1  0.93908637  0.32859985  0.70763346  1
  P  P8  1  0.40718440  0.85677807  0.68119623  1
  P  P9  1  0.25000000  0.25000000  0.50000000  1
  P  P10  1  0.56091363  0.17140015  0.29236654  1
  P  P11  1  0.09281560  0.64322193  0.31880377  1
  P  P12  1  0.94890337  0.19589592  0.24523323  1
  P  P13  1  0.46406222  0.68142342  0.23866543  1
  O  O14  1  0.65084883  0.13332900  0.90819038  1
  O  O15  1  0.15232005  0.64246939  0.90768724  1
  O  O16  1  0.53521452  0.72793691  0.86331363  1
  O  O17  1  0.06063283  0.18973290  0.88649326  1
  O  O18  1  0.97677438  0.96545475  0.81185673  1
  O  O19  1  0.47783709  0.46021993  0.79064730  1
  O  O20  1  0.90547428  0.49886056  0.70924904  1
  O  O21  1  0.36936948  0.04236084  0.66544344  1
  O  O22  1  0.83765036  0.83885400  0.64829680  1
  O  O23  1  0.35731232  0.32142959  0.62775703  1
  O  O24  1  0.71371580  0.32385959  0.64818745  1
  O  O25  1  0.18147248  0.85358786  0.64252517  1
  O  O26  1  0.48588049  0.81590970  0.54622383  1
  O  O27  1  0.03161033  0.29189904  0.56793141  1
  O  O28  1  0.01411951  0.68409030  0.45377617  1
  O  O29  1  0.46838967  0.20810096  0.43206859  1
  O  O30  1  0.78628420  0.17614041  0.35181255  1
  O  O31  1  0.31852752  0.64641214  0.35747483  1
  O  O32  1  0.66234964  0.66114600  0.35170320  1
  O  O33  1  0.14268768  0.17857041  0.37224297  1
  O  O34  1  0.59452572  0.00113944  0.29075096  1
  O  O35  1  0.13063052  0.45763916  0.33455656  1
  O  O36  1  0.52322562  0.53454525  0.18814327  1
  O  O37  1  0.02216291  0.03978007  0.20935270  1
  O  O38  1  0.96478548  0.77206309  0.13668637  1
  O  O39  1  0.43936717  0.31026710  0.11350674  1
  O  O40  1  0.84915117  0.36667100  0.09180962  1
  O  O41  1  0.34767995  0.85753061  0.09231276  1
