# generated using pymatgen
data_Li2Mn2F7
_symmetry_space_group_name_H-M   'P 1'
_cell_length_a   7.78882300
_cell_length_b   13.14981408
_cell_length_c   5.22248638
_cell_angle_alpha   90.00000000
_cell_angle_beta   90.00000000
_cell_angle_gamma   97.82089078
_symmetry_Int_Tables_number   1
_chemical_formula_structural   Li2Mn2F7
_chemical_formula_sum   'Li8 Mn8 F28'
_cell_volume   529.91983694
_cell_formula_units_Z   4
loop_
 _symmetry_equiv_pos_site_id
 _symmetry_equiv_pos_as_xyz
  1  'x, y, z'
loop_
 _atom_site_type_symbol
 _atom_site_label
 _atom_site_symmetry_multiplicity
 _atom_site_fract_x
 _atom_site_fract_y
 _atom_site_fract_z
 _atom_site_occupancy
  Li  Li0  1  0.14630262  0.56900497  0.27413716  1
  Li  Li1  1  0.22662381  0.90374531  0.76417684  1
  Li  Li2  1  0.27853511  0.10974089  0.25858620  1
  Li  Li3  1  0.39680414  0.42447968  0.77972451  1
  Li  Li4  1  0.60319586  0.57552032  0.27972451  1
  Li  Li5  1  0.72146489  0.89025911  0.75858620  1
  Li  Li6  1  0.77337619  0.09625469  0.26417584  1
  Li  Li7  1  0.85369738  0.43099503  0.77413716  1
  Mn  Mn8  1  0.07949621  0.32094152  0.26053330  1
  Mn  Mn9  1  0.02632538  0.11184696  0.76451746  1
  Mn  Mn10  1  0.41773763  0.67979099  0.75837815  1
  Mn  Mn11  1  0.47117728  0.88715364  0.26160495  1
  Mn  Mn12  1  0.52882272  0.11284636  0.76160495  1
  Mn  Mn13  1  0.58226237  0.32020901  0.25837815  1
  Mn  Mn14  1  0.97367462  0.88815304  0.26451746  1
  Mn  Mn15  1  0.92050379  0.67905848  0.76053330  1
  F  F16  1  0.04510557  0.40091674  0.54814366  1
  F  F17  1  0.97931498  0.19081211  0.42160781  1
  F  F18  1  0.16864318  0.65742898  0.59961060  1
  F  F19  1  0.21957276  0.87644072  0.41244110  1
  F  F20  1  0.17686206  0.43712922  0.07969914  1
  F  F21  1  0.08338273  0.02621544  0.09070677  1
  F  F22  1  0.13208839  0.23750359  0.97914671  1
  F  F23  1  0.35098763  0.62104457  0.06926572  1
  F  F24  1  0.38626283  0.82029180  0.90977203  1
  F  F25  1  0.26922764  0.08060440  0.61891483  1
  F  F26  1  0.33238367  0.29615141  0.40809394  1
  F  F27  1  0.44381831  0.54869226  0.57977052  1
  F  F28  1  0.56746784  0.97136039  0.58797436  1
  F  F29  1  0.50700864  0.75347517  0.46568423  1
  F  F30  1  0.49299136  0.24652483  0.96568423  1
  F  F31  1  0.43253216  0.02863961  0.08797436  1
  F  F32  1  0.55618169  0.45130774  0.07977052  1
  F  F33  1  0.66761633  0.70384859  0.90809394  1
  F  F34  1  0.73077236  0.91939560  0.11891483  1
  F  F35  1  0.61373717  0.17970820  0.40977203  1
  F  F36  1  0.64901237  0.37895543  0.56926572  1
  F  F37  1  0.86791161  0.76249641  0.47914671  1
  F  F38  1  0.91661727  0.97378456  0.59070677  1
  F  F39  1  0.82313794  0.56287078  0.57969914  1
  F  F40  1  0.78042724  0.12355928  0.91244110  1
  F  F41  1  0.83135682  0.34257102  0.09961060  1
  F  F42  1  0.02068502  0.80918789  0.92160781  1
  F  F43  1  0.95489443  0.59908326  0.04814366  1
