# generated using pymatgen
data_LiFe2(BO3)2
_symmetry_space_group_name_H-M   'P 1'
_cell_length_a   5.27757817
_cell_length_b   9.05639136
_cell_length_c   11.30593397
_cell_angle_alpha   113.23797183
_cell_angle_beta   78.03865673
_cell_angle_gamma   89.90970356
_symmetry_Int_Tables_number   1
_chemical_formula_structural   LiFe2(BO3)2
_chemical_formula_sum   'Li4 Fe8 B8 O24'
_cell_volume   483.66428192
_cell_formula_units_Z   4
loop_
 _symmetry_equiv_pos_site_id
 _symmetry_equiv_pos_as_xyz
  1  'x, y, z'
loop_
 _atom_site_type_symbol
 _atom_site_label
 _atom_site_symmetry_multiplicity
 _atom_site_fract_x
 _atom_site_fract_y
 _atom_site_fract_z
 _atom_site_occupancy
  Li  Li0  1  0.35021871  0.28322231  0.58807622  1
  Li  Li1  1  0.60373578  0.04350505  0.08340237  1
  Li  Li2  1  0.92511256  0.43257709  0.83969330  1
  Li  Li3  1  0.68247472  0.65835552  0.33991170  1
  Fe  Fe4  1  0.40482531  0.26273645  0.87090034  1
  Fe  Fe5  1  0.09725078  0.23666366  0.12936178  1
  Fe  Fe6  1  0.84150795  0.13941381  0.61637209  1
  Fe  Fe7  1  0.65745465  0.33726257  0.37300254  1
  Fe  Fe8  1  0.35292366  0.65009327  0.62575433  1
  Fe  Fe9  1  0.15788553  0.85621495  0.36475206  1
  Fe  Fe10  1  0.90383325  0.78113584  0.86467127  1
  Fe  Fe11  1  0.59741805  0.71621704  0.11487791  1
  B  B12  1  0.63753953  0.01050351  0.37568794  1
  B  B13  1  0.88489519  0.11893136  0.88109290  1
  B  B14  1  0.15965641  0.52685864  0.37037503  1
  B  B15  1  0.40972325  0.59131930  0.86310210  1
  B  B16  1  0.85882171  0.48084185  0.62392945  1
  B  B17  1  0.60600338  0.38433466  0.12532408  1
  B  B18  1  0.34512201  0.97685420  0.62131850  1
  B  B19  1  0.09143926  0.90492660  0.12479427  1
  O  O20  1  0.11473892  0.15602378  0.92566090  1
  O  O21  1  0.43967852  0.13123402  0.67320778  1
  O  O22  1  0.22315162  0.03682164  0.12161387  1
  O  O23  1  0.50090790  0.14790514  0.39293509  1
  O  O24  1  0.87560360  0.01919341  0.41008192  1
  O  O25  1  0.78703715  0.22668958  0.83568997  1
  O  O26  1  0.28275207  0.45657558  0.86267484  1
  O  O27  1  0.05182955  0.37901185  0.32327098  1
  O  O28  1  0.71344766  0.26687169  0.15880770  1
  O  O29  1  0.61712719  0.46808222  0.58749129  1
  O  O30  1  0.97398512  0.35346540  0.63673326  1
  O  O31  1  0.38874112  0.34305530  0.06982264  1
  O  O32  1  0.64600070  0.61564056  0.90117331  1
  O  O33  1  0.38991798  0.53760301  0.41640030  1
  O  O34  1  0.29579857  0.69683698  0.82298661  1
  O  O35  1  0.97764117  0.62362475  0.64932451  1
  O  O36  1  0.70570531  0.52614100  0.14575526  1
  O  O37  1  0.20416908  0.80201540  0.16809032  1
  O  O38  1  0.13833152  0.96654750  0.56306102  1
  O  O39  1  0.46364495  0.84743088  0.62739119  1
  O  O40  1  0.03842001  0.65750141  0.36574519  1
  O  O41  1  0.75782008  0.99373184  0.88911139  1
  O  O42  1  0.53962668  0.85862364  0.33312253  1
  O  O43  1  0.85817686  0.87816174  0.08496396  1
