# generated using pymatgen
data_LiFe2(BO3)2
_symmetry_space_group_name_H-M   'P 1'
_cell_length_a   5.27178434
_cell_length_b   9.12471026
_cell_length_c   10.11996327
_cell_angle_alpha   90.39802425
_cell_angle_beta   90.96355034
_cell_angle_gamma   89.52411933
_symmetry_Int_Tables_number   1
_chemical_formula_structural   LiFe2(BO3)2
_chemical_formula_sum   'Li4 Fe8 B8 O24'
_cell_volume   486.70879505
_cell_formula_units_Z   4
loop_
 _symmetry_equiv_pos_site_id
 _symmetry_equiv_pos_as_xyz
  1  'x, y, z'
loop_
 _atom_site_type_symbol
 _atom_site_label
 _atom_site_symmetry_multiplicity
 _atom_site_fract_x
 _atom_site_fract_y
 _atom_site_fract_z
 _atom_site_occupancy
  Li  Li0  1  0.81466192  0.83586382  0.14315029  1
  Li  Li1  1  0.68118113  0.67059116  0.41395152  1
  Li  Li2  1  0.34151948  0.32104130  0.66619383  1
  Li  Li3  1  0.31093658  0.33266477  0.16329747  1
  Fe  Fe4  1  0.84796339  0.14953613  0.62997247  1
  Fe  Fe5  1  0.81492205  0.50320991  0.12523520  1
  Fe  Fe6  1  0.66999025  0.00158278  0.87488146  1
  Fe  Fe7  1  0.67952510  0.33016099  0.38091035  1
  Fe  Fe8  1  0.33899407  0.66634583  0.63655076  1
  Fe  Fe9  1  0.31218729  0.00540304  0.12315299  1
  Fe  Fe10  1  0.17297928  0.84626411  0.38168713  1
  Fe  Fe11  1  0.16583141  0.50792086  0.87984722  1
  B  B12  1  0.83105489  0.49424715  0.62233345  1
  B  B13  1  0.82756639  0.16830843  0.13055989  1
  B  B14  1  0.66419347  0.99856438  0.37231650  1
  B  B15  1  0.67559772  0.33537075  0.87466461  1
  B  B16  1  0.34304722  0.00264441  0.62756241  1
  B  B17  1  0.32531507  0.66813518  0.13301660  1
  B  B18  1  0.17478322  0.50872289  0.37544064  1
  B  B19  1  0.16805802  0.83560808  0.88318445  1
  O  O20  1  0.91258492  0.49928304  0.34989934  1
  O  O21  1  0.91252846  0.85060430  0.89194230  1
  O  O22  1  0.78125153  0.20142023  0.84205922  1
  O  O23  1  0.76697795  0.12803509  0.41826186  1
  O  O24  1  0.81132374  0.87229200  0.36138437  1
  O  O25  1  0.82858559  0.44725375  0.92349416  1
  O  O26  1  0.70332431  0.62258690  0.60743268  1
  O  O27  1  0.69911470  0.04291779  0.08798932  1
  O  O28  1  0.71138089  0.36154888  0.58176407  1
  O  O29  1  0.68390715  0.29059932  0.17735600  1
  O  O30  1  0.58334556  0.67274619  0.14309828  1
  O  O31  1  0.58937058  0.99101529  0.67916731  1
  O  O32  1  0.41141538  0.99351143  0.33340596  1
  O  O33  1  0.41954466  0.36075614  0.85713649  1
  O  O34  1  0.27570016  0.70297199  0.84102081  1
  O  O35  1  0.27845038  0.64217863  0.41489423  1
  O  O36  1  0.32992895  0.38913355  0.35753436  1
  O  O37  1  0.32892396  0.94807072  0.92171674  1
  O  O38  1  0.20358324  0.53981077  0.08563318  1
  O  O39  1  0.21695489  0.13286566  0.62727024  1
  O  O40  1  0.23253840  0.87556275  0.57376391  1
  O  O41  1  0.17661874  0.78857362  0.17248076  1
  O  O42  1  0.08403941  0.17682687  0.13049879  1
  O  O43  1  0.08235349  0.48636012  0.67176239  1
