# generated using pymatgen
data_LiFe2(BO3)2
_symmetry_space_group_name_H-M   'P 1'
_cell_length_a   5.24702441
_cell_length_b   9.14558865
_cell_length_c   11.36373891
_cell_angle_alpha   67.11081868
_cell_angle_beta   76.91933743
_cell_angle_gamma   89.98534923
_symmetry_Int_Tables_number   1
_chemical_formula_structural   LiFe2(BO3)2
_chemical_formula_sum   'Li4 Fe8 B8 O24'
_cell_volume   486.99274159
_cell_formula_units_Z   4
loop_
 _symmetry_equiv_pos_site_id
 _symmetry_equiv_pos_as_xyz
  1  'x, y, z'
loop_
 _atom_site_type_symbol
 _atom_site_label
 _atom_site_symmetry_multiplicity
 _atom_site_fract_x
 _atom_site_fract_y
 _atom_site_fract_z
 _atom_site_occupancy
  Li  Li0  1  0.97124725  0.96700718  0.39715000  1
  Li  Li1  1  0.51675598  0.49289642  0.65774621  1
  Li  Li2  1  0.01161905  0.98950158  0.66659505  1
  Li  Li3  1  0.23473326  0.25182959  0.15883308  1
  Fe  Fe4  1  0.98214140  0.64004936  0.37432031  1
  Fe  Fe5  1  0.72756398  0.06665922  0.88452988  1
  Fe  Fe6  1  0.52853961  0.84704445  0.62837066  1
  Fe  Fe7  1  0.76360730  0.43843147  0.13113898  1
  Fe  Fe8  1  0.22962076  0.57024653  0.87540339  1
  Fe  Fe9  1  0.47224004  0.15742122  0.38608003  1
  Fe  Fe10  1  0.03631550  0.34181273  0.62817929  1
  Fe  Fe11  1  0.25032784  0.93051362  0.12914095  1
  B  B12  1  0.97416310  0.31601729  0.37294442  1
  B  B13  1  0.73696922  0.39923494  0.87597761  1
  B  B14  1  0.51952331  0.17930165  0.63556543  1
  B  B15  1  0.76194709  0.11198525  0.12818795  1
  B  B16  1  0.48560836  0.81398092  0.37924523  1
  B  B17  1  0.23293700  0.89918880  0.87579618  1
  B  B18  1  0.02396696  0.68535556  0.62183672  1
  B  B19  1  0.27066713  0.59576393  0.13079339  1
  O  O20  1  0.98701030  0.92936210  0.85734418  1
  O  O21  1  0.86193298  0.28594183  0.83824807  1
  O  O22  1  0.86558244  0.48321101  0.92947050  1
  O  O23  1  0.91703283  0.82743363  0.60850279  1
  O  O24  1  0.91510179  0.57678355  0.58354349  1
  O  O25  1  0.75474625  0.14372219  0.67702572  1
  O  O26  1  0.75229918  0.34583609  0.32267800  1
  O  O27  1  0.49220700  0.43421027  0.85628822  1
  O  O28  1  0.35918297  0.78204701  0.84036157  1
  O  O29  1  0.57436521  0.92931210  0.41692859  1
  O  O30  1  0.63426410  0.69295204  0.37642433  1
  O  O31  1  0.36330277  0.98475977  0.92488564  1
  O  O32  1  0.64853800  0.01932548  0.07801619  1
  O  O33  1  0.40735650  0.31392263  0.63301184  1
  O  O34  1  0.40520481  0.07339920  0.59533128  1
  O  O35  1  0.60643722  0.22471932  0.16070059  1
  O  O36  1  0.52869532  0.59059617  0.12640954  1
  O  O37  1  0.24747910  0.64933576  0.67385387  1
  O  O38  1  0.23601869  0.82248074  0.34900500  1
  O  O39  1  0.05796723  0.41772821  0.42311297  1
  O  O40  1  0.10457454  0.18606852  0.36916696  1
  O  O41  1  0.15204573  0.49500740  0.08367213  1
  O  O42  1  0.11681737  0.69220306  0.17950726  1
  O  O43  1  0.01042055  0.09691623  0.14755649  1
