# generated using pymatgen
data_Li2VO2F
_symmetry_space_group_name_H-M   'P 1'
_cell_length_a   2.94332976
_cell_length_b   5.19506813
_cell_length_c   7.97236983
_cell_angle_alpha   69.76410560
_cell_angle_beta   100.63624951
_cell_angle_gamma   90.00054899
_symmetry_Int_Tables_number   1
_chemical_formula_structural   Li2VO2F
_chemical_formula_sum   'Li4 V2 O4 F2'
_cell_volume   112.14475122
_cell_formula_units_Z   2
loop_
 _symmetry_equiv_pos_site_id
 _symmetry_equiv_pos_as_xyz
  1  'x, y, z'
loop_
 _atom_site_type_symbol
 _atom_site_label
 _atom_site_symmetry_multiplicity
 _atom_site_fract_x
 _atom_site_fract_y
 _atom_site_fract_z
 _atom_site_occupancy
  Li  Li0  1  0.83660596  0.49469274  0.67317336  1
  Li  Li1  1  0.16666366  0.50001113  0.33336229  1
  Li  Li2  1  0.66665258  0.00008278  0.33334563  1
  Li  Li3  1  0.49670667  0.50524362  0.99341629  1
  V  V4  1  0.33073619  0.01604397  0.66142020  1
  V  V5  1  0.00263206  0.98386636  0.00529796  1
  O  O6  1  0.91212518  0.77144197  0.82416977  1
  O  O7  1  0.42121028  0.22851542  0.84247663  1
  O  O8  1  0.58064492  0.76354895  0.16132793  1
  O  O9  1  0.75271200  0.23648110  0.50537804  1
  F  F10  1  0.25219492  0.75533556  0.50418417  1
  F  F11  1  0.08111458  0.24473639  0.16244774  1
