# generated using pymatgen
data_Co4OF11
_symmetry_space_group_name_H-M   'P 1'
_cell_length_a   7.37696750
_cell_length_b   5.07630559
_cell_length_c   5.29069980
_cell_angle_alpha   88.85020941
_cell_angle_beta   86.05539702
_cell_angle_gamma   90.31527516
_symmetry_Int_Tables_number   1
_chemical_formula_structural   Co4OF11
_chemical_formula_sum   'Co4 O1 F11'
_cell_volume   197.61090281
_cell_formula_units_Z   1
loop_
 _symmetry_equiv_pos_site_id
 _symmetry_equiv_pos_as_xyz
  1  'x, y, z'
loop_
 _atom_site_type_symbol
 _atom_site_label
 _atom_site_symmetry_multiplicity
 _atom_site_fract_x
 _atom_site_fract_y
 _atom_site_fract_z
 _atom_site_occupancy
  Co  Co0  1  0.00198721  0.48889634  0.50340775  1
  Co  Co1  1  0.00488944  0.00564289  0.98454752  1
  Co  Co2  1  0.50143798  0.49966436  0.49931134  1
  Co  Co3  1  0.50164756  0.00011095  0.99979995  1
  O  O4  1  0.04201257  0.21876353  0.70274685  1
  F  F5  1  0.05885783  0.30694636  0.19344767  1
  F  F6  1  0.25247695  0.88578170  0.99593892  1
  F  F7  1  0.44080794  0.31432145  0.80441551  1
  F  F8  1  0.24861095  0.61488034  0.50018441  1
  F  F9  1  0.44275968  0.18853368  0.30587238  1
  F  F10  1  0.55699520  0.81095238  0.69374623  1
  F  F11  1  0.75143001  0.37985053  0.50085589  1
  F  F12  1  0.55696978  0.68344782  0.19426227  1
  F  F13  1  0.74702211  0.11181022  0.00639121  1
  F  F14  1  0.94264538  0.69479904  0.80524680  1
  F  F15  1  0.94945042  0.79559843  0.30982528  1
