# generated using pymatgen
data_Na6CoO4
_symmetry_space_group_name_H-M   'P 1'
_cell_length_a   7.47944672
_cell_length_b   7.47942903
_cell_length_c   5.47547064
_cell_angle_alpha   89.99993615
_cell_angle_beta   90.00009409
_cell_angle_gamma   89.99973273
_symmetry_Int_Tables_number   1
_chemical_formula_structural   Na6CoO4
_chemical_formula_sum   'Na12 Co2 O8'
_cell_volume   306.30872886
_cell_formula_units_Z   2
loop_
 _symmetry_equiv_pos_site_id
 _symmetry_equiv_pos_as_xyz
  1  'x, y, z'
loop_
 _atom_site_type_symbol
 _atom_site_label
 _atom_site_symmetry_multiplicity
 _atom_site_fract_x
 _atom_site_fract_y
 _atom_site_fract_z
 _atom_site_occupancy
  Na  Na0  1  0.03725273  0.53725850  0.74999930  1
  Na  Na1  1  0.03725929  0.96276141  0.75000102  1
  Na  Na2  1  0.25002155  0.25000932  0.66132480  1
  Na  Na3  1  0.25001012  0.25000038  0.16132926  1
  Na  Na4  1  0.46276204  0.53725451  0.74999908  1
  Na  Na5  1  0.46277766  0.96277740  0.74999655  1
  Na  Na6  1  0.53725254  0.03724772  0.24999459  1
  Na  Na7  1  0.53724663  0.46275922  0.24999438  1
  Na  Na8  1  0.75000018  0.75000852  0.33867739  1
  Na  Na9  1  0.75000438  0.75000794  0.83868143  1
  Na  Na10  1  0.96275947  0.03725574  0.25000084  1
  Na  Na11  1  0.96275420  0.46275759  0.25000475  1
  Co  Co12  1  0.24999984  0.75000281  0.24999697  1
  Co  Co13  1  0.75002323  0.25001384  0.75000102  1
  O  O14  1  0.99475055  0.25001092  0.92967295  1
  O  O15  1  0.25000932  0.99475191  0.42966590  1
  O  O16  1  0.25000214  0.50525957  0.42966283  1
  O  O17  1  0.50527461  0.25000944  0.92967719  1
  O  O18  1  0.49474989  0.75000549  0.07033146  1
  O  O19  1  0.75000932  0.00527295  0.57032324  1
  O  O20  1  0.75000317  0.49474873  0.57032683  1
  O  O21  1  0.00525715  0.75000606  0.07033820  1
