# generated using pymatgen
data_Li3V3P8O29
_symmetry_space_group_name_H-M   'P 1'
_cell_length_a   9.76844026
_cell_length_b   9.73309475
_cell_length_c   14.22680993
_cell_angle_alpha   90.18799613
_cell_angle_beta   90.85913904
_cell_angle_gamma   60.22080081
_symmetry_Int_Tables_number   1
_chemical_formula_structural   Li3V3P8O29
_chemical_formula_sum   'Li6 V6 P16 O58'
_cell_volume   1173.87672257
_cell_formula_units_Z   2
loop_
 _symmetry_equiv_pos_site_id
 _symmetry_equiv_pos_as_xyz
  1  'x, y, z'
loop_
 _atom_site_type_symbol
 _atom_site_label
 _atom_site_symmetry_multiplicity
 _atom_site_fract_x
 _atom_site_fract_y
 _atom_site_fract_z
 _atom_site_occupancy
  Li  Li0  1  0.90696014  0.31543771  0.55366458  1
  Li  Li1  1  0.32916234  0.90441750  0.05814356  1
  Li  Li2  1  0.30964473  0.76992527  0.56240205  1
  Li  Li3  1  0.67012458  0.09726222  0.94355079  1
  Li  Li4  1  0.22492595  0.08835180  0.44103452  1
  Li  Li5  1  0.00237557  0.00235671  0.00738835  1
  V  V6  1  0.56735379  0.43683227  0.25040156  1
  V  V7  1  0.43319393  0.55885347  0.75402461  1
  V  V8  1  0.57057185  0.99719036  0.74385539  1
  V  V9  1  0.44057108  0.99850461  0.25048404  1
  V  V10  1  0.99842282  0.56787890  0.24460704  1
  V  V11  1  0.00157377  0.43990017  0.75791723  1
  P  P12  1  0.91804975  0.78395063  0.84225052  1
  P  P13  1  0.77995627  0.91040353  0.34121721  1
  P  P14  1  0.91501970  0.31648347  0.33902473  1
  P  P15  1  0.66180188  0.66866237  0.13146894  1
  P  P16  1  0.66402029  0.66148801  0.63181197  1
  P  P17  1  0.77856377  0.30551831  0.84029517  1
  P  P18  1  0.68524751  0.23006119  0.65567718  1
  P  P19  1  0.31887928  0.91084729  0.84034479  1
  P  P20  1  0.68797207  0.08937975  0.15990411  1
  P  P21  1  0.31989740  0.77013036  0.34584645  1
  P  P22  1  0.22176822  0.69569017  0.16276725  1
  P  P23  1  0.33188060  0.33440723  0.36631865  1
  P  P24  1  0.33954269  0.32590500  0.86916237  1
  P  P25  1  0.08254937  0.68805961  0.65682060  1
  P  P26  1  0.22606561  0.09306405  0.66077633  1
  P  P27  1  0.08546344  0.21790695  0.15729587  1
  O  O28  1  0.00137032  0.75998159  0.56797410  1
  O  O29  1  0.91903423  0.73853630  0.33020486  1
  O  O30  1  0.76263520  0.02151998  0.06829134  1
  O  O31  1  0.74172915  0.91879675  0.83344115  1
  O  O32  1  0.92000916  0.62082162  0.83133632  1
  O  O33  1  0.80951058  0.67227444  0.17280590  1
  O  O34  1  0.90654349  0.47653869  0.31972184  1
  O  O35  1  0.00953683  0.18655354  0.07568638  1
  O  O36  1  0.91160775  0.34790979  0.83391443  1
  O  O37  1  0.65914200  0.81545243  0.67710561  1
  O  O38  1  0.62338984  0.90374306  0.31878014  1
  O  O39  1  0.81564077  0.51760275  0.67550495  1
  O  O40  1  0.64574061  0.67746655  0.02756025  1
  O  O41  1  0.65884748  0.66748070  0.52778703  1
  O  O42  1  0.66774222  0.51876987  0.17702362  1
  O  O43  1  0.47355357  0.91371853  0.82466781  1
  O  O44  1  0.50867811  0.81625317  0.17402798  1
  O  O45  1  0.74570771  0.34222062  0.33367667  1
  O  O46  1  0.79697063  0.20631734  0.74617237  1
  O  O47  1  0.76399259  0.23941556  0.57036654  1
  O  O48  1  0.79134839  0.20598945  0.92253062  1
  O  O49  1  0.61725970  0.46230024  0.82937400  1
  O  O50  1  0.51611317  0.66182425  0.67340366  1
  O  O51  1  0.65346864  0.26183357  0.17147265  1
  O  O52  1  0.47909490  0.61996228  0.32358036  1
  O  O53  1  0.34079339  0.91897185  0.33773660  1
  O  O54  1  0.79972193  0.99463466  0.24686536  1
  O  O55  1  0.76740598  0.99804068  0.42730300  1
  O  O56  1  0.23972230  0.00223824  0.57263120  1
  O  O57  1  0.65577356  0.08718482  0.66430703  1
  O  O58  1  0.52478360  0.38126761  0.67634793  1
  O  O59  1  0.35005361  0.73892247  0.82770600  1
  O  O60  1  0.47342418  0.34358337  0.32260391  1
  O  O61  1  0.38262663  0.54039049  0.17056672  1
  O  O62  1  0.20448206  0.80374931  0.08377972  1
  O  O63  1  0.25327217  0.76432631  0.43738807  1
  O  O64  1  0.20198752  0.78828269  0.26105948  1
  O  O65  1  0.25553058  0.65826288  0.66504296  1
  O  O66  1  0.49189116  0.18122759  0.82908277  1
  O  O67  1  0.52973882  0.08937929  0.17473441  1
  O  O68  1  0.33134755  0.47848156  0.82263436  1
  O  O69  1  0.34372544  0.32868170  0.97310294  1
  O  O70  1  0.32613047  0.33084630  0.47008626  1
  O  O71  1  0.18227154  0.47373124  0.31693884  1
  O  O72  1  0.37883184  0.10249206  0.67853408  1
  O  O73  1  0.33567790  0.18003240  0.32494761  1
  O  O74  1  0.08681555  0.65530887  0.16419163  1
  O  O75  1  0.99820617  0.79775317  0.74776853  1
  O  O76  1  0.99282805  0.80507321  0.92761870  1
  O  O77  1  0.08908814  0.52753662  0.68285648  1
  O  O78  1  0.18979740  0.32442046  0.82548042  1
  O  O79  1  0.07441894  0.38215944  0.16574363  1
  O  O80  1  0.26283383  0.08366422  0.16434177  1
  O  O81  1  0.23912466  0.97892180  0.93052386  1
  O  O82  1  0.20638714  0.00455690  0.75083444  1
  O  O83  1  0.07953436  0.26006573  0.66102162  1
  O  O84  1  0.99970956  0.24321936  0.43000308  1
  O  O85  1  0.01095857  0.19873273  0.25524415  1
