# generated using pymatgen
data_Li4Fe3Co3(NiO8)2
_symmetry_space_group_name_H-M   'P 1'
_cell_length_a   5.77352536
_cell_length_b   5.76699899
_cell_length_c   9.56036731
_cell_angle_alpha   89.99131062
_cell_angle_beta   90.23597034
_cell_angle_gamma   119.94644610
_symmetry_Int_Tables_number   1
_chemical_formula_structural   Li4Fe3Co3(NiO8)2
_chemical_formula_sum   'Li4 Fe3 Co3 Ni2 O16'
_cell_volume   275.81986596
_cell_formula_units_Z   1
loop_
 _symmetry_equiv_pos_site_id
 _symmetry_equiv_pos_as_xyz
  1  'x, y, z'
loop_
 _atom_site_type_symbol
 _atom_site_label
 _atom_site_symmetry_multiplicity
 _atom_site_fract_x
 _atom_site_fract_y
 _atom_site_fract_z
 _atom_site_occupancy
  Li  Li0  1  0.32824781  0.66412830  0.89497797  1
  Li  Li1  1  0.01017489  0.00514006  -0.00059060  1
  Li  Li2  1  0.01145703  0.00570316  0.49749279  1
  Li  Li3  1  0.66122940  0.33058657  0.39078298  1
  Fe  Fe4  1  0.65998948  0.83003648  0.21522104  1
  Fe  Fe5  1  0.82884110  0.66075481  0.71512863  1
  Fe  Fe6  1  0.82891698  0.16815440  0.71510658  1
  Co  Co7  1  0.16707296  0.83041506  0.21314813  1
  Co  Co8  1  0.16707115  0.33670949  0.21313253  1
  Co  Co9  1  0.33802388  0.16896971  0.71208560  1
  Ni  Ni10  1  0.33605096  0.66803636  0.48754762  1
  Ni  Ni11  1  0.66522139  0.33264408  0.98961701  1
  O  O12  1  0.17182137  0.84881588  0.60751611  1
  O  O13  1  0.03746017  0.51876124  0.32493760  1
  O  O14  1  0.31829442  0.65917881  0.10575843  1
  O  O15  1  0.01385771  0.00693450  0.31190040  1
  O  O16  1  0.01360702  0.00690999  0.81366138  1
  O  O17  1  0.17169070  0.32290698  0.60745080  1
  O  O18  1  0.47183749  0.96239654  0.32978840  1
  O  O19  1  0.47175537  0.50934662  0.32985140  1
  O  O20  1  0.31856115  0.15930286  0.11398258  1
  O  O21  1  0.68073662  0.84014033  0.60269388  1
  O  O22  1  0.50624856  0.47179235  0.83189964  1
  O  O23  1  0.50641886  0.03450914  0.83192705  1
  O  O24  1  0.65761798  0.32869918  0.60121146  1
  O  O25  1  0.84803258  0.68112681  0.10802719  1
  O  O26  1  0.96167690  0.48109014  0.83559620  1
  O  O27  1  0.84808605  0.16710817  0.10798621  1
