# generated using pymatgen
data_Li3V3P8O29
_symmetry_space_group_name_H-M   'P 1'
_cell_length_a   9.76165171
_cell_length_b   9.76987865
_cell_length_c   14.02539624
_cell_angle_alpha   89.98243322
_cell_angle_beta   90.50507305
_cell_angle_gamma   60.02058055
_symmetry_Int_Tables_number   1
_chemical_formula_structural   Li3V3P8O29
_chemical_formula_sum   'Li6 V6 P16 O58'
_cell_volume   1158.57720131
_cell_formula_units_Z   2
loop_
 _symmetry_equiv_pos_site_id
 _symmetry_equiv_pos_as_xyz
  1  'x, y, z'
loop_
 _atom_site_type_symbol
 _atom_site_label
 _atom_site_symmetry_multiplicity
 _atom_site_fract_x
 _atom_site_fract_y
 _atom_site_fract_z
 _atom_site_occupancy
  Li  Li0  1  0.77631637  0.31757509  0.05350253  1
  Li  Li1  1  0.31470331  0.91021373  0.05826637  1
  Li  Li2  1  0.66981547  0.23352152  0.44348649  1
  Li  Li3  1  0.33312445  0.76534149  0.56157826  1
  Li  Li4  1  0.68394952  0.08644575  0.93672904  1
  Li  Li5  1  0.99962330  0.00064012  0.50475092  1
  V  V6  1  0.56444947  0.43729471  0.24959315  1
  V  V7  1  0.42804816  0.56610737  0.75510986  1
  V  V8  1  0.57020226  0.99066786  0.74396765  1
  V  V9  1  0.43196369  0.00707817  0.25493835  1
  V  V10  1  0.99889396  0.56540255  0.25061314  1
  V  V11  1  0.00006527  0.43755555  0.74855308  1
  P  P12  1  0.91808742  0.77110666  0.84444129  1
  P  P13  1  0.77794174  0.91338779  0.33990898  1
  P  P14  1  0.91716035  0.30758750  0.34523083  1
  P  P15  1  0.66344853  0.66949535  0.12996136  1
  P  P16  1  0.66382839  0.66275707  0.62800660  1
  P  P17  1  0.77325477  0.31829478  0.83914386  1
  P  P18  1  0.68281152  0.22852175  0.65831320  1
  P  P19  1  0.31753159  0.91401515  0.84334593  1
  P  P20  1  0.68146528  0.08834508  0.15551934  1
  P  P21  1  0.31383941  0.77407638  0.34246843  1
  P  P22  1  0.22425558  0.68607689  0.15918060  1
  P  P23  1  0.33421543  0.33616895  0.37130724  1
  P  P24  1  0.33728169  0.32602243  0.87121329  1
  P  P25  1  0.08213388  0.69455928  0.65591490  1
  P  P26  1  0.22148406  0.08790329  0.65983925  1
  P  P27  1  0.08377865  0.22957676  0.15825384  1
  O  O28  1  0.00600886  0.78789437  0.56842432  1
  O  O29  1  0.91446622  0.74149467  0.33524830  1
  O  O30  1  0.74796870  0.01234376  0.06316477  1
  O  O31  1  0.74450064  0.91471054  0.83637370  1
  O  O32  1  0.91076551  0.61716314  0.82190303  1
  O  O33  1  0.81320981  0.66326806  0.17756667  1
  O  O34  1  0.91681283  0.46564745  0.32892074  1
  O  O35  1  0.99305541  0.23887158  0.07090254  1
  O  O36  1  0.91543474  0.34404908  0.83545148  1
  O  O37  1  0.66742523  0.81243812  0.67359095  1
  O  O38  1  0.61795246  0.91385982  0.32728152  1
  O  O39  1  0.81229576  0.51782939  0.67372838  1
  O  O40  1  0.66527886  0.65891875  0.02439810  1
  O  O41  1  0.65904145  0.67202030  0.52233633  1
  O  O42  1  0.66553157  0.51603744  0.17355689  1
  O  O43  1  0.47739429  0.90549516  0.82133932  1
  O  O44  1  0.51474018  0.81845468  0.17028966  1
  O  O45  1  0.74142497  0.34266270  0.33650089  1
  O  O46  1  0.79471032  0.20646672  0.74938984  1
  O  O47  1  0.76552156  0.21874637  0.56753491  1
  O  O48  1  0.75712714  0.24351127  0.92859139  1
  O  O49  1  0.61874786  0.47858361  0.82126034  1
  O  O50  1  0.51052391  0.67054070  0.66810475  1
  O  O51  1  0.65906953  0.25802647  0.16261728  1
  O  O52  1  0.47300495  0.61811597  0.32520987  1
  O  O53  1  0.34519775  0.91386530  0.33039658  1
  O  O54  1  0.79685723  0.99388717  0.24344060  1
  O  O55  1  0.78104160  0.00601221  0.42341340  1
  O  O56  1  0.21605837  0.99520158  0.57673179  1
  O  O57  1  0.65215025  0.08778732  0.66818783  1
  O  O58  1  0.52701148  0.38458387  0.67350682  1
  O  O59  1  0.34440790  0.74343034  0.83255775  1
  O  O60  1  0.48896707  0.32893481  0.32965287  1
  O  O61  1  0.38053653  0.52468874  0.17916360  1
  O  O62  1  0.24020215  0.76555402  0.07402831  1
  O  O63  1  0.24004673  0.77722485  0.43527108  1
  O  O64  1  0.20104545  0.79177023  0.25433587  1
  O  O65  1  0.25817432  0.65811739  0.66357992  1
  O  O66  1  0.48701772  0.17877285  0.83028433  1
  O  O67  1  0.52200518  0.09632644  0.17899380  1
  O  O68  1  0.33946259  0.47661498  0.82458269  1
  O  O69  1  0.34014855  0.33301967  0.97665424  1
  O  O70  1  0.34499219  0.32734187  0.47680022  1
  O  O71  1  0.18753429  0.48185612  0.32634449  1
  O  O72  1  0.38175079  0.08566352  0.67181136  1
  O  O73  1  0.33244579  0.18658886  0.32601901  1
  O  O74  1  0.08440354  0.65563896  0.16492037  1
  O  O75  1  0.00068222  0.79467707  0.75072301  1
  O  O76  1  0.00016625  0.76476913  0.93402259  1
  O  O77  1  0.08297204  0.53555969  0.67022854  1
  O  O78  1  0.18668970  0.33603039  0.82340904  1
  O  O79  1  0.09119949  0.38288949  0.17727468  1
  O  O80  1  0.25504865  0.08559613  0.16116962  1
  O  O81  1  0.25013215  0.99038632  0.93535805  1
  O  O82  1  0.20101194  0.00849899  0.75626092  1
  O  O83  1  0.08530091  0.25998114  0.66447635  1
  O  O84  1  0.99375283  0.21453911  0.43254871  1
  O  O85  1  0.00100803  0.20511530  0.25092078  1
