# generated using pymatgen
data_LiCo7O7F
_symmetry_space_group_name_H-M   'P 1'
_cell_length_a   3.29025536
_cell_length_b   3.29024890
_cell_length_c   20.87346358
_cell_angle_alpha   89.99999948
_cell_angle_beta   90.00283848
_cell_angle_gamma   119.99992019
_symmetry_Int_Tables_number   1
_chemical_formula_structural   LiCo7O7F
_chemical_formula_sum   'Li1 Co7 O7 F1'
_cell_volume   195.69685948
_cell_formula_units_Z   1
loop_
 _symmetry_equiv_pos_site_id
 _symmetry_equiv_pos_as_xyz
  1  'x, y, z'
loop_
 _atom_site_type_symbol
 _atom_site_label
 _atom_site_symmetry_multiplicity
 _atom_site_fract_x
 _atom_site_fract_y
 _atom_site_fract_z
 _atom_site_occupancy
  Li  Li0  1  0.33333414  0.66671757  0.84055655  1
  Co  Co1  1  0.33331938  0.66671019  0.34608959  1
  Co  Co2  1  0.33332396  0.66671198  0.09581931  1
  Co  Co3  1  0.33334942  0.66672521  0.59683564  1
  Co  Co4  1  0.66662559  0.33336330  0.22075763  1
  Co  Co5  1  0.66673183  0.33341592  0.72153499  1
  Co  Co6  1  0.66662676  0.33336288  0.47139984  1
  Co  Co7  1  0.66662924  0.33336512  0.97223702  1
  O  O8  1  0.33331077  0.66670488  0.99856163  1
  O  O9  1  0.33330345  0.66670123  0.24916190  1
  O  O10  1  0.33340961  0.66675480  0.75051022  1
  O  O11  1  0.33330625  0.66670313  0.49952666  1
  O  O12  1  0.66666390  0.33338145  0.37440105  1
  O  O13  1  0.66666883  0.33338441  0.12337749  1
  O  O14  1  0.66669703  0.33339851  0.62435693  1
  F  F15  1  0.66669983  0.33339942  0.87573457  1
