# generated using pymatgen
data_Li7FeO5F
_symmetry_space_group_name_H-M   'P 1'
_cell_length_a   5.65207510
_cell_length_b   5.52476047
_cell_length_c   10.87473028
_cell_angle_alpha   87.33315427
_cell_angle_beta   89.85173998
_cell_angle_gamma   59.23925122
_symmetry_Int_Tables_number   1
_chemical_formula_structural   Li7FeO5F
_chemical_formula_sum   'Li14 Fe2 O10 F2'
_cell_volume   291.39812536
_cell_formula_units_Z   2
loop_
 _symmetry_equiv_pos_site_id
 _symmetry_equiv_pos_as_xyz
  1  'x, y, z'
loop_
 _atom_site_type_symbol
 _atom_site_label
 _atom_site_symmetry_multiplicity
 _atom_site_fract_x
 _atom_site_fract_y
 _atom_site_fract_z
 _atom_site_occupancy
  Li  Li0  1  0.02163915  0.33566897  0.76359273  1
  Li  Li1  1  0.37374120  0.02446008  0.63289833  1
  Li  Li2  1  0.35054891  0.32136638  0.91211667  1
  Li  Li3  1  0.32574040  0.32361763  0.42922841  1
  Li  Li4  1  0.27075231  0.68821093  0.75771632  1
  Li  Li5  1  0.71802260  0.99354347  0.77477232  1
  Li  Li6  1  0.61451995  0.37959456  0.62817902  1
  Li  Li7  1  0.31009884  0.95328633  0.27089365  1
  Li  Li8  1  0.65803972  0.34703308  0.26481011  1
  Li  Li9  1  0.65195854  0.65816055  0.92947016  1
  Li  Li10  1  0.68887655  0.66042255  0.41348283  1
  Li  Li11  1  0.61296021  0.99925457  0.12963307  1
  Li  Li12  1  0.96998068  0.39744255  0.13006863  1
  Li  Li13  1  0.99615786  0.70856314  0.26136359  1
  Fe  Fe14  1  0.01367501  0.98823573  0.00234559  1
  Fe  Fe15  1  0.00263439  0.98851064  0.50257647  1
  O  O16  1  0.95881190  0.04123516  0.17085754  1
  O  O17  1  0.99955311  0.04377286  0.67077465  1
  O  O18  1  0.32507370  0.97142829  0.45881405  1
  O  O19  1  0.01394810  0.69642859  0.43273760  1
  O  O20  1  0.36745206  0.31290451  0.72552045  1
  O  O21  1  0.29450556  0.70163931  0.93001136  1
  O  O22  1  0.67316788  0.30008559  0.45252339  1
  O  O23  1  0.67979077  0.67570100  0.22673290  1
  O  O24  1  0.02050318  0.30751830  0.95477391  1
  O  O25  1  0.70917416  0.96876658  0.95674430  1
  F  F26  1  0.31754371  0.31465038  0.22164282  1
  F  F27  1  0.64703554  0.67187825  0.72260712  1
