# generated using pymatgen
data_Li3V3P8O29
_symmetry_space_group_name_H-M   'P 1'
_cell_length_a   9.77811449
_cell_length_b   9.73380525
_cell_length_c   14.21764155
_cell_angle_alpha   89.80882933
_cell_angle_beta   90.32316880
_cell_angle_gamma   60.06603724
_symmetry_Int_Tables_number   1
_chemical_formula_structural   Li3V3P8O29
_chemical_formula_sum   'Li6 V6 P16 O58'
_cell_volume   1172.64545466
_cell_formula_units_Z   2
loop_
 _symmetry_equiv_pos_site_id
 _symmetry_equiv_pos_as_xyz
  1  'x, y, z'
loop_
 _atom_site_type_symbol
 _atom_site_label
 _atom_site_symmetry_multiplicity
 _atom_site_fract_x
 _atom_site_fract_y
 _atom_site_fract_z
 _atom_site_occupancy
  Li  Li0  1  0.31888051  0.91130526  0.06529836  1
  Li  Li1  1  0.66785271  0.23532875  0.43989588  1
  Li  Li2  1  0.32593545  0.76914233  0.55419789  1
  Li  Li3  1  0.21876639  0.68902711  0.95048672  1
  Li  Li4  1  0.08022009  0.22796138  0.94078787  1
  Li  Li5  1  0.00555805  0.00225553  0.49237919  1
  V  V6  1  0.57052491  0.43081125  0.24404744  1
  V  V7  1  0.43806331  0.56093014  0.75138434  1
  V  V8  1  0.56932584  0.99634872  0.75179493  1
  V  V9  1  0.43679433  0.00858747  0.25534278  1
  V  V10  1  0.00084789  0.56340588  0.25531984  1
  V  V11  1  0.99672564  0.44008031  0.74097976  1
  P  P12  1  0.91661870  0.77073080  0.83998587  1
  P  P13  1  0.78187234  0.91661389  0.33817397  1
  P  P14  1  0.91771368  0.29924805  0.34052682  1
  P  P15  1  0.66510876  0.67211299  0.13181073  1
  P  P16  1  0.65938008  0.67098342  0.63247191  1
  P  P17  1  0.77735243  0.31220309  0.84029436  1
  P  P18  1  0.68729013  0.22419618  0.65873961  1
  P  P19  1  0.31950096  0.91064737  0.84604369  1
  P  P20  1  0.68866966  0.08223402  0.15184066  1
  P  P21  1  0.31889530  0.77193066  0.34047971  1
  P  P22  1  0.22543682  0.68181883  0.16297483  1
  P  P23  1  0.33683011  0.33675077  0.36995255  1
  P  P24  1  0.32922717  0.33241170  0.86656812  1
  P  P25  1  0.08495074  0.69847601  0.65575012  1
  P  P26  1  0.22407604  0.08224667  0.66257759  1
  P  P27  1  0.08778911  0.22994811  0.15779753  1
  O  O28  1  0.01278768  0.79373762  0.56977940  1
  O  O29  1  0.91394422  0.74059122  0.33549837  1
  O  O30  1  0.75860683  0.00612469  0.06288272  1
  O  O31  1  0.74463952  0.91132219  0.83410687  1
  O  O32  1  0.91015879  0.61681044  0.81861331  1
  O  O33  1  0.81490616  0.65928911  0.18151419  1
  O  O34  1  0.92536000  0.45556539  0.33284273  1
  O  O35  1  0.01330888  0.23793819  0.06553401  1
  O  O36  1  0.92012628  0.34104059  0.83485861  1
  O  O37  1  0.66835735  0.81245046  0.67777577  1
  O  O38  1  0.61973926  0.92121068  0.33031365  1
  O  O39  1  0.80831948  0.51761590  0.67423903  1
  O  O40  1  0.66429605  0.66375282  0.02795687  1
  O  O41  1  0.64773569  0.67364186  0.52851770  1
  O  O42  1  0.65781883  0.52407672  0.17738120  1
  O  O43  1  0.47897290  0.90098744  0.82549498  1
  O  O44  1  0.51651460  0.82156222  0.17098631  1
  O  O45  1  0.74074339  0.34191557  0.33454270  1
  O  O46  1  0.79950273  0.21044771  0.74470223  1
  O  O47  1  0.75831774  0.22123871  0.56629216  1
  O  O48  1  0.76521818  0.23609336  0.92631444  1
  O  O49  1  0.62133703  0.47518251  0.81844408  1
  O  O50  1  0.50649639  0.67637873  0.67524119  1
  O  O51  1  0.65605353  0.25620382  0.16701816  1
  O  O52  1  0.47149382  0.61294638  0.32689756  1
  O  O53  1  0.35411362  0.90996264  0.32820994  1
  O  O54  1  0.80148089  0.99102120  0.24180229  1
  O  O55  1  0.79452179  0.00614355  0.41930060  1
  O  O56  1  0.20573152  0.99336244  0.58311470  1
  O  O57  1  0.65633688  0.08414827  0.67173448  1
  O  O58  1  0.52785552  0.38180410  0.67597735  1
  O  O59  1  0.33876230  0.74221788  0.84292928  1
  O  O60  1  0.49055668  0.32757785  0.33013201  1
  O  O61  1  0.37907455  0.51985294  0.17886298  1
  O  O62  1  0.23901601  0.75930313  0.07477772  1
  O  O63  1  0.23364851  0.78963503  0.43012437  1
  O  O64  1  0.20606050  0.79286670  0.25138424  1
  O  O65  1  0.26124303  0.65657153  0.66564017  1
  O  O66  1  0.47291452  0.18303901  0.82149231  1
  O  O67  1  0.52832781  0.09083825  0.17774293  1
  O  O68  1  0.33303771  0.48268826  0.82500444  1
  O  O69  1  0.32634751  0.33547759  0.97070953  1
  O  O70  1  0.34121239  0.32819292  0.47408592  1
  O  O71  1  0.18896690  0.48580858  0.32626869  1
  O  O72  1  0.38499191  0.07534945  0.67106030  1
  O  O73  1  0.33119043  0.18996353  0.32354387  1
  O  O74  1  0.08244373  0.65690447  0.16686103  1
  O  O75  1  0.00185586  0.79626505  0.74951181  1
  O  O76  1  0.00636078  0.75984889  0.92614352  1
  O  O77  1  0.07934015  0.54023519  0.66767781  1
  O  O78  1  0.18002596  0.33630180  0.82212481  1
  O  O79  1  0.09443892  0.38239522  0.18148651  1
  O  O80  1  0.25776024  0.08426877  0.16546095  1
  O  O81  1  0.24643091  0.99536077  0.93593152  1
  O  O82  1  0.20256869  0.00840616  0.76071428  1
  O  O83  1  0.08886010  0.25805391  0.66594492  1
  O  O84  1  0.99530427  0.19358519  0.42230215  1
  O  O85  1  0.99166496  0.20841270  0.24238929  1
