# generated using pymatgen
data_Li3VO3F
_symmetry_space_group_name_H-M   'P 1'
_cell_length_a   5.86081013
_cell_length_b   5.86081013
_cell_length_c   9.45273654
_cell_angle_alpha   70.99986844
_cell_angle_beta   109.00013156
_cell_angle_gamma   92.77108467
_symmetry_Int_Tables_number   1
_chemical_formula_structural   Li3VO3F
_chemical_formula_sum   'Li12 V4 O12 F4'
_cell_volume   289.67261255
_cell_formula_units_Z   4
loop_
 _symmetry_equiv_pos_site_id
 _symmetry_equiv_pos_as_xyz
  1  'x, y, z'
loop_
 _atom_site_type_symbol
 _atom_site_label
 _atom_site_symmetry_multiplicity
 _atom_site_fract_x
 _atom_site_fract_y
 _atom_site_fract_z
 _atom_site_occupancy
  Li  Li0  1  0.05558294  0.69112454  0.86159118  1
  Li  Li1  1  0.30887546  0.94441706  0.36159118  1
  Li  Li2  1  0.18834064  0.56334762  0.62456982  1
  Li  Li3  1  0.55231198  0.68405185  0.87805372  1
  Li  Li4  1  0.68405185  0.55231198  0.62194628  1
  Li  Li5  1  0.56334762  0.18834064  0.87543018  1
  Li  Li6  1  0.43665238  0.81165936  0.12456982  1
  Li  Li7  1  0.31594815  0.44768802  0.37805372  1
  Li  Li8  1  0.44768802  0.31594815  0.12194628  1
  Li  Li9  1  0.81165936  0.43665238  0.37543018  1
  Li  Li10  1  0.69112454  0.05558294  0.63840882  1
  Li  Li11  1  0.94441706  0.30887546  0.13840882  1
  V  V12  1  0.08447595  0.18201925  0.87807560  1
  V  V13  1  0.81798075  0.91552405  0.37807560  1
  V  V14  1  0.18201925  0.08447595  0.62192440  1
  V  V15  1  0.91552405  0.81798075  0.12192440  1
  O  O16  1  0.28976529  0.95427740  0.86008978  1
  O  O17  1  0.04572260  0.71023471  0.36008978  1
  O  O18  1  0.29237194  0.41872109  0.88159533  1
  O  O19  1  0.82787570  0.95463161  0.88598285  1
  O  O20  1  0.58127891  0.70762806  0.38159533  1
  O  O21  1  0.04536839  0.17212430  0.38598285  1
  O  O22  1  0.95463161  0.82787570  0.61401715  1
  O  O23  1  0.41872109  0.29237194  0.61840467  1
  O  O24  1  0.17212430  0.04536839  0.11401715  1
  O  O25  1  0.70762806  0.58127891  0.11840467  1
  O  O26  1  0.95427740  0.28976529  0.63991022  1
  O  O27  1  0.71023471  0.04572260  0.13991022  1
  F  F28  1  0.43884801  0.81237757  0.63261576  1
  F  F29  1  0.18762243  0.56115199  0.13261576  1
  F  F30  1  0.81237757  0.43884801  0.86738424  1
  F  F31  1  0.56115199  0.18762243  0.36738424  1
