# generated using pymatgen
data_Li3VO3F
_symmetry_space_group_name_H-M   'P 1'
_cell_length_a   5.12980020
_cell_length_b   5.86129105
_cell_length_c   5.16010992
_cell_angle_alpha   88.81600024
_cell_angle_beta   110.51695148
_cell_angle_gamma   87.98069125
_symmetry_Int_Tables_number   1
_chemical_formula_structural   Li3VO3F
_chemical_formula_sum   'Li6 V2 O6 F2'
_cell_volume   145.12832144
_cell_formula_units_Z   2
loop_
 _symmetry_equiv_pos_site_id
 _symmetry_equiv_pos_as_xyz
  1  'x, y, z'
loop_
 _atom_site_type_symbol
 _atom_site_label
 _atom_site_symmetry_multiplicity
 _atom_site_fract_x
 _atom_site_fract_y
 _atom_site_fract_z
 _atom_site_occupancy
  Li  Li0  1  0.24168816  0.12711337  0.50339401  1
  Li  Li1  1  0.26454343  0.63046319  0.50827326  1
  Li  Li2  1  0.25731543  0.37593538  0.99679409  1
  Li  Li3  1  0.75831184  0.87288663  0.49660599  1
  Li  Li4  1  0.73545657  0.36953681  0.49172674  1
  Li  Li5  1  0.74268457  0.62406462  0.00320591  1
  V  V6  1  0.26887145  0.87900525  0.02503114  1
  V  V7  1  0.73112855  0.12099475  0.97496886  1
  O  O8  1  0.99932529  0.89823262  0.22670323  1
  O  O9  1  0.49417988  0.88871657  0.77542903  1
  O  O10  1  0.52874105  0.36077948  0.76676923  1
  O  O11  1  0.47125895  0.63922052  0.23323077  1
  O  O12  1  0.50582012  0.11128343  0.22457097  1
  O  O13  1  0.00067471  0.10176738  0.77329677  1
  F  F14  1  0.01086179  0.62723618  0.74942644  1
  F  F15  1  0.98913821  0.37276382  0.25057356  1
