# generated using pymatgen
data_LiSn(PO3)4
_symmetry_space_group_name_H-M   'P 1'
_cell_length_a   7.16227774
_cell_length_b   8.94282442
_cell_length_c   8.96118557
_cell_angle_alpha   115.01041679
_cell_angle_beta   113.55491598
_cell_angle_gamma   66.39378940
_symmetry_Int_Tables_number   1
_chemical_formula_structural   LiSn(PO3)4
_chemical_formula_sum   'Li2 Sn2 P8 O24'
_cell_volume   457.92435862
_cell_formula_units_Z   2
loop_
 _symmetry_equiv_pos_site_id
 _symmetry_equiv_pos_as_xyz
  1  'x, y, z'
loop_
 _atom_site_type_symbol
 _atom_site_label
 _atom_site_symmetry_multiplicity
 _atom_site_fract_x
 _atom_site_fract_y
 _atom_site_fract_z
 _atom_site_occupancy
  Li  Li0  1  0.29576562  0.75000000  0.75000000  1
  Li  Li1  1  0.70423438  0.25000000  0.25000000  1
  Sn  Sn2  1  0.80588818  0.75000000  0.75000000  1
  Sn  Sn3  1  0.19411182  0.25000000  0.25000000  1
  P  P4  1  0.99446275  0.90175530  0.19090038  1
  P  P5  1  0.58391279  0.84315913  0.11776327  1
  P  P6  1  0.30930865  0.65684087  0.38223673  1
  P  P7  1  0.70531767  0.59824470  0.30909962  1
  P  P8  1  0.29468233  0.40175530  0.69090038  1
  P  P9  1  0.69069135  0.34315913  0.61776327  1
  P  P10  1  0.41608721  0.15684087  0.88223673  1
  P  P11  1  0.00553725  0.09824470  0.80909962  1
  O  O12  1  0.39935553  0.95989231  0.19007529  1
  O  O13  1  0.78310916  0.92081993  0.23044489  1
  O  O14  1  0.01387956  0.76729629  0.02032819  1
  O  O15  1  0.17617581  0.83855225  0.34450344  1
  O  O16  1  0.01749199  0.91608531  0.77800520  1
  O  O17  1  0.67022361  0.66144775  0.15549656  1
  O  O18  1  0.76084766  0.73270371  0.47967181  1
  O  O19  1  0.42088095  0.70334695  0.57112091  1
  O  O20  1  0.55310798  0.79665305  0.92887909  1
  O  O21  1  0.47348419  0.57918007  0.26955511  1
  O  O22  1  0.16917255  0.54010769  0.30992471  1
  O  O23  1  0.15557110  0.58391469  0.72199480  1
  O  O24  1  0.84442890  0.41608531  0.27800520  1
  O  O25  1  0.83082745  0.45989231  0.69007529  1
  O  O26  1  0.52651581  0.42081993  0.73044489  1
  O  O27  1  0.44689202  0.20334695  0.07112091  1
  O  O28  1  0.57911905  0.29665305  0.42887909  1
  O  O29  1  0.23915234  0.26729629  0.52032819  1
  O  O30  1  0.32977639  0.33855225  0.84450344  1
  O  O31  1  0.98250801  0.08391469  0.22199480  1
  O  O32  1  0.82382419  0.16144775  0.65549656  1
  O  O33  1  0.98612044  0.23270371  0.97967181  1
  O  O34  1  0.21689084  0.07918007  0.76955511  1
  O  O35  1  0.60064447  0.04010769  0.80992471  1
