# generated using pymatgen
data_Mg4Al2H12CO18
_symmetry_space_group_name_H-M   'P 1'
_cell_length_a   5.32580418
_cell_length_b   5.32542181
_cell_length_c   15.05333189
_cell_angle_alpha   90.00014967
_cell_angle_beta   89.99970890
_cell_angle_gamma   120.00243170
_symmetry_Int_Tables_number   1
_chemical_formula_structural   Mg4Al2H12CO18
_chemical_formula_sum   'Mg4 Al2 H12 C1 O18'
_cell_volume   369.73608113
_cell_formula_units_Z   1
loop_
 _symmetry_equiv_pos_site_id
 _symmetry_equiv_pos_as_xyz
  1  'x, y, z'
loop_
 _atom_site_type_symbol
 _atom_site_label
 _atom_site_symmetry_multiplicity
 _atom_site_fract_x
 _atom_site_fract_y
 _atom_site_fract_z
 _atom_site_occupancy
  Mg  Mg0  1  0.33332773  0.66668345  0.25697445  1
  Mg  Mg1  1  0.33334960  0.66668642  0.74409102  1
  Mg  Mg2  1  0.66664594  0.33331798  0.25697420  1
  Mg  Mg3  1  0.66665949  0.33331117  0.74409074  1
  Al  Al4  1  0.99997231  0.99999992  0.25688409  1
  Al  Al5  1  0.99996432  0.99999987  0.74284649  1
  H  H6  1  0.31617307  0.31625151  0.38831644  1
  H  H7  1  0.99992127  0.68374809  0.38831631  1
  H  H8  1  0.68389289  0.99999985  0.38830545  1
  H  H9  1  0.33358526  0.33365023  0.61297460  1
  H  H10  1  0.99993499  0.66634955  0.61297459  1
  H  H11  1  0.66621540  0.99999984  0.61296309  1
  H  H12  1  0.99999336  0.30804738  0.12503055  1
  H  H13  1  0.30809073  0.99999995  0.12504086  1
  H  H14  1  0.69194581  0.69195245  0.12503068  1
  H  H15  1  0.00000860  0.30809833  0.87566231  1
  H  H16  1  0.30814442  0.00000004  0.87566351  1
  H  H17  1  0.69191017  0.69190159  0.87566247  1
  C  C18  1  0.00000361  0.00000016  0.00123817  1
  O  O19  1  0.24083725  0.99999994  0.00128942  1
  O  O20  1  0.75915528  0.75914326  0.00129060  1
  O  O21  1  0.00001152  0.24085872  0.00129067  1
  O  O22  1  0.58579221  0.00000042  0.50110911  1
  O  O23  1  0.41473633  0.41513496  0.50113304  1
  O  O24  1  0.99960182  0.58486584  0.50113313  1
  O  O25  1  0.30969404  0.99999981  0.19013528  1
  O  O26  1  0.69020741  0.69024474  0.19012592  1
  O  O27  1  0.99996342  0.30975551  0.19012610  1
  O  O28  1  0.30949313  0.99999986  0.81054207  1
  O  O29  1  0.69053385  0.69050722  0.81054196  1
  O  O30  1  0.00002567  0.30949242  0.81054218  1
  O  O31  1  0.00002289  0.68932609  0.32272120  1
  O  O32  1  0.68936807  0.99999969  0.32270472  1
  O  O33  1  0.31069661  0.31067392  0.32272112  1
  O  O34  1  0.99998441  0.68796775  0.67818553  1
  O  O35  1  0.68792076  0.99999962  0.67818251  1
  O  O36  1  0.31201637  0.31203244  0.67818543  1
