# generated using pymatgen
data_Li3V3P8O29
_symmetry_space_group_name_H-M   'P 1'
_cell_length_a   9.79790869
_cell_length_b   9.76049543
_cell_length_c   14.38868049
_cell_angle_alpha   89.98030851
_cell_angle_beta   90.35035233
_cell_angle_gamma   59.98703306
_symmetry_Int_Tables_number   1
_chemical_formula_structural   Li3V3P8O29
_chemical_formula_sum   'Li6 V6 P16 O58'
_cell_volume   1191.48510595
_cell_formula_units_Z   2
loop_
 _symmetry_equiv_pos_site_id
 _symmetry_equiv_pos_as_xyz
  1  'x, y, z'
loop_
 _atom_site_type_symbol
 _atom_site_label
 _atom_site_symmetry_multiplicity
 _atom_site_fract_x
 _atom_site_fract_y
 _atom_site_fract_z
 _atom_site_occupancy
  Li  Li0  1  0.67820551  0.66333371  0.39236556  1
  Li  Li1  1  0.30326281  0.77555585  0.55074255  1
  Li  Li2  1  0.69909384  0.08119071  0.94642557  1
  Li  Li3  1  0.21496739  0.70832334  0.95287827  1
  Li  Li4  1  0.08108388  0.21703443  0.94808521  1
  Li  Li5  1  0.93577394  0.05271655  0.47884805  1
  V  V6  1  0.57141923  0.42459284  0.24981975  1
  V  V7  1  0.43800177  0.56094451  0.74892270  1
  V  V8  1  0.56584335  0.99562745  0.74517247  1
  V  V9  1  0.42730440  0.00601974  0.25028684  1
  V  V10  1  0.00609488  0.56763862  0.25209165  1
  V  V11  1  0.99849107  0.43811205  0.74217252  1
  P  P12  1  0.91507006  0.77064602  0.83790742  1
  P  P13  1  0.78080913  0.91043682  0.33923365  1
  P  P14  1  0.91289278  0.30527658  0.34062752  1
  P  P15  1  0.66660266  0.66687892  0.13584576  1
  P  P16  1  0.66248554  0.66693338  0.63028452  1
  P  P17  1  0.77565655  0.31421873  0.83804515  1
  P  P18  1  0.69281888  0.22253258  0.65745882  1
  P  P19  1  0.31802926  0.91181987  0.84152783  1
  P  P20  1  0.68496001  0.08301327  0.15906553  1
  P  P21  1  0.32014892  0.77454451  0.34112646  1
  P  P22  1  0.23028813  0.68447195  0.16343884  1
  P  P23  1  0.33625612  0.33317991  0.37020729  1
  P  P24  1  0.33319242  0.33084125  0.86375662  1
  P  P25  1  0.08365933  0.69552252  0.65620914  1
  P  P26  1  0.22400959  0.08220525  0.65999732  1
  P  P27  1  0.08337991  0.23153662  0.16047779  1
  O  O28  1  0.00965451  0.78409312  0.57034874  1
  O  O29  1  0.91706079  0.73341043  0.33503981  1
  O  O30  1  0.75049836  0.01161591  0.06770438  1
  O  O31  1  0.74480188  0.91486578  0.83623930  1
  O  O32  1  0.90685726  0.61782997  0.81679256  1
  O  O33  1  0.81885352  0.65366478  0.18253507  1
  O  O34  1  0.90742562  0.46664951  0.33703523  1
  O  O35  1  0.01133749  0.23668571  0.06887847  1
  O  O36  1  0.91908315  0.34056104  0.83635016  1
  O  O37  1  0.66774847  0.81281354  0.67365046  1
  O  O38  1  0.62590191  0.90447198  0.33447935  1
  O  O39  1  0.81103051  0.51680742  0.67205662  1
  O  O40  1  0.66470724  0.66918420  0.03305305  1
  O  O41  1  0.65726451  0.67089111  0.52685996  1
  O  O42  1  0.65564201  0.52390896  0.17899462  1
  O  O43  1  0.47794674  0.90344576  0.82071685  1
  O  O44  1  0.52645376  0.81936988  0.18146232  1
  O  O45  1  0.73674174  0.34522498  0.33306679  1
  O  O46  1  0.79879578  0.20913150  0.74656306  1
  O  O47  1  0.77801645  0.20696011  0.57094448  1
  O  O48  1  0.76449263  0.23162983  0.92138442  1
  O  O49  1  0.62143757  0.47688892  0.81887808  1
  O  O50  1  0.51040166  0.67272957  0.67023081  1
  O  O51  1  0.66112691  0.25296196  0.17023623  1
  O  O52  1  0.48277482  0.62297502  0.33086346  1
  O  O53  1  0.34919347  0.91752588  0.33339635  1
  O  O54  1  0.80138165  0.98327347  0.24210513  1
  O  O55  1  0.80350448  0.99396958  0.41784449  1
  O  O56  1  0.21757751  0.99585365  0.57727755  1
  O  O57  1  0.65315903  0.08795744  0.67335805  1
  O  O58  1  0.53502700  0.38289198  0.67291825  1
  O  O59  1  0.34253814  0.74114579  0.83802982  1
  O  O60  1  0.47989956  0.33845776  0.32546566  1
  O  O61  1  0.38082316  0.52419579  0.18229870  1
  O  O62  1  0.23224290  0.75871119  0.07405463  1
  O  O63  1  0.23347537  0.78503222  0.42772851  1
  O  O64  1  0.21289488  0.79477980  0.25077168  1
  O  O65  1  0.25855955  0.65879684  0.66651036  1
  O  O66  1  0.48013195  0.17970984  0.82470423  1
  O  O67  1  0.52507826  0.09446079  0.18135625  1
  O  O68  1  0.33984717  0.47772621  0.81884864  1
  O  O69  1  0.33171118  0.34092388  0.96660865  1
  O  O70  1  0.33671829  0.33409014  0.47292756  1
  O  O71  1  0.18540052  0.47846344  0.32564908  1
  O  O72  1  0.38291224  0.08298937  0.67309711  1
  O  O73  1  0.33983608  0.18408064  0.32529579  1
  O  O74  1  0.08445687  0.66053167  0.17207690  1
  O  O75  1  0.99799919  0.79572107  0.74772629  1
  O  O76  1  0.00733951  0.76008624  0.92205280  1
  O  O77  1  0.08260380  0.53528444  0.67106554  1
  O  O78  1  0.18237893  0.33744100  0.82066506  1
  O  O79  1  0.09304909  0.38148576  0.18282537  1
  O  O80  1  0.25397621  0.08647032  0.17133622  1
  O  O81  1  0.23679617  0.00189903  0.92581888  1
  O  O82  1  0.20731970  0.99838035  0.75194451  1
  O  O83  1  0.08767222  0.25628938  0.66745122  1
  O  O84  1  0.99202723  0.19681560  0.41987301  1
  O  O85  1  0.98681700  0.21267451  0.24358065  1
