# generated using pymatgen
data_Mn2OF3
_symmetry_space_group_name_H-M   'P 1'
_cell_length_a   4.79585788
_cell_length_b   10.60679790
_cell_length_c   6.02943873
_cell_angle_alpha   90.00000000
_cell_angle_beta   90.00000000
_cell_angle_gamma   90.00000000
_symmetry_Int_Tables_number   1
_chemical_formula_structural   Mn2OF3
_chemical_formula_sum   'Mn8 O4 F12'
_cell_volume   306.70968153
_cell_formula_units_Z   4
loop_
 _symmetry_equiv_pos_site_id
 _symmetry_equiv_pos_as_xyz
  1  'x, y, z'
loop_
 _atom_site_type_symbol
 _atom_site_label
 _atom_site_symmetry_multiplicity
 _atom_site_fract_x
 _atom_site_fract_y
 _atom_site_fract_z
 _atom_site_occupancy
  Mn  Mn0  1  0.00000000  0.00000000  0.00000000  1
  Mn  Mn1  1  0.00000000  0.00000000  0.50000000  1
  Mn  Mn2  1  0.04470667  0.28162592  0.25000000  1
  Mn  Mn3  1  0.45529333  0.78162592  0.25000000  1
  Mn  Mn4  1  0.50000000  0.50000000  0.50000000  1
  Mn  Mn5  1  0.50000000  0.50000000  0.00000000  1
  Mn  Mn6  1  0.54470667  0.21837408  0.75000000  1
  Mn  Mn7  1  0.95529333  0.71837408  0.75000000  1
  O  O8  1  0.19518475  0.93245752  0.25000000  1
  O  O9  1  0.30481525  0.43245752  0.25000000  1
  O  O10  1  0.69518475  0.56754248  0.75000000  1
  O  O11  1  0.80481525  0.06754248  0.75000000  1
  F  F12  1  0.20272443  0.89760931  0.75000000  1
  F  F13  1  0.25197721  0.66244549  0.99876386  1
  F  F14  1  0.25197721  0.66244549  0.50123614  1
  F  F15  1  0.24802279  0.16244549  0.99876386  1
  F  F16  1  0.24802279  0.16244549  0.50123614  1
  F  F17  1  0.29727557  0.39760931  0.75000000  1
  F  F18  1  0.70272443  0.60239069  0.25000000  1
  F  F19  1  0.75197721  0.83755451  0.49876386  1
  F  F20  1  0.75197721  0.83755451  0.00123614  1
  F  F21  1  0.74802279  0.33755451  0.49876386  1
  F  F22  1  0.74802279  0.33755451  0.00123614  1
  F  F23  1  0.79727557  0.10239069  0.25000000  1
