# generated using pymatgen
data_Li3Mn2(CO3)4
_symmetry_space_group_name_H-M   'P 1'
_cell_length_a   8.69588632
_cell_length_b   6.47468634
_cell_length_c   5.36627076
_cell_angle_alpha   65.06133270
_cell_angle_beta   71.17368722
_cell_angle_gamma   83.29144711
_symmetry_Int_Tables_number   1
_chemical_formula_structural   Li3Mn2(CO3)4
_chemical_formula_sum   'Li3 Mn2 C4 O12'
_cell_volume   259.24433681
_cell_formula_units_Z   1
loop_
 _symmetry_equiv_pos_site_id
 _symmetry_equiv_pos_as_xyz
  1  'x, y, z'
loop_
 _atom_site_type_symbol
 _atom_site_label
 _atom_site_symmetry_multiplicity
 _atom_site_fract_x
 _atom_site_fract_y
 _atom_site_fract_z
 _atom_site_occupancy
  Li  Li0  1  0.65136772  0.02024488  0.81866761  1
  Li  Li1  1  0.35355020  0.98216132  0.48513147  1
  Li  Li2  1  0.14157594  0.47641941  0.09177615  1
  Mn  Mn3  1  0.50675005  0.50737015  0.35561644  1
  Mn  Mn4  1  0.99555247  0.99455457  0.09872472  1
  C  C5  1  0.78975157  0.58720651  0.25710068  1
  C  C6  1  0.69973151  0.09341250  0.30294114  1
  C  C7  1  0.29787702  0.90724803  0.09712750  1
  C  C8  1  0.21087156  0.40751195  0.63438027  1
  O  O9  1  0.93705806  0.63786196  0.20485120  1
  O  O10  1  0.80417869  0.05393498  0.44314951  1
  O  O11  1  0.68092106  0.53346105  0.51114291  1
  O  O12  1  0.73049698  0.58828151  0.06190373  1
  O  O13  1  0.74570741  0.07260146  0.06164604  1
  O  O14  1  0.55165251  0.15028314  0.41301232  1
  O  O15  1  0.44514787  0.85331850  0.11244909  1
  O  O16  1  0.24887637  0.89976272  0.89668832  1
  O  O17  1  0.32313936  0.47133478  0.70902607  1
  O  O18  1  0.25996594  0.41057760  0.37784267  1
  O  O19  1  0.19641696  0.96919754  0.28850010  1
  O  O20  1  0.07094875  0.34888945  0.81570806  1
