# generated using pymatgen
data_Mg6ZnSi
_symmetry_space_group_name_H-M   'P 1'
_cell_length_a   6.15793228
_cell_length_b   6.15793182
_cell_length_c   4.97884356
_cell_angle_alpha   90.00000000
_cell_angle_beta   90.00000000
_cell_angle_gamma   120.66259642
_symmetry_Int_Tables_number   1
_chemical_formula_structural   Mg6ZnSi
_chemical_formula_sum   'Mg6 Zn1 Si1'
_cell_volume   162.40160678
_cell_formula_units_Z   1
loop_
 _symmetry_equiv_pos_site_id
 _symmetry_equiv_pos_as_xyz
  1  'x, y, z'
loop_
 _atom_site_type_symbol
 _atom_site_label
 _atom_site_symmetry_multiplicity
 _atom_site_fract_x
 _atom_site_fract_y
 _atom_site_fract_z
 _atom_site_occupancy
  Mg  Mg0  1  0.16773594  0.84620276  0.25000000  1
  Mg  Mg1  1  0.65379724  0.33226406  0.25000000  1
  Mg  Mg2  1  0.66629707  0.83370293  0.25000000  1
  Mg  Mg3  1  0.33419099  0.65315625  0.75000000  1
  Mg  Mg4  1  0.84684375  0.16580901  0.75000000  1
  Mg  Mg5  1  0.83573572  0.66426428  0.75000000  1
  Zn  Zn6  1  0.15367928  0.34632072  0.25000000  1
  Si  Si7  1  0.34172002  0.15827998  0.75000000  1
