# generated using pymatgen
data_Li4V5O9F
_symmetry_space_group_name_H-M   'P 1'
_cell_length_a   3.01087409
_cell_length_b   5.22846268
_cell_length_c   13.17999353
_cell_angle_alpha   77.97621565
_cell_angle_beta   96.59486340
_cell_angle_gamma   106.82974777
_symmetry_Int_Tables_number   1
_chemical_formula_structural   Li4V5O9F
_chemical_formula_sum   'Li4 V5 O9 F1'
_cell_volume   193.90923564
_cell_formula_units_Z   1
loop_
 _symmetry_equiv_pos_site_id
 _symmetry_equiv_pos_as_xyz
  1  'x, y, z'
loop_
 _atom_site_type_symbol
 _atom_site_label
 _atom_site_symmetry_multiplicity
 _atom_site_fract_x
 _atom_site_fract_y
 _atom_site_fract_z
 _atom_site_occupancy
  Li  Li0  1  0.80303698  0.99779024  0.60145122  1
  Li  Li1  1  0.61074906  0.00952142  0.20018961  1
  Li  Li2  1  0.20779186  0.99931200  0.40295863  1
  Li  Li3  1  0.39288753  0.98936081  0.80586730  1
  V  V4  1  0.91005015  0.50313184  0.30135675  1
  V  V5  1  0.68670687  0.47921449  0.89498700  1
  V  V6  1  0.32213937  0.54347077  0.10179047  1
  V  V7  1  0.50535045  0.49880728  0.49925977  1
  V  V8  1  0.09980618  0.49681586  0.69600436  1
  O  O9  1  0.86462877  0.27088644  0.44728051  1
  O  O10  1  0.95353890  0.74090502  0.15587641  1
  O  O11  1  0.54850166  0.73058303  0.35138759  1
  O  O12  1  0.73609638  0.72022266  0.74871095  1
  O  O13  1  0.46213195  0.26902685  0.64440720  1
  O  O14  1  0.27254750  0.28542804  0.24465824  1
  O  O15  1  0.31249161  0.67332378  0.95060508  1
  O  O16  1  0.05159045  0.26466690  0.83989130  1
  O  O17  1  0.14558910  0.72829562  0.54866002  1
  F  F18  1  0.66749320  0.27795195  0.05917559  1
