# generated using pymatgen
data_Li4TiCr3O8
_symmetry_space_group_name_H-M   'P 1'
_cell_length_a   5.91457748
_cell_length_b   5.91427504
_cell_length_c   5.95975913
_cell_angle_alpha   60.19342796
_cell_angle_beta   89.96325382
_cell_angle_gamma   60.02863235
_symmetry_Int_Tables_number   1
_chemical_formula_structural   Li4TiCr3O8
_chemical_formula_sum   'Li4 Ti1 Cr3 O8'
_cell_volume   147.95390505
_cell_formula_units_Z   1
loop_
 _symmetry_equiv_pos_site_id
 _symmetry_equiv_pos_as_xyz
  1  'x, y, z'
loop_
 _atom_site_type_symbol
 _atom_site_label
 _atom_site_symmetry_multiplicity
 _atom_site_fract_x
 _atom_site_fract_y
 _atom_site_fract_z
 _atom_site_occupancy
  Li  Li0  1  0.00010833  0.99981177  0.50007341  1
  Li  Li1  1  0.50022323  0.49988992  0.49996955  1
  Li  Li2  1  0.00010896  0.49999853  0.50006406  1
  Li  Li3  1  0.50005561  0.99996030  0.50002726  1
  Ti  Ti4  1  0.00005732  0.99995305  0.00001829  1
  Cr  Cr5  1  0.49995379  0.50001226  0.00002717  1
  Cr  Cr6  1  -0.00001998  0.50027267  -0.00009734  1
  Cr  Cr7  1  0.49994500  -0.00021421  0.00004669  1
  O  O8  1  0.74130631  0.51709372  0.22428564  1
  O  O9  1  0.75512413  0.98625096  0.76872921  1
  O  O10  1  0.24418539  0.51195722  0.23041432  1
  O  O11  1  0.74240651  0.01386477  0.23025904  1
  O  O12  1  0.25761847  0.98619627  0.76971651  1
  O  O13  1  0.75588201  0.48796728  0.76964525  1
  O  O14  1  0.24502468  0.01359657  0.23133958  1
  O  O15  1  0.25869923  0.48290294  0.77572634  1
