# generated using pymatgen
data_Li5V5O9F
_symmetry_space_group_name_H-M   'P 1'
_cell_length_a   5.20393089
_cell_length_b   5.26314362
_cell_length_c   7.96483814
_cell_angle_alpha   109.37423874
_cell_angle_beta   77.41900047
_cell_angle_gamma   80.58575633
_symmetry_Int_Tables_number   1
_chemical_formula_structural   Li5V5O9F
_chemical_formula_sum   'Li5 V5 O9 F1'
_cell_volume   194.15413245
_cell_formula_units_Z   1
loop_
 _symmetry_equiv_pos_site_id
 _symmetry_equiv_pos_as_xyz
  1  'x, y, z'
loop_
 _atom_site_type_symbol
 _atom_site_label
 _atom_site_symmetry_multiplicity
 _atom_site_fract_x
 _atom_site_fract_y
 _atom_site_fract_z
 _atom_site_occupancy
  Li  Li0  1  0.51421358  0.21495343  0.91125202  1
  Li  Li1  1  0.50648155  0.57198494  0.69424703  1
  Li  Li2  1  0.50960423  0.99462356  0.48287143  1
  Li  Li3  1  0.49751681  0.40348905  0.30385144  1
  Li  Li4  1  0.49352161  0.80533838  0.10316789  1
  V  V5  1  0.99067549  0.42246702  0.80239321  1
  V  V6  1  0.99012460  0.79540487  0.59488589  1
  V  V7  1  0.99846967  0.19704810  0.40231826  1
  V  V8  1  0.99903839  0.59313770  0.19822206  1
  V  V9  1  0.99401266  0.99917183  0.00801377  1
  O  O10  1  0.76557877  0.82136937  0.84632732  1
  O  O11  1  0.23391377  0.61698255  0.96130232  1
  O  O12  1  0.76981075  0.18491902  0.64160596  1
  O  O13  1  0.76653900  0.58986383  0.44154086  1
  O  O14  1  0.22905130  0.41275088  0.54668370  1
  O  O15  1  0.76920490  0.99276289  0.25090679  1
  O  O16  1  0.22530899  0.79734213  0.35571867  1
  O  O17  1  0.77473634  0.38613041  0.04944299  1
  O  O18  1  0.22595935  0.19572420  0.15519058  1
  F  F19  1  0.24623924  0.00453683  0.75005882  1
