# generated using pymatgen
data_LaAl12O19
_symmetry_space_group_name_H-M   'P 1'
_cell_length_a   5.65046419
_cell_length_b   5.64458909
_cell_length_c   22.29927292
_cell_angle_alpha   90.00169142
_cell_angle_beta   89.99655151
_cell_angle_gamma   120.04563955
_symmetry_Int_Tables_number   1
_chemical_formula_structural   LaAl12O19
_chemical_formula_sum   'La2 Al24 O38'
_cell_volume   615.65566373
_cell_formula_units_Z   2
loop_
 _symmetry_equiv_pos_site_id
 _symmetry_equiv_pos_as_xyz
  1  'x, y, z'
loop_
 _atom_site_type_symbol
 _atom_site_label
 _atom_site_symmetry_multiplicity
 _atom_site_fract_x
 _atom_site_fract_y
 _atom_site_fract_z
 _atom_site_occupancy
  La  La0  1  0.34345587  0.67193201  0.74866376  1
  La  La1  1  0.67186686  0.32826544  0.24864223  1
  Al  Al2  1  0.16728208  0.83297054  0.60892547  1
  Al  Al3  1  0.16889387  0.83132393  0.89200024  1
  Al  Al4  1  0.33414521  0.66584916  0.19006014  1
  Al  Al5  1  0.33336432  0.66687463  0.02659664  1
  Al  Al6  1  0.33415530  0.66581936  0.31026369  1
  Al  Al7  1  0.33332253  0.66686655  0.47390958  1
  Al  Al8  1  0.00261717  0.00151456  0.76020062  1
  Al  Al9  1  0.00020845  0.99998111  0.00018344  1
  Al  Al10  1  0.00134457  0.99839371  0.26027518  1
  Al  Al11  1  0.00021480  0.00003441  0.50027701  1
  Al  Al12  1  0.16727991  0.33444927  0.60893149  1
  Al  Al13  1  0.16886363  0.33768398  0.89197622  1
  Al  Al14  1  0.66271475  0.83143248  0.89220677  1
  Al  Al15  1  0.66587370  0.83300815  0.60862806  1
  Al  Al16  1  0.33442503  0.16705950  0.10887012  1
  Al  Al17  1  0.33761994  0.16869919  0.39202028  1
  Al  Al18  1  0.83125997  0.66235827  0.39201089  1
  Al  Al19  1  0.66820537  0.33416979  0.68998746  1
  Al  Al20  1  0.66813017  0.33412011  0.81023893  1
  Al  Al21  1  0.66660346  0.33315131  0.52672271  1
  Al  Al22  1  0.66663805  0.33318499  0.97393155  1
  Al  Al23  1  0.83288504  0.66554003  0.10886996  1
  Al  Al24  1  0.83293616  0.16700256  0.10856843  1
  Al  Al25  1  0.83131301  0.16860602  0.39226082  1
  O  O26  1  0.15529401  0.84480747  0.05248864  1
  O  O27  1  0.15430837  0.84581799  0.44664714  1
  O  O28  1  0.00891469  0.50443714  0.65062746  1
  O  O29  1  0.00955454  0.50476212  0.84984125  1
  O  O30  1  0.18269771  0.81751023  0.25089621  1
  O  O31  1  0.15423879  0.30859212  0.44669301  1
  O  O32  1  0.00023690  0.00010415  0.84873751  1
  O  O33  1  0.33343528  0.66669072  0.55699968  1
  O  O34  1  0.00005368  0.00002671  0.14844262  1
  O  O35  1  0.00018769  0.99986594  0.34880208  1
  O  O36  1  0.99997383  0.99997655  0.64836885  1
  O  O37  1  0.33341904  0.66671802  0.94344703  1
  O  O38  1  0.49636235  0.99196096  0.65055577  1
  O  O39  1  0.49591134  0.99106289  0.84986432  1
  O  O40  1  0.17965425  0.36198411  0.25091288  1
  O  O41  1  0.15532987  0.31056621  0.05243848  1
  O  O42  1  0.63804609  0.82043022  0.25091431  1
  O  O43  1  0.31071461  0.15546041  0.55242312  1
  O  O44  1  0.30841637  0.15430321  0.94659437  1
  O  O45  1  0.49635217  0.50442966  0.65058217  1
  O  O46  1  0.49591171  0.50486327  0.84985316  1
  O  O47  1  0.50474294  0.49525809  0.34989138  1
  O  O48  1  0.50445989  0.49559958  0.15073675  1
  O  O49  1  0.68954739  0.84468437  0.05244333  1
  O  O50  1  0.69149918  0.84567481  0.44668594  1
  O  O51  1  0.36443681  0.18201543  0.75086191  1
  O  O52  1  0.50482529  0.00885116  0.34992726  1
  O  O53  1  0.66670295  0.33334657  0.44353641  1
  O  O54  1  0.50436992  0.00795359  0.15063078  1
  O  O55  1  0.81787135  0.63795603  0.75084902  1
  O  O56  1  0.66678381  0.33331679  0.05717068  1
  O  O57  1  0.84468451  0.68927859  0.55236408  1
  O  O58  1  0.84584201  0.69161184  0.94663654  1
  O  O59  1  0.81761971  0.17968751  0.75084947  1
  O  O60  1  0.99208571  0.49568383  0.15064288  1
  O  O61  1  0.99115626  0.49519993  0.34992089  1
  O  O62  1  0.84462340  0.15524056  0.55236673  1
  O  O63  1  0.84583840  0.15408016  0.94663324  1
