# generated using pymatgen
data_Li4CuSi2O7
_symmetry_space_group_name_H-M   'P 1'
_cell_length_a   5.44851393
_cell_length_b   7.13639986
_cell_length_c   8.15404602
_cell_angle_alpha   86.66615679
_cell_angle_beta   90.00000000
_cell_angle_gamma   67.55843366
_symmetry_Int_Tables_number   1
_chemical_formula_structural   Li4CuSi2O7
_chemical_formula_sum   'Li8 Cu2 Si4 O14'
_cell_volume   292.46076192
_cell_formula_units_Z   2
loop_
 _symmetry_equiv_pos_site_id
 _symmetry_equiv_pos_as_xyz
  1  'x, y, z'
loop_
 _atom_site_type_symbol
 _atom_site_label
 _atom_site_symmetry_multiplicity
 _atom_site_fract_x
 _atom_site_fract_y
 _atom_site_fract_z
 _atom_site_occupancy
  Li  Li0  1  0.73522733  0.85123124  0.87678472  1
  Li  Li1  1  0.41354044  0.85123124  0.37678472  1
  Li  Li2  1  0.87983131  0.58378926  0.59359791  1
  Li  Li3  1  0.53637943  0.58378926  0.09359791  1
  Li  Li4  1  0.12796167  0.44337522  0.94616572  1
  Li  Li5  1  0.42866311  0.44337522  0.44616572  1
  Li  Li6  1  0.18173449  0.00339192  0.01943547  1
  Li  Li7  1  0.81487359  0.00339192  0.51943547  1
  Cu  Cu8  1  0.68303093  0.29976458  0.79652887  1
  Cu  Cu9  1  0.01720448  0.29976458  0.29652887  1
  Si  Si10  1  0.30940745  0.72354460  0.74009020  1
  Si  Si11  1  0.96704794  0.72354460  0.24009020  1
  Si  Si12  1  0.24976412  0.15025680  0.66957153  1
  Si  Si13  1  0.59997908  0.15025680  0.16957153  1
  O  O14  1  0.21901849  0.93767004  0.60657534  1
  O  O15  1  0.84331147  0.93767004  0.10657534  1
  O  O16  1  0.42817992  0.77969358  0.90520434  1
  O  O17  1  0.79212650  0.77969358  0.40520434  1
  O  O18  1  0.04901236  0.66998761  0.77322691  1
  O  O19  1  0.28100003  0.66998761  0.27322691  1
  O  O20  1  0.54076208  0.54503656  0.64222795  1
  O  O21  1  0.91420237  0.54503656  0.14222795  1
  O  O22  1  0.14349888  0.32424459  0.51865678  1
  O  O23  1  0.53225552  0.32424459  0.01865678  1
  O  O24  1  0.07123158  0.22292427  0.83409294  1
  O  O25  1  0.70584415  0.22292427  0.33409294  1
  O  O26  1  0.56736439  0.09606972  0.70752234  1
  O  O27  1  0.33656588  0.09606972  0.20752234  1
