# generated using pymatgen
data_Mn2F7
_symmetry_space_group_name_H-M   'P 1'
_cell_length_a   5.62127082
_cell_length_b   5.62127173
_cell_length_c   10.19416640
_cell_angle_alpha   82.10311435
_cell_angle_beta   97.89688605
_cell_angle_gamma   55.39316783
_symmetry_Int_Tables_number   1
_chemical_formula_structural   Mn2F7
_chemical_formula_sum   'Mn4 F14'
_cell_volume   253.28082477
_cell_formula_units_Z   2
loop_
 _symmetry_equiv_pos_site_id
 _symmetry_equiv_pos_as_xyz
  1  'x, y, z'
loop_
 _atom_site_type_symbol
 _atom_site_label
 _atom_site_symmetry_multiplicity
 _atom_site_fract_x
 _atom_site_fract_y
 _atom_site_fract_z
 _atom_site_occupancy
  Mn  Mn0  1  0.24530775  0.32385180  0.42564936  1
  Mn  Mn1  1  0.32385180  0.24530775  0.07435064  1
  Mn  Mn2  1  0.67614820  0.75469225  0.92564936  1
  Mn  Mn3  1  0.75469225  0.67614820  0.57435064  1
  F  F4  1  0.17772783  0.45172725  0.60202344  1
  F  F5  1  0.23161772  0.23161772  0.25000000  1
  F  F6  1  0.04585956  0.68195582  0.01744195  1
  F  F7  1  0.45172725  0.17772783  0.89797656  1
  F  F8  1  0.36998514  0.75929488  0.85463846  1
  F  F9  1  0.24070512  0.63001486  0.35463846  1
  F  F10  1  0.31804418  0.95414044  0.51744195  1
  F  F11  1  0.68195582  0.04585956  0.48255805  1
  F  F12  1  0.75929488  0.36998514  0.64536154  1
  F  F13  1  0.63001486  0.24070512  0.14536154  1
  F  F14  1  0.54827275  0.82227217  0.10202344  1
  F  F15  1  0.95414044  0.31804418  0.98255805  1
  F  F16  1  0.76838228  0.76838228  0.75000000  1
  F  F17  1  0.82227217  0.54827275  0.39797656  1
