# generated using pymatgen
data_V2OF5
_symmetry_space_group_name_H-M   'P 1'
_cell_length_a   4.70661131
_cell_length_b   17.36712506
_cell_length_c   5.06402189
_cell_angle_alpha   89.22714866
_cell_angle_beta   89.89109643
_cell_angle_gamma   90.28529232
_symmetry_Int_Tables_number   1
_chemical_formula_structural   V2OF5
_chemical_formula_sum   'V8 O4 F20'
_cell_volume   413.89111610
_cell_formula_units_Z   4
loop_
 _symmetry_equiv_pos_site_id
 _symmetry_equiv_pos_as_xyz
  1  'x, y, z'
loop_
 _atom_site_type_symbol
 _atom_site_label
 _atom_site_symmetry_multiplicity
 _atom_site_fract_x
 _atom_site_fract_y
 _atom_site_fract_z
 _atom_site_occupancy
  V  V0  1  0.00283716  0.95177545  0.74418886  1
  V  V1  1  0.02080385  0.71651021  0.24127416  1
  V  V2  1  0.02718933  0.05623577  0.23269818  1
  V  V3  1  0.47766533  0.55737446  0.23200766  1
  V  V4  1  0.49501429  0.78780188  0.76212342  1
  V  V5  1  0.50027724  0.45115775  0.74664117  1
  V  V6  1  0.49975672  0.21254881  0.24899083  1
  V  V7  1  0.97647357  0.28866272  0.71829849  1
  O  O8  1  0.24579840  0.62630037  0.13420318  1
  O  O9  1  0.23600790  0.77810865  0.06974905  1
  O  O10  1  0.25486939  0.12635926  0.13519621  1
  O  O11  1  0.75935217  0.28185682  0.45221946  1
  F  F12  1  0.22086716  0.96671116  0.07189140  1
  F  F13  1  0.24538616  0.28297785  0.04919523  1
  F  F14  1  0.25182712  0.71461953  0.56721507  1
  F  F15  1  0.24028273  0.37029136  0.60718361  1
  F  F16  1  0.22266138  0.03672884  0.57279934  1
  F  F17  1  0.25701829  0.87236116  0.60487022  1
  F  F18  1  0.28147608  0.53575535  0.57171975  1
  F  F19  1  0.25203187  0.21464933  0.57532678  1
  F  F20  1  0.28253024  0.46706464  0.07230112  1
  F  F21  1  0.70843357  0.47151795  0.42164763  1
  F  F22  1  0.71790830  0.53582668  0.93220427  1
  F  F23  1  0.75223827  0.78162966  0.43923132  1
  F  F24  1  0.74172111  0.87052594  0.88728152  1
  F  F25  1  0.75947770  0.21362869  0.93370326  1
  F  F26  1  0.74547736  0.12615816  0.38527106  1
  F  F27  1  0.75991235  0.62943602  0.37795574  1
  F  F28  1  0.75197017  0.71187017  0.93983414  1
  F  F29  1  0.75847444  0.37126920  0.89021080  1
  F  F30  1  0.79514593  0.96973527  0.41949534  1
  F  F31  1  0.78594041  0.03576890  0.93223173  1
