# generated using pymatgen
data_Li5Fe(CO3)4
_symmetry_space_group_name_H-M   'P 1'
_cell_length_a   11.06149384
_cell_length_b   9.65538465
_cell_length_c   8.44190326
_cell_angle_alpha   90.00000000
_cell_angle_beta   90.97470808
_cell_angle_gamma   90.00000000
_symmetry_Int_Tables_number   1
_chemical_formula_structural   Li5Fe(CO3)4
_chemical_formula_sum   'Li20 Fe4 C16 O48'
_cell_volume   901.48994405
_cell_formula_units_Z   4
loop_
 _symmetry_equiv_pos_site_id
 _symmetry_equiv_pos_as_xyz
  1  'x, y, z'
loop_
 _atom_site_type_symbol
 _atom_site_label
 _atom_site_symmetry_multiplicity
 _atom_site_fract_x
 _atom_site_fract_y
 _atom_site_fract_z
 _atom_site_occupancy
  Li  Li0  1  0.06570278  0.63320333  0.56408179  1
  Li  Li1  1  0.06570278  0.86679667  0.06408179  1
  Li  Li2  1  0.12832521  0.13964296  0.56769431  1
  Li  Li3  1  0.12832521  0.36035704  0.06769431  1
  Li  Li4  1  0.21418208  0.89480504  0.69828613  1
  Li  Li5  1  0.21418208  0.60519496  0.19828613  1
  Li  Li6  1  0.33119502  0.66302964  0.53369954  1
  Li  Li7  1  0.33119502  0.83697036  0.03369954  1
  Li  Li8  1  0.40506899  0.09773834  0.56800370  1
  Li  Li9  1  0.40506899  0.40226166  0.06800370  1
  Li  Li10  1  0.59493101  0.59773834  0.93199630  1
  Li  Li11  1  0.59493101  0.90226166  0.43199630  1
  Li  Li12  1  0.66880498  0.16302964  0.96630046  1
  Li  Li13  1  0.66880498  0.33697036  0.46630046  1
  Li  Li14  1  0.78581792  0.39480504  0.80171387  1
  Li  Li15  1  0.78581792  0.10519496  0.30171387  1
  Li  Li16  1  0.87167479  0.63964296  0.93230569  1
  Li  Li17  1  0.87167479  0.86035704  0.43230569  1
  Li  Li18  1  0.93429722  0.13320333  0.93591821  1
  Li  Li19  1  0.93429722  0.36679667  0.43591821  1
  Fe  Fe20  1  0.28247813  0.39482885  0.71681859  1
  Fe  Fe21  1  0.28247813  0.10517115  0.21681859  1
  Fe  Fe22  1  0.71752187  0.89482885  0.78318141  1
  Fe  Fe23  1  0.71752187  0.60517115  0.28318141  1
  C  C24  1  0.02332019  0.38430016  0.75365580  1
  C  C25  1  0.02332019  0.11569984  0.25365580  1
  C  C26  1  0.20687008  0.63429199  0.86127147  1
  C  C27  1  0.20687008  0.86570801  0.36127147  1
  C  C28  1  0.28795782  0.13122003  0.87463468  1
  C  C29  1  0.28795782  0.36877997  0.37463468  1
  C  C30  1  0.49090959  0.85389914  0.71904906  1
  C  C31  1  0.49090959  0.64610086  0.21904906  1
  C  C32  1  0.50909041  0.35389914  0.78095094  1
  C  C33  1  0.50909041  0.14610086  0.28095094  1
  C  C34  1  0.71204218  0.63122003  0.62536532  1
  C  C35  1  0.71204218  0.86877997  0.12536532  1
  C  C36  1  0.79312992  0.13429199  0.63872853  1
  C  C37  1  0.79312992  0.36570801  0.13872853  1
  C  C38  1  0.97667981  0.88430016  0.74634420  1
  C  C39  1  0.97667981  0.61569984  0.24634420  1
  O  O40  1  0.00480289  0.82181320  0.61856005  1
  O  O41  1  0.00480289  0.67818680  0.11856005  1
  O  O42  1  0.03210107  0.99243918  0.79777919  1
  O  O43  1  0.03210107  0.50756082  0.29777919  1
  O  O44  1  0.11331623  0.33386374  0.66541079  1
  O  O45  1  0.11331623  0.16613626  0.16541079  1
  O  O46  1  0.19699386  0.76312363  0.89789935  1
  O  O47  1  0.19699386  0.73687637  0.39789935  1
  O  O48  1  0.20484835  0.53459242  0.96057574  1
  O  O49  1  0.20484835  0.96540758  0.46057574  1
  O  O50  1  0.22225085  0.60014556  0.71088710  1
  O  O51  1  0.22225085  0.89985444  0.21088710  1
  O  O52  1  0.27457427  0.09082093  0.73124381  1
  O  O53  1  0.28032368  0.26213347  0.91138138  1
  O  O54  1  0.27457427  0.40917907  0.23124381  1
  O  O55  1  0.28032368  0.23786653  0.41138138  1
  O  O56  1  0.30940764  0.04233233  0.98731173  1
  O  O57  1  0.30940764  0.45766767  0.48731173  1
  O  O58  1  0.38950103  0.82310673  0.65500930  1
  O  O59  1  0.38950103  0.67689327  0.15500930  1
  O  O60  1  0.44562488  0.46041125  0.83432677  1
  O  O61  1  0.44562488  0.03958875  0.33432677  1
  O  O62  1  0.45832002  0.28620902  0.66553727  1
  O  O63  1  0.45832002  0.21379098  0.16553727  1
  O  O64  1  0.54167998  0.78620902  0.83446273  1
  O  O65  1  0.54167998  0.71379098  0.33446273  1
  O  O66  1  0.55437512  0.96041125  0.66567323  1
  O  O67  1  0.55437512  0.53958875  0.16567323  1
  O  O68  1  0.61049897  0.32310673  0.84499070  1
  O  O69  1  0.61049897  0.17689327  0.34499070  1
  O  O70  1  0.69059236  0.54233233  0.51268827  1
  O  O71  1  0.69059236  0.95766767  0.01268827  1
  O  O72  1  0.71967632  0.76213347  0.58861862  1
  O  O73  1  0.72542573  0.59082093  0.76875619  1
  O  O74  1  0.71967632  0.73786653  0.08861862  1
  O  O75  1  0.72542573  0.90917907  0.26875619  1
  O  O76  1  0.77774915  0.10014656  0.78911290  1
  O  O77  1  0.77774915  0.39985344  0.28911290  1
  O  O78  1  0.79515165  0.03459242  0.53942426  1
  O  O79  1  0.79515165  0.46540758  0.03942426  1
  O  O80  1  0.80300614  0.26312363  0.60210065  1
  O  O81  1  0.80300614  0.23687637  0.10210065  1
  O  O82  1  0.88668377  0.83386374  0.83458921  1
  O  O83  1  0.88668377  0.66613626  0.33458921  1
  O  O84  1  0.96789893  0.49243918  0.70222081  1
  O  O85  1  0.96789893  0.00756082  0.20222081  1
  O  O86  1  0.99519711  0.32181320  0.88143995  1
  O  O87  1  0.99519711  0.17818680  0.38143995  1
