# generated using pymatgen
data_Li4V(PO4)2
_symmetry_space_group_name_H-M   'P 1'
_cell_length_a   4.92436697
_cell_length_b   5.25179977
_cell_length_c   6.24830948
_cell_angle_alpha   95.77410334
_cell_angle_beta   93.73140518
_cell_angle_gamma   99.10651296
_symmetry_Int_Tables_number   1
_chemical_formula_structural   Li4V(PO4)2
_chemical_formula_sum   'Li4 V1 P2 O8'
_cell_volume   158.20562253
_cell_formula_units_Z   1
loop_
 _symmetry_equiv_pos_site_id
 _symmetry_equiv_pos_as_xyz
  1  'x, y, z'
loop_
 _atom_site_type_symbol
 _atom_site_label
 _atom_site_symmetry_multiplicity
 _atom_site_fract_x
 _atom_site_fract_y
 _atom_site_fract_z
 _atom_site_occupancy
  Li  Li0  1  0.15909580  0.29856996  0.53278699  1
  Li  Li1  1  0.32643603  0.59774159  0.19134753  1
  Li  Li2  1  0.67356397  0.40225841  0.80865247  1
  Li  Li3  1  0.84090420  0.70143004  0.46721301  1
  V  V4  1  0.00000000  0.00000000  0.00000000  1
  P  P5  1  0.36659646  0.82140380  0.72512322  1
  P  P6  1  0.63340354  0.17859620  0.27487678  1
  O  O7  1  0.21542722  0.67916300  0.90285262  1
  O  O8  1  0.24476149  0.68390312  0.49966631  1
  O  O9  1  0.31976692  0.19309654  0.25019485  1
  O  O10  1  0.30175885  0.10463913  0.75860923  1
  O  O11  1  0.69824115  0.89536087  0.24139077  1
  O  O12  1  0.68023308  0.80690346  0.74980515  1
  O  O13  1  0.75523851  0.31609688  0.50033369  1
  O  O14  1  0.78457278  0.32083700  0.09714738  1
