# generated using pymatgen
data_LiSi4NiO10
_symmetry_space_group_name_H-M   'P 1'
_cell_length_a   11.42887692
_cell_length_b   5.17931243
_cell_length_c   7.81520152
_cell_angle_alpha   90.00000000
_cell_angle_beta   73.75197825
_cell_angle_gamma   90.00000000
_symmetry_Int_Tables_number   1
_chemical_formula_structural   LiSi4NiO10
_chemical_formula_sum   'Li2 Si8 Ni2 O20'
_cell_volume   444.13398094
_cell_formula_units_Z   2
loop_
 _symmetry_equiv_pos_site_id
 _symmetry_equiv_pos_as_xyz
  1  'x, y, z'
loop_
 _atom_site_type_symbol
 _atom_site_label
 _atom_site_symmetry_multiplicity
 _atom_site_fract_x
 _atom_site_fract_y
 _atom_site_fract_z
 _atom_site_occupancy
  Li  Li0  1  0.25000000  0.25877703  0.75000000  1
  Li  Li1  1  0.75000000  0.74122297  0.25000000  1
  Si  Si2  1  -0.00028658  0.47638539  0.70682107  1
  Si  Si3  1  0.14867272  0.02123319  0.14493789  1
  Si  Si4  1  0.35132728  0.02123319  0.35506211  1
  Si  Si5  1  0.50028658  0.47638539  0.79317893  1
  Si  Si6  1  0.49971342  0.52361461  0.20682107  1
  Si  Si7  1  0.64867272  0.97876681  0.64493789  1
  Si  Si8  1  0.85132728  0.97876681  0.85506211  1
  Si  Si9  1  0.00028658  0.52361461  0.29317893  1
  Ni  Ni10  1  0.25000000  0.75832290  0.75000000  1
  Ni  Ni11  1  0.75000000  0.24167710  0.25000000  1
  O  O12  1  0.00000000  0.50000000  0.50000000  1
  O  O13  1  0.13566477  0.52045254  0.72737961  1
  O  O14  1  0.20923758  0.99695447  0.93141036  1
  O  O15  1  0.03743674  0.81628452  0.21884821  1
  O  O16  1  0.09867201  0.31738674  0.17710033  1
  O  O17  1  0.29076242  0.99695447  0.56858964  1
  O  O18  1  0.36433523  0.52045254  0.77262039  1
  O  O19  1  0.25000000  0.96577651  0.25000000  1
  O  O20  1  0.40132799  0.31738674  0.32289967  1
  O  O21  1  0.53743674  0.18371548  0.71884821  1
  O  O22  1  0.46256326  0.81628452  0.28115179  1
  O  O23  1  0.59867201  0.68261326  0.67710033  1
  O  O24  1  0.50000000  0.50000000  0.00000000  1
  O  O25  1  0.75000000  0.03422349  0.75000000  1
  O  O26  1  0.63566477  0.47954746  0.22737961  1
  O  O27  1  0.70923758  0.00304553  0.43141036  1
  O  O28  1  0.90132799  0.68261326  0.82289967  1
  O  O29  1  0.96256326  0.18371548  0.78115179  1
  O  O30  1  0.79076242  0.00304553  0.06858964  1
  O  O31  1  0.86433523  0.47954746  0.27262039  1
