# generated using pymatgen
data_Li3V3P8O29
_symmetry_space_group_name_H-M   'P 1'
_cell_length_a   9.78635548
_cell_length_b   9.73544809
_cell_length_c   14.23634146
_cell_angle_alpha   90.13467372
_cell_angle_beta   90.64948283
_cell_angle_gamma   60.08134238
_symmetry_Int_Tables_number   1
_chemical_formula_structural   Li3V3P8O29
_chemical_formula_sum   'Li6 V6 P16 O58'
_cell_volume   1175.52073348
_cell_formula_units_Z   2
loop_
 _symmetry_equiv_pos_site_id
 _symmetry_equiv_pos_as_xyz
  1  'x, y, z'
loop_
 _atom_site_type_symbol
 _atom_site_label
 _atom_site_symmetry_multiplicity
 _atom_site_fract_x
 _atom_site_fract_y
 _atom_site_fract_z
 _atom_site_occupancy
  Li  Li0  1  0.77695055  0.30107330  0.05498940  1
  Li  Li1  1  0.31607322  0.90687286  0.05750522  1
  Li  Li2  1  0.67164333  0.23434625  0.44646314  1
  Li  Li3  1  0.33052447  0.76677377  0.56070725  1
  Li  Li4  1  0.08892116  0.22975410  0.93758837  1
  Li  Li5  1  0.00231931  0.00515237  0.50742286  1
  V  V6  1  0.56338498  0.43524946  0.24814929  1
  V  V7  1  0.43104588  0.56542238  0.75507358  1
  V  V8  1  0.57150742  0.99466168  0.75060877  1
  V  V9  1  0.43694014  0.00644687  0.25355194  1
  V  V10  1  0.99977457  0.56586668  0.25438323  1
  V  V11  1  0.99498775  0.44389072  0.73966248  1
  P  P12  1  0.91904381  0.77125869  0.84354009  1
  P  P13  1  0.77963787  0.91848213  0.33846357  1
  P  P14  1  0.91637769  0.30257663  0.34172961  1
  P  P15  1  0.66627305  0.66593357  0.13283586  1
  P  P16  1  0.65713552  0.67023995  0.63106085  1
  P  P17  1  0.77444497  0.32018263  0.83914170  1
  P  P18  1  0.68455675  0.22653569  0.66043688  1
  P  P19  1  0.31878645  0.91340453  0.84338625  1
  P  P20  1  0.68581249  0.08453480  0.15251869  1
  P  P21  1  0.31642562  0.77417712  0.34176893  1
  P  P22  1  0.22185237  0.68689427  0.16254819  1
  P  P23  1  0.33634611  0.33554977  0.36855542  1
  P  P24  1  0.33124869  0.32783733  0.86719646  1
  P  P25  1  0.08317808  0.70192312  0.65816655  1
  P  P26  1  0.22306257  0.08448171  0.66143664  1
  P  P27  1  0.08644140  0.23050060  0.15869175  1
  O  O28  1  0.01000099  0.80022911  0.57340616  1
  O  O29  1  0.91325756  0.74338022  0.33457365  1
  O  O30  1  0.75631064  0.00697792  0.06392439  1
  O  O31  1  0.74569178  0.91099294  0.83116668  1
  O  O32  1  0.91259839  0.61735822  0.81672740  1
  O  O33  1  0.81499539  0.65750693  0.18226317  1
  O  O34  1  0.92455837  0.45808990  0.33211575  1
  O  O35  1  0.00180601  0.24228371  0.06778087  1
  O  O36  1  0.91975410  0.34319201  0.83397979  1
  O  O37  1  0.66658252  0.81178695  0.67710138  1
  O  O38  1  0.61857700  0.92014884  0.32850064  1
  O  O39  1  0.80779054  0.51743991  0.67345032  1
  O  O40  1  0.67063159  0.65091609  0.02918648  1
  O  O41  1  0.65181615  0.67246533  0.52693685  1
  O  O42  1  0.66430090  0.51526057  0.17646317  1
  O  O43  1  0.47858948  0.90287099  0.82510622  1
  O  O44  1  0.51872685  0.81726472  0.17098231  1
  O  O45  1  0.73968355  0.34370871  0.33474668  1
  O  O46  1  0.79408214  0.20906437  0.75033884  1
  O  O47  1  0.76684447  0.21567341  0.57090413  1
  O  O48  1  0.76459550  0.24980576  0.92915038  1
  O  O49  1  0.62065173  0.48154605  0.81927821  1
  O  O50  1  0.50581762  0.67482110  0.67174652  1
  O  O51  1  0.65837361  0.25782674  0.16182449  1
  O  O52  1  0.47267707  0.61658350  0.32434882  1
  O  O53  1  0.34951978  0.91257248  0.32572896  1
  O  O54  1  0.79728124  0.99609280  0.24327851  1
  O  O55  1  0.78894578  0.00791820  0.42058947  1
  O  O56  1  0.20021085  0.99552676  0.58308503  1
  O  O57  1  0.65276995  0.08659286  0.67026420  1
  O  O58  1  0.52861213  0.38463818  0.67464960  1
  O  O59  1  0.34228044  0.74395251  0.83556820  1
  O  O60  1  0.49022031  0.32656184  0.32635549  1
  O  O61  1  0.37790677  0.52428613  0.17945733  1
  O  O62  1  0.23456638  0.77055055  0.07974477  1
  O  O63  1  0.24470942  0.78375099  0.43440826  1
  O  O64  1  0.20002706  0.78948828  0.25750591  1
  O  O65  1  0.26048970  0.65711130  0.66597971  1
  O  O66  1  0.47384933  0.18057135  0.82016391  1
  O  O67  1  0.52584422  0.09293736  0.17812988  1
  O  O68  1  0.33958896  0.47486950  0.82314114  1
  O  O69  1  0.33675437  0.32402322  0.97109920  1
  O  O70  1  0.34939547  0.32713532  0.47233882  1
  O  O71  1  0.18935997  0.48464961  0.32618558  1
  O  O72  1  0.38475109  0.07413698  0.66861440  1
  O  O73  1  0.33093320  0.18875849  0.32280086  1
  O  O74  1  0.08207017  0.65611613  0.16758110  1
  O  O75  1  0.00621578  0.79552423  0.75345235  1
  O  O76  1  0.99984016  0.76107615  0.93249382  1
  O  O77  1  0.07830739  0.54285347  0.66643444  1
  O  O78  1  0.17959070  0.33537919  0.82473051  1
  O  O79  1  0.09424053  0.38226138  0.18010934  1
  O  O80  1  0.25526202  0.08475808  0.16102290  1
  O  O81  1  0.24557088  0.99689118  0.93336511  1
  O  O82  1  0.20029602  0.01256019  0.75956489  1
  O  O83  1  0.08967816  0.26084697  0.66501745  1
  O  O84  1  0.99366206  0.19876280  0.42384788  1
  O  O85  1  0.99190054  0.20896950  0.24359271  1
