# generated using pymatgen
data_Li3V3P8O29
_symmetry_space_group_name_H-M   'P 1'
_cell_length_a   9.76634000
_cell_length_b   9.76394054
_cell_length_c   14.35830066
_cell_angle_alpha   90.56769621
_cell_angle_beta   90.55123086
_cell_angle_gamma   60.33746568
_symmetry_Int_Tables_number   1
_chemical_formula_structural   Li3V3P8O29
_chemical_formula_sum   'Li6 V6 P16 O58'
_cell_volume   1189.67882335
_cell_formula_units_Z   2
loop_
 _symmetry_equiv_pos_site_id
 _symmetry_equiv_pos_as_xyz
  1  'x, y, z'
loop_
 _atom_site_type_symbol
 _atom_site_label
 _atom_site_symmetry_multiplicity
 _atom_site_fract_x
 _atom_site_fract_y
 _atom_site_fract_z
 _atom_site_occupancy
  Li  Li0  1  0.91809156  0.29906847  0.55329961  1
  Li  Li1  1  0.30755209  0.92009356  0.06585398  1
  Li  Li2  1  0.30723026  0.77821985  0.54911562  1
  Li  Li3  1  0.69938367  0.08309159  0.94647523  1
  Li  Li4  1  0.22123164  0.69318229  0.95081777  1
  Li  Li5  1  0.07929737  0.69369887  0.43429636  1
  V  V6  1  0.57292973  0.42711479  0.25010107  1
  V  V7  1  0.43707736  0.56300617  0.74994923  1
  V  V8  1  0.56941570  0.99523607  0.74387177  1
  V  V9  1  0.43096699  0.00723882  0.25806469  1
  V  V10  1  0.99243825  0.56888157  0.24194041  1
  V  V11  1  0.00478382  0.43079722  0.75618279  1
  P  P12  1  0.91494394  0.77466371  0.83428105  1
  P  P13  1  0.77524472  0.91309602  0.33914563  1
  P  P14  1  0.91510237  0.31803156  0.34052899  1
  P  P15  1  0.65478438  0.67153244  0.13174110  1
  P  P16  1  0.66875818  0.66010121  0.63247657  1
  P  P17  1  0.77214557  0.31454582  0.84088058  1
  P  P18  1  0.68593371  0.22790469  0.65929518  1
  P  P19  1  0.32415984  0.91026242  0.84495780  1
  P  P20  1  0.68149017  0.08485151  0.15942140  1
  P  P21  1  0.32154169  0.76784761  0.33884026  1
  P  P22  1  0.23207118  0.67827077  0.16093236  1
  P  P23  1  0.32773049  0.34574372  0.36795213  1
  P  P24  1  0.33971130  0.33164750  0.86765861  1
  P  P25  1  0.08956707  0.67634278  0.65510557  1
  P  P26  1  0.22555888  0.08495642  0.66595903  1
  P  P27  1  0.08676734  0.22432364  0.16061566  1
  O  O28  1  0.01969220  0.73726510  0.56266142  1
  O  O29  1  0.91685376  0.74110118  0.33312816  1
  O  O30  1  0.74647684  0.00971099  0.06837380  1
  O  O31  1  0.74565508  0.91854984  0.83559414  1
  O  O32  1  0.90585898  0.61934138  0.82117634  1
  O  O33  1  0.80914549  0.66794830  0.17404288  1
  O  O34  1  0.90411386  0.47895135  0.31792581  1
  O  O35  1  0.00374580  0.22567663  0.07474944  1
  O  O36  1  0.91430115  0.34375796  0.83319309  1
  O  O37  1  0.66799827  0.81216939  0.67581565  1
  O  O38  1  0.61846353  0.90701100  0.32214522  1
  O  O39  1  0.81777412  0.51313950  0.67224211  1
  O  O40  1  0.65400695  0.66989161  0.02856510  1
  O  O41  1  0.65524978  0.66644338  0.52962427  1
  O  O42  1  0.65852296  0.52270451  0.17659534  1
  O  O43  1  0.48200803  0.90262184  0.81861700  1
  O  O44  1  0.50814400  0.82055682  0.17327192  1
  O  O45  1  0.74637615  0.34053773  0.33056645  1
  O  O46  1  0.79327069  0.20716251  0.75000074  1
  O  O47  1  0.76429668  0.23723366  0.57432875  1
  O  O48  1  0.76257440  0.23611889  0.92568337  1
  O  O49  1  0.61953224  0.47594284  0.82130841  1
  O  O50  1  0.51669474  0.66581377  0.67618550  1
  O  O51  1  0.65881458  0.25354026  0.17000761  1
  O  O52  1  0.47984915  0.61692363  0.32356706  1
  O  O53  1  0.34384958  0.91397767  0.33564962  1
  O  O54  1  0.79684736  0.98866021  0.24389946  1
  O  O55  1  0.77448996  0.99667859  0.42510942  1
  O  O56  1  0.23269430  0.98842019  0.58428262  1
  O  O57  1  0.65654597  0.08587009  0.66715204  1
  O  O58  1  0.52444030  0.38046229  0.67866271  1
  O  O59  1  0.34073512  0.74312870  0.83421738  1
  O  O60  1  0.47665504  0.34166609  0.32318377  1
  O  O61  1  0.38334956  0.52038140  0.17634837  1
  O  O62  1  0.23761647  0.76066859  0.07445660  1
  O  O63  1  0.23953526  0.76216689  0.42545850  1
  O  O64  1  0.21029945  0.78957859  0.24996104  1
  O  O65  1  0.25692647  0.65923418  0.66544479  1
  O  O66  1  0.48671807  0.18229882  0.82812000  1
  O  O67  1  0.52086953  0.09521552  0.18188455  1
  O  O68  1  0.33422912  0.48351799  0.82375390  1
  O  O69  1  0.33309832  0.34561999  0.97049666  1
  O  O70  1  0.32860550  0.34787899  0.47114168  1
  O  O71  1  0.17886440  0.49223022  0.32631833  1
  O  O72  1  0.38093489  0.09390660  0.67887883  1
  O  O73  1  0.33200115  0.19069108  0.32604421  1
  O  O74  1  0.08613209  0.65571065  0.16412564  1
  O  O75  1  0.98758157  0.79565996  0.73795705  1
  O  O76  1  0.01101406  0.76741816  0.91608781  1
  O  O77  1  0.09695664  0.51848965  0.68129433  1
  O  O78  1  0.18779326  0.33244493  0.82421095  1
  O  O79  1  0.09323428  0.38095215  0.17820248  1
  O  O80  1  0.25872363  0.08222970  0.16693002  1
  O  O81  1  0.26391864  0.97941548  0.93763405  1
  O  O82  1  0.20450161  0.01292672  0.76247949  1
  O  O83  1  0.08178108  0.25425478  0.66442325  1
  O  O84  1  0.99134549  0.25313831  0.43129298  1
  O  O85  1  0.01064408  0.20276669  0.25577141  1
