# generated using pymatgen
data_Li3V3P8O29
_symmetry_space_group_name_H-M   'P 1'
_cell_length_a   9.75773193
_cell_length_b   9.77788792
_cell_length_c   14.25629852
_cell_angle_alpha   89.90076794
_cell_angle_beta   90.37449883
_cell_angle_gamma   59.86189574
_symmetry_Int_Tables_number   1
_chemical_formula_structural   Li3V3P8O29
_chemical_formula_sum   'Li6 V6 P16 O58'
_cell_volume   1176.27458446
_cell_formula_units_Z   2
loop_
 _symmetry_equiv_pos_site_id
 _symmetry_equiv_pos_as_xyz
  1  'x, y, z'
loop_
 _atom_site_type_symbol
 _atom_site_label
 _atom_site_symmetry_multiplicity
 _atom_site_fract_x
 _atom_site_fract_y
 _atom_site_fract_z
 _atom_site_occupancy
  Li  Li0  1  0.76988413  0.32346241  0.04786086  1
  Li  Li1  1  0.32109627  0.90856952  0.05151270  1
  Li  Li2  1  0.70150810  0.21625678  0.44946969  1
  Li  Li3  1  0.31243489  0.77276504  0.56697103  1
  Li  Li4  1  0.22084155  0.08707024  0.45309952  1
  Li  Li5  1  0.97985191  0.97284125  0.98638807  1
  V  V6  1  0.56481895  0.43831897  0.24972812  1
  V  V7  1  0.42907564  0.56241677  0.75464973  1
  V  V8  1  0.57050387  0.99935036  0.75199431  1
  V  V9  1  0.43960522  0.00135330  0.24572634  1
  V  V10  1  0.99757985  0.56709546  0.24921027  1
  V  V11  1  0.00118841  0.43765746  0.74846338  1
  P  P12  1  0.92046035  0.77539726  0.84014649  1
  P  P13  1  0.77534008  0.91239080  0.33976703  1
  P  P14  1  0.91655781  0.31318813  0.34271246  1
  P  P15  1  0.66546561  0.66570782  0.13153938  1
  P  P16  1  0.65971780  0.66979966  0.63231889  1
  P  P17  1  0.77858079  0.31342302  0.83838246  1
  P  P18  1  0.68252560  0.22799976  0.66047283  1
  P  P19  1  0.31291693  0.91251706  0.84167992  1
  P  P20  1  0.69571576  0.08586313  0.15617525  1
  P  P21  1  0.32070167  0.77318261  0.34467281  1
  P  P22  1  0.22004535  0.69418769  0.16433812  1
  P  P23  1  0.33525009  0.33198744  0.36568387  1
  P  P24  1  0.33423312  0.32860792  0.86931893  1
  P  P25  1  0.08222989  0.69119159  0.65491111  1
  P  P26  1  0.22739157  0.09154879  0.66298626  1
  P  P27  1  0.08153634  0.22666739  0.15846985  1
  O  O28  1  0.00362244  0.76945332  0.56665490  1
  O  O29  1  0.91574589  0.74121111  0.33279594  1
  O  O30  1  0.78544092  0.01076993  0.07062700  1
  O  O31  1  0.74383685  0.91104990  0.83138568  1
  O  O32  1  0.92532698  0.61519166  0.83007190  1
  O  O33  1  0.80950333  0.67079545  0.17631955  1
  O  O34  1  0.90814910  0.47400210  0.32280352  1
  O  O35  1  0.99288886  0.21864000  0.07584344  1
  O  O36  1  0.91552856  0.34829566  0.83018343  1
  O  O37  1  0.65258474  0.81987149  0.67942780  1
  O  O38  1  0.62037307  0.90497250  0.31726820  1
  O  O39  1  0.81279076  0.52888561  0.67874350  1
  O  O40  1  0.66027579  0.65764790  0.02798610  1
  O  O41  1  0.65721001  0.67489725  0.52831529  1
  O  O42  1  0.67339281  0.51127479  0.17519715  1
  O  O43  1  0.46806529  0.91560734  0.83107777  1
  O  O44  1  0.51010383  0.81475666  0.17033364  1
  O  O45  1  0.74533102  0.33826570  0.33886748  1
  O  O46  1  0.79628378  0.20606396  0.74902498  1
  O  O47  1  0.75454013  0.23658037  0.57136635  1
  O  O48  1  0.78847840  0.22821639  0.92744153  1
  O  O49  1  0.61818298  0.47057947  0.82581103  1
  O  O50  1  0.51238519  0.66415360  0.67153386  1
  O  O51  1  0.65735558  0.26132438  0.16514164  1
  O  O52  1  0.48093757  0.62062546  0.31955548  1
  O  O53  1  0.34017686  0.92114765  0.33343013  1
  O  O54  1  0.79705085  0.00030563  0.24946445  1
  O  O55  1  0.75976153  0.00276277  0.42521819  1
  O  O56  1  0.23599762  0.00197118  0.57555128  1
  O  O57  1  0.65739275  0.08392050  0.66857242  1
  O  O58  1  0.52226554  0.38026602  0.68071553  1
  O  O59  1  0.34584889  0.74018371  0.82992234  1
  O  O60  1  0.48414723  0.33541028  0.32465640  1
  O  O61  1  0.38133388  0.53456134  0.17597213  1
  O  O62  1  0.21429801  0.79171964  0.08306660  1
  O  O63  1  0.26128032  0.76250585  0.43756274  1
  O  O64  1  0.20176326  0.78819390  0.26143353  1
  O  O65  1  0.25704661  0.65863770  0.66368173  1
  O  O66  1  0.48385187  0.18407083  0.82550992  1
  O  O67  1  0.53651808  0.08387429  0.17079626  1
  O  O68  1  0.33244536  0.48084556  0.82537238  1
  O  O69  1  0.33603847  0.33196216  0.97304643  1
  O  O70  1  0.33947357  0.32129180  0.46907709  1
  O  O71  1  0.18612790  0.47582396  0.32021451  1
  O  O72  1  0.38061545  0.09659780  0.67945774  1
  O  O73  1  0.33871667  0.18170371  0.31975632  1
  O  O74  1  0.08400076  0.65701432  0.16733183  1
  O  O75  1  0.00055480  0.79696255  0.74700271  1
  O  O76  1  0.99734221  0.79439432  0.92465667  1
  O  O77  1  0.08878141  0.53073398  0.67628954  1
  O  O78  1  0.18752560  0.33080419  0.82267355  1
  O  O79  1  0.08040056  0.38505290  0.17223143  1
  O  O80  1  0.25661987  0.08620566  0.16072030  1
  O  O81  1  0.22510039  0.98165079  0.93039714  1
  O  O82  1  0.20323274  0.00300484  0.75155080  1
  O  O83  1  0.08383608  0.26086389  0.66493313  1
  O  O84  1  0.00539008  0.23115518  0.42864940  1
  O  O85  1  0.00326336  0.20426543  0.25255253  1
