# generated using pymatgen
data_Li2PS3
_symmetry_space_group_name_H-M   'P 1'
_cell_length_a   6.15606904
_cell_length_b   6.15662184
_cell_length_c   6.41032006
_cell_angle_alpha   90.00000000
_cell_angle_beta   90.00000000
_cell_angle_gamma   119.99702961
_symmetry_Int_Tables_number   1
_chemical_formula_structural   Li2PS3
_chemical_formula_sum   'Li4 P2 S6'
_cell_volume   210.41141839
_cell_formula_units_Z   2
loop_
 _symmetry_equiv_pos_site_id
 _symmetry_equiv_pos_as_xyz
  1  'x, y, z'
loop_
 _atom_site_type_symbol
 _atom_site_label
 _atom_site_symmetry_multiplicity
 _atom_site_fract_x
 _atom_site_fract_y
 _atom_site_fract_z
 _atom_site_occupancy
  Li  Li0  1  0.33332025  0.66668008  0.50000868  1
  Li  Li1  1  0.66664017  0.33331992  0.50000868  1
  Li  Li2  1  0.66667975  0.33331992  0.00000868  1
  Li  Li3  1  0.33335983  0.66668008  0.00000868  1
  P  P4  1  0.00004006  0.00000000  0.69871469  1
  P  P5  1  -0.00004006  -0.00000000  0.19871469  1
  S  S6  1  0.32751370  1.00000000  0.74090731  1
  S  S7  1  0.67244431  0.67244382  0.74093032  1
  S  S8  1  0.00000049  0.32755618  0.74093032  1
  S  S9  1  0.67248630  0.00000000  0.24090731  1
  S  S10  1  0.32755569  0.32755618  0.24093032  1
  S  S11  1  0.99999951  0.67244382  0.24093032  1
