# generated using pymatgen
data_BaCaI4
_symmetry_space_group_name_H-M   'P 1'
_cell_length_a   4.96636157
_cell_length_b   11.08584270
_cell_length_c   7.85009927
_cell_angle_alpha   44.89205382
_cell_angle_beta   88.84568004
_cell_angle_gamma   89.65023184
_symmetry_Int_Tables_number   1
_chemical_formula_structural   BaCaI4
_chemical_formula_sum   'Ba1 Ca1 I4'
_cell_volume   304.95109794
_cell_formula_units_Z   1
loop_
 _symmetry_equiv_pos_site_id
 _symmetry_equiv_pos_as_xyz
  1  'x, y, z'
loop_
 _atom_site_type_symbol
 _atom_site_label
 _atom_site_symmetry_multiplicity
 _atom_site_fract_x
 _atom_site_fract_y
 _atom_site_fract_z
 _atom_site_occupancy
  Ba  Ba0  1  0.48439012  0.00193231  0.49894293  1
  Ca  Ca1  1  0.98738627  0.50141997  0.49987737  1
  I  I2  1  0.98080123  0.20325904  0.52560422  1
  I  I3  1  0.98913113  0.77333523  0.52626420  1
  I  I4  1  0.47487605  0.31444576  0.86834534  1
  I  I5  1  0.49632920  0.68709968  0.13320893  1
