# generated using pymatgen
data_Zr6Nb2O17
_symmetry_space_group_name_H-M   'P 1'
_cell_length_a   5.33186034
_cell_length_b   21.25133086
_cell_length_c   5.03212662
_cell_angle_alpha   97.55918480
_cell_angle_beta   90.01431740
_cell_angle_gamma   82.71528038
_symmetry_Int_Tables_number   1
_chemical_formula_structural   Zr6Nb2O17
_chemical_formula_sum   'Zr12 Nb4 O34'
_cell_volume   560.59002792
_cell_formula_units_Z   2
loop_
 _symmetry_equiv_pos_site_id
 _symmetry_equiv_pos_as_xyz
  1  'x, y, z'
loop_
 _atom_site_type_symbol
 _atom_site_label
 _atom_site_symmetry_multiplicity
 _atom_site_fract_x
 _atom_site_fract_y
 _atom_site_fract_z
 _atom_site_occupancy
  Zr  Zr0  1  0.26119810  0.00030487  0.00035251  1
  Zr  Zr1  1  0.76411660  0.00010899  0.50140696  1
  Zr  Zr2  1  0.05486367  0.13078876  0.58797894  1
  Zr  Zr3  1  0.41495623  0.25648957  0.64624898  1
  Zr  Zr4  1  0.91164919  0.25529847  0.11712888  1
  Zr  Zr5  1  0.42192352  0.38115810  0.18250439  1
  Zr  Zr6  1  0.28200563  0.49748663  0.75813357  1
  Zr  Zr7  1  0.77992329  0.50190148  0.23844093  1
  Zr  Zr8  1  0.80298161  0.61866876  0.81433478  1
  Zr  Zr9  1  0.16698807  0.74453509  0.87938439  1
  Zr  Zr10  1  0.67107561  0.74327808  0.35114882  1
  Zr  Zr11  1  0.18473180  0.86935332  0.41148706  1
  Nb  Nb12  1  0.55355717  0.13159890  0.04877452  1
  Nb  Nb13  1  0.92063484  0.37674504  0.71360586  1
  Nb  Nb14  1  0.29803723  0.62274199  0.28269851  1
  Nb  Nb15  1  0.68365219  0.86828773  0.95060970  1
  O  O16  1  0.56501021  0.05247526  0.21993153  1
  O  O17  1  0.06345921  0.04677982  0.33179059  1
  O  O18  1  0.86935896  0.07194781  0.81206487  1
  O  O19  1  0.38005424  0.07204589  0.77056647  1
  O  O20  1  0.84784305  0.16672547  0.26159235  1
  O  O21  1  0.35826952  0.16952134  0.38209108  1
  O  O22  1  0.71698648  0.19204375  0.80085792  1
  O  O23  1  0.23222990  0.19221311  0.89709752  1
  O  O24  1  0.04647446  0.28391939  0.49285010  1
  O  O25  1  0.55193153  0.28664299  0.31033565  1
  O  O26  1  0.68272452  0.31739408  0.86513661  1
  O  O27  1  0.17356106  0.31808422  0.96242968  1
  O  O28  1  0.77826402  0.39427211  0.37838069  1
  O  O29  1  0.24725871  0.39482703  0.55990370  1
  O  O30  1  0.08760418  0.43853702  0.01640140  1
  O  O31  1  0.61304273  0.43600618  0.90898875  1
  O  O32  1  0.91291383  0.51131868  0.62011838  1
  O  O33  1  0.42405983  0.48839845  0.37600766  1
  O  O34  1  0.52654402  0.56102817  0.97920535  1
  O  O35  1  0.05000802  0.56331264  0.08572360  1
  O  O36  1  0.17095074  0.60622522  0.61786461  1
  O  O37  1  0.64276996  0.60490437  0.43637529  1
  O  O38  1  0.00109817  0.68230772  0.13397288  1
  O  O39  1  0.49186137  0.68159635  0.03552514  1
  O  O40  1  0.33023017  0.71587401  0.50472198  1
  O  O41  1  0.83612634  0.71386836  0.68985615  1
  O  O42  1  0.90714772  0.80789262  0.19688917  1
  O  O43  1  0.42245000  0.80740788  0.10266443  1
  O  O44  1  0.52522268  0.83057277  0.61817894  1
  O  O45  1  0.01229174  0.83325372  0.73628814  1
  O  O46  1  0.93725528  0.92805482  0.19170326  1
  O  O47  1  0.44840189  0.92794931  0.22795833  1
  O  O48  1  0.61766327  0.94758272  0.78058287  1
  O  O49  1  0.11029545  0.95272699  0.67235210  1
