# generated using pymatgen
data_Li5V(CO3)4
_symmetry_space_group_name_H-M   'P 1'
_cell_length_a   10.97231194
_cell_length_b   9.73911041
_cell_length_c   8.42108225
_cell_angle_alpha   90.00000000
_cell_angle_beta   91.14090384
_cell_angle_gamma   90.00000000
_symmetry_Int_Tables_number   1
_chemical_formula_structural   Li5V(CO3)4
_chemical_formula_sum   'Li20 V4 C16 O48'
_cell_volume   899.70314432
_cell_formula_units_Z   4
loop_
 _symmetry_equiv_pos_site_id
 _symmetry_equiv_pos_as_xyz
  1  'x, y, z'
loop_
 _atom_site_type_symbol
 _atom_site_label
 _atom_site_symmetry_multiplicity
 _atom_site_fract_x
 _atom_site_fract_y
 _atom_site_fract_z
 _atom_site_occupancy
  Li  Li0  1  0.05454421  0.63678162  0.56250516  1
  Li  Li1  1  0.05454421  0.86321838  0.06250516  1
  Li  Li2  1  0.12279193  0.14177549  0.58329050  1
  Li  Li3  1  0.12279193  0.35822451  0.08329050  1
  Li  Li4  1  0.20982055  0.89719476  0.69455472  1
  Li  Li5  1  0.20982055  0.60280524  0.19455472  1
  Li  Li6  1  0.32920544  0.66373985  0.52917819  1
  Li  Li7  1  0.32920544  0.83626015  0.02917819  1
  Li  Li8  1  0.41349286  0.10802650  0.58058406  1
  Li  Li9  1  0.41349286  0.39197350  0.08058406  1
  Li  Li10  1  0.58650714  0.60802650  0.91941594  1
  Li  Li11  1  0.58650714  0.89197350  0.41941594  1
  Li  Li12  1  0.67079456  0.16373985  0.97082181  1
  Li  Li13  1  0.67079456  0.33626015  0.47082181  1
  Li  Li14  1  0.79017945  0.39719476  0.80544528  1
  Li  Li15  1  0.79017945  0.10280524  0.30544528  1
  Li  Li16  1  0.87720807  0.64177549  0.91670950  1
  Li  Li17  1  0.87720807  0.85822451  0.41670950  1
  Li  Li18  1  0.94545579  0.13678162  0.93749484  1
  Li  Li19  1  0.94545579  0.36321838  0.43749484  1
  V  V20  1  0.28548584  0.40785343  0.72893370  1
  V  V21  1  0.28548584  0.09214657  0.22893370  1
  V  V22  1  0.71451416  0.90785343  0.77106630  1
  V  V23  1  0.71451416  0.59214657  0.27106630  1
  C  C24  1  0.02205585  0.38819070  0.75466244  1
  C  C25  1  0.02205585  0.11180930  0.25466244  1
  C  C26  1  0.20666276  0.63494586  0.84935977  1
  C  C27  1  0.20666276  0.86505414  0.34935977  1
  C  C28  1  0.28976770  0.13132997  0.87518065  1
  C  C29  1  0.28976770  0.36867003  0.37518065  1
  C  C30  1  0.48969724  0.85884208  0.71520370  1
  C  C31  1  0.48969724  0.64115792  0.21520370  1
  C  C32  1  0.51030276  0.35884208  0.78479630  1
  C  C33  1  0.51030276  0.14115792  0.28479630  1
  C  C34  1  0.71023230  0.63132997  0.62481935  1
  C  C35  1  0.71023230  0.86867003  0.12481935  1
  C  C36  1  0.79333724  0.13494586  0.65064023  1
  C  C37  1  0.79333724  0.36505414  0.15064023  1
  C  C38  1  0.97794415  0.88819070  0.74533756  1
  C  C39  1  0.97794415  0.61180930  0.24533756  1
  O  O40  1  0.00839003  0.82625939  0.61739793  1
  O  O41  1  0.00839003  0.67374061  0.11739793  1
  O  O42  1  0.03282698  0.99943041  0.79065052  1
  O  O43  1  0.03282698  0.50056959  0.29065052  1
  O  O44  1  0.10830340  0.33701130  0.66324061  1
  O  O45  1  0.10830340  0.16298870  0.16324061  1
  O  O46  1  0.19595681  0.75789638  0.89656378  1
  O  O47  1  0.19595681  0.74210362  0.39656378  1
  O  O48  1  0.21093719  0.52637748  0.93900762  1
  O  O49  1  0.21093719  0.97362252  0.43900762  1
  O  O50  1  0.21811983  0.60691791  0.69726595  1
  O  O51  1  0.21811983  0.89308209  0.19726595  1
  O  O52  1  0.27574394  0.08776058  0.73258684  1
  O  O53  1  0.28584824  0.26216221  0.90869797  1
  O  O54  1  0.27574394  0.41223942  0.23258684  1
  O  O55  1  0.28584824  0.23783779  0.40869797  1
  O  O56  1  0.30917555  0.04472592  0.99010466  1
  O  O57  1  0.30917555  0.45527408  0.49010466  1
  O  O58  1  0.38895008  0.81913195  0.65560353  1
  O  O59  1  0.38895008  0.68086805  0.15560353  1
  O  O60  1  0.45516539  0.47169414  0.83392703  1
  O  O61  1  0.45516539  0.02830586  0.33392703  1
  O  O62  1  0.44883719  0.29225443  0.67571481  1
  O  O63  1  0.44883719  0.20774557  0.17571481  1
  O  O64  1  0.55116281  0.79225443  0.82428519  1
  O  O65  1  0.55116281  0.70774557  0.32428519  1
  O  O66  1  0.54483461  0.97169414  0.66607297  1
  O  O67  1  0.54483461  0.52830586  0.16607297  1
  O  O68  1  0.61104992  0.31913195  0.84439647  1
  O  O69  1  0.61104992  0.18086805  0.34439647  1
  O  O70  1  0.69082445  0.54472592  0.50989534  1
  O  O71  1  0.69082445  0.95527408  0.00989534  1
  O  O72  1  0.71415176  0.76216221  0.59130203  1
  O  O73  1  0.72425606  0.58776058  0.76741316  1
  O  O74  1  0.71415176  0.73783779  0.09130203  1
  O  O75  1  0.72425606  0.91223942  0.26741316  1
  O  O76  1  0.78188017  0.10691791  0.80273405  1
  O  O77  1  0.78188017  0.39308209  0.30273405  1
  O  O78  1  0.78906281  0.02637748  0.56099238  1
  O  O79  1  0.78906281  0.47362252  0.06099238  1
  O  O80  1  0.80404319  0.25789638  0.60343622  1
  O  O81  1  0.80404319  0.24210362  0.10343622  1
  O  O82  1  0.89169660  0.83701130  0.83675939  1
  O  O83  1  0.89169660  0.66298870  0.33675939  1
  O  O84  1  0.96717302  0.49943041  0.70934948  1
  O  O85  1  0.96717302  0.00056959  0.20934948  1
  O  O86  1  0.99160997  0.32625939  0.88260207  1
  O  O87  1  0.99160997  0.17374061  0.38260207  1
