# generated using pymatgen
data_Ag7Sb9O25
_symmetry_space_group_name_H-M   'P 1'
_cell_length_a   7.33838134
_cell_length_b   7.33838134
_cell_length_c   12.78486175
_cell_angle_alpha   90.00000000
_cell_angle_beta   73.32186710
_cell_angle_gamma   120.00000000
_symmetry_Int_Tables_number   1
_chemical_formula_structural   Ag7Sb9O25
_chemical_formula_sum   'Ag7 Sb9 O25'
_cell_volume   562.55602424
_cell_formula_units_Z   1
loop_
 _symmetry_equiv_pos_site_id
 _symmetry_equiv_pos_as_xyz
  1  'x, y, z'
loop_
 _atom_site_type_symbol
 _atom_site_label
 _atom_site_symmetry_multiplicity
 _atom_site_fract_x
 _atom_site_fract_y
 _atom_site_fract_z
 _atom_site_occupancy
  Ag  Ag0  1  0.49732301  0.24402979  0.24938278  1
  Ag  Ag1  1  0.49732301  0.75329322  0.24938278  1
  Ag  Ag2  1  0.50029187  0.50014543  0.49956270  1
  Ag  Ag3  1  0.50099372  0.25164976  0.74735653  1
  Ag  Ag4  1  0.00330051  0.25164976  0.74735653  1
  Ag  Ag5  1  0.50099372  0.74934296  0.74735653  1
  Ag  Ag6  1  0.00658644  0.75329322  0.24938278  1
  Sb  Sb7  1  0.52765163  0.01382631  0.95852206  1
  Sb  Sb8  1  0.50062070  0.00031035  0.49871042  1
  Sb  Sb9  1  0.50666120  0.50333110  0.00091488  1
  Sb  Sb10  1  0.99575402  0.99242392  0.00091488  1
  Sb  Sb11  1  0.99575402  0.50333110  0.00091488  1
  Sb  Sb12  1  0.00093576  0.25046788  0.24859536  1
  Sb  Sb13  1  0.00098022  0.00031035  0.49871042  1
  Sb  Sb14  1  0.00098022  0.50066987  0.49871042  1
  Sb  Sb15  1  0.00034361  0.75017180  0.74948559  1
  O  O16  1  0.92154379  0.41586141  0.16259380  1
  O  O17  1  0.62220319  0.28055243  0.03614706  1
  O  O18  1  0.67607901  0.08803951  0.33607519  1
  O  O19  1  0.67506640  0.28888388  0.53604972  1
  O  O20  1  0.62220319  0.84165075  0.03614706  1
  O  O21  1  0.92585811  0.51277152  0.66105529  1
  O  O22  1  0.33172282  0.41586141  0.16259380  1
  O  O23  1  0.92599554  0.71299727  0.46019822  1
  O  O24  1  0.94392549  0.22196224  0.95542542  1
  O  O25  1  0.92154379  0.00568238  0.16259380  1
  O  O26  1  0.32680350  0.11380623  0.46019822  1
  O  O27  1  0.07588630  0.08803951  0.33607519  1
  O  O28  1  0.92585811  0.91308660  0.66105529  1
  O  O29  1  0.07776875  0.28888388  0.53604972  1
  O  O30  1  0.67506640  0.88618153  0.53604972  1
  O  O31  1  0.67703644  0.58851772  0.83853960  1
  O  O32  1  0.81067398  0.65533749  0.03398853  1
  O  O33  1  0.07294268  0.98442496  0.83853960  1
  O  O34  1  0.18330151  0.84165075  0.03614706  1
  O  O35  1  0.07588630  0.48784679  0.33607519  1
  O  O36  1  0.32680350  0.71299727  0.46019822  1
  O  O37  1  0.32261134  0.22196224  0.95542542  1
  O  O38  1  0.32261134  0.60064909  0.95542542  1
  O  O39  1  0.32617319  0.91308660  0.66105529  1
  O  O40  1  0.07294268  0.58851772  0.83853960  1
