# generated using pymatgen
data_Li5MnO3F2
_symmetry_space_group_name_H-M   'P 1'
_cell_length_a   3.95583894
_cell_length_b   5.15763724
_cell_length_c   5.99605094
_cell_angle_alpha   73.16524488
_cell_angle_beta   89.93188785
_cell_angle_gamma   67.42220798
_symmetry_Int_Tables_number   1
_chemical_formula_structural   Li5MnO3F2
_chemical_formula_sum   'Li5 Mn1 O3 F2'
_cell_volume   107.27835913
_cell_formula_units_Z   1
loop_
 _symmetry_equiv_pos_site_id
 _symmetry_equiv_pos_as_xyz
  1  'x, y, z'
loop_
 _atom_site_type_symbol
 _atom_site_label
 _atom_site_symmetry_multiplicity
 _atom_site_fract_x
 _atom_site_fract_y
 _atom_site_fract_z
 _atom_site_occupancy
  Li  Li0  1  0.67232562  0.65424750  0.87326018  1
  Li  Li1  1  0.69904636  0.59583290  0.30713264  1
  Li  Li2  1  0.29704937  0.40518736  0.68581703  1
  Li  Li3  1  0.32472210  0.34696516  0.11895090  1
  Li  Li4  1  0.99521733  0.00023355  0.49617275  1
  Mn  Mn5  1  0.99837919  0.00079109  0.99605027  1
  O  O6  1  0.13731598  0.72380158  0.81962830  1
  O  O7  1  0.85927269  0.27771044  0.17318007  1
  O  O8  1  0.49802853  0.00153203  0.99541121  1
  F  F9  1  0.17632933  0.64193865  0.35034309  1
  F  F10  1  0.81815749  0.36084176  0.64211855  1
