# generated using pymatgen
data_Li2V4O3F8
_symmetry_space_group_name_H-M   'P 1'
_cell_length_a   6.59510016
_cell_length_b   6.88974491
_cell_length_c   5.14845044
_cell_angle_alpha   105.38025173
_cell_angle_beta   96.80875501
_cell_angle_gamma   107.94249047
_symmetry_Int_Tables_number   1
_chemical_formula_structural   Li2V4O3F8
_chemical_formula_sum   'Li2 V4 O3 F8'
_cell_volume   209.41389204
_cell_formula_units_Z   1
loop_
 _symmetry_equiv_pos_site_id
 _symmetry_equiv_pos_as_xyz
  1  'x, y, z'
loop_
 _atom_site_type_symbol
 _atom_site_label
 _atom_site_symmetry_multiplicity
 _atom_site_fract_x
 _atom_site_fract_y
 _atom_site_fract_z
 _atom_site_occupancy
  Li  Li0  1  0.18044391  0.39789823  0.66967733  1
  Li  Li1  1  0.81955609  0.60210177  0.33032267  1
  V  V2  1  0.24512478  0.96638719  0.90340045  1
  V  V3  1  0.38012750  0.76396169  0.35045148  1
  V  V4  1  0.61987250  0.23603831  0.64954852  1
  V  V5  1  0.75487522  0.03361281  0.09659955  1
  O  O6  1  0.00000000  0.00000000  0.00000000  1
  O  O7  1  0.52487712  0.94802979  0.73399540  1
  O  O8  1  0.47512288  0.05197021  0.26600460  1
  F  F9  1  0.10908356  0.80292804  0.48805683  1
  F  F10  1  0.20654094  0.66607103  0.95426488  1
  F  F11  1  0.28522390  0.48267394  0.38070013  1
  F  F12  1  0.34918463  0.25081829  0.80298617  1
  F  F13  1  0.65081537  0.74918171  0.19701383  1
  F  F14  1  0.71477610  0.51732606  0.61929987  1
  F  F15  1  0.79345906  0.33392897  0.04573512  1
  F  F16  1  0.89091644  0.19707196  0.51194317  1
