# generated using pymatgen
data_Li4Mn3Fe3(CuO8)2
_symmetry_space_group_name_H-M   'P 1'
_cell_length_a   5.87602424
_cell_length_b   5.83580554
_cell_length_c   9.57540324
_cell_angle_alpha   90.00443424
_cell_angle_beta   89.31212789
_cell_angle_gamma   119.77195413
_symmetry_Int_Tables_number   1
_chemical_formula_structural   Li4Mn3Fe3(CuO8)2
_chemical_formula_sum   'Li4 Mn3 Fe3 Cu2 O16'
_cell_volume   284.98645502
_cell_formula_units_Z   1
loop_
 _symmetry_equiv_pos_site_id
 _symmetry_equiv_pos_as_xyz
  1  'x, y, z'
loop_
 _atom_site_type_symbol
 _atom_site_label
 _atom_site_symmetry_multiplicity
 _atom_site_fract_x
 _atom_site_fract_y
 _atom_site_fract_z
 _atom_site_occupancy
  Li  Li0  1  0.33882317  0.66946326  0.89569727  1
  Li  Li1  1  0.99598692  0.99793277  0.99660881  1
  Li  Li2  1  0.00044554  0.00015636  0.49539669  1
  Li  Li3  1  0.67009811  0.33505222  0.39617934  1
  Mn  Mn4  1  0.65767702  0.82887063  0.21391461  1
  Mn  Mn5  1  0.82931216  0.66036463  0.71396334  1
  Mn  Mn6  1  0.82932589  0.16895963  0.71395535  1
  Fe  Fe7  1  0.16679212  0.83020002  0.21255342  1
  Fe  Fe8  1  0.16678291  0.33667574  0.21252760  1
  Fe  Fe9  1  0.33584098  0.16792573  0.71284914  1
  Cu  Cu10  1  0.32641339  0.66319495  0.48793499  1
  Cu  Cu11  1  0.66101108  0.33053185  0.98811941  1
  O  O12  1  0.15765382  0.83367247  0.60337935  1
  O  O13  1  0.04134186  0.52071384  0.34008645  1
  O  O14  1  0.34465150  0.67235004  0.10347629  1
  O  O15  1  0.98605915  0.99310129  0.30958573  1
  O  O16  1  0.98671884  0.99337767  0.81050915  1
  O  O17  1  0.15764671  0.32391451  0.60335716  1
  O  O18  1  0.48763919  0.96175039  0.33751627  1
  O  O19  1  0.48767629  0.52595890  0.33750328  1
  O  O20  1  0.32687204  0.16346185  0.10142237  1
  O  O21  1  0.68370905  0.84183818  0.60534271  1
  O  O22  1  0.52741283  0.48832007  0.83588006  1
  O  O23  1  0.52742614  0.03916009  0.83588078  1
  O  O24  1  0.68090601  0.34045118  0.60649924  1
  O  O25  1  0.83133228  0.67314968  0.10310310  1
  O  O26  1  0.96311249  0.48156635  0.83151565  1
  O  O27  1  0.83133051  0.15818672  0.10308045  1
