# generated using pymatgen
data_Li6MnCoP2(CO7)2
_symmetry_space_group_name_H-M   'P 1'
_cell_length_a   8.48773087
_cell_length_b   4.99583740
_cell_length_c   6.53169119
_cell_angle_alpha   90.00000000
_cell_angle_beta   90.00000000
_cell_angle_gamma   85.55156288
_symmetry_Int_Tables_number   1
_chemical_formula_structural   Li6MnCoP2(CO7)2
_chemical_formula_sum   'Li6 Mn1 Co1 P2 C2 O14'
_cell_volume   276.13106587
_cell_formula_units_Z   1
loop_
 _symmetry_equiv_pos_site_id
 _symmetry_equiv_pos_as_xyz
  1  'x, y, z'
loop_
 _atom_site_type_symbol
 _atom_site_label
 _atom_site_symmetry_multiplicity
 _atom_site_fract_x
 _atom_site_fract_y
 _atom_site_fract_z
 _atom_site_occupancy
  Li  Li0  1  0.09159061  0.75868810  0.25000000  1
  Li  Li1  1  0.27379473  0.24609604  0.02374188  1
  Li  Li2  1  0.27379473  0.24609604  0.47625812  1
  Li  Li3  1  0.72575019  0.75388140  0.52674292  1
  Li  Li4  1  0.72575019  0.75388140  0.97325708  1
  Li  Li5  1  0.90732808  0.23962852  0.75000000  1
  Mn  Mn6  1  0.65924067  0.22126666  0.25000000  1
  Co  Co7  1  0.33494441  0.79356317  0.75000000  1
  P  P8  1  0.41059044  0.71869584  0.25000000  1
  P  P9  1  0.58725008  0.27897660  0.75000000  1
  C  C10  1  0.03633213  0.70396337  0.75000000  1
  C  C11  1  0.96694128  0.29587082  0.25000000  1
  O  O12  1  0.07351462  0.95040327  0.75000000  1
  O  O13  1  0.11382985  0.35561133  0.25000000  1
  O  O14  1  0.15002156  0.51209126  0.75000000  1
  O  O15  1  0.31088415  0.82741910  0.06297600  1
  O  O16  1  0.31088415  0.82741910  0.43702400  1
  O  O17  1  0.41966645  0.17570916  0.75000000  1
  O  O18  1  0.42345654  0.40522597  0.25000000  1
  O  O19  1  0.56832108  0.59296884  0.75000000  1
  O  O20  1  0.58036360  0.81090557  0.25000000  1
  O  O21  1  0.68998846  0.17371121  0.93427967  1
  O  O22  1  0.68998846  0.17371121  0.56572033  1
  O  O23  1  0.85537431  0.49012007  0.25000000  1
  O  O24  1  0.89001518  0.64417861  0.75000000  1
  O  O25  1  0.93038404  0.04991836  0.25000000  1
