# generated using pymatgen
data_Li4CrNi3(PO4)4
_symmetry_space_group_name_H-M   'P 1'
_cell_length_a   4.74221199
_cell_length_b   10.16160082
_cell_length_c   6.03890092
_cell_angle_alpha   90.00000000
_cell_angle_beta   90.00000000
_cell_angle_gamma   90.49263119
_symmetry_Int_Tables_number   1
_chemical_formula_structural   Li4CrNi3(PO4)4
_chemical_formula_sum   'Li4 Cr1 Ni3 P4 O16'
_cell_volume   290.99461098
_cell_formula_units_Z   1
loop_
 _symmetry_equiv_pos_site_id
 _symmetry_equiv_pos_as_xyz
  1  'x, y, z'
loop_
 _atom_site_type_symbol
 _atom_site_label
 _atom_site_symmetry_multiplicity
 _atom_site_fract_x
 _atom_site_fract_y
 _atom_site_fract_z
 _atom_site_occupancy
  Li  Li0  1  0.00604591  0.99783677  0.99774107  1
  Li  Li1  1  0.00604591  0.99783677  0.50225893  1
  Li  Li2  1  0.49833783  0.50223878  0.50383936  1
  Li  Li3  1  0.49833783  0.50223878  0.99616064  1
  Cr  Cr4  1  0.95840201  0.28105185  0.25000000  1
  Ni  Ni5  1  0.01868399  0.72410601  0.75000000  1
  Ni  Ni6  1  0.48065195  0.22303372  0.75000000  1
  Ni  Ni7  1  0.52014045  0.77651727  0.25000000  1
  P  P8  1  0.08208487  0.59507655  0.25000000  1
  P  P9  1  0.41767587  0.09358724  0.25000000  1
  P  P10  1  0.58533216  0.90587516  0.75000000  1
  P  P11  1  0.91568055  0.40721033  0.75000000  1
  O  O12  1  0.19789320  0.45228701  0.25000000  1
  O  O13  1  0.22220110  0.66520737  0.04480995  1
  O  O14  1  0.22220110  0.66520737  0.45519005  1
  O  O15  1  0.23944912  0.40147711  0.75000000  1
  O  O16  1  0.26115793  0.89914888  0.75000000  1
  O  O17  1  0.28518382  0.16109140  0.04183271  1
  O  O18  1  0.28518382  0.16109140  0.45816729  1
  O  O19  1  0.30238184  0.94926103  0.25000000  1
  O  O20  1  0.70410464  0.04863109  0.75000000  1
  O  O21  1  0.72434268  0.83403078  0.54582317  1
  O  O22  1  0.72434268  0.83403078  0.95417683  1
  O  O23  1  0.74277599  0.10094745  0.25000000  1
  O  O24  1  0.75786593  0.59908962  0.25000000  1
  O  O25  1  0.77127223  0.33576151  0.55036074  1
  O  O26  1  0.77127223  0.33576151  0.94963926  1
  O  O27  1  0.80095436  0.55036946  0.75000000  1
