# generated using pymatgen
data_Li3VSi2O7
_symmetry_space_group_name_H-M   'P 1'
_cell_length_a   5.02169140
_cell_length_b   8.98635040
_cell_length_c   12.54352243
_cell_angle_alpha   90.00000000
_cell_angle_beta   90.00000000
_cell_angle_gamma   90.00000000
_symmetry_Int_Tables_number   1
_chemical_formula_structural   Li3VSi2O7
_chemical_formula_sum   'Li12 V4 Si8 O28'
_cell_volume   566.04750422
_cell_formula_units_Z   4
loop_
 _symmetry_equiv_pos_site_id
 _symmetry_equiv_pos_as_xyz
  1  'x, y, z'
loop_
 _atom_site_type_symbol
 _atom_site_label
 _atom_site_symmetry_multiplicity
 _atom_site_fract_x
 _atom_site_fract_y
 _atom_site_fract_z
 _atom_site_occupancy
  Li  Li0  1  0.03364635  0.33805465  0.09017456  1
  Li  Li1  1  0.03364635  0.33805465  0.40982544  1
  Li  Li2  1  0.02800627  0.01804520  0.25000000  1
  Li  Li3  1  0.47199373  0.51804520  0.25000000  1
  Li  Li4  1  0.46635365  0.83805465  0.09017456  1
  Li  Li5  1  0.46635365  0.83805465  0.40982544  1
  Li  Li6  1  0.53364635  0.16194535  0.59017456  1
  Li  Li7  1  0.53364635  0.16194535  0.90982544  1
  Li  Li8  1  0.52800627  0.48195480  0.75000000  1
  Li  Li9  1  0.97199373  0.98195480  0.75000000  1
  Li  Li10  1  0.96635365  0.66194535  0.90982544  1
  Li  Li11  1  0.96635365  0.66194535  0.59017456  1
  V  V12  1  0.00000000  0.00000000  0.00000000  1
  V  V13  1  0.00000000  0.00000000  0.50000000  1
  V  V14  1  0.50000000  0.50000000  0.50000000  1
  V  V15  1  0.50000000  0.50000000  0.00000000  1
  Si  Si16  1  0.01123494  0.31715744  0.63137703  1
  Si  Si17  1  0.01123494  0.31715744  0.86862297  1
  Si  Si18  1  0.48876506  0.81715744  0.63137703  1
  Si  Si19  1  0.48876506  0.81715744  0.86862297  1
  Si  Si20  1  0.51123494  0.18284256  0.13137703  1
  Si  Si21  1  0.51123494  0.18284256  0.36862297  1
  Si  Si22  1  0.98876506  0.68284256  0.13137703  1
  Si  Si23  1  0.98876506  0.68284256  0.36862297  1
  O  O24  1  0.06361104  0.86102495  0.12833534  1
  O  O25  1  0.06361104  0.86102495  0.37166466  1
  O  O26  1  0.08883654  0.61521707  0.25000000  1
  O  O27  1  0.16422410  0.60124000  0.03937266  1
  O  O28  1  0.16422410  0.60124000  0.46062734  1
  O  O29  1  0.17309671  0.85228694  0.61658651  1
  O  O30  1  0.17309671  0.85228694  0.88341349  1
  O  O31  1  0.32690329  0.35228694  0.61658651  1
  O  O32  1  0.32690329  0.35228694  0.88341349  1
  O  O33  1  0.33577590  0.10124000  0.03937266  1
  O  O34  1  0.33577590  0.10124000  0.46062734  1
  O  O35  1  0.41116346  0.11521707  0.25000000  1
  O  O36  1  0.43638896  0.36102495  0.12833534  1
  O  O37  1  0.43638896  0.36102495  0.37166466  1
  O  O38  1  0.56361104  0.63897505  0.62833534  1
  O  O39  1  0.56361104  0.63897505  0.87166466  1
  O  O40  1  0.58883654  0.88478293  0.75000000  1
  O  O41  1  0.66422410  0.89876000  0.53937266  1
  O  O42  1  0.66422410  0.89876000  0.96062734  1
  O  O43  1  0.67309671  0.64771306  0.11658651  1
  O  O44  1  0.67309671  0.64771306  0.38341349  1
  O  O45  1  0.82690329  0.14771306  0.38341349  1
  O  O46  1  0.82690329  0.14771306  0.11658651  1
  O  O47  1  0.83577590  0.39876000  0.53937266  1
  O  O48  1  0.83577590  0.39876000  0.96062734  1
  O  O49  1  0.91116346  0.38478293  0.75000000  1
  O  O50  1  0.93638896  0.13897505  0.62833534  1
  O  O51  1  0.93638896  0.13897505  0.87166466  1
