# generated using pymatgen
data_MnVP2(HO5)2
_symmetry_space_group_name_H-M   'P 1'
_cell_length_a   5.24961120
_cell_length_b   7.25401132
_cell_length_c   5.14889575
_cell_angle_alpha   109.33362747
_cell_angle_beta   98.83635359
_cell_angle_gamma   106.27001079
_symmetry_Int_Tables_number   1
_chemical_formula_structural   MnVP2(HO5)2
_chemical_formula_sum   'Mn1 V1 P2 H2 O10'
_cell_volume   170.91161335
_cell_formula_units_Z   1
loop_
 _symmetry_equiv_pos_site_id
 _symmetry_equiv_pos_as_xyz
  1  'x, y, z'
loop_
 _atom_site_type_symbol
 _atom_site_label
 _atom_site_symmetry_multiplicity
 _atom_site_fract_x
 _atom_site_fract_y
 _atom_site_fract_z
 _atom_site_occupancy
  Mn  Mn0  1  0.00000000  0.00000000  0.00000000  1
  V  V1  1  0.00000000  0.50000000  0.00000000  1
  P  P2  1  0.34101704  0.22354925  0.67324083  1
  P  P3  1  0.65898296  0.77645075  0.32675917  1
  H  H4  1  0.03146208  0.33231972  0.35540948  1
  H  H5  1  0.96853792  0.66768028  0.64459052  1
  O  O6  1  0.02997575  0.72344117  0.85735699  1
  O  O7  1  0.18278080  0.37984849  0.70973226  1
  O  O8  1  0.34880156  0.65555538  0.27445743  1
  O  O9  1  0.23232780  0.06007307  0.36331299  1
  O  O10  1  0.31904714  0.11792023  0.88740835  1
  O  O11  1  0.68095286  0.88207977  0.11259165  1
  O  O12  1  0.76767220  0.93992693  0.63668701  1
  O  O13  1  0.65119844  0.34444462  0.72554257  1
  O  O14  1  0.81721920  0.62015151  0.29026774  1
  O  O15  1  0.97002425  0.27655883  0.14264301  1
