# generated using pymatgen
data_Li4MnF7
_symmetry_space_group_name_H-M   'P 1'
_cell_length_a   7.69026903
_cell_length_b   7.69026903
_cell_length_c   5.41395377
_cell_angle_alpha   78.97977754
_cell_angle_beta   101.02022246
_cell_angle_gamma   108.70911291
_symmetry_Int_Tables_number   1
_chemical_formula_structural   Li4MnF7
_chemical_formula_sum   'Li8 Mn2 F14'
_cell_volume   294.75431450
_cell_formula_units_Z   2
loop_
 _symmetry_equiv_pos_site_id
 _symmetry_equiv_pos_as_xyz
  1  'x, y, z'
loop_
 _atom_site_type_symbol
 _atom_site_label
 _atom_site_symmetry_multiplicity
 _atom_site_fract_x
 _atom_site_fract_y
 _atom_site_fract_z
 _atom_site_occupancy
  Li  Li0  1  0.23886201  0.94230938  0.83038609  1
  Li  Li1  1  0.05769062  0.76113799  0.33038609  1
  Li  Li2  1  0.30603091  0.57949303  0.75814013  1
  Li  Li3  1  0.42050697  0.69396909  0.25814013  1
  Li  Li4  1  0.57949303  0.30603091  0.74185987  1
  Li  Li5  1  0.69396909  0.42050697  0.24185987  1
  Li  Li6  1  0.94230938  0.23886201  0.66961391  1
  Li  Li7  1  0.76113799  0.05769062  0.16961391  1
  Mn  Mn8  1  0.76035398  0.76035398  0.75000000  1
  Mn  Mn9  1  0.23964602  0.23964602  0.25000000  1
  F  F10  1  0.00551416  0.81333339  0.64239285  1
  F  F11  1  0.18666661  0.99448584  0.14239285  1
  F  F12  1  0.38340255  0.78558432  0.92101736  1
  F  F13  1  0.21441568  0.61659745  0.42101736  1
  F  F14  1  0.15919613  0.33659291  0.91876001  1
  F  F15  1  0.66340709  0.84080387  0.41876001  1
  F  F16  1  0.54860965  0.54860965  0.75000000  1
  F  F17  1  0.45139035  0.45139035  0.25000000  1
  F  F18  1  0.33659291  0.15919613  0.58123999  1
  F  F19  1  0.84080387  0.66340709  0.08123999  1
  F  F20  1  0.78558432  0.38340255  0.57898264  1
  F  F21  1  0.61659745  0.21441568  0.07898264  1
  F  F22  1  0.81333339  0.00551416  0.85760715  1
  F  F23  1  0.99448584  0.18666661  0.35760715  1
