# generated using pymatgen
data_LiVF5
_symmetry_space_group_name_H-M   'P 1'
_cell_length_a   7.48378182
_cell_length_b   10.45893988
_cell_length_c   5.21881094
_cell_angle_alpha   90.00000000
_cell_angle_beta   90.00000000
_cell_angle_gamma   90.00000000
_symmetry_Int_Tables_number   1
_chemical_formula_structural   LiVF5
_chemical_formula_sum   'Li4 V4 F20'
_cell_volume   408.48898335
_cell_formula_units_Z   4
loop_
 _symmetry_equiv_pos_site_id
 _symmetry_equiv_pos_as_xyz
  1  'x, y, z'
loop_
 _atom_site_type_symbol
 _atom_site_label
 _atom_site_symmetry_multiplicity
 _atom_site_fract_x
 _atom_site_fract_y
 _atom_site_fract_z
 _atom_site_occupancy
  Li  Li0  1  0.13994414  0.99625535  0.81832765  1
  Li  Li1  1  0.36005586  0.49625535  0.31832765  1
  Li  Li2  1  0.63994414  0.99625535  0.68167235  1
  Li  Li3  1  0.86005586  0.49625535  0.18167235  1
  V  V4  1  0.11773816  0.24626841  0.27372469  1
  V  V5  1  0.38226184  0.74626841  0.77372469  1
  V  V6  1  0.61773816  0.24626841  0.22627531  1
  V  V7  1  0.88226184  0.74626841  0.72627531  1
  F  F8  1  0.06240704  0.12543351  0.03158295  1
  F  F9  1  0.05845975  0.38047045  0.06051526  1
  F  F10  1  0.13656906  0.74767212  0.62408985  1
  F  F11  1  0.16199625  0.11903939  0.51127804  1
  F  F12  1  0.18580015  0.37890479  0.48931896  1
  F  F13  1  0.33800375  0.61903939  0.01127804  1
  F  F14  1  0.31419985  0.87890479  0.98931896  1
  F  F15  1  0.36343094  0.24767212  0.12408985  1
  F  F16  1  0.43759296  0.62543351  0.53158295  1
  F  F17  1  0.44154025  0.88047045  0.56051526  1
  F  F18  1  0.56240704  0.12543351  0.46841705  1
  F  F19  1  0.55845975  0.38047045  0.43948474  1
  F  F20  1  0.63656906  0.74767212  0.87591015  1
  F  F21  1  0.66199625  0.11903939  0.98872196  1
  F  F22  1  0.68580015  0.37890479  0.01068104  1
  F  F23  1  0.83800375  0.61903939  0.48872196  1
  F  F24  1  0.81419985  0.87890479  0.51068104  1
  F  F25  1  0.86343094  0.24767212  0.37591015  1
  F  F26  1  0.93759296  0.62543351  0.96841705  1
  F  F27  1  0.94154025  0.88047045  0.93948474  1
