# generated using pymatgen
data_LiFeSiO4
_symmetry_space_group_name_H-M   'P 1'
_cell_length_a   6.43708952
_cell_length_b   10.84452101
_cell_length_c   5.13610642
_cell_angle_alpha   89.97968014
_cell_angle_beta   90.00000000
_cell_angle_gamma   90.00000000
_symmetry_Int_Tables_number   1
_chemical_formula_structural   LiFeSiO4
_chemical_formula_sum   'Li4 Fe4 Si4 O16'
_cell_volume   358.53694212
_cell_formula_units_Z   4
loop_
 _symmetry_equiv_pos_site_id
 _symmetry_equiv_pos_as_xyz
  1  'x, y, z'
loop_
 _atom_site_type_symbol
 _atom_site_label
 _atom_site_symmetry_multiplicity
 _atom_site_fract_x
 _atom_site_fract_y
 _atom_site_fract_z
 _atom_site_occupancy
  Li  Li0  1  0.98616275  0.16745454  0.26257802  1
  Li  Li1  1  0.01354742  0.83276280  0.76182112  1
  Li  Li2  1  0.48645258  0.33276280  0.76182112  1
  Li  Li3  1  0.51383725  0.66745454  0.26257802  1
  Fe  Fe4  1  0.27635006  0.91461571  0.26192388  1
  Fe  Fe5  1  0.22364994  0.41461571  0.26192388  1
  Fe  Fe6  1  0.72375576  0.08601603  0.76129871  1
  Fe  Fe7  1  0.77624424  0.58601603  0.76129871  1
  Si  Si8  1  0.01697153  0.67291270  0.26287322  1
  Si  Si9  1  0.48302847  0.17291270  0.26287322  1
  Si  Si10  1  0.51697066  0.82776055  0.76384800  1
  Si  Si11  1  0.98302934  0.32776055  0.76384800  1
  O  O12  1  0.19501483  0.38455330  0.62604036  1
  O  O13  1  0.22500633  0.58726531  0.19774780  1
  O  O14  1  0.27499367  0.08726531  0.19774780  1
  O  O15  1  0.30498517  0.88455330  0.62604036  1
  O  O16  1  0.45231531  0.31513082  0.15361169  1
  O  O17  1  0.48526930  0.82721350  0.08222159  1
  O  O18  1  0.51463325  0.17309887  0.58121724  1
  O  O19  1  0.54805634  0.68587817  0.65344693  1
  O  O20  1  0.69471006  0.11588405  0.12523754  1
  O  O21  1  0.72511072  0.91334266  0.69890691  1
  O  O22  1  0.77488928  0.41334266  0.69890691  1
  O  O23  1  0.80528994  0.61588405  0.12523754  1
  O  O24  1  0.95194366  0.18587817  0.65344693  1
  O  O25  1  0.98536675  0.67309887  0.58121724  1
  O  O26  1  0.01473070  0.32721350  0.08222159  1
  O  O27  1  0.04768469  0.81513082  0.15361169  1
