# generated using pymatgen
data_Zr11VO24
_symmetry_space_group_name_H-M   'P 1'
_cell_length_a   7.29651685
_cell_length_b   10.86537399
_cell_length_c   5.30115123
_cell_angle_alpha   90.00000000
_cell_angle_beta   90.00000000
_cell_angle_gamma   90.00000000
_symmetry_Int_Tables_number   1
_chemical_formula_structural   Zr11VO24
_chemical_formula_sum   'Zr11 V1 O24'
_cell_volume   420.27200612
_cell_formula_units_Z   1
loop_
 _symmetry_equiv_pos_site_id
 _symmetry_equiv_pos_as_xyz
  1  'x, y, z'
loop_
 _atom_site_type_symbol
 _atom_site_label
 _atom_site_symmetry_multiplicity
 _atom_site_fract_x
 _atom_site_fract_y
 _atom_site_fract_z
 _atom_site_occupancy
  Zr  Zr0  1  0.12052907  0.25000000  0.75454932  1
  Zr  Zr1  1  0.12812616  0.58317204  0.74701653  1
  Zr  Zr2  1  0.12812616  0.91682796  0.74701653  1
  Zr  Zr3  1  0.37500000  0.08561127  0.25469247  1
  Zr  Zr4  1  0.37500000  0.41438873  0.25469247  1
  Zr  Zr5  1  0.37500000  0.75000000  0.22890318  1
  Zr  Zr6  1  0.62947093  0.25000000  0.75454932  1
  Zr  Zr7  1  0.62187384  0.58317204  0.74701653  1
  Zr  Zr8  1  0.62187384  0.91682796  0.74701653  1
  Zr  Zr9  1  0.87500000  0.07775425  0.25278261  1
  Zr  Zr10  1  0.87500000  0.42224575  0.25278261  1
  V  V11  1  0.87500000  0.75000000  0.26741932  1
  O  O12  1  0.12967901  0.08329503  0.44986950  1
  O  O13  1  0.11093171  0.08145854  0.95058017  1
  O  O14  1  0.12967901  0.41670497  0.44986950  1
  O  O15  1  0.11093171  0.41854146  0.95058017  1
  O  O16  1  0.10313220  0.75000000  0.42348658  1
  O  O17  1  0.15921828  0.75000000  0.92564399  1
  O  O18  1  0.37500000  0.92522247  0.04636818  1
  O  O19  1  0.37500000  0.90413292  0.54046231  1
  O  O20  1  0.37500000  0.25000000  0.56269929  1
  O  O21  1  0.37500000  0.25000000  0.05173253  1
  O  O22  1  0.37500000  0.57477753  0.04636818  1
  O  O23  1  0.37500000  0.59586708  0.54046231  1
  O  O24  1  0.62032099  0.08329503  0.44986950  1
  O  O25  1  0.63906829  0.08145854  0.95058017  1
  O  O26  1  0.63906829  0.41854146  0.95058017  1
  O  O27  1  0.62032099  0.41670497  0.44986950  1
  O  O28  1  0.64686780  0.75000000  0.42348658  1
  O  O29  1  0.59078172  0.75000000  0.92564399  1
  O  O30  1  0.87500000  0.25000000  0.55372387  1
  O  O31  1  0.87500000  0.25000000  0.06301131  1
  O  O32  1  0.87500000  0.60197507  0.07298835  1
  O  O33  1  0.87500000  0.56995531  0.57034803  1
  O  O34  1  0.87500000  0.89802493  0.07298835  1
  O  O35  1  0.87500000  0.93004469  0.57034803  1
