# generated using pymatgen
data_Li12CrCo3P4(CO7)4
_symmetry_space_group_name_H-M   'P 1'
_cell_length_a   8.49209308
_cell_length_b   10.00281815
_cell_length_c   6.45621808
_cell_angle_alpha   90.00000000
_cell_angle_beta   90.00000000
_cell_angle_gamma   85.33568644
_symmetry_Int_Tables_number   1
_chemical_formula_structural   Li12CrCo3P4(CO7)4
_chemical_formula_sum   'Li12 Cr1 Co3 P4 C4 O28'
_cell_volume   546.60630925
_cell_formula_units_Z   1
loop_
 _symmetry_equiv_pos_site_id
 _symmetry_equiv_pos_as_xyz
  1  'x, y, z'
loop_
 _atom_site_type_symbol
 _atom_site_label
 _atom_site_symmetry_multiplicity
 _atom_site_fract_x
 _atom_site_fract_y
 _atom_site_fract_z
 _atom_site_occupancy
  Li  Li0  1  0.09929693  0.38084883  0.25000000  1
  Li  Li1  1  0.09638544  0.88319961  0.25000000  1
  Li  Li2  1  0.27539112  0.12494865  0.02159804  1
  Li  Li3  1  0.27539112  0.12494865  0.47840196  1
  Li  Li4  1  0.27475856  0.62484239  0.02212894  1
  Li  Li5  1  0.27475856  0.62484239  0.47787106  1
  Li  Li6  1  0.72443747  0.37333805  0.52150101  1
  Li  Li7  1  0.72443747  0.37333805  0.97849899  1
  Li  Li8  1  0.72442462  0.87653434  0.52272838  1
  Li  Li9  1  0.72442462  0.87653434  0.97727162  1
  Li  Li10  1  0.90358406  0.11772940  0.75000000  1
  Li  Li11  1  0.90463143  0.61784361  0.75000000  1
  Cr  Cr12  1  0.66552133  0.60783980  0.25000000  1
  Co  Co13  1  0.33212194  0.39438206  0.75000000  1
  Co  Co14  1  0.33111849  0.89512958  0.75000000  1
  Co  Co15  1  0.66738532  0.10454128  0.25000000  1
  P  P16  1  0.41325065  0.35930730  0.25000000  1
  P  P17  1  0.41014469  0.86095013  0.25000000  1
  P  P18  1  0.58662255  0.13973308  0.75000000  1
  P  P19  1  0.58606098  0.64065288  0.75000000  1
  C  C20  1  0.03671772  0.35115336  0.75000000  1
  C  C21  1  0.03670123  0.85083087  0.75000000  1
  C  C22  1  0.96219757  0.14903145  0.25000000  1
  C  C23  1  0.96863804  0.64752205  0.25000000  1
  O  O24  1  0.07324245  0.47427530  0.75000000  1
  O  O25  1  0.10810862  0.17957645  0.25000000  1
  O  O26  1  0.07218754  0.97399786  0.75000000  1
  O  O27  1  0.15177165  0.25610586  0.75000000  1
  O  O28  1  0.11232012  0.68234277  0.25000000  1
  O  O29  1  0.15215221  0.75616259  0.75000000  1
  O  O30  1  0.30990056  0.41179087  0.06270407  1
  O  O31  1  0.30990056  0.41179087  0.43729593  1
  O  O32  1  0.30884746  0.91520114  0.06207039  1
  O  O33  1  0.30884746  0.91520114  0.43792961  1
  O  O34  1  0.42027623  0.08803214  0.75000000  1
  O  O35  1  0.43256218  0.20288956  0.25000000  1
  O  O36  1  0.42033975  0.58778683  0.75000000  1
  O  O37  1  0.42120155  0.70538645  0.25000000  1
  O  O38  1  0.56812447  0.29647865  0.75000000  1
  O  O39  1  0.57996219  0.41076944  0.25000000  1
  O  O40  1  0.56713231  0.79699022  0.75000000  1
  O  O41  1  0.57917880  0.90984293  0.25000000  1
  O  O42  1  0.69067494  0.08764979  0.93711597  1
  O  O43  1  0.69067494  0.08764979  0.56288403  1
  O  O44  1  0.69032627  0.58748553  0.56383413  1
  O  O45  1  0.69032627  0.58748553  0.93616587  1
  O  O46  1  0.84677341  0.24411169  0.25000000  1
  O  O47  1  0.89078500  0.32046681  0.75000000  1
  O  O48  1  0.85151374  0.74146883  0.25000000  1
  O  O49  1  0.92561238  0.02608282  0.25000000  1
  O  O50  1  0.89068269  0.81964287  0.75000000  1
  O  O51  1  0.93817131  0.52331113  0.25000000  1
