# generated using pymatgen
data_VO2F
_symmetry_space_group_name_H-M   'P 1'
_cell_length_a   8.68607838
_cell_length_b   12.52125872
_cell_length_c   5.45074469
_cell_angle_alpha   90.00000000
_cell_angle_beta   121.74948000
_cell_angle_gamma   90.00000000
_symmetry_Int_Tables_number   1
_chemical_formula_structural   VO2F
_chemical_formula_sum   'V8 O16 F8'
_cell_volume   504.11412318
_cell_formula_units_Z   8
loop_
 _symmetry_equiv_pos_site_id
 _symmetry_equiv_pos_as_xyz
  1  'x, y, z'
loop_
 _atom_site_type_symbol
 _atom_site_label
 _atom_site_symmetry_multiplicity
 _atom_site_fract_x
 _atom_site_fract_y
 _atom_site_fract_z
 _atom_site_occupancy
  V  V0  1  0.19576606  0.35214804  0.80694267  1
  V  V1  1  0.23757483  0.11823755  0.48817317  1
  V  V2  1  0.26242517  0.61823755  0.51182683  1
  V  V3  1  0.30423394  0.85214804  0.19305733  1
  V  V4  1  0.69576606  0.14785196  0.80694267  1
  V  V5  1  0.73757483  0.38176245  0.48817317  1
  V  V6  1  0.76242517  0.88176245  0.51182683  1
  V  V7  1  0.80423394  0.64785196  0.19305733  1
  O  O8  1  0.03572966  0.62398540  0.45705775  1
  O  O9  1  0.23842356  0.03870408  0.72041551  1
  O  O10  1  0.31448956  0.80647827  0.92513870  1
  O  O11  1  0.25242686  0.24829300  0.64796200  1
  O  O12  1  0.24757314  0.74829300  0.35203800  1
  O  O13  1  0.18551044  0.30647827  0.07486130  1
  O  O14  1  0.26157644  0.53870408  0.27958449  1
  O  O15  1  0.46427034  0.12398540  0.54294225  1
  O  O16  1  0.53572966  0.87601460  0.45705775  1
  O  O17  1  0.73842356  0.46129592  0.72041551  1
  O  O18  1  0.81448956  0.69352173  0.92513870  1
  O  O19  1  0.75242686  0.25170700  0.64796200  1
  O  O20  1  0.74757314  0.75170700  0.35203800  1
  O  O21  1  0.68551044  0.19352173  0.07486130  1
  O  O22  1  0.76157644  0.96129592  0.27958449  1
  O  O23  1  0.96427034  0.37601460  0.54294225  1
  F  F24  1  0.00585442  0.13697253  0.18219160  1
  F  F25  1  0.28156787  0.48811739  0.78329383  1
  F  F26  1  0.21843213  0.98811739  0.21670617  1
  F  F27  1  0.49414558  0.63697253  0.81780840  1
  F  F28  1  0.50585442  0.36302747  0.18219160  1
  F  F29  1  0.78156787  0.01188261  0.78329383  1
  F  F30  1  0.71843213  0.51188261  0.21670617  1
  F  F31  1  0.99414558  0.86302747  0.81780840  1
