# generated using pymatgen
data_La2Ti2CrO9
_symmetry_space_group_name_H-M   'P 1'
_cell_length_a   5.46354173
_cell_length_b   5.45221215
_cell_length_c   23.70554388
_cell_angle_alpha   90.00000000
_cell_angle_beta   90.03061508
_cell_angle_gamma   90.00000000
_symmetry_Int_Tables_number   1
_chemical_formula_structural   La2Ti2CrO9
_chemical_formula_sum   'La8 Ti8 Cr4 O36'
_cell_volume   706.14985232
_cell_formula_units_Z   4
loop_
 _symmetry_equiv_pos_site_id
 _symmetry_equiv_pos_as_xyz
  1  'x, y, z'
loop_
 _atom_site_type_symbol
 _atom_site_label
 _atom_site_symmetry_multiplicity
 _atom_site_fract_x
 _atom_site_fract_y
 _atom_site_fract_z
 _atom_site_occupancy
  La  La0  1  0.00737744  0.00978577  0.41660089  1
  La  La1  1  0.49262256  0.50978577  0.75006611  1
  La  La2  1  0.49946740  0.49700091  0.24724135  1
  La  La3  1  0.49988463  0.49100851  0.58189520  1
  La  La4  1  0.49573118  0.49566232  0.91946469  1
  La  La5  1  0.00426882  0.99566232  0.24720131  1
  La  La6  1  0.00053260  0.99700091  0.91942565  1
  La  La7  1  0.00011537  0.99100851  0.58477180  1
  Ti  Ti8  1  0.00092651  0.49814438  0.00706572  1
  Ti  Ti9  1  0.00129698  0.49771367  0.15934987  1
  Ti  Ti10  1  0.99928694  0.50115575  0.49566284  1
  Ti  Ti11  1  0.99940025  0.50105518  0.83052183  1
  Ti  Ti12  1  0.49870302  0.99771367  0.00731713  1
  Ti  Ti13  1  0.50071306  0.00115575  0.67100416  1
  Ti  Ti14  1  0.50059975  0.00105518  0.33614517  1
  Ti  Ti15  1  0.49907349  0.99814438  0.15960028  1
  Cr  Cr16  1  0.99963115  0.50253672  0.33611640  1
  Cr  Cr17  1  0.00040309  0.50025262  0.66823901  1
  Cr  Cr18  1  0.49959691  0.00025262  0.49842799  1
  Cr  Cr19  1  0.50036885  0.00253672  0.83054960  1
  O  O20  1  0.97555280  0.49823169  0.08335560  1
  O  O21  1  0.95857944  0.49685588  0.41863527  1
  O  O22  1  0.95413738  0.49541702  0.74511070  1
  O  O23  1  0.24881471  0.75013388  0.99337311  1
  O  O24  1  0.25054202  0.74888398  0.17345106  1
  O  O25  1  0.21810951  0.77590280  0.34189942  1
  O  O26  1  0.21667072  0.77835070  0.49646246  1
  O  O27  1  0.24520306  0.75568102  0.66950113  1
  O  O28  1  0.24844658  0.75623093  0.82327664  1
  O  O29  1  0.24945798  0.24888398  0.99321594  1
  O  O30  1  0.25118529  0.25013388  0.17329389  1
  O  O31  1  0.25155342  0.25623093  0.34339036  1
  O  O32  1  0.25479694  0.25568102  0.49716487  1
  O  O33  1  0.28332928  0.27835070  0.67020354  1
  O  O34  1  0.28189149  0.27590280  0.82476658  1
  O  O35  1  0.52444720  0.99823169  0.08331140  1
  O  O36  1  0.54586262  0.99541702  0.42155630  1
  O  O37  1  0.54142056  0.99685588  0.74803073  1
  O  O38  1  0.46299016  0.00232308  0.25617905  1
  O  O39  1  0.45799607  0.00207912  0.90963434  1
  O  O40  1  0.45165399  0.00291624  0.58173924  1
  O  O41  1  0.74936655  0.74764636  0.18158667  1
  O  O42  1  0.72744332  0.72921180  0.83827164  1
  O  O43  1  0.73620984  0.74424865  0.51374141  1
  O  O44  1  0.73310869  0.73276778  0.65426446  1
  O  O45  1  0.73979709  0.73734788  0.32710672  1
  O  O46  1  0.74880223  0.74857738  0.98505334  1
  O  O47  1  0.75119777  0.24857738  0.18161366  1
  O  O48  1  0.76020291  0.23734788  0.83955928  1
  O  O49  1  0.76689131  0.23276778  0.51240254  1
  O  O50  1  0.77255668  0.22921180  0.32839536  1
  O  O51  1  0.76379016  0.24424865  0.65292559  1
  O  O52  1  0.75063345  0.24764636  0.98508033  1
  O  O53  1  0.04200393  0.50207912  0.25703266  1
  O  O54  1  0.04834601  0.50291624  0.58492776  1
  O  O55  1  0.03700984  0.50232308  0.91048695  1
