# generated using pymatgen
data_Li3V2F9
_symmetry_space_group_name_H-M   'P 1'
_cell_length_a   5.13191328
_cell_length_b   5.13094963
_cell_length_c   14.25495919
_cell_angle_alpha   89.90081021
_cell_angle_beta   89.78887389
_cell_angle_gamma   60.08487529
_symmetry_Int_Tables_number   1
_chemical_formula_structural   Li3V2F9
_chemical_formula_sum   'Li6 V4 F18'
_cell_volume   325.34303832
_cell_formula_units_Z   2
loop_
 _symmetry_equiv_pos_site_id
 _symmetry_equiv_pos_as_xyz
  1  'x, y, z'
loop_
 _atom_site_type_symbol
 _atom_site_label
 _atom_site_symmetry_multiplicity
 _atom_site_fract_x
 _atom_site_fract_y
 _atom_site_fract_z
 _atom_site_occupancy
  Li  Li0  1  0.66578952  0.66615347  0.81476045  1
  Li  Li1  1  0.66565928  0.66875616  0.51706974  1
  Li  Li2  1  0.66615065  0.66815070  0.01719884  1
  Li  Li3  1  0.66774891  0.66714065  0.31524716  1
  Li  Li4  1  0.33226699  0.33333667  0.99945335  1
  Li  Li5  1  0.33380006  0.33392030  0.49956065  1
  V  V6  1  0.99960566  0.00191477  0.64949069  1
  V  V7  1  0.00097181  0.99938698  0.85315643  1
  V  V8  1  0.00082740  0.00017878  0.35200440  1
  V  V9  1  0.99870805  0.00090468  0.14822109  1
  F  F10  1  0.98109493  0.67396725  0.41648303  1
  F  F11  1  0.67279030  0.98155064  0.91558267  1
  F  F12  1  0.98209780  0.34538633  0.91567186  1
  F  F13  1  0.67180622  0.34571762  0.41395891  1
  F  F14  1  0.72758792  0.29426327  0.75330612  1
  F  F15  1  0.34711754  0.97671987  0.41602470  1
  F  F16  1  0.67610663  0.31647526  0.07914657  1
  F  F17  1  0.34584684  0.67235421  0.91538449  1
  F  F18  1  0.72637218  0.97598049  0.25356617  1
  F  F19  1  0.67650134  0.00632913  0.57769460  1
  F  F20  1  0.29113948  0.73227990  0.25179092  1
  F  F21  1  0.31823916  0.67351660  0.57819036  1
  F  F22  1  0.00862118  0.67444750  0.07714530  1
  F  F23  1  0.97790158  0.72708032  0.75191789  1
  F  F24  1  0.31866367  0.00601203  0.07688162  1
  F  F25  1  0.29661855  0.97644476  0.75207254  1
  F  F26  1  0.00575462  0.31668498  0.57702015  1
  F  F27  1  0.97755871  0.29844767  0.25305631  1
