# generated using pymatgen
data_Li3NiPCO7
_symmetry_space_group_name_H-M   'P 1'
_cell_length_a   8.35760077
_cell_length_b   9.93020409
_cell_length_c   6.39882949
_cell_angle_alpha   90.14115635
_cell_angle_beta   90.35578508
_cell_angle_gamma   85.34026033
_symmetry_Int_Tables_number   1
_chemical_formula_structural   Li3NiPCO7
_chemical_formula_sum   'Li12 Ni4 P4 C4 O28'
_cell_volume   529.28949891
_cell_formula_units_Z   4
loop_
 _symmetry_equiv_pos_site_id
 _symmetry_equiv_pos_as_xyz
  1  'x, y, z'
loop_
 _atom_site_type_symbol
 _atom_site_label
 _atom_site_symmetry_multiplicity
 _atom_site_fract_x
 _atom_site_fract_y
 _atom_site_fract_z
 _atom_site_occupancy
  Li  Li0  1  0.09835717  0.38683055  0.25157951  1
  Li  Li1  1  0.10013118  0.88042824  0.25592973  1
  Li  Li2  1  0.27503311  0.10877647  0.49806423  1
  Li  Li3  1  0.27495574  0.63416980  0.00994287  1
  Li  Li4  1  0.27507887  0.63566593  0.48860539  1
  Li  Li5  1  0.34294227  0.88184569  0.74467027  1
  Li  Li6  1  0.72213413  0.38053623  0.52214228  1
  Li  Li7  1  0.72168522  0.38051092  0.97803491  1
  Li  Li8  1  0.71912851  0.87278099  0.52755444  1
  Li  Li9  1  0.72008656  0.87267330  0.97302858  1
  Li  Li10  1  0.89526225  0.11138110  0.74961726  1
  Li  Li11  1  0.90882854  0.62310807  0.74884248  1
  Ni  Ni12  1  0.26911239  0.11519042  0.00205902  1
  Ni  Ni13  1  0.33428357  0.39995499  0.74913158  1
  Ni  Ni14  1  0.66752145  0.10243753  0.25045042  1
  Ni  Ni15  1  0.66624265  0.60442745  0.24914269  1
  P  P16  1  0.41232609  0.35963041  0.24559630  1
  P  P17  1  0.41490751  0.86414378  0.25225953  1
  P  P18  1  0.58478012  0.14398091  0.75355513  1
  P  P19  1  0.58764000  0.63940331  0.74934230  1
  C  C20  1  0.04118929  0.34908563  0.75562873  1
  C  C21  1  0.03929900  0.85485364  0.75461632  1
  C  C22  1  0.96113043  0.14720272  0.24473812  1
  C  C23  1  0.95977897  0.64831173  0.24986778  1
  O  O24  1  0.07724791  0.47262454  0.74799369  1
  O  O25  1  0.11080242  0.17852024  0.23266076  1
  O  O26  1  0.07357725  0.97989462  0.76007506  1
  O  O27  1  0.16222251  0.25498919  0.76321256  1
  O  O28  1  0.10793547  0.67809412  0.25042181  1
  O  O29  1  0.15020051  0.75642920  0.75343800  1
  O  O30  1  0.30642810  0.41495803  0.06066220  1
  O  O31  1  0.30820410  0.40545998  0.43643262  1
  O  O32  1  0.31213115  0.91631313  0.05982360  1
  O  O33  1  0.31061250  0.91181000  0.44031384  1
  O  O34  1  0.41785522  0.08790372  0.75679464  1
  O  O35  1  0.43310065  0.20007075  0.23139969  1
  O  O36  1  0.41811012  0.58660914  0.74766635  1
  O  O37  1  0.43758583  0.70639853  0.24501591  1
  O  O38  1  0.56350883  0.30165048  0.75245315  1
  O  O39  1  0.58098546  0.41133104  0.25011861  1
  O  O40  1  0.56846058  0.79480621  0.75019975  1
  O  O41  1  0.58398573  0.91676643  0.25173555  1
  O  O42  1  0.69351487  0.09272754  0.93895073  1
  O  O43  1  0.68449668  0.09059082  0.56301955  1
  O  O44  1  0.69160444  0.58454212  0.56146006  1
  O  O45  1  0.69217119  0.58397653  0.93747979  1
  O  O46  1  0.84759472  0.24322054  0.25457535  1
  O  O47  1  0.89588352  0.31528445  0.75198767  1
  O  O48  1  0.84329596  0.74349145  0.24944290  1
  O  O49  1  0.92584865  0.02366625  0.24960180  1
  O  O50  1  0.88880642  0.82634681  0.74869986  1
  O  O51  1  0.92199421  0.52419635  0.24996561  1
