# generated using pymatgen
data_Li2VSiO5
_symmetry_space_group_name_H-M   'P 1'
_cell_length_a   13.22977949
_cell_length_b   12.69450943
_cell_length_c   5.06846364
_cell_angle_alpha   90.00000000
_cell_angle_beta   90.00000000
_cell_angle_gamma   60.70430340
_symmetry_Int_Tables_number   1
_chemical_formula_structural   Li2VSiO5
_chemical_formula_sum   'Li16 V8 Si8 O40'
_cell_volume   742.35929538
_cell_formula_units_Z   8
loop_
 _symmetry_equiv_pos_site_id
 _symmetry_equiv_pos_as_xyz
  1  'x, y, z'
loop_
 _atom_site_type_symbol
 _atom_site_label
 _atom_site_symmetry_multiplicity
 _atom_site_fract_x
 _atom_site_fract_y
 _atom_site_fract_z
 _atom_site_occupancy
  Li  Li0  1  0.32848094  0.82394231  0.72427828  1
  Li  Li1  1  0.08603991  0.56832066  0.77204819  1
  Li  Li2  1  0.17385786  0.64970336  0.20675626  1
  Li  Li3  1  0.58412699  0.84526226  0.72133027  1
  Li  Li4  1  0.41587301  0.65473774  0.22133027  1
  Li  Li5  1  0.82614214  0.85029664  0.70675526  1
  Li  Li6  1  0.32848094  0.32394231  0.77572172  1
  Li  Li7  1  0.08603991  0.06832066  0.72795181  1
  Li  Li8  1  0.91396009  0.93167934  0.27204819  1
  Li  Li9  1  0.67151906  0.67605769  0.22427828  1
  Li  Li10  1  0.17385786  0.14970336  0.29324374  1
  Li  Li11  1  0.58412699  0.34526226  0.77866973  1
  Li  Li12  1  0.41587301  0.15473774  0.27866973  1
  Li  Li13  1  0.82614214  0.35029664  0.79324474  1
  Li  Li14  1  0.91396009  0.43167934  0.22795181  1
  Li  Li15  1  0.67151906  0.17605769  0.27572172  1
  V  V16  1  0.06213942  0.80841918  0.73613095  1
  V  V17  1  0.43739855  0.87076562  0.26750987  1
  V  V18  1  0.06213942  0.30841918  0.76386905  1
  V  V19  1  0.56260145  0.62923438  0.76750987  1
  V  V20  1  0.43739855  0.37076562  0.23249013  1
  V  V21  1  0.93786058  0.69158082  0.23613095  1
  V  V22  1  0.56260145  0.12923438  0.73249013  1
  V  V23  1  0.93786058  0.19158082  0.26386905  1
  Si  Si24  1  0.16157945  0.90458138  0.22386100  1
  Si  Si25  1  0.66141237  0.93009622  0.21899933  1
  Si  Si26  1  0.16157945  0.40458138  0.27613900  1
  Si  Si27  1  0.33858763  0.56990378  0.71899933  1
  Si  Si28  1  0.66141237  0.43009622  0.28100067  1
  Si  Si29  1  0.83842055  0.59541862  0.72386100  1
  Si  Si30  1  0.33858763  0.06990378  0.78100067  1
  Si  Si31  1  0.83842055  0.09541862  0.77613900  1
  O  O32  1  0.13586994  0.90202212  0.90383685  1
  O  O33  1  0.00125049  0.78347820  0.02520401  1
  O  O34  1  0.11966747  0.82220621  0.39421852  1
  O  O35  1  0.39242219  0.94389595  0.61159589  1
  O  O36  1  0.30077177  0.84249803  0.27924926  1
  O  O37  1  0.09474487  0.54378113  0.16345622  1
  O  O38  1  0.20091062  0.64455246  0.79660790  1
  O  O39  1  0.64242261  0.95991234  0.89833647  1
  O  O40  1  0.48843896  0.78576758  0.97568093  1
  O  O41  1  0.13586994  0.40202212  0.59616315  1
  O  O42  1  0.00125049  0.28347820  0.47479599  1
  O  O43  1  0.59782232  0.85405463  0.31778371  1
  O  O44  1  0.40217768  0.64594537  0.81778371  1
  O  O45  1  0.11966747  0.32220621  0.10578148  1
  O  O46  1  0.51156104  0.71423242  0.47568093  1
  O  O47  1  0.35757739  0.54008766  0.39833647  1
  O  O48  1  0.39242219  0.44389595  0.88840411  1
  O  O49  1  0.30077177  0.34249803  0.22075074  1
  O  O50  1  0.79908938  0.85544754  0.29660790  1
  O  O51  1  0.90525513  0.95621887  0.66345622  1
  O  O52  1  0.09474487  0.04378113  0.33654378  1
  O  O53  1  0.20091062  0.14455246  0.70339210  1
  O  O54  1  0.69922823  0.65750197  0.77924926  1
  O  O55  1  0.60757781  0.55610405  0.11159589  1
  O  O56  1  0.64242261  0.45991234  0.60166353  1
  O  O57  1  0.48843896  0.28576758  0.52431907  1
  O  O58  1  0.88033253  0.67779379  0.89421852  1
  O  O59  1  0.59782232  0.35405463  0.18221629  1
  O  O60  1  0.40217768  0.14594537  0.68221629  1
  O  O61  1  0.99874951  0.71652180  0.52520401  1
  O  O62  1  0.86413006  0.59797788  0.40383685  1
  O  O63  1  0.51156104  0.21423242  0.02431907  1
  O  O64  1  0.35757739  0.04008766  0.10166353  1
  O  O65  1  0.79908938  0.35544754  0.20339210  1
  O  O66  1  0.90525513  0.45621887  0.83654378  1
  O  O67  1  0.69922823  0.15750197  0.72075074  1
  O  O68  1  0.60757781  0.05610405  0.38840411  1
  O  O69  1  0.88033253  0.17779379  0.60578148  1
  O  O70  1  0.99874951  0.21652180  0.97479599  1
  O  O71  1  0.86413006  0.09797788  0.09616315  1
