# generated using pymatgen
data_W5O12F
_symmetry_space_group_name_H-M   'P 1'
_cell_length_a   6.41477692
_cell_length_b   18.17149751
_cell_length_c   3.87469283
_cell_angle_alpha   90.00000665
_cell_angle_beta   90.00001291
_cell_angle_gamma   90.00208218
_symmetry_Int_Tables_number   1
_chemical_formula_structural   W5O12F
_chemical_formula_sum   'W10 O24 F2'
_cell_volume   451.65784270
_cell_formula_units_Z   2
loop_
 _symmetry_equiv_pos_site_id
 _symmetry_equiv_pos_as_xyz
  1  'x, y, z'
loop_
 _atom_site_type_symbol
 _atom_site_label
 _atom_site_symmetry_multiplicity
 _atom_site_fract_x
 _atom_site_fract_y
 _atom_site_fract_z
 _atom_site_occupancy
  W  W0  1  0.23230968  0.64828326  0.99999953  1
  W  W1  1  0.23232832  0.85171557  0.99999952  1
  W  W2  1  0.22102073  0.25000271  0.00000003  1
  W  W3  1  0.30327379  0.06184879  0.99999988  1
  W  W4  1  0.30326893  0.43815310  0.00000004  1
  W  W5  1  0.69673185  0.56184675  0.00000014  1
  W  W6  1  0.69672575  0.93815101  0.00000015  1
  W  W7  1  0.77897852  0.74999693  0.99999948  1
  W  W8  1  0.76768959  0.35171633  0.00000027  1
  W  W9  1  0.76767265  0.14828466  0.00000043  1
  O  O10  1  0.08977152  0.14009132  0.99999983  1
  O  O11  1  0.08976906  0.35991942  0.00000046  1
  O  O12  1  0.10921468  0.74999907  -0.00000008  1
  O  O13  1  0.22758335  0.64717153  0.49999967  1
  O  O14  1  0.22756516  0.85282777  0.49999956  1
  O  O15  1  0.22229133  0.24999960  0.50000006  1
  O  O16  1  0.29888757  0.05947743  0.49999980  1
  O  O17  1  0.29888997  0.44052514  0.50000015  1
  O  O18  1  0.37528984  0.54750851  0.99999995  1
  O  O19  1  0.37528544  0.95249400  0.00000003  1
  O  O20  1  0.45300737  0.16855735  0.99999957  1
  O  O21  1  0.45297095  0.33143126  0.99999971  1
  O  O22  1  0.54703061  0.66857002  0.99999982  1
  O  O23  1  0.54699080  0.83144299  0.99999994  1
  O  O24  1  0.62471573  0.04750614  0.00000008  1
  O  O25  1  0.62471192  0.45249137  0.00000028  1
  O  O26  1  0.70110994  0.55947523  0.50000007  1
  O  O27  1  0.70111271  0.94052244  0.50000011  1
  O  O28  1  0.77770876  0.75000037  0.49999961  1
  O  O29  1  0.77241646  0.35282847  0.50000027  1
  O  O30  1  0.77243249  0.14717256  0.50000030  1
  O  O31  1  0.89078452  0.25000091  0.00000088  1
  O  O32  1  0.91023125  0.64007992  0.99999998  1
  O  O33  1  0.91022750  0.85990807  0.99999995  1
  F  F34  1  0.00000065  0.00000006  0.00000055  1
  F  F35  1  0.00000060  0.49999995  0.00000000  1
