# generated using pymatgen
data_Li3FePCO7
_symmetry_space_group_name_H-M   'P 1'
_cell_length_a   8.57823238
_cell_length_b   9.77688834
_cell_length_c   6.44075556
_cell_angle_alpha   90.00000000
_cell_angle_beta   90.00000000
_cell_angle_gamma   84.96403284
_symmetry_Int_Tables_number   1
_chemical_formula_structural   Li3FePCO7
_chemical_formula_sum   'Li12 Fe4 P4 C4 O28'
_cell_volume   538.09080096
_cell_formula_units_Z   4
loop_
 _symmetry_equiv_pos_site_id
 _symmetry_equiv_pos_as_xyz
  1  'x, y, z'
loop_
 _atom_site_type_symbol
 _atom_site_label
 _atom_site_symmetry_multiplicity
 _atom_site_fract_x
 _atom_site_fract_y
 _atom_site_fract_z
 _atom_site_occupancy
  Li  Li0  1  0.10303135  0.38675899  0.25042872  1
  Li  Li1  1  0.10303135  0.88675899  0.24957128  1
  Li  Li2  1  0.28576692  0.11760719  0.01375500  1
  Li  Li3  1  0.28576692  0.61760719  0.48624500  1
  Li  Li4  1  0.35370829  0.39088961  0.74410288  1
  Li  Li5  1  0.35370829  0.89088961  0.75589712  1
  Li  Li6  1  0.64629171  0.10911039  0.24410288  1
  Li  Li7  1  0.64629171  0.60911039  0.25589712  1
  Li  Li8  1  0.71423308  0.38239281  0.51375500  1
  Li  Li9  1  0.71423308  0.88239281  0.98624500  1
  Li  Li10  1  0.89696865  0.11324101  0.75042872  1
  Li  Li11  1  0.89696865  0.61324101  0.74957128  1
  Fe  Fe12  1  0.26660398  0.12877217  0.50061212  1
  Fe  Fe13  1  0.26660398  0.62877217  0.99938788  1
  Fe  Fe14  1  0.73339602  0.37122783  0.00061212  1
  Fe  Fe15  1  0.73339602  0.87122783  0.49938788  1
  P  P16  1  0.40802010  0.36020023  0.25180573  1
  P  P17  1  0.40802010  0.86020023  0.24819427  1
  P  P18  1  0.59197990  0.13979977  0.75180573  1
  P  P19  1  0.59197990  0.63979977  0.74819427  1
  C  C20  1  0.04104697  0.35086992  0.74614779  1
  C  C21  1  0.04104697  0.85086992  0.75385221  1
  C  C22  1  0.95895303  0.14913008  0.24614779  1
  C  C23  1  0.95895303  0.64913008  0.25385221  1
  O  O24  1  0.07036191  0.47659942  0.75685481  1
  O  O25  1  0.10469089  0.18329405  0.25374055  1
  O  O26  1  0.07036191  0.97659942  0.74314519  1
  O  O27  1  0.15291250  0.25214967  0.73008422  1
  O  O28  1  0.10469089  0.68329405  0.24625945  1
  O  O29  1  0.15291250  0.75214967  0.76991578  1
  O  O30  1  0.31281323  0.41834766  0.05824502  1
  O  O31  1  0.30764833  0.41143753  0.43994403  1
  O  O32  1  0.30764833  0.91143753  0.06005597  1
  O  O33  1  0.31281323  0.91834766  0.44175498  1
  O  O34  1  0.42438342  0.09182124  0.75529949  1
  O  O35  1  0.42013218  0.19970781  0.24751161  1
  O  O36  1  0.42438342  0.59182124  0.74470051  1
  O  O37  1  0.42013218  0.69970781  0.25248839  1
  O  O38  1  0.57986782  0.30029219  0.74751161  1
  O  O39  1  0.57561658  0.40817876  0.25529949  1
  O  O40  1  0.57986782  0.80029219  0.75248839  1
  O  O41  1  0.57561658  0.90817876  0.24470051  1
  O  O42  1  0.69235167  0.08856247  0.93994403  1
  O  O43  1  0.68718677  0.08165234  0.55824502  1
  O  O44  1  0.69235167  0.58856247  0.56005597  1
  O  O45  1  0.68718677  0.58165234  0.94175498  1
  O  O46  1  0.84708750  0.24785033  0.23008422  1
  O  O47  1  0.89530911  0.31670595  0.75374055  1
  O  O48  1  0.84708750  0.74785033  0.26991578  1
  O  O49  1  0.92963809  0.02340058  0.25685481  1
  O  O50  1  0.89530911  0.81670595  0.74625945  1
  O  O51  1  0.92963809  0.52340058  0.24314519  1
