# generated using pymatgen
data_Li3CoPCO7
_symmetry_space_group_name_H-M   'P 1'
_cell_length_a   8.46663654
_cell_length_b   9.93353458
_cell_length_c   6.44108776
_cell_angle_alpha   89.74123784
_cell_angle_beta   90.44556894
_cell_angle_gamma   84.50001839
_symmetry_Int_Tables_number   1
_chemical_formula_structural   Li3CoPCO7
_chemical_formula_sum   'Li12 Co4 P4 C4 O28'
_cell_volume   539.20105343
_cell_formula_units_Z   4
loop_
 _symmetry_equiv_pos_site_id
 _symmetry_equiv_pos_as_xyz
  1  'x, y, z'
loop_
 _atom_site_type_symbol
 _atom_site_label
 _atom_site_symmetry_multiplicity
 _atom_site_fract_x
 _atom_site_fract_y
 _atom_site_fract_z
 _atom_site_occupancy
  Li  Li0  1  0.10594547  0.39319410  0.25812645  1
  Li  Li1  1  0.10090757  0.88128002  0.25507770  1
  Li  Li2  1  0.27629940  0.13711452  0.49143213  1
  Li  Li3  1  0.27337961  0.61356903  0.00211500  1
  Li  Li4  1  0.27629007  0.60975471  0.48898165  1
  Li  Li5  1  0.34884021  0.39846887  0.74778104  1
  Li  Li6  1  0.71783113  0.37502200  0.52725587  1
  Li  Li7  1  0.71633156  0.37630312  0.97177134  1
  Li  Li8  1  0.72259657  0.87140816  0.52359688  1
  Li  Li9  1  0.72542370  0.87146926  0.98121870  1
  Li  Li10  1  0.89984158  0.11461820  0.74919962  1
  Li  Li11  1  0.89650982  0.61034500  0.74972476  1
  Co  Co12  1  0.26953964  0.14362998  0.00418967  1
  Co  Co13  1  0.33278605  0.89380901  0.74720266  1
  Co  Co14  1  0.66910742  0.10326441  0.24920487  1
  Co  Co15  1  0.66827594  0.60411483  0.24852017  1
  P  P16  1  0.40951312  0.36215970  0.24747734  1
  P  P17  1  0.41373224  0.86542170  0.24896320  1
  P  P18  1  0.59095878  0.14074237  0.75141689  1
  P  P19  1  0.58426091  0.63935716  0.74851756  1
  C  C20  1  0.03739816  0.34764658  0.75761080  1
  C  C21  1  0.03859390  0.84805802  0.75313963  1
  C  C22  1  0.96162945  0.15132603  0.24920890  1
  C  C23  1  0.96154947  0.65062417  0.25091631  1
  O  O24  1  0.06936444  0.47044460  0.74953926  1
  O  O25  1  0.10677206  0.18869199  0.24400554  1
  O  O26  1  0.07078219  0.97295086  0.74700294  1
  O  O27  1  0.15328782  0.24811811  0.76345830  1
  O  O28  1  0.10736053  0.68069880  0.25382226  1
  O  O29  1  0.15826727  0.75491304  0.76001441  1
  O  O30  1  0.30644063  0.41114791  0.05806244  1
  O  O31  1  0.31004917  0.40510718  0.43984181  1
  O  O32  1  0.30931930  0.92677136  0.06082474  1
  O  O33  1  0.30879622  0.91719952  0.43527233  1
  O  O34  1  0.42242941  0.08888674  0.75285755  1
  O  O35  1  0.43192190  0.20083247  0.23741300  1
  O  O36  1  0.42097050  0.58665867  0.74566760  1
  O  O37  1  0.43204094  0.70886431  0.23936668  1
  O  O38  1  0.57224705  0.29601964  0.75099926  1
  O  O39  1  0.57690880  0.41243922  0.24968369  1
  O  O40  1  0.56644066  0.79798974  0.75008318  1
  O  O41  1  0.58018289  0.91616418  0.25096176  1
  O  O42  1  0.69504107  0.08313649  0.93813703  1
  O  O43  1  0.68844135  0.08296655  0.56247734  1
  O  O44  1  0.69101615  0.58862779  0.56184354  1
  O  O45  1  0.69120419  0.58623566  0.93628330  1
  O  O46  1  0.84209099  0.24305976  0.25886107  1
  O  O47  1  0.89164945  0.31498554  0.75425448  1
  O  O48  1  0.84379487  0.74629212  0.24772750  1
  O  O49  1  0.93504006  0.02622302  0.24634336  1
  O  O50  1  0.89406838  0.81510970  0.75097510  1
  O  O51  1  0.92653394  0.52676608  0.25157039  1
