# generated using pymatgen
data_Li3FePCO7
_symmetry_space_group_name_H-M   'P 1'
_cell_length_a   9.47963972
_cell_length_b   9.78306224
_cell_length_c   6.44038010
_cell_angle_alpha   90.00000000
_cell_angle_beta   90.00000000
_cell_angle_gamma   64.02052395
_symmetry_Int_Tables_number   1
_chemical_formula_structural   Li3FePCO7
_chemical_formula_sum   'Li12 Fe4 P4 C4 O28'
_cell_volume   536.92568077
_cell_formula_units_Z   4
loop_
 _symmetry_equiv_pos_site_id
 _symmetry_equiv_pos_as_xyz
  1  'x, y, z'
loop_
 _atom_site_type_symbol
 _atom_site_label
 _atom_site_symmetry_multiplicity
 _atom_site_fract_x
 _atom_site_fract_y
 _atom_site_fract_z
 _atom_site_occupancy
  Li  Li0  1  0.89890778  0.43575524  0.75132213  1
  Li  Li1  1  0.89890778  0.93575524  0.74867787  1
  Li  Li2  1  0.71565096  0.25984981  0.51340593  1
  Li  Li3  1  0.71565096  0.75984981  0.98659407  1
  Li  Li4  1  0.64861178  0.06646706  0.25420633  1
  Li  Li5  1  0.64861178  0.56646706  0.24579367  1
  Li  Li6  1  0.35138822  0.43353294  0.75420633  1
  Li  Li7  1  0.35138822  0.93353294  0.74579367  1
  Li  Li8  1  0.28434904  0.24015019  0.01340593  1
  Li  Li9  1  0.28434904  0.74015019  0.48659407  1
  Li  Li10  1  0.10109222  0.06424476  0.25132213  1
  Li  Li11  1  0.10109222  0.56424476  0.24867787  1
  Fe  Fe12  1  0.73255669  0.26237404  0.00026203  1
  Fe  Fe13  1  0.73255669  0.76237404  0.49973797  1
  Fe  Fe14  1  0.26744331  0.23762596  0.50026203  1
  Fe  Fe15  1  0.26744331  0.73762596  0.99973797  1
  P  P16  1  0.59143896  0.06431532  0.74914950  1
  P  P17  1  0.59143896  0.56431532  0.75085050  1
  P  P18  1  0.40856104  0.43568468  0.24914950  1
  P  P19  1  0.40856104  0.93568468  0.25085050  1
  C  C20  1  0.95925046  0.37151643  0.24686770  1
  C  C21  1  0.95925046  0.87151643  0.25313230  1
  C  C22  1  0.04074954  0.12848357  0.74686770  1
  C  C23  1  0.04074954  0.62848357  0.75313230  1
  O  O24  1  0.92879202  0.01214575  0.24248753  1
  O  O25  1  0.92879202  0.51214575  0.25751247  1
  O  O26  1  0.89414243  0.23490977  0.75307006  1
  O  O27  1  0.84819908  0.32780709  0.23185995  1
  O  O28  1  0.89414243  0.73490977  0.74692994  1
  O  O29  1  0.84819908  0.82780709  0.26814005  1
  O  O30  1  0.68794401  0.07384738  0.94142830  1
  O  O31  1  0.69109969  0.06527960  0.55959246  1
  O  O32  1  0.69109969  0.56527960  0.94040754  1
  O  O33  1  0.68794401  0.57384738  0.55857170  1
  O  O34  1  0.57631354  0.30298973  0.25276794  1
  O  O35  1  0.57844629  0.41047562  0.74849703  1
  O  O36  1  0.57631354  0.80298973  0.24723206  1
  O  O37  1  0.57844629  0.91047562  0.75150297  1
  O  O38  1  0.42155371  0.08952438  0.24849703  1
  O  O39  1  0.42368646  0.19701027  0.75276794  1
  O  O40  1  0.42155371  0.58952438  0.25150297  1
  O  O41  1  0.42368646  0.69701027  0.74723206  1
  O  O42  1  0.30890031  0.43472040  0.05959246  1
  O  O43  1  0.31205599  0.42615262  0.44142830  1
  O  O44  1  0.31205599  0.92615262  0.05857170  1
  O  O45  1  0.30890031  0.93472040  0.44040754  1
  O  O46  1  0.15180092  0.17219291  0.73185995  1
  O  O47  1  0.10585757  0.26509023  0.25307006  1
  O  O48  1  0.15180092  0.67219291  0.76814005  1
  O  O49  1  0.10585757  0.76509023  0.24692994  1
  O  O50  1  0.07120798  0.48785425  0.74248753  1
  O  O51  1  0.07120798  0.98785425  0.75751247  1
