# generated using pymatgen
data_Li2Fe(SiO3)2
_symmetry_space_group_name_H-M   'P 1'
_cell_length_a   5.63109233
_cell_length_b   5.63109233
_cell_length_c   9.45690292
_cell_angle_alpha   91.01571031
_cell_angle_beta   88.98428969
_cell_angle_gamma   63.05433546
_symmetry_Int_Tables_number   1
_chemical_formula_structural   Li2Fe(SiO3)2
_chemical_formula_sum   'Li4 Fe2 Si4 O12'
_cell_volume   267.16220600
_cell_formula_units_Z   2
loop_
 _symmetry_equiv_pos_site_id
 _symmetry_equiv_pos_as_xyz
  1  'x, y, z'
loop_
 _atom_site_type_symbol
 _atom_site_label
 _atom_site_symmetry_multiplicity
 _atom_site_fract_x
 _atom_site_fract_y
 _atom_site_fract_z
 _atom_site_occupancy
  Li  Li0  1  0.61311576  0.74518018  0.88286381  1
  Li  Li1  1  0.25481982  0.38688424  0.38286381  1
  Li  Li2  1  0.74518018  0.61311576  0.61713619  1
  Li  Li3  1  0.38688424  0.25481982  0.11713619  1
  Fe  Fe4  1  0.26034315  0.26034315  0.75000000  1
  Fe  Fe5  1  0.73965685  0.73965685  0.25000000  1
  Si  Si6  1  0.14219736  0.80610503  0.63128763  1
  Si  Si7  1  0.19389497  0.85780264  0.13128763  1
  Si  Si8  1  0.80610503  0.14219736  0.86871237  1
  Si  Si9  1  0.85780264  0.19389497  0.36871237  1
  O  O10  1  0.38071139  0.85901966  0.69556085  1
  O  O11  1  0.14098034  0.61928861  0.19556085  1
  O  O12  1  0.22101249  0.49868396  0.58632332  1
  O  O13  1  0.50131604  0.77898751  0.08632332  1
  O  O14  1  0.89054801  0.89054801  0.75000000  1
  O  O15  1  0.00000000  0.00000000  0.50000000  1
  O  O16  1  0.10945199  0.10945199  0.25000000  1
  O  O17  1  0.00000000  0.00000000  0.00000000  1
  O  O18  1  0.49868396  0.22101249  0.91367668  1
  O  O19  1  0.77898751  0.50131604  0.41367668  1
  O  O20  1  0.85901966  0.38071139  0.80443915  1
  O  O21  1  0.61928861  0.14098034  0.30443915  1
