# generated using pymatgen
data_Li3CoPCO7
_symmetry_space_group_name_H-M   'P 1'
_cell_length_a   8.43134562
_cell_length_b   9.98311737
_cell_length_c   6.44998688
_cell_angle_alpha   90.24208104
_cell_angle_beta   90.12256174
_cell_angle_gamma   85.29959887
_symmetry_Int_Tables_number   1
_chemical_formula_structural   Li3CoPCO7
_chemical_formula_sum   'Li12 Co4 P4 C4 O28'
_cell_volume   541.07098625
_cell_formula_units_Z   4
loop_
 _symmetry_equiv_pos_site_id
 _symmetry_equiv_pos_as_xyz
  1  'x, y, z'
loop_
 _atom_site_type_symbol
 _atom_site_label
 _atom_site_symmetry_multiplicity
 _atom_site_fract_x
 _atom_site_fract_y
 _atom_site_fract_z
 _atom_site_occupancy
  Li  Li0  1  0.09786772  0.38701433  0.25144746  1
  Li  Li1  1  0.09753229  0.87858605  0.25638114  1
  Li  Li2  1  0.27659817  0.11055624  0.49473553  1
  Li  Li3  1  0.27434017  0.63473176  0.01337173  1
  Li  Li4  1  0.27455575  0.63521559  0.48572940  1
  Li  Li5  1  0.34214652  0.88087452  0.74308421  1
  Li  Li6  1  0.72219968  0.37958542  0.52414381  1
  Li  Li7  1  0.72136079  0.38089363  0.97411164  1
  Li  Li8  1  0.72102209  0.87181884  0.53002445  1
  Li  Li9  1  0.72171314  0.87196548  0.97111378  1
  Li  Li10  1  0.89842523  0.11268439  0.74966004  1
  Li  Li11  1  0.90972943  0.62358346  0.74929584  1
  Co  Co12  1  0.27212164  0.11188880  0.00520568  1
  Co  Co13  1  0.33344515  0.40023861  0.74877324  1
  Co  Co14  1  0.66729079  0.10232435  0.25003344  1
  Co  Co15  1  0.66652052  0.60599660  0.24908941  1
  P  P16  1  0.41148084  0.35985865  0.24736036  1
  P  P17  1  0.41306795  0.86302944  0.25386484  1
  P  P18  1  0.58553927  0.14345057  0.75277316  1
  P  P19  1  0.58786449  0.64017029  0.74955560  1
  C  C20  1  0.03732919  0.35007989  0.75344038  1
  C  C21  1  0.03856781  0.85407019  0.75363479  1
  C  C22  1  0.96383029  0.14703657  0.24507160  1
  C  C23  1  0.96284727  0.64872580  0.25006633  1
  O  O24  1  0.07175114  0.47323793  0.74908397  1
  O  O25  1  0.11155286  0.18036151  0.23191652  1
  O  O26  1  0.07174733  0.97817482  0.75833524  1
  O  O27  1  0.15675119  0.25626934  0.75726858  1
  O  O28  1  0.10946522  0.67870433  0.25018117  1
  O  O29  1  0.14915735  0.75642157  0.75208000  1
  O  O30  1  0.30762660  0.41381958  0.06157411  1
  O  O31  1  0.30843221  0.40999216  0.43646879  1
  O  O32  1  0.31279682  0.91414846  0.06050912  1
  O  O33  1  0.31047447  0.91325854  0.43966048  1
  O  O34  1  0.41809356  0.09054889  0.75629703  1
  O  O35  1  0.42893789  0.20142153  0.24038210  1
  O  O36  1  0.41938686  0.58841405  0.74950445  1
  O  O37  1  0.43308404  0.70599024  0.24777516  1
  O  O38  1  0.56788401  0.30004078  0.75142522  1
  O  O39  1  0.57961277  0.40977236  0.24935935  1
  O  O40  1  0.57105003  0.79479831  0.74995733  1
  O  O41  1  0.58180360  0.91443482  0.25033584  1
  O  O42  1  0.69184107  0.09127014  0.93801654  1
  O  O43  1  0.68440130  0.08882475  0.56292870  1
  O  O44  1  0.69010051  0.58469692  0.56142690  1
  O  O45  1  0.69128636  0.58515421  0.93688796  1
  O  O46  1  0.84953577  0.24173427  0.25836806  1
  O  O47  1  0.89269643  0.31621841  0.75190522  1
  O  O48  1  0.84698815  0.74373945  0.25105710  1
  O  O49  1  0.93125304  0.02392021  0.24689377  1
  O  O50  1  0.88904092  0.82485884  0.74927520  1
  O  O51  1  0.92585230  0.52539610  0.24915726  1
