# generated using pymatgen
data_Li3NiPCO7
_symmetry_space_group_name_H-M   'P 1'
_cell_length_a   8.35024837
_cell_length_b   4.94520082
_cell_length_c   12.83559310
_cell_angle_alpha   89.89959255
_cell_angle_beta   90.41331392
_cell_angle_gamma   85.20171854
_symmetry_Int_Tables_number   1
_chemical_formula_structural   Li3NiPCO7
_chemical_formula_sum   'Li12 Ni4 P4 C4 O28'
_cell_volume   528.15578117
_cell_formula_units_Z   4
loop_
 _symmetry_equiv_pos_site_id
 _symmetry_equiv_pos_as_xyz
  1  'x, y, z'
loop_
 _atom_site_type_symbol
 _atom_site_label
 _atom_site_symmetry_multiplicity
 _atom_site_fract_x
 _atom_site_fract_y
 _atom_site_fract_z
 _atom_site_occupancy
  Li  Li0  1  0.09745568  0.76453235  0.12448254  1
  Li  Li1  1  0.10147244  0.76863136  0.62879519  1
  Li  Li2  1  0.27903442  0.24604238  0.51347766  1
  Li  Li3  1  0.27275798  0.24886178  0.24736428  1
  Li  Li4  1  0.28038041  0.23447574  0.74080756  1
  Li  Li5  1  0.34775913  0.78102370  0.86905181  1
  Li  Li6  1  0.71879492  0.75647015  0.98204856  1
  Li  Li7  1  0.72062624  0.75399523  0.26321821  1
  Li  Li8  1  0.72384240  0.75109412  0.49410047  1
  Li  Li9  1  0.71997779  0.75370584  0.76180408  1
  Li  Li10  1  0.90118869  0.23356478  0.37820072  1
  Li  Li11  1  0.90122717  0.23322622  0.87133769  1
  Ni  Ni12  1  0.26621832  0.24827737  0.99643559  1
  Ni  Ni13  1  0.33260707  0.79103447  0.37589192  1
  Ni  Ni14  1  0.66697803  0.20630883  0.12416650  1
  Ni  Ni15  1  0.66641248  0.20722580  0.62537818  1
  P  P16  1  0.41272320  0.72847380  0.12357343  1
  P  P17  1  0.41327795  0.72256858  0.62531350  1
  P  P18  1  0.58546080  0.27947934  0.37406953  1
  P  P19  1  0.58725843  0.28529908  0.87669555  1
  C  C20  1  0.03918480  0.70252928  0.37341164  1
  C  C21  1  0.04080040  0.70445669  0.88281150  1
  C  C22  1  0.95915947  0.29693834  0.62476148  1
  C  C23  1  0.96133866  0.29382658  0.12273452  1
  O  O24  1  0.07309776  0.95336438  0.88126802  1
  O  O25  1  0.07650586  0.95121609  0.37337145  1
  O  O26  1  0.11144009  0.35418231  0.11796352  1
  O  O27  1  0.10656610  0.35954763  0.62529896  1
  O  O28  1  0.15607414  0.51092261  0.37242837  1
  O  O29  1  0.15665722  0.51049395  0.88972150  1
  O  O30  1  0.30785206  0.82544865  0.53019272  1
  O  O31  1  0.30905611  0.84780828  0.03166311  1
  O  O32  1  0.30892528  0.81523472  0.21953102  1
  O  O33  1  0.30955033  0.82114448  0.71850475  1
  O  O34  1  0.41818592  0.16970399  0.37369750  1
  O  O35  1  0.41852033  0.17687028  0.87649692  1
  O  O36  1  0.43841283  0.40558470  0.62354308  1
  O  O37  1  0.43066171  0.40923268  0.11404202  1
  O  O38  1  0.56171331  0.59532802  0.37351206  1
  O  O39  1  0.57058303  0.59758971  0.87732665  1
  O  O40  1  0.58264465  0.82607091  0.12760195  1
  O  O41  1  0.58119865  0.83168549  0.62411490  1
  O  O42  1  0.69219878  0.17599459  0.46753469  1
  O  O43  1  0.68992787  0.17801441  0.27999513  1
  O  O44  1  0.68779224  0.17247955  0.78261383  1
  O  O45  1  0.69337666  0.17298991  0.97010797  1
  O  O46  1  0.84833357  0.48733925  0.12653679  1
  O  O47  1  0.84121985  0.48646144  0.62411718  1
  O  O48  1  0.89162779  0.64155815  0.37453338  1
  O  O49  1  0.89390470  0.63773609  0.87423664  1
  O  O50  1  0.92513172  0.04650487  0.12497656  1
  O  O51  1  0.92290061  0.04744907  0.62513823  1
