# generated using pymatgen
data_Li3FePCO7
_symmetry_space_group_name_H-M   'P 1'
_cell_length_a   8.55555879
_cell_length_b   9.78586546
_cell_length_c   6.44485424
_cell_angle_alpha   90.00000000
_cell_angle_beta   90.00000000
_cell_angle_gamma   85.04269499
_symmetry_Int_Tables_number   1
_chemical_formula_structural   Li3FePCO7
_chemical_formula_sum   'Li12 Fe4 P4 C4 O28'
_cell_volume   537.56766527
_cell_formula_units_Z   4
loop_
 _symmetry_equiv_pos_site_id
 _symmetry_equiv_pos_as_xyz
  1  'x, y, z'
loop_
 _atom_site_type_symbol
 _atom_site_label
 _atom_site_symmetry_multiplicity
 _atom_site_fract_x
 _atom_site_fract_y
 _atom_site_fract_z
 _atom_site_occupancy
  Li  Li0  1  0.10111860  0.38512306  0.24907010  1
  Li  Li1  1  0.10111860  0.88512306  0.25092990  1
  Li  Li2  1  0.28331286  0.11762350  0.48681326  1
  Li  Li3  1  0.28331286  0.61762350  0.01318674  1
  Li  Li4  1  0.35126299  0.39068151  0.75361317  1
  Li  Li5  1  0.35126299  0.89068151  0.74638683  1
  Li  Li6  1  0.64873701  0.10931849  0.24638683  1
  Li  Li7  1  0.64873701  0.60931849  0.25361317  1
  Li  Li8  1  0.71668714  0.38237650  0.51318674  1
  Li  Li9  1  0.71668714  0.88237650  0.98681326  1
  Li  Li10  1  0.89888140  0.11487694  0.75092990  1
  Li  Li11  1  0.89888140  0.61487694  0.74907010  1
  Fe  Fe12  1  0.26826957  0.12903482  0.99891403  1
  Fe  Fe13  1  0.26826957  0.62903482  0.50108597  1
  Fe  Fe14  1  0.73173043  0.37096518  0.00108597  1
  Fe  Fe15  1  0.73173043  0.87096518  0.49891403  1
  P  P16  1  0.40844237  0.36007954  0.24887098  1
  P  P17  1  0.40844237  0.86007954  0.25112902  1
  P  P18  1  0.59155763  0.13992046  0.75112902  1
  P  P19  1  0.59155763  0.63992046  0.74887098  1
  C  C20  1  0.04101700  0.35101207  0.75619621  1
  C  C21  1  0.04101700  0.85101207  0.74380379  1
  C  C22  1  0.95898300  0.14898793  0.24380379  1
  C  C23  1  0.95898300  0.64898793  0.25619621  1
  O  O24  1  0.07129527  0.47642734  0.74270515  1
  O  O25  1  0.10581086  0.18168160  0.24354890  1
  O  O26  1  0.07129527  0.97642734  0.75729485  1
  O  O27  1  0.15240961  0.25178855  0.76489076  1
  O  O28  1  0.10581086  0.68168160  0.25645110  1
  O  O29  1  0.15240961  0.75178855  0.73510924  1
  O  O30  1  0.30906858  0.41032593  0.05878954  1
  O  O31  1  0.31166089  0.41824886  0.44051882  1
  O  O32  1  0.31166089  0.91824886  0.05948118  1
  O  O33  1  0.30906858  0.91032593  0.44121046  1
  O  O34  1  0.42392713  0.09089854  0.74742220  1
  O  O35  1  0.42153688  0.19978209  0.25193263  1
  O  O36  1  0.42392713  0.59089854  0.75257780  1
  O  O37  1  0.42153688  0.69978209  0.24806737  1
  O  O38  1  0.57846312  0.30021791  0.74806737  1
  O  O39  1  0.57607287  0.40910146  0.25257780  1
  O  O40  1  0.57846312  0.80021791  0.75193263  1
  O  O41  1  0.57607287  0.90910146  0.24742220  1
  O  O42  1  0.69093142  0.08967407  0.94121046  1
  O  O43  1  0.68833911  0.08175114  0.55948118  1
  O  O44  1  0.69093142  0.58967407  0.55878954  1
  O  O45  1  0.68833911  0.58175114  0.94051882  1
  O  O46  1  0.84759039  0.24821145  0.23510924  1
  O  O47  1  0.89418914  0.31831840  0.75645110  1
  O  O48  1  0.84759039  0.74821145  0.26489076  1
  O  O49  1  0.92870473  0.02357266  0.25729485  1
  O  O50  1  0.89418914  0.81831840  0.74354890  1
  O  O51  1  0.92870473  0.52357266  0.24270515  1
