# generated using pymatgen
data_Ba2La2O5
_symmetry_space_group_name_H-M   'P 1'
_cell_length_a   6.67676451
_cell_length_b   17.44935638
_cell_length_c   6.60855015
_cell_angle_alpha   90.00000000
_cell_angle_beta   90.00000000
_cell_angle_gamma   90.00000000
_symmetry_Int_Tables_number   1
_chemical_formula_structural   Ba2La2O5
_chemical_formula_sum   'Ba8 La8 O20'
_cell_volume   769.93074375
_cell_formula_units_Z   4
loop_
 _symmetry_equiv_pos_site_id
 _symmetry_equiv_pos_as_xyz
  1  'x, y, z'
loop_
 _atom_site_type_symbol
 _atom_site_label
 _atom_site_symmetry_multiplicity
 _atom_site_fract_x
 _atom_site_fract_y
 _atom_site_fract_z
 _atom_site_occupancy
  Ba  Ba0  1  0.01969894  0.11020437  0.46555133  1
  Ba  Ba1  1  0.01969894  0.38979563  0.46555133  1
  Ba  Ba2  1  0.48030106  0.11020437  0.96555133  1
  Ba  Ba3  1  0.48030106  0.38979563  0.96555133  1
  Ba  Ba4  1  0.51969894  0.61020437  0.03444867  1
  Ba  Ba5  1  0.51969894  0.88979563  0.03444867  1
  Ba  Ba6  1  0.98030106  0.61020437  0.53444867  1
  Ba  Ba7  1  0.98030106  0.88979563  0.53444867  1
  La  La8  1  0.00000000  0.00000000  0.00000000  1
  La  La9  1  0.00000000  0.50000000  0.00000000  1
  La  La10  1  0.05176921  0.75000000  0.05084043  1
  La  La11  1  0.44823079  0.75000000  0.55084043  1
  La  La12  1  0.50000000  0.50000000  0.50000000  1
  La  La13  1  0.50000000  0.00000000  0.50000000  1
  La  La14  1  0.55176921  0.25000000  0.44915957  1
  La  La15  1  0.94823079  0.25000000  0.94915957  1
  O  O16  1  0.09300496  0.13966215  0.05197102  1
  O  O17  1  0.09300496  0.36033685  0.05197102  1
  O  O18  1  0.12865407  0.75000000  0.40464816  1
  O  O19  1  0.21278127  0.52325513  0.28806350  1
  O  O20  1  0.21278127  0.97674487  0.28806350  1
  O  O21  1  0.28721873  0.52325513  0.78806350  1
  O  O22  1  0.28721873  0.97674487  0.78806350  1
  O  O23  1  0.37134593  0.75000000  0.90464816  1
  O  O24  1  0.40699504  0.13966215  0.55197102  1
  O  O25  1  0.40699504  0.36033685  0.55197102  1
  O  O26  1  0.59300496  0.63966215  0.44802898  1
  O  O27  1  0.59300496  0.86033785  0.44802898  1
  O  O28  1  0.62865407  0.25000000  0.09535184  1
  O  O29  1  0.71278127  0.02325513  0.21193650  1
  O  O30  1  0.71278127  0.47674487  0.21193650  1
  O  O31  1  0.78721873  0.02325513  0.71193650  1
  O  O32  1  0.78721873  0.47674487  0.71193650  1
  O  O33  1  0.87134593  0.25000000  0.59535184  1
  O  O34  1  0.90699504  0.63966215  0.94802898  1
  O  O35  1  0.90699504  0.86033785  0.94802898  1
