# generated using pymatgen
data_Li6W2O9
_symmetry_space_group_name_H-M   'P 1'
_cell_length_a   6.66817157
_cell_length_b   8.32740661
_cell_length_c   6.66817157
_cell_angle_alpha   71.85428274
_cell_angle_beta   83.87383919
_cell_angle_gamma   71.85428274
_symmetry_Int_Tables_number   1
_chemical_formula_structural   Li6W2O9
_chemical_formula_sum   'Li12 W4 O18'
_cell_volume   334.34119601
_cell_formula_units_Z   2
loop_
 _symmetry_equiv_pos_site_id
 _symmetry_equiv_pos_as_xyz
  1  'x, y, z'
loop_
 _atom_site_type_symbol
 _atom_site_label
 _atom_site_symmetry_multiplicity
 _atom_site_fract_x
 _atom_site_fract_y
 _atom_site_fract_z
 _atom_site_occupancy
  Li  Li0  1  0.67864919  0.66607671  0.65053068  1
  Li  Li1  1  0.99362882  0.66869036  0.33103335  1
  Li  Li2  1  0.33480365  0.66123041  0.02384776  1
  Li  Li3  1  0.69051376  0.16123041  0.66813765  1
  Li  Li4  1  0.31719768  0.16607671  0.01198219  1
  Li  Li5  1  0.99770035  0.16869036  0.32696182  1
  Li  Li6  1  0.98801781  0.83392329  0.68280232  1
  Li  Li7  1  0.67303818  0.83130964  0.00229965  1
  Li  Li8  1  0.33186235  0.83876959  0.30948624  1
  Li  Li9  1  0.34946932  0.33392329  0.32135081  1
  Li  Li10  1  0.66896665  0.33130964  0.00637118  1
  Li  Li11  1  0.97615224  0.33876959  0.66519635  1
  W  W12  1  0.34347836  0.50000000  0.65652164  1
  W  W13  1  0.32318764  0.00000000  0.67681236  1
  W  W14  1  0.69638607  0.00000000  0.30361393  1
  W  W15  1  0.97028093  0.50000000  0.02971907  1
  O  O16  1  0.01120550  0.41754695  0.31838611  1
  O  O17  1  0.34881704  0.91897593  0.96716764  1
  O  O18  1  0.63383464  0.41897593  0.68215104  1
  O  O19  1  0.64177843  0.92929980  0.64774762  1
  O  O20  1  0.31441462  0.42929980  0.97511243  1
  O  O21  1  0.98505211  0.91754795  0.34453950  1
  O  O22  1  0.66373214  0.77463824  0.33647380  1
  O  O23  1  0.33333300  0.25000000  0.66666700  1
  O  O24  1  0.33333300  0.75000000  0.66666700  1
  O  O25  1  0.66352620  0.22536176  0.33626786  1
  O  O26  1  0.31784896  0.58102407  0.36616536  1
  O  O27  1  0.68161389  0.58245205  0.98879450  1
  O  O28  1  0.35225238  0.07070020  0.35822157  1
  O  O29  1  0.03283236  0.08102407  0.65118296  1
  O  O30  1  0.02488757  0.57070020  0.68558538  1
  O  O31  1  0.65546050  0.08245305  0.01494789  1
  O  O32  1  0.00293386  0.72536176  0.99685920  1
  O  O33  1  0.00314080  0.27463824  0.99706614  1
