# generated using pymatgen
data_Li5SbS4
_symmetry_space_group_name_H-M   'P 1'
_cell_length_a   3.91521956
_cell_length_b   7.89323469
_cell_length_c   7.14341940
_cell_angle_alpha   62.74820527
_cell_angle_beta   90.00000000
_cell_angle_gamma   75.64014605
_symmetry_Int_Tables_number   1
_chemical_formula_structural   Li5SbS4
_chemical_formula_sum   'Li5 Sb1 S4'
_cell_volume   188.46311589
_cell_formula_units_Z   1
loop_
 _symmetry_equiv_pos_site_id
 _symmetry_equiv_pos_as_xyz
  1  'x, y, z'
loop_
 _atom_site_type_symbol
 _atom_site_label
 _atom_site_symmetry_multiplicity
 _atom_site_fract_x
 _atom_site_fract_y
 _atom_site_fract_z
 _atom_site_occupancy
  Li  Li0  1  0.17642448  0.64715003  0.95928925  1
  Li  Li1  1  0.17948551  0.64102899  0.38535803  1
  Li  Li2  1  0.82051449  0.35897101  0.61464197  1
  Li  Li3  1  0.82357552  0.35284997  0.04071075  1
  Li  Li4  1  0.50000000  0.00000000  0.50000000  1
  Sb  Sb5  1  0.50000000  0.00000000  0.00000000  1
  S  S6  1  0.00215832  0.99568436  0.27260425  1
  S  S7  1  0.71039513  0.57920874  0.20860988  1
  S  S8  1  0.28960487  0.42079126  0.79139012  1
  S  S9  1  0.99784168  0.00431564  0.72739575  1
