# generated using pymatgen
data_Sc2V2O7
_symmetry_space_group_name_H-M   'P 1'
_cell_length_a   6.93829648
_cell_length_b   6.93840380
_cell_length_c   6.93821149
_cell_angle_alpha   60.00614909
_cell_angle_beta   60.00488612
_cell_angle_gamma   60.00552785
_symmetry_Int_Tables_number   1
_chemical_formula_structural   Sc2V2O7
_chemical_formula_sum   'Sc4 V4 O14'
_cell_volume   236.21056498
_cell_formula_units_Z   2
loop_
 _symmetry_equiv_pos_site_id
 _symmetry_equiv_pos_as_xyz
  1  'x, y, z'
loop_
 _atom_site_type_symbol
 _atom_site_label
 _atom_site_symmetry_multiplicity
 _atom_site_fract_x
 _atom_site_fract_y
 _atom_site_fract_z
 _atom_site_occupancy
  Sc  Sc0  1  0.50000844  0.49999500  0.99999714  1
  Sc  Sc1  1  0.49999916  0.00000090  0.49999434  1
  Sc  Sc2  1  0.00000490  0.49999792  0.49999484  1
  Sc  Sc3  1  0.49999904  0.50000315  0.49999954  1
  V  V4  1  0.50000051  -0.00000330  -0.00000002  1
  V  V5  1  0.00000265  -0.00000417  -0.00000058  1
  V  V6  1  0.00000226  0.50000993  -0.00000477  1
  V  V7  1  0.99999793  -0.00000128  0.50000573  1
  O  O8  1  0.66126166  0.08871790  0.08873144  1
  O  O9  1  0.91130980  0.33875950  0.33875388  1
  O  O10  1  0.37492594  0.37492844  0.37495193  1
  O  O11  1  0.66122810  0.08870120  0.66124592  1
  O  O12  1  0.08871433  0.66126456  0.08873088  1
  O  O13  1  0.08872956  0.08871541  0.66128144  1
  O  O14  1  0.66123807  0.66123275  0.08870640  1
  O  O15  1  0.33876924  0.91130573  0.33875179  1
  O  O16  1  0.91126993  0.33873064  0.91127680  1
  O  O17  1  0.33876008  0.33877192  0.91129172  1
  O  O18  1  0.62506830  0.62506640  0.62505044  1
  O  O19  1  0.91127678  0.91128566  0.33872068  1
  O  O20  1  0.08870031  0.66123462  0.66124044  1
  O  O21  1  0.33873300  0.91128712  0.91128004  1
