# generated using pymatgen
data_Li3Sn(BO2)5
_symmetry_space_group_name_H-M   'P 1'
_cell_length_a   6.84287062
_cell_length_b   7.23776584
_cell_length_c   9.62864768
_cell_angle_alpha   84.08012595
_cell_angle_beta   76.43602696
_cell_angle_gamma   72.18680537
_symmetry_Int_Tables_number   1
_chemical_formula_structural   Li3Sn(BO2)5
_chemical_formula_sum   'Li6 Sn2 B10 O20'
_cell_volume   441.09980025
_cell_formula_units_Z   2
loop_
 _symmetry_equiv_pos_site_id
 _symmetry_equiv_pos_as_xyz
  1  'x, y, z'
loop_
 _atom_site_type_symbol
 _atom_site_label
 _atom_site_symmetry_multiplicity
 _atom_site_fract_x
 _atom_site_fract_y
 _atom_site_fract_z
 _atom_site_occupancy
  Li  Li0  1  0.15011233  0.57231771  0.26921298  1
  Li  Li1  1  0.73933226  0.01808474  0.16884503  1
  Li  Li2  1  0.04385096  0.17220689  0.47300791  1
  Li  Li3  1  0.95614904  0.82779311  0.52699209  1
  Li  Li4  1  0.26066774  0.98191526  0.83115497  1
  Li  Li5  1  0.84988767  0.42768229  0.73078702  1
  Sn  Sn6  1  0.22962550  0.53505443  0.86369295  1
  Sn  Sn7  1  0.77037450  0.46494557  0.13630705  1
  B  B8  1  0.25516218  0.85395019  0.09505628  1
  B  B9  1  0.34809247  0.90595602  0.32103516  1
  B  B10  1  0.34799915  0.77958143  0.57535814  1
  B  B11  1  0.20381947  0.18531230  0.15805413  1
  B  B12  1  0.68626780  0.74547085  0.40836722  1
  B  B13  1  0.31373220  0.25452915  0.59163278  1
  B  B14  1  0.79618053  0.81468770  0.84194587  1
  B  B15  1  0.65200085  0.22041857  0.42464186  1
  B  B16  1  0.65190753  0.09404398  0.67896484  1
  B  B17  1  0.74483782  0.14604981  0.90494372  1
  O  O18  1  0.21496705  0.74955675  0.00339598  1
  O  O19  1  0.23825279  0.87507558  0.47012339  1
  O  O20  1  0.30048881  0.78248069  0.22583036  1
  O  O21  1  0.23626894  0.78361418  0.71226111  1
  O  O22  1  0.11606997  0.38013822  0.13512950  1
  O  O23  1  0.57547286  0.86455255  0.30898326  1
  O  O24  1  0.10606959  0.30150954  0.61300047  1
  O  O25  1  0.74369884  0.88504333  0.71352369  1
  O  O26  1  0.56230124  0.68770224  0.53571757  1
  O  O27  1  0.75995669  0.94921335  0.94791484  1
  O  O28  1  0.24004331  0.05078665  0.05208516  1
  O  O29  1  0.43769876  0.31229776  0.46428243  1
  O  O30  1  0.25630116  0.11495667  0.28647631  1
  O  O31  1  0.89393041  0.69849046  0.38699953  1
  O  O32  1  0.42452714  0.13544745  0.69101674  1
  O  O33  1  0.88393003  0.61986178  0.86487050  1
  O  O34  1  0.76373106  0.21638582  0.28773889  1
  O  O35  1  0.69951119  0.21751931  0.77416964  1
  O  O36  1  0.76174721  0.12492442  0.52987661  1
  O  O37  1  0.78503295  0.25044325  0.99660402  1
