# generated using pymatgen
data_LiVSO4F3
_symmetry_space_group_name_H-M   'P 1'
_cell_length_a   7.07148625
_cell_length_b   10.33798383
_cell_length_c   8.05703513
_cell_angle_alpha   90.00000000
_cell_angle_beta   89.44041028
_cell_angle_gamma   90.00000000
_symmetry_Int_Tables_number   1
_chemical_formula_structural   LiVSO4F3
_chemical_formula_sum   'Li4 V4 S4 O16 F12'
_cell_volume   588.98074016
_cell_formula_units_Z   4
loop_
 _symmetry_equiv_pos_site_id
 _symmetry_equiv_pos_as_xyz
  1  'x, y, z'
loop_
 _atom_site_type_symbol
 _atom_site_label
 _atom_site_symmetry_multiplicity
 _atom_site_fract_x
 _atom_site_fract_y
 _atom_site_fract_z
 _atom_site_occupancy
  Li  Li0  1  0.67595574  0.22718008  0.57885975  1
  Li  Li1  1  0.67595574  0.27281992  0.07885975  1
  Li  Li2  1  0.80863154  0.77129312  0.57245811  1
  Li  Li3  1  0.80863154  0.72870688  0.07245811  1
  V  V4  1  0.00065730  0.49352691  0.50690551  1
  V  V5  1  0.00065730  0.00647309  0.00690551  1
  V  V6  1  0.50015823  0.50690945  0.50722988  1
  V  V7  1  0.50015823  0.99309055  0.00722988  1
  S  S8  1  0.25550157  0.00126470  0.68051913  1
  S  S9  1  0.25550157  0.49873530  0.18051913  1
  S  S10  1  0.74729505  0.49899617  0.83837624  1
  S  S11  1  0.74729505  0.00100383  0.33837624  1
  O  O12  1  0.10356075  0.06235745  0.79830867  1
  O  O13  1  0.10356075  0.43764255  0.29830867  1
  O  O14  1  0.16452661  0.90150561  0.58647270  1
  O  O15  1  0.16452661  0.59849439  0.08647270  1
  O  O16  1  0.35396862  0.10419706  0.59430155  1
  O  O17  1  0.35396862  0.39580294  0.09430155  1
  O  O18  1  0.40100133  0.93713717  0.79996468  1
  O  O19  1  0.40100133  0.56286283  0.29996468  1
  O  O20  1  0.59870628  0.43988586  0.72346680  1
  O  O21  1  0.59870628  0.06011414  0.22346680  1
  O  O22  1  0.67016690  0.60643474  0.93419014  1
  O  O23  1  0.67016690  0.89356526  0.43419014  1
  O  O24  1  0.82004312  0.39296985  0.93792068  1
  O  O25  1  0.82004312  0.10703015  0.43792068  1
  O  O26  1  0.90112732  0.55683476  0.72565708  1
  O  O27  1  0.90112732  0.94316524  0.22565708  1
  F  F28  1  0.99885277  0.83342481  0.95198355  1
  F  F29  1  0.99885277  0.66657519  0.45198355  1
  F  F30  1  0.24963622  0.49865980  0.60580664  1
  F  F31  1  0.24963622  0.00134020  0.10580664  1
  F  F32  1  0.50584192  0.16475530  0.94676644  1
  F  F33  1  0.50584192  0.33524470  0.44676644  1
  F  F34  1  0.55505660  0.66800813  0.58214876  1
  F  F35  1  0.55505660  0.83199187  0.08214876  1
  F  F36  1  0.75168039  0.99743733  0.89917685  1
  F  F37  1  0.75168039  0.50256267  0.39917685  1
  F  F38  1  0.94368178  0.33173502  0.57726783  1
  F  F39  1  0.94368178  0.16826498  0.07726783  1
