# generated using pymatgen
data_Rb5FeO4
_symmetry_space_group_name_H-M   'P 1'
_cell_length_a   8.83786148
_cell_length_b   8.04548025
_cell_length_c   6.64455899
_cell_angle_alpha   90.00000000
_cell_angle_beta   90.00000000
_cell_angle_gamma   90.00000000
_symmetry_Int_Tables_number   1
_chemical_formula_structural   Rb5FeO4
_chemical_formula_sum   'Rb10 Fe2 O8'
_cell_volume   472.46030379
_cell_formula_units_Z   2
loop_
 _symmetry_equiv_pos_site_id
 _symmetry_equiv_pos_as_xyz
  1  'x, y, z'
loop_
 _atom_site_type_symbol
 _atom_site_label
 _atom_site_symmetry_multiplicity
 _atom_site_fract_x
 _atom_site_fract_y
 _atom_site_fract_z
 _atom_site_occupancy
  Rb  Rb0  1  0.05877378  0.01099949  0.73771921  1
  Rb  Rb1  1  0.05877378  0.48900051  0.73771921  1
  Rb  Rb2  1  0.25000000  0.75000000  0.14887790  1
  Rb  Rb3  1  0.44122622  0.01099949  0.73771921  1
  Rb  Rb4  1  0.44122622  0.48900051  0.73771921  1
  Rb  Rb5  1  0.55877378  0.98900051  0.26228079  1
  Rb  Rb6  1  0.55877378  0.51099949  0.26228079  1
  Rb  Rb7  1  0.75000000  0.25000000  0.85112210  1
  Rb  Rb8  1  0.94122622  0.98900051  0.26228079  1
  Rb  Rb9  1  0.94122622  0.51099949  0.26228079  1
  Fe  Fe10  1  0.25000000  0.25000000  0.20898584  1
  Fe  Fe11  1  0.75000000  0.75000000  0.79101416  1
  O  O12  1  0.06414779  0.25000000  0.04787714  1
  O  O13  1  0.25000000  0.04588605  0.36753659  1
  O  O14  1  0.25000000  0.45411395  0.36753659  1
  O  O15  1  0.43585221  0.25000000  0.04787714  1
  O  O16  1  0.56414779  0.75000000  0.95212286  1
  O  O17  1  0.75000000  0.95411395  0.63246341  1
  O  O18  1  0.75000000  0.54588605  0.63246341  1
  O  O19  1  0.93585221  0.75000000  0.95212286  1
