# generated using pymatgen
data_Li2Bi(BO2)5
_symmetry_space_group_name_H-M   'P 1'
_cell_length_a   7.26090288
_cell_length_b   16.42005030
_cell_length_c   7.25873692
_cell_angle_alpha   90.00000000
_cell_angle_beta   92.62772179
_cell_angle_gamma   90.00000000
_symmetry_Int_Tables_number   1
_chemical_formula_structural   Li2Bi(BO2)5
_chemical_formula_sum   'Li8 Bi4 B20 O40'
_cell_volume   864.50850216
_cell_formula_units_Z   4
loop_
 _symmetry_equiv_pos_site_id
 _symmetry_equiv_pos_as_xyz
  1  'x, y, z'
loop_
 _atom_site_type_symbol
 _atom_site_label
 _atom_site_symmetry_multiplicity
 _atom_site_fract_x
 _atom_site_fract_y
 _atom_site_fract_z
 _atom_site_occupancy
  Li  Li0  1  0.08914201  0.15855153  0.01525497  1
  Li  Li1  1  0.08914201  0.34144847  0.51525397  1
  Li  Li2  1  0.30726519  0.91425368  0.60905014  1
  Li  Li3  1  0.30726519  0.58574632  0.10905014  1
  Li  Li4  1  0.69273481  0.41425368  0.89094986  1
  Li  Li5  1  0.69273481  0.08574632  0.39094986  1
  Li  Li6  1  0.91085799  0.65855153  0.48474503  1
  Li  Li7  1  0.91085799  0.84144847  0.98474603  1
  Bi  Bi8  1  0.16869360  0.12488630  0.52301962  1
  Bi  Bi9  1  0.16869360  0.37511370  0.02301962  1
  Bi  Bi10  1  0.83130640  0.62488630  0.97698038  1
  Bi  Bi11  1  0.83130640  0.87511370  0.47698038  1
  B  B12  1  0.19740189  0.02107506  0.92162340  1
  B  B13  1  0.19740189  0.47892494  0.42162340  1
  B  B14  1  0.22950925  0.76846371  0.51440932  1
  B  B15  1  0.22950925  0.73153629  0.01440932  1
  B  B16  1  0.25929882  0.52107502  0.74366606  1
  B  B17  1  0.25929882  0.97892498  0.24366606  1
  B  B18  1  0.31061308  0.62103750  0.49288624  1
  B  B19  1  0.31061308  0.87896250  0.99288624  1
  B  B20  1  0.45125503  0.27423331  0.52195607  1
  B  B21  1  0.45125503  0.22576669  0.02195607  1
  B  B22  1  0.54874497  0.77423331  0.97804393  1
  B  B23  1  0.54874497  0.72576669  0.47804393  1
  B  B24  1  0.68938692  0.12103750  0.00711376  1
  B  B25  1  0.68938692  0.37896250  0.50711376  1
  B  B26  1  0.74070118  0.02107502  0.75633394  1
  B  B27  1  0.74070118  0.47892498  0.25633394  1
  B  B28  1  0.77049075  0.26846371  0.98559068  1
  B  B29  1  0.77049075  0.23153629  0.48559068  1
  B  B30  1  0.80259811  0.52107506  0.57837660  1
  B  B31  1  0.80259811  0.97892494  0.07837660  1
  O  O32  1  0.11585705  0.83354272  0.54031417  1
  O  O33  1  0.11585705  0.66645728  0.04031417  1
  O  O34  1  0.14184486  0.08502278  0.80951356  1
  O  O35  1  0.14184486  0.41497722  0.30951356  1
  O  O36  1  0.17048882  0.80984551  0.97897887  1
  O  O37  1  0.18777659  0.46290713  0.61214491  1
  O  O38  1  0.17048882  0.69015449  0.47897887  1
  O  O39  1  0.18777659  0.03709287  0.11214491  1
  O  O40  1  0.26574144  0.50228709  0.92668521  1
  O  O41  1  0.26574144  0.99771291  0.42668521  1
  O  O42  1  0.26861881  0.25539457  0.53313713  1
  O  O43  1  0.25184708  0.94610562  0.86176173  1
  O  O44  1  0.26861881  0.24460543  0.03313713  1
  O  O45  1  0.25184708  0.55389438  0.36176173  1
  O  O46  1  0.32208892  0.59356258  0.68343152  1
  O  O47  1  0.32208892  0.90643742  0.18343152  1
  O  O48  1  0.42073985  0.78589594  0.53021986  1
  O  O49  1  0.42073985  0.71410406  0.03021986  1
  O  O50  1  0.51096323  0.35078058  0.56319653  1
  O  O51  1  0.48903677  0.85078058  0.93680347  1
  O  O52  1  0.51096323  0.14921942  0.06319653  1
  O  O53  1  0.48903677  0.64921942  0.43680347  1
  O  O54  1  0.57926015  0.28589594  0.96978014  1
  O  O55  1  0.57926015  0.21410406  0.46978014  1
  O  O56  1  0.67791108  0.09356258  0.81656848  1
  O  O57  1  0.67791108  0.40643742  0.31656848  1
  O  O58  1  0.74815292  0.44610562  0.63823827  1
  O  O59  1  0.73138119  0.75539457  0.96686287  1
  O  O60  1  0.74815292  0.05389438  0.13823827  1
  O  O61  1  0.73138119  0.74460543  0.46686287  1
  O  O62  1  0.73425856  0.00228709  0.57331479  1
  O  O63  1  0.73425856  0.49771291  0.07331479  1
  O  O64  1  0.81222341  0.96290713  0.88785509  1
  O  O65  1  0.82951118  0.30984551  0.52102113  1
  O  O66  1  0.81222341  0.53709287  0.38785509  1
  O  O67  1  0.82951118  0.19015449  0.02102113  1
  O  O68  1  0.85815514  0.58502278  0.69048644  1
  O  O69  1  0.85815514  0.91497722  0.19048644  1
  O  O70  1  0.88414295  0.33354272  0.95968583  1
  O  O71  1  0.88414295  0.16645728  0.45968583  1
