# generated using pymatgen
data_Li2TiFe2O5
_symmetry_space_group_name_H-M   'P 1'
_cell_length_a   9.59739031
_cell_length_b   4.33269887
_cell_length_c   5.07492856
_cell_angle_alpha   64.84347361
_cell_angle_beta   87.65164390
_cell_angle_gamma   90.01160498
_symmetry_Int_Tables_number   1
_chemical_formula_structural   Li2TiFe2O5
_chemical_formula_sum   'Li4 Ti2 Fe4 O10'
_cell_volume   190.81598267
_cell_formula_units_Z   2
loop_
 _symmetry_equiv_pos_site_id
 _symmetry_equiv_pos_as_xyz
  1  'x, y, z'
loop_
 _atom_site_type_symbol
 _atom_site_label
 _atom_site_symmetry_multiplicity
 _atom_site_fract_x
 _atom_site_fract_y
 _atom_site_fract_z
 _atom_site_occupancy
  Li  Li0  1  0.89879472  0.29288040  0.40533739  1
  Li  Li1  1  0.70118756  0.90691666  0.19473956  1
  Li  Li2  1  0.50166097  0.50478011  0.99477433  1
  Li  Li3  1  0.09835316  0.69528476  0.60508067  1
  Ti  Ti4  1  0.60588491  0.24339034  0.58841027  1
  Ti  Ti5  1  0.99412498  0.95638460  0.01156942  1
  Fe  Fe6  1  0.79995673  0.60009351  0.79987550  1
  Fe  Fe7  1  0.29995994  0.10014060  0.79996797  1
  Fe  Fe8  1  0.19433630  0.39155514  0.21743417  1
  Fe  Fe9  1  0.40570992  0.80856688  0.38261918  1
  O  O10  1  0.80001971  0.09995880  0.80005459  1
  O  O11  1  0.90146622  0.81701654  0.37485365  1
  O  O12  1  0.69855617  0.38290344  0.22518339  1
  O  O13  1  0.50896701  0.00638706  0.97557238  1
  O  O14  1  0.60462972  0.67699821  0.59802698  1
  O  O15  1  0.42166632  0.29402556  0.40469041  1
  O  O16  1  0.29999503  0.60007790  0.80002120  1
  O  O17  1  0.09101203  0.19367186  0.62446103  1
  O  O18  1  0.17836453  0.90607648  0.19537501  1
  O  O19  1  0.99535207  0.52289217  0.00195290  1
