# generated using pymatgen
data_MnCrO4
_symmetry_space_group_name_H-M   'P 1'
_cell_length_a   6.96698996
_cell_length_b   6.96698996
_cell_length_c   6.96073747
_cell_angle_alpha   79.76807602
_cell_angle_beta   100.23192398
_cell_angle_gamma   94.47169930
_symmetry_Int_Tables_number   1
_chemical_formula_structural   MnCrO4
_chemical_formula_sum   'Mn4 Cr4 O16'
_cell_volume   326.83000869
_cell_formula_units_Z   4
loop_
 _symmetry_equiv_pos_site_id
 _symmetry_equiv_pos_as_xyz
  1  'x, y, z'
loop_
 _atom_site_type_symbol
 _atom_site_label
 _atom_site_symmetry_multiplicity
 _atom_site_fract_x
 _atom_site_fract_y
 _atom_site_fract_z
 _atom_site_occupancy
  Mn  Mn0  1  0.20754197  0.79245803  0.86795957  1
  Mn  Mn1  1  0.18496760  0.18496760  0.50000000  1
  Mn  Mn2  1  0.81503240  0.81503240  0.50000000  1
  Mn  Mn3  1  0.79245803  0.20754197  0.13204043  1
  Cr  Cr4  1  0.27389905  0.72610095  0.41083917  1
  Cr  Cr5  1  0.25488208  0.25488208  0.00000000  1
  Cr  Cr6  1  0.74511792  0.74511792  0.00000000  1
  Cr  Cr7  1  0.72610095  0.27389905  0.58916083  1
  O  O8  1  0.14387327  0.85612673  0.53699071  1
  O  O9  1  0.21053963  0.78946037  0.16975801  1
  O  O10  1  0.21961936  0.48326578  0.89603231  1
  O  O11  1  0.51673422  0.78038064  0.89603231  1
  O  O12  1  0.50709338  0.78383821  0.47598666  1
  O  O13  1  0.21616179  0.49290662  0.47598666  1
  O  O14  1  0.88760857  0.79853976  0.81888492  1
  O  O15  1  0.20146024  0.11239143  0.81888492  1
  O  O16  1  0.11239143  0.20146024  0.18111508  1
  O  O17  1  0.79853976  0.88760857  0.18111508  1
  O  O18  1  0.49290662  0.21616179  0.52401334  1
  O  O19  1  0.78383821  0.50709338  0.52401334  1
  O  O20  1  0.48326578  0.21961936  0.10396769  1
  O  O21  1  0.78038064  0.51673422  0.10396769  1
  O  O22  1  0.78946037  0.21053963  0.83024199  1
  O  O23  1  0.85612673  0.14387327  0.46300929  1
