# generated using pymatgen
data_Li11Fe12(BO3)12
_symmetry_space_group_name_H-M   'P 1'
_cell_length_a   10.34020688
_cell_length_b   8.79244011
_cell_length_c   8.78132710
_cell_angle_alpha   107.78807222
_cell_angle_beta   99.14099506
_cell_angle_gamma   99.11474982
_symmetry_Int_Tables_number   1
_chemical_formula_structural   Li11Fe12(BO3)12
_chemical_formula_sum   'Li11 Fe12 B12 O36'
_cell_volume   732.12830848
_cell_formula_units_Z   1
loop_
 _symmetry_equiv_pos_site_id
 _symmetry_equiv_pos_as_xyz
  1  'x, y, z'
loop_
 _atom_site_type_symbol
 _atom_site_label
 _atom_site_symmetry_multiplicity
 _atom_site_fract_x
 _atom_site_fract_y
 _atom_site_fract_z
 _atom_site_occupancy
  Li  Li0  1  0.73041597  0.01614453  0.03030348  1
  Li  Li1  1  0.70654359  0.40215125  0.68706588  1
  Li  Li2  1  0.45161576  0.15369221  0.43703266  1
  Li  Li3  1  0.95589953  0.65520527  0.94012102  1
  Li  Li4  1  0.94004291  0.95750946  0.65967067  1
  Li  Li5  1  0.44261136  0.45614620  0.15751585  1
  Li  Li6  1  0.69259665  0.70767313  0.40990957  1
  Li  Li7  1  0.22777512  0.51348857  0.52602620  1
  Li  Li8  1  0.47823581  0.76427484  0.77826419  1
  Li  Li9  1  0.20488017  0.90119594  0.18589271  1
  Li  Li10  1  0.19256065  0.20514767  0.90782605  1
  Fe  Fe11  1  0.68644892  0.32169437  0.31124083  1
  Fe  Fe12  1  0.93358537  0.56705413  0.56050658  1
  Fe  Fe13  1  0.43370089  0.06989605  0.06085835  1
  Fe  Fe14  1  0.90915027  0.90298540  0.28305132  1
  Fe  Fe15  1  0.66038386  0.65552267  0.02127974  1
  Fe  Fe16  1  0.90807140  0.27325908  0.92224726  1
  Fe  Fe17  1  0.65548872  0.02298200  0.66620803  1
  Fe  Fe18  1  0.40993501  0.40210212  0.77087409  1
  Fe  Fe19  1  0.15830499  0.15841090  0.51819055  1
  Fe  Fe20  1  0.15430484  0.51725684  0.16330286  1
  Fe  Fe21  1  0.40598319  0.77338230  0.41226664  1
  Fe  Fe22  1  0.18440357  0.81865948  0.81198615  1
  B  B23  1  0.87555072  0.55379459  0.21097094  1
  B  B24  1  0.87049939  0.20775461  0.54187255  1
  B  B25  1  0.37321305  0.03986947  0.70609039  1
  B  B26  1  0.62522367  0.29259468  0.95926866  1
  B  B27  1  0.50067140  0.50001420  0.50055069  1
  B  B28  1  0.75023724  0.74926199  0.75051206  1
  B  B29  1  0.25567437  0.24904290  0.25112464  1
  B  B30  1  -0.00008178  0.99196745  0.00142875  1
  B  B31  1  0.37511977  0.70677955  0.04206755  1
  B  B32  1  0.62796538  0.96348163  0.29337895  1
  B  B33  1  0.11912574  0.79238245  0.45560676  1
  B  B34  1  0.12483265  0.45787891  0.79111182  1
  O  O35  1  0.91917638  0.01106047  0.11519326  1
  O  O36  1  0.94950777  0.44042011  0.16194572  1
  O  O37  1  0.94228501  0.08268394  0.49696921  1
  O  O38  1  0.62044779  0.06085339  0.19737922  1
  O  O39  1  0.86171469  0.31599074  0.45989376  1
  O  O40  1  0.87073639  0.67452098  0.13282261  1
  O  O41  1  0.80536552  0.55766372  0.33360947  1
  O  O42  1  0.55781770  0.30442851  0.08614014  1
  O  O43  1  0.80842723  0.21802781  0.67203023  1
  O  O44  1  0.70051126  0.17417484  0.92086588  1
  O  O45  1  0.45186297  0.58857651  0.01172376  1
  O  O46  1  0.71149170  0.85049005  0.26629668  1
  O  O47  1  0.82231112  0.62753861  0.73776162  1
  O  O48  1  0.56843807  0.37372025  0.48272504  1
  O  O49  1  0.32093412  0.11891663  0.22867351  1
  O  O50  1  0.50649384  0.59194260  0.39645684  1
  O  O51  1  0.75501942  0.83971679  0.64542523  1
  O  O52  1  0.25825123  0.33915166  0.14509894  1
  O  O53  1  0.61711201  0.39959061  0.87086840  1
  O  O54  1  0.36151443  0.14453363  0.61593350  1
  O  O55  1  0.30629883  0.05087050  0.83309301  1
  O  O56  1  0.55585444  0.97353714  0.41429767  1
  O  O57  1  0.30384374  0.72212935  0.16504817  1
  O  O58  1  0.67232910  0.78276280  0.86706615  1
  O  O59  1  0.42719710  0.53692603  0.62166786  1
  O  O60  1  0.19332673  0.29094328  0.37953201  1
  O  O61  1  0.45138171  0.92431736  0.66848734  1
  O  O62  1  0.20096181  0.68244385  0.41977092  1
  O  O63  1  0.19870660  0.33642263  0.75862395  1
  O  O64  1  0.00407747  0.08689413  0.89930268  1
  O  O65  1  0.37140161  0.80867077  0.94914288  1
  O  O66  1  0.12217758  0.56036441  0.69835347  1
  O  O67  1  0.10099137  0.89460447  0.36055889  1
  O  O68  1  0.05295377  0.80346913  0.58261390  1
  O  O69  1  0.05436390  0.47458739  0.91406524  1
  O  O70  1  0.07587544  0.87284306  0.98423939  1
