# generated using pymatgen
data_CoBiO4
_symmetry_space_group_name_H-M   'P 1'
_cell_length_a   6.15881723
_cell_length_b   6.15881737
_cell_length_c   6.80990269
_cell_angle_alpha   56.64462902
_cell_angle_beta   56.64462964
_cell_angle_gamma   88.15187562
_symmetry_Int_Tables_number   1
_chemical_formula_structural   CoBiO4
_chemical_formula_sum   'Co2 Bi2 O8'
_cell_volume   166.16819361
_cell_formula_units_Z   2
loop_
 _symmetry_equiv_pos_site_id
 _symmetry_equiv_pos_as_xyz
  1  'x, y, z'
loop_
 _atom_site_type_symbol
 _atom_site_label
 _atom_site_symmetry_multiplicity
 _atom_site_fract_x
 _atom_site_fract_y
 _atom_site_fract_z
 _atom_site_occupancy
  Co  Co0  1  0.00000000  0.50000000  0.50000000  1
  Co  Co1  1  0.50000000  0.00000000  0.00000000  1
  Bi  Bi2  1  0.00000000  0.00000000  0.50000000  1
  Bi  Bi3  1  0.00000000  0.00000000  0.00000000  1
  O  O4  1  0.72403442  0.77544843  -0.00096286  1
  O  O5  1  0.24986898  0.75354457  0.43694877  1
  O  O6  1  0.75354457  0.24986898  0.93694877  1
  O  O7  1  0.77544843  0.72403442  0.49903714  1
  O  O8  1  0.22455157  0.27596558  0.50096286  1
  O  O9  1  0.24645543  0.75013102  0.06305123  1
  O  O10  1  0.75013102  0.24645543  0.56305123  1
  O  O11  1  0.27596558  0.22455157  0.00096286  1
