# generated using pymatgen
data_Li3V3(BO5)2
_symmetry_space_group_name_H-M   'P 1'
_cell_length_a   9.42226404
_cell_length_b   12.00100624
_cell_length_c   3.01176979
_cell_angle_alpha   90.14451262
_cell_angle_beta   90.00694888
_cell_angle_gamma   89.99192007
_symmetry_Int_Tables_number   1
_chemical_formula_structural   Li3V3(BO5)2
_chemical_formula_sum   'Li6 V6 B4 O20'
_cell_volume   340.55974836
_cell_formula_units_Z   2
loop_
 _symmetry_equiv_pos_site_id
 _symmetry_equiv_pos_as_xyz
  1  'x, y, z'
loop_
 _atom_site_type_symbol
 _atom_site_label
 _atom_site_symmetry_multiplicity
 _atom_site_fract_x
 _atom_site_fract_y
 _atom_site_fract_z
 _atom_site_occupancy
  Li  Li0  1  0.00035080  0.00012810  0.99983170  1
  Li  Li1  1  0.99327470  0.27728910  0.99837222  1
  Li  Li2  1  0.50629742  0.77762121  0.99827261  1
  Li  Li3  1  0.50012414  0.49996812  0.00006375  1
  Li  Li4  1  0.49342547  0.22246070  0.00171019  1
  Li  Li5  1  0.00674995  0.72259181  0.00170404  1
  V  V6  1  0.99993013  0.49997354  0.50006519  1
  V  V7  1  0.23398154  0.11464283  0.52453936  1
  V  V8  1  0.26620653  0.61455951  0.52444386  1
  V  V9  1  0.50002809  -0.00000062  0.50028819  1
  V  V10  1  0.73373147  0.38536776  0.47557422  1
  V  V11  1  0.76620861  0.88539999  0.47416451  1
  B  B12  1  0.23563351  0.86183325  0.49573517  1
  B  B13  1  0.26443843  0.36170748  0.49578530  1
  B  B14  1  0.73548503  0.63830369  0.50435403  1
  B  B15  1  0.76430976  0.13817314  0.50433073  1
  O  O16  1  0.12225866  0.14583264  0.99393322  1
  O  O17  1  0.12128759  0.56908400  0.00696627  1
  O  O18  1  0.11679170  0.36289687  0.49581241  1
  O  O19  1  0.16484920  0.75994252  0.50230176  1
  O  O20  1  0.15589380  0.95925305  0.48851246  1
  O  O21  1  0.34419969  0.45922620  0.48891357  1
  O  O22  1  0.33525229  0.25999658  0.50236036  1
  O  O23  1  0.38320840  0.86294633  0.49597052  1
  O  O24  1  0.37872776  0.06910702  0.00741776  1
  O  O25  1  0.37778998  0.64576768  0.99400289  1
  O  O26  1  0.62214299  0.35415495  0.00594195  1
  O  O27  1  0.62128285  0.93094401  0.99306580  1
  O  O28  1  0.61674416  0.13707553  0.50425624  1
  O  O29  1  0.66474986  0.74006218  0.49774741  1
  O  O30  1  0.65574005  0.54075743  0.51121740  1
  O  O31  1  0.84408516  0.04077458  0.51156356  1
  O  O32  1  0.83511215  0.24003851  0.49768167  1
  O  O33  1  0.88313993  0.63705643  0.50421742  1
  O  O34  1  0.87862977  0.43084755  0.99312315  1
  O  O35  1  0.87793643  0.85421533  0.00575912  1
