# generated using pymatgen
data_Rb5FeO4
_symmetry_space_group_name_H-M   'P 1'
_cell_length_a   12.77894167
_cell_length_b   12.54154243
_cell_length_c   11.98825499
_cell_angle_alpha   90.00000000
_cell_angle_beta   90.00000000
_cell_angle_gamma   90.00000000
_symmetry_Int_Tables_number   1
_chemical_formula_structural   Rb5FeO4
_chemical_formula_sum   'Rb40 Fe8 O32'
_cell_volume   1921.32932495
_cell_formula_units_Z   8
loop_
 _symmetry_equiv_pos_site_id
 _symmetry_equiv_pos_as_xyz
  1  'x, y, z'
loop_
 _atom_site_type_symbol
 _atom_site_label
 _atom_site_symmetry_multiplicity
 _atom_site_fract_x
 _atom_site_fract_y
 _atom_site_fract_z
 _atom_site_occupancy
  Rb  Rb0  1  0.10813361  0.61683537  0.16107505  1
  Rb  Rb1  1  0.10813361  0.88316463  0.66107505  1
  Rb  Rb2  1  0.10755952  0.10718728  0.83752643  1
  Rb  Rb3  1  0.10755952  0.39281272  0.33752643  1
  Rb  Rb4  1  0.11853983  0.84030339  0.36142383  1
  Rb  Rb5  1  0.11853983  0.65969661  0.86142383  1
  Rb  Rb6  1  0.14502066  0.88854062  0.07417540  1
  Rb  Rb7  1  0.14502066  0.61145938  0.57417540  1
  Rb  Rb8  1  0.15656803  0.12571435  0.40164957  1
  Rb  Rb9  1  0.15656803  0.37428565  0.90164957  1
  Rb  Rb10  1  0.34343197  0.87428565  0.90164957  1
  Rb  Rb11  1  0.34343197  0.62571435  0.40164957  1
  Rb  Rb12  1  0.35497934  0.38854062  0.07417540  1
  Rb  Rb13  1  0.35497934  0.11145938  0.57417540  1
  Rb  Rb14  1  0.38146017  0.34030339  0.36142383  1
  Rb  Rb15  1  0.38146017  0.15969661  0.86142383  1
  Rb  Rb16  1  0.39244048  0.89281272  0.33752643  1
  Rb  Rb17  1  0.39244048  0.60718728  0.83752643  1
  Rb  Rb18  1  0.39186639  0.11683537  0.16107505  1
  Rb  Rb19  1  0.39186639  0.38316463  0.66107505  1
  Rb  Rb20  1  0.60813361  0.61683537  0.33892495  1
  Rb  Rb21  1  0.60813361  0.88316463  0.83892495  1
  Rb  Rb22  1  0.60755952  0.39281272  0.16247357  1
  Rb  Rb23  1  0.60755952  0.10718728  0.66247357  1
  Rb  Rb24  1  0.61853983  0.65969661  0.63857617  1
  Rb  Rb25  1  0.61853983  0.84030339  0.13857617  1
  Rb  Rb26  1  0.64502066  0.88854062  0.42582460  1
  Rb  Rb27  1  0.64502066  0.61145938  0.92582460  1
  Rb  Rb28  1  0.65656803  0.12571435  0.09835043  1
  Rb  Rb29  1  0.65656803  0.37428565  0.59835043  1
  Rb  Rb30  1  0.84343197  0.62571435  0.09835043  1
  Rb  Rb31  1  0.84343197  0.87428565  0.59835043  1
  Rb  Rb32  1  0.85497934  0.38854062  0.42582460  1
  Rb  Rb33  1  0.85497934  0.11145938  0.92582460  1
  Rb  Rb34  1  0.88146017  0.15969661  0.63857617  1
  Rb  Rb35  1  0.88146017  0.34030339  0.13857617  1
  Rb  Rb36  1  0.89244048  0.60718728  0.66247357  1
  Rb  Rb37  1  0.89244048  0.89281272  0.16247357  1
  Rb  Rb38  1  0.89186639  0.11683537  0.33892495  1
  Rb  Rb39  1  0.89186639  0.38316463  0.83892495  1
  Fe  Fe40  1  0.13607781  0.15151281  0.11725215  1
  Fe  Fe41  1  0.13607781  0.34848719  0.61725215  1
  Fe  Fe42  1  0.36392219  0.65151281  0.11725215  1
  Fe  Fe43  1  0.36392219  0.84848719  0.61725215  1
  Fe  Fe44  1  0.63607781  0.15151281  0.38274785  1
  Fe  Fe45  1  0.63607781  0.34848719  0.88274785  1
  Fe  Fe46  1  0.86392219  0.65151281  0.38274785  1
  Fe  Fe47  1  0.86392219  0.84848719  0.88274785  1
  O  O48  1  0.03535495  0.27244396  0.52452101  1
  O  O49  1  0.03535495  0.22755604  0.02452101  1
  O  O50  1  0.07010125  0.04321000  0.21197821  1
  O  O51  1  0.07010125  0.45679000  0.71197821  1
  O  O52  1  0.23425506  0.07804744  0.01558730  1
  O  O53  1  0.23425506  0.42195256  0.51558730  1
  O  O54  1  0.22362390  0.23994052  0.21385462  1
  O  O55  1  0.22362390  0.26005948  0.71385462  1
  O  O56  1  0.27637610  0.73994052  0.21385462  1
  O  O57  1  0.27637610  0.76005948  0.71385462  1
  O  O58  1  0.26574494  0.57804744  0.01558730  1
  O  O59  1  0.26574494  0.92195256  0.51558730  1
  O  O60  1  0.42989875  0.54321000  0.21197821  1
  O  O61  1  0.42989875  0.95679000  0.71197821  1
  O  O62  1  0.46464505  0.77244396  0.52452101  1
  O  O63  1  0.46464505  0.72755604  0.02452101  1
  O  O64  1  0.53535495  0.27244396  0.97547899  1
  O  O65  1  0.53535495  0.22755604  0.47547899  1
  O  O66  1  0.57010125  0.04321000  0.28802179  1
  O  O67  1  0.57010125  0.45679000  0.78802179  1
  O  O68  1  0.73425506  0.42195256  0.98441270  1
  O  O69  1  0.73425506  0.07804744  0.48441270  1
  O  O70  1  0.72362390  0.23994052  0.28614538  1
  O  O71  1  0.72362390  0.26005948  0.78614538  1
  O  O72  1  0.77637610  0.73994052  0.28614538  1
  O  O73  1  0.77637610  0.76005948  0.78614538  1
  O  O74  1  0.76574494  0.92195256  0.98441270  1
  O  O75  1  0.76574494  0.57804744  0.48441270  1
  O  O76  1  0.92989875  0.95679000  0.78802179  1
  O  O77  1  0.92989875  0.54321000  0.28802179  1
  O  O78  1  0.96464505  0.77244396  0.97547899  1
  O  O79  1  0.96464505  0.72755604  0.47547899  1
