# generated using pymatgen
data_LiMn3(NiO4)2
_symmetry_space_group_name_H-M   'P 1'
_cell_length_a   5.84588020
_cell_length_b   5.95560697
_cell_length_c   5.95560697
_cell_angle_alpha   59.52695773
_cell_angle_beta   60.60761602
_cell_angle_gamma   60.60761602
_symmetry_Int_Tables_number   1
_chemical_formula_structural   LiMn3(NiO4)2
_chemical_formula_sum   'Li1 Mn3 Ni2 O8'
_cell_volume   147.40453580
_cell_formula_units_Z   1
loop_
 _symmetry_equiv_pos_site_id
 _symmetry_equiv_pos_as_xyz
  1  'x, y, z'
loop_
 _atom_site_type_symbol
 _atom_site_label
 _atom_site_symmetry_multiplicity
 _atom_site_fract_x
 _atom_site_fract_y
 _atom_site_fract_z
 _atom_site_occupancy
  Li  Li0  1  0.88517852  0.86482148  0.86482148  1
  Mn  Mn1  1  0.11527063  0.13472937  0.13472937  1
  Mn  Mn2  1  0.99255521  0.50363310  0.50363310  1
  Mn  Mn3  1  0.50017860  0.50363310  0.50363310  1
  Ni  Ni4  1  0.50114263  0.50116284  0.99655289  1
  Ni  Ni5  1  0.50114263  0.99655289  0.50116284  1
  O  O6  1  0.24824543  0.27347866  0.27347866  1
  O  O7  1  0.70479624  0.27347866  0.27347866  1
  O  O8  1  0.25311129  0.71604321  0.27773521  1
  O  O9  1  0.25311129  0.27773521  0.71604321  1
  O  O10  1  0.74857509  0.71945414  0.28339668  1
  O  O11  1  0.74857509  0.28339668  0.71945414  1
  O  O12  1  0.75476931  0.72594083  0.72594083  1
  O  O13  1  0.29334903  0.72594083  0.72594083  1
