# generated using pymatgen
data_Li3V3(BO5)2
_symmetry_space_group_name_H-M   'P 1'
_cell_length_a   9.40774192
_cell_length_b   12.10698805
_cell_length_c   2.99732403
_cell_angle_alpha   89.83136173
_cell_angle_beta   88.85477980
_cell_angle_gamma   89.01141870
_symmetry_Int_Tables_number   1
_chemical_formula_structural   Li3V3(BO5)2
_chemical_formula_sum   'Li6 V6 B4 O20'
_cell_volume   341.27331424
_cell_formula_units_Z   2
loop_
 _symmetry_equiv_pos_site_id
 _symmetry_equiv_pos_as_xyz
  1  'x, y, z'
loop_
 _atom_site_type_symbol
 _atom_site_label
 _atom_site_symmetry_multiplicity
 _atom_site_fract_x
 _atom_site_fract_y
 _atom_site_fract_z
 _atom_site_occupancy
  Li  Li0  1  0.99994042  0.00005105  0.00008466  1
  Li  Li1  1  0.00012166  0.50003045  0.50025040  1
  Li  Li2  1  0.01018580  0.29057882  0.99927574  1
  Li  Li3  1  0.49993932  0.49998954  0.00001773  1
  Li  Li4  1  0.50005323  0.00006100  0.49994399  1
  Li  Li5  1  0.98986213  0.70932752  0.00107347  1
  V  V6  1  0.23380633  0.10956901  0.51918888  1
  V  V7  1  0.25322994  0.61057094  0.52445960  1
  V  V8  1  0.50288581  0.78220360  0.99752641  1
  V  V9  1  0.49710092  0.21784601  0.00222129  1
  V  V10  1  0.74683660  0.38945603  0.47523830  1
  V  V11  1  0.76620127  0.89038351  0.48044855  1
  B  B12  1  0.23137768  0.85784909  0.49619121  1
  B  B13  1  0.26483040  0.36760773  0.49630055  1
  B  B14  1  0.73513172  0.63237227  0.50381036  1
  B  B15  1  0.76856661  0.14215240  0.50388880  1
  O  O16  1  0.11984137  0.14447043  0.98374972  1
  O  O17  1  0.13747254  0.57577680  0.99008542  1
  O  O18  1  0.12417495  0.36074433  0.49316630  1
  O  O19  1  0.15975785  0.76168882  0.49446567  1
  O  O20  1  0.15990403  0.95878440  0.48522984  1
  O  O21  1  0.34714425  0.46133258  0.49900415  1
  O  O22  1  0.35000666  0.26296261  0.50285586  1
  O  O23  1  0.38325822  0.85581923  0.49889867  1
  O  O24  1  0.37674693  0.07939477  0.01186625  1
  O  O25  1  0.38773501  0.65209074  0.00712549  1
  O  O26  1  0.61232849  0.34790426  0.99278949  1
  O  O27  1  0.62325094  0.92060008  0.98792003  1
  O  O28  1  0.61670429  0.14420483  0.50082311  1
  O  O29  1  0.64996533  0.73704324  0.49687032  1
  O  O30  1  0.65281877  0.53866487  0.50106674  1
  O  O31  1  0.84000948  0.04119062  0.51490578  1
  O  O32  1  0.84022700  0.23829425  0.50593717  1
  O  O33  1  0.87579479  0.63924102  0.50728021  1
  O  O34  1  0.86262364  0.42425133  0.01003584  1
  O  O35  1  0.88016661  0.85548879  0.01600697  1
