# generated using pymatgen
data_LiCr2(SO4)3
_symmetry_space_group_name_H-M   'P 1'
_cell_length_a   8.74351978
_cell_length_b   8.74351978
_cell_length_c   8.74351978
_cell_angle_alpha   59.44531928
_cell_angle_beta   59.44531928
_cell_angle_gamma   59.44531916
_symmetry_Int_Tables_number   1
_chemical_formula_structural   LiCr2(SO4)3
_chemical_formula_sum   'Li2 Cr4 S6 O24'
_cell_volume   466.69012582
_cell_formula_units_Z   2
loop_
 _symmetry_equiv_pos_site_id
 _symmetry_equiv_pos_as_xyz
  1  'x, y, z'
loop_
 _atom_site_type_symbol
 _atom_site_label
 _atom_site_symmetry_multiplicity
 _atom_site_fract_x
 _atom_site_fract_y
 _atom_site_fract_z
 _atom_site_occupancy
  Li  Li0  1  0.00000000  0.00000000  0.00000000  1
  Li  Li1  1  0.50000000  0.50000000  0.50000000  1
  Cr  Cr2  1  0.35667358  0.35667358  0.35667358  1
  Cr  Cr3  1  0.14332642  0.14332642  0.14332642  1
  Cr  Cr4  1  0.64332642  0.64332642  0.64332642  1
  Cr  Cr5  1  0.85667358  0.85667358  0.85667358  1
  S  S6  1  0.04451907  0.75000000  0.45548093  1
  S  S7  1  0.54451907  0.95548093  0.25000000  1
  S  S8  1  0.25000000  0.54451907  0.95548093  1
  S  S9  1  0.75000000  0.45548093  0.04451907  1
  S  S10  1  0.45548093  0.04451907  0.75000000  1
  S  S11  1  0.95548093  0.25000000  0.54451907  1
  O  O12  1  0.05923393  0.90870423  0.27082713  1
  O  O13  1  0.09129577  0.72917287  0.94076607  1
  O  O14  1  0.49163300  0.89384999  0.69335389  1
  O  O15  1  0.60615001  0.00836700  0.80664611  1
  O  O16  1  0.22917287  0.59129577  0.44076607  1
  O  O17  1  0.55923393  0.77082713  0.40870423  1
  O  O18  1  0.72917287  0.94076607  0.09129577  1
  O  O19  1  0.99163300  0.19335389  0.39384999  1
  O  O20  1  0.30664611  0.50836700  0.10615001  1
  O  O21  1  0.10615001  0.30664611  0.50836700  1
  O  O22  1  0.19335389  0.39384999  0.99163300  1
  O  O23  1  0.40870423  0.55923393  0.77082713  1
  O  O24  1  0.59129577  0.44076607  0.22917287  1
  O  O25  1  0.89384999  0.69335389  0.49163300  1
  O  O26  1  0.80664611  0.60615001  0.00836700  1
  O  O27  1  0.00836700  0.80664611  0.60615001  1
  O  O28  1  0.69335389  0.49163300  0.89384999  1
  O  O29  1  0.27082713  0.05923393  0.90870423  1
  O  O30  1  0.44076607  0.22917287  0.59129577  1
  O  O31  1  0.77082713  0.40870423  0.55923393  1
  O  O32  1  0.50836700  0.10615001  0.30664611  1
  O  O33  1  0.39384999  0.99163300  0.19335389  1
  O  O34  1  0.90870423  0.27082713  0.05923393  1
  O  O35  1  0.94076607  0.09129577  0.72917287  1
