# generated using pymatgen
data_La3Mg2NbO9
_symmetry_space_group_name_H-M   'P 1'
_cell_length_a   5.65325568
_cell_length_b   8.01346220
_cell_length_c   9.84688127
_cell_angle_alpha   65.98953051
_cell_angle_beta   73.31808459
_cell_angle_gamma   90.00000000
_symmetry_Int_Tables_number   1
_chemical_formula_structural   La3Mg2NbO9
_chemical_formula_sum   'La6 Mg4 Nb2 O18'
_cell_volume   386.84257377
_cell_formula_units_Z   2
loop_
 _symmetry_equiv_pos_site_id
 _symmetry_equiv_pos_as_xyz
  1  'x, y, z'
loop_
 _atom_site_type_symbol
 _atom_site_label
 _atom_site_symmetry_multiplicity
 _atom_site_fract_x
 _atom_site_fract_y
 _atom_site_fract_z
 _atom_site_occupancy
  La  La0  1  0.50000000  0.27891259  0.00000000  1
  La  La1  1  0.85247238  0.58636335  0.29505424  1
  La  La2  1  0.14752762  0.88141859  0.70494576  1
  La  La3  1  0.50000000  0.72108741  0.00000000  1
  La  La4  1  0.85247238  0.11858141  0.29505424  1
  La  La5  1  0.14752762  0.41363665  0.70494576  1
  Mg  Mg6  1  -0.00000000  -0.00000000  0.00000000  1
  Mg  Mg7  1  0.33234780  0.33234780  0.33530339  1
  Mg  Mg8  1  0.66765220  0.66765220  0.66469661  1
  Mg  Mg9  1  -0.00000000  0.50000000  0.00000000  1
  Nb  Nb10  1  0.33108679  0.83108679  0.33782542  1
  Nb  Nb11  1  0.66891321  0.16891321  0.66217458  1
  O  O12  1  -0.00000000  0.24944139  0.00000000  1
  O  O13  1  0.34445210  0.59695072  0.31109480  1
  O  O14  1  0.65554790  0.90804652  0.68890520  1
  O  O15  1  0.16771194  0.41762870  0.16474260  1
  O  O16  1  0.48297771  0.74581936  0.50836027  1
  O  O17  1  0.84957048  0.08857855  0.82284391  1
  O  O18  1  0.33245455  0.58237130  0.83525740  1
  O  O19  1  0.67241339  0.91142145  0.17715609  1
  O  O20  1  0.99133898  0.25418064  0.49163973  1
  O  O21  1  -0.00000000  0.75055861  0.00000000  1
  O  O22  1  0.34445210  0.09195348  0.31109480  1
  O  O23  1  0.65554790  0.40304928  0.68890520  1
  O  O24  1  0.83228806  0.58237130  0.83525740  1
  O  O25  1  0.15042952  0.91142145  0.17715609  1
  O  O26  1  0.51702229  0.25418064  0.49163973  1
  O  O27  1  0.66754545  0.41762870  0.16474260  1
  O  O28  1  0.00866102  0.74581936  0.50836027  1
  O  O29  1  0.32758661  0.08857855  0.82284391  1
