# generated using pymatgen
data_Li3VB4O9
_symmetry_space_group_name_H-M   'P 1'
_cell_length_a   5.78345184
_cell_length_b   8.76149856
_cell_length_c   6.74984756
_cell_angle_alpha   90.00000000
_cell_angle_beta   102.41095301
_cell_angle_gamma   90.00000000
_symmetry_Int_Tables_number   1
_chemical_formula_structural   Li3VB4O9
_chemical_formula_sum   'Li6 V2 B8 O18'
_cell_volume   334.03354415
_cell_formula_units_Z   2
loop_
 _symmetry_equiv_pos_site_id
 _symmetry_equiv_pos_as_xyz
  1  'x, y, z'
loop_
 _atom_site_type_symbol
 _atom_site_label
 _atom_site_symmetry_multiplicity
 _atom_site_fract_x
 _atom_site_fract_y
 _atom_site_fract_z
 _atom_site_occupancy
  Li  Li0  1  0.23633540  0.56581991  0.16452694  1
  Li  Li1  1  0.23633540  0.93418009  0.16452694  1
  Li  Li2  1  0.41822102  0.25000000  0.47585341  1
  Li  Li3  1  0.58177898  0.75000000  0.52414659  1
  Li  Li4  1  0.76366460  0.06581991  0.83547306  1
  Li  Li5  1  0.76366460  0.43418009  0.83547306  1
  V  V6  1  0.25585740  0.25000000  0.88469863  1
  V  V7  1  0.74414260  0.75000000  0.11530137  1
  B  B8  1  0.01905749  0.25000000  0.23241871  1
  B  B9  1  0.13279355  0.75000000  0.46276247  1
  B  B10  1  0.27531557  0.54774201  0.72023087  1
  B  B11  1  0.27531557  0.95225799  0.72023087  1
  B  B12  1  0.72468443  0.04774201  0.27976913  1
  B  B13  1  0.72468443  0.45225799  0.27976913  1
  B  B14  1  0.86720645  0.25000000  0.53723753  1
  B  B15  1  0.98094251  0.75000000  0.76758129  1
  O  O16  1  0.12984687  0.60761503  0.84270774  1
  O  O17  1  0.12984687  0.89238497  0.84270774  1
  O  O18  1  0.07625256  0.25000000  0.45295267  1
  O  O19  1  0.07977141  0.75000000  0.24327588  1
  O  O20  1  0.28780485  0.61332933  0.53705804  1
  O  O21  1  0.28780485  0.88667067  0.53705804  1
  O  O22  1  0.23821020  0.25000000  0.16249853  1
  O  O23  1  0.41176570  0.07878460  0.78652519  1
  O  O24  1  0.41176570  0.42121540  0.78652519  1
  O  O25  1  0.58823430  0.92121540  0.21347481  1
  O  O26  1  0.58823430  0.57878460  0.21347481  1
  O  O27  1  0.76178980  0.75000000  0.83750147  1
  O  O28  1  0.71219515  0.11332933  0.46294196  1
  O  O29  1  0.71219515  0.38667067  0.46294196  1
  O  O30  1  0.92022859  0.25000000  0.75672412  1
  O  O31  1  0.92374744  0.75000000  0.54704733  1
  O  O32  1  0.87015313  0.10761503  0.15729226  1
  O  O33  1  0.87015313  0.39238497  0.15729226  1
