# generated using pymatgen
data_Rb8Fe2O7
_symmetry_space_group_name_H-M   'P 1'
_cell_length_a   10.19476991
_cell_length_b   12.86462086
_cell_length_c   11.97813488
_cell_angle_alpha   90.00000000
_cell_angle_beta   107.63970275
_cell_angle_gamma   90.00000000
_symmetry_Int_Tables_number   1
_chemical_formula_structural   Rb8Fe2O7
_chemical_formula_sum   'Rb32 Fe8 O28'
_cell_volume   1497.08969694
_cell_formula_units_Z   4
loop_
 _symmetry_equiv_pos_site_id
 _symmetry_equiv_pos_as_xyz
  1  'x, y, z'
loop_
 _atom_site_type_symbol
 _atom_site_label
 _atom_site_symmetry_multiplicity
 _atom_site_fract_x
 _atom_site_fract_y
 _atom_site_fract_z
 _atom_site_occupancy
  Rb  Rb0  1  0.11636101  0.47899717  0.92301249  1
  Rb  Rb1  1  0.07617828  0.46004712  0.64348590  1
  Rb  Rb2  1  0.10410802  0.74142025  0.53174989  1
  Rb  Rb3  1  0.11636101  0.02100283  0.42301249  1
  Rb  Rb4  1  0.24818403  0.94298187  0.71526229  1
  Rb  Rb5  1  0.07617828  0.03995288  0.14348590  1
  Rb  Rb6  1  0.28961521  0.24287441  0.56860725  1
  Rb  Rb7  1  0.10410802  0.75857975  0.03174989  1
  Rb  Rb8  1  0.42782859  0.47364168  0.85559942  1
  Rb  Rb9  1  0.33353728  0.50772461  0.51445424  1
  Rb  Rb10  1  0.24818403  0.55701813  0.21526229  1
  Rb  Rb11  1  0.49734520  0.22781540  0.87226906  1
  Rb  Rb12  1  0.28961521  0.25712559  0.06860725  1
  Rb  Rb13  1  0.50265480  0.72781540  0.62773094  1
  Rb  Rb14  1  0.42782859  0.02635832  0.35559942  1
  Rb  Rb15  1  0.66646272  0.00772461  0.98554576  1
  Rb  Rb16  1  0.33353728  0.99227539  0.01445424  1
  Rb  Rb17  1  0.57217141  0.97364168  0.64440058  1
  Rb  Rb18  1  0.49734520  0.27218460  0.37226906  1
  Rb  Rb19  1  0.71038479  0.74287441  0.93139275  1
  Rb  Rb20  1  0.50265480  0.77218460  0.12773094  1
  Rb  Rb21  1  0.75181597  0.44298187  0.78473771  1
  Rb  Rb22  1  0.66646272  0.49227539  0.48554576  1
  Rb  Rb23  1  0.57217141  0.52635832  0.14440058  1
  Rb  Rb24  1  0.89589198  0.24142025  0.96825011  1
  Rb  Rb25  1  0.71038479  0.75712559  0.43139275  1
  Rb  Rb26  1  0.92382172  0.96004712  0.85651410  1
  Rb  Rb27  1  0.75181597  0.05701813  0.28473771  1
  Rb  Rb28  1  0.88363899  0.97899717  0.57698751  1
  Rb  Rb29  1  0.89589198  0.25857975  0.46825011  1
  Rb  Rb30  1  0.92382172  0.53995288  0.35651410  1
  Rb  Rb31  1  0.88363899  0.52100283  0.07698751  1
  Fe  Fe32  1  0.08562314  0.20361883  0.76942809  1
  Fe  Fe33  1  0.08562314  0.29638117  0.26942809  1
  Fe  Fe34  1  0.29460385  0.71277652  0.84079384  1
  Fe  Fe35  1  0.29460385  0.78722348  0.34079384  1
  Fe  Fe36  1  0.70539615  0.21277652  0.65920616  1
  Fe  Fe37  1  0.70539615  0.28722348  0.15920616  1
  Fe  Fe38  1  0.91437686  0.70361883  0.73057191  1
  Fe  Fe39  1  0.91437686  0.79638117  0.23057191  1
  O  O40  1  0.11376200  0.11856962  0.90856614  1
  O  O41  1  0.10382565  0.77553344  0.78274708  1
  O  O42  1  0.09970259  0.12257196  0.63886059  1
  O  O43  1  0.11376200  0.38143038  0.40856614  1
  O  O44  1  0.22007872  0.31445885  0.80636736  1
  O  O45  1  0.10382565  0.72446656  0.28274708  1
  O  O46  1  0.09970259  0.37742804  0.13886059  1
  O  O47  1  0.31395211  0.62836384  0.71334618  1
  O  O48  1  0.22007872  0.18554115  0.30636736  1
  O  O49  1  0.42466156  0.82951980  0.88498541  1
  O  O50  1  0.32507472  0.87443759  0.47789873  1
  O  O51  1  0.31395211  0.87163616  0.21334618  1
  O  O52  1  0.42466156  0.67048020  0.38498541  1
  O  O53  1  0.67492528  0.37443759  0.02210127  1
  O  O54  1  0.32507472  0.62556241  0.97789873  1
  O  O55  1  0.57533844  0.32951980  0.61501459  1
  O  O56  1  0.68604789  0.12836384  0.78665382  1
  O  O57  1  0.67492528  0.12556241  0.52210127  1
  O  O58  1  0.57533844  0.17048020  0.11501459  1
  O  O59  1  0.77992128  0.81445885  0.69363264  1
  O  O60  1  0.68604789  0.37163616  0.28665382  1
  O  O61  1  0.90029741  0.62257196  0.86113941  1
  O  O62  1  0.89617435  0.27553344  0.71725292  1
  O  O63  1  0.77992128  0.68554115  0.19363264  1
  O  O64  1  0.88623800  0.61856962  0.59143386  1
  O  O65  1  0.90029741  0.87742804  0.36113941  1
  O  O66  1  0.89617435  0.22446656  0.21725292  1
  O  O67  1  0.88623800  0.88143038  0.09143386  1
