# generated using pymatgen
data_Fe3CoNi2(PO4)6
_symmetry_space_group_name_H-M   'P 1'
_cell_length_a   8.43322405
_cell_length_b   8.43322457
_cell_length_c   8.43322445
_cell_angle_alpha   61.02737339
_cell_angle_beta   61.02737514
_cell_angle_gamma   61.02737238
_symmetry_Int_Tables_number   1
_chemical_formula_structural   Fe3CoNi2(PO4)6
_chemical_formula_sum   'Fe3 Co1 Ni2 P6 O24'
_cell_volume   433.91016886
_cell_formula_units_Z   1
loop_
 _symmetry_equiv_pos_site_id
 _symmetry_equiv_pos_as_xyz
  1  'x, y, z'
loop_
 _atom_site_type_symbol
 _atom_site_label
 _atom_site_symmetry_multiplicity
 _atom_site_fract_x
 _atom_site_fract_y
 _atom_site_fract_z
 _atom_site_occupancy
  Fe  Fe0  1  0.14287146  0.14287146  0.14287146  1
  Fe  Fe1  1  0.35600081  0.35600081  0.35600081  1
  Fe  Fe2  1  0.64305144  0.64305144  0.64305144  1
  Co  Co3  1  0.85830761  0.85830761  0.85830761  1
  Ni  Ni4  1  0.00023432  0.00023432  0.00023432  1
  Ni  Ni5  1  0.50044313  0.50044313  0.50044313  1
  P  P6  1  0.04214953  0.75055554  0.45877979  1
  P  P7  1  0.45877979  0.04214953  0.75055554  1
  P  P8  1  0.75055554  0.45877979  0.04214953  1
  P  P9  1  0.24735842  0.54596875  0.95117930  1
  P  P10  1  0.54596875  0.95117930  0.24735842  1
  P  P11  1  0.95117930  0.24735842  0.54596875  1
  O  O12  1  0.10929797  0.31148448  0.51163282  1
  O  O13  1  0.31148448  0.51163282  0.10929797  1
  O  O14  1  0.05714077  0.90915477  0.25969656  1
  O  O15  1  0.51163282  0.10929797  0.31148448  1
  O  O16  1  0.00469792  0.81987845  0.61900041  1
  O  O17  1  0.24239968  0.59262916  0.44676676  1
  O  O18  1  0.25969656  0.05714077  0.90915477  1
  O  O19  1  0.44676676  0.24239968  0.59262916  1
  O  O20  1  0.17774923  0.39007561  0.99354270  1
  O  O21  1  0.59262916  0.44676676  0.24239968  1
  O  O22  1  0.08191000  0.74776719  0.93898037  1
  O  O23  1  0.39007561  0.99354270  0.17774923  1
  O  O24  1  0.61900041  0.00469792  0.81987845  1
  O  O25  1  0.90915477  0.25969656  0.05714077  1
  O  O26  1  0.40508814  0.56361208  0.75250588  1
  O  O27  1  0.81987845  0.61900041  0.00469792  1
  O  O28  1  0.56361208  0.75250588  0.40508814  1
  O  O29  1  0.74776719  0.93898037  0.08191000  1
  O  O30  1  0.75250588  0.40508814  0.56361208  1
  O  O31  1  0.99354270  0.17774923  0.39007561  1
  O  O32  1  0.50015432  0.88819991  0.67973372  1
  O  O33  1  0.93898037  0.08191000  0.74776719  1
  O  O34  1  0.67973372  0.50015432  0.88819991  1
  O  O35  1  0.88819991  0.67973372  0.50015432  1
