# generated using pymatgen
data_Li2Cr2O7
_symmetry_space_group_name_H-M   'P 1'
_cell_length_a   12.97772052
_cell_length_b   7.63595385
_cell_length_c   6.07895380
_cell_angle_alpha   89.33944788
_cell_angle_beta   100.86717714
_cell_angle_gamma   90.25504263
_symmetry_Int_Tables_number   1
_chemical_formula_structural   Li2Cr2O7
_chemical_formula_sum   'Li8 Cr8 O28'
_cell_volume   591.56379805
_cell_formula_units_Z   4
loop_
 _symmetry_equiv_pos_site_id
 _symmetry_equiv_pos_as_xyz
  1  'x, y, z'
loop_
 _atom_site_type_symbol
 _atom_site_label
 _atom_site_symmetry_multiplicity
 _atom_site_fract_x
 _atom_site_fract_y
 _atom_site_fract_z
 _atom_site_occupancy
  Li  Li0  1  0.16003149  0.19308417  0.91730209  1
  Li  Li1  1  0.15527350  0.87945805  0.38578035  1
  Li  Li2  1  0.32240780  0.56705237  0.80614513  1
  Li  Li3  1  0.41645645  0.24977964  0.22947138  1
  Li  Li4  1  0.58354355  0.75022036  0.77052862  1
  Li  Li5  1  0.67759220  0.43294763  0.19385487  1
  Li  Li6  1  0.84472650  0.12054195  0.61421965  1
  Li  Li7  1  0.83996851  0.80691583  0.08269791  1
  Cr  Cr8  1  0.10839492  0.64799343  0.88234551  1
  Cr  Cr9  1  0.11579232  0.27505963  0.40924651  1
  Cr  Cr10  1  0.38397186  0.05638579  0.74867962  1
  Cr  Cr11  1  0.41472722  0.67093211  0.30171877  1
  Cr  Cr12  1  0.58527278  0.32906789  0.69828123  1
  Cr  Cr13  1  0.61602814  0.94361421  0.25132038  1
  Cr  Cr14  1  0.88420768  0.72494037  0.59075349  1
  Cr  Cr15  1  0.89160508  0.35200657  0.11765449  1
  O  O16  1  0.01527958  0.41872357  0.27305499  1
  O  O17  1  0.07522030  0.16547029  0.61031349  1
  O  O18  1  0.09018307  0.76600349  0.09357187  1
  O  O19  1  0.17827831  0.47190906  0.96268367  1
  O  O20  1  0.16870764  0.76178722  0.71371734  1
  O  O21  1  0.14085875  0.13343206  0.22276556  1
  O  O22  1  0.21804684  0.39062868  0.51350858  1
  O  O23  1  0.29170365  0.99712783  0.54559123  1
  O  O24  1  0.32825226  0.14544266  0.94477649  1
  O  O25  1  0.32234297  0.80264619  0.19071351  1
  O  O26  1  0.39294269  0.59818526  0.54134602  1
  O  O27  1  0.45369115  0.88239320  0.83596213  1
  O  O28  1  0.46109983  0.21255661  0.62599124  1
  O  O29  1  0.41457656  0.50617536  0.12473957  1
  O  O30  1  0.58542344  0.49382464  0.87526043  1
  O  O31  1  0.53890017  0.78744339  0.37400876  1
  O  O32  1  0.54630885  0.11760680  0.16403787  1
  O  O33  1  0.60705731  0.40181474  0.45865398  1
  O  O34  1  0.67765703  0.19735381  0.80928649  1
  O  O35  1  0.67174774  0.85455734  0.05522351  1
  O  O36  1  0.70829635  0.00287217  0.45440877  1
  O  O37  1  0.78195316  0.60937132  0.48649142  1
  O  O38  1  0.85914125  0.86656794  0.77723444  1
  O  O39  1  0.83129236  0.23821278  0.28628266  1
  O  O40  1  0.82172169  0.52809094  0.03731633  1
  O  O41  1  0.90981693  0.23399651  0.90642813  1
  O  O42  1  0.92477970  0.83452971  0.38968651  1
  O  O43  1  0.98472042  0.58127643  0.72694501  1
