# generated using pymatgen
data_KCN
_symmetry_space_group_name_H-M   'P 1'
_cell_length_a   4.60180545
_cell_length_b   7.82121581
_cell_length_c   8.43649013
_cell_angle_alpha   70.93422800
_cell_angle_beta   87.70971721
_cell_angle_gamma   86.06574999
_symmetry_Int_Tables_number   1
_chemical_formula_structural   KCN
_chemical_formula_sum   'K4 C4 N4'
_cell_volume   286.26122323
_cell_formula_units_Z   4
loop_
 _symmetry_equiv_pos_site_id
 _symmetry_equiv_pos_as_xyz
  1  'x, y, z'
loop_
 _atom_site_type_symbol
 _atom_site_label
 _atom_site_symmetry_multiplicity
 _atom_site_fract_x
 _atom_site_fract_y
 _atom_site_fract_z
 _atom_site_occupancy
  K  K0  1  0.78866699  0.52284549  0.23914779  1
  K  K1  1  0.20847639  0.47741584  0.75471994  1
  K  K2  1  0.29442970  0.01832803  0.25807363  1
  K  K3  1  0.70402783  0.98353501  0.73673926  1
  C  C4  1  0.81784339  0.79834982  0.44920749  1
  C  C5  1  0.32559096  0.29895595  0.45039850  1
  C  C6  1  0.18983173  0.73765455  0.94644425  1
  C  C7  1  0.69285313  0.23240958  0.94976542  1
  N  N8  1  0.18086272  0.19823975  0.55336202  1
  N  N9  1  0.67061670  0.69968998  0.55218868  1
  N  N10  1  0.81365340  0.26532146  0.05620858  1
  N  N11  1  0.31314706  0.76725455  0.05374444  1
