# generated using pymatgen
data_Na3CrSiBO7
_symmetry_space_group_name_H-M   'P 1'
_cell_length_a   8.97760469
_cell_length_b   6.47330958
_cell_length_c   5.28154580
_cell_angle_alpha   90.00000000
_cell_angle_beta   88.57650271
_cell_angle_gamma   90.00000000
_symmetry_Int_Tables_number   1
_chemical_formula_structural   Na3CrSiBO7
_chemical_formula_sum   'Na6 Cr2 Si2 B2 O14'
_cell_volume   306.84132909
_cell_formula_units_Z   2
loop_
 _symmetry_equiv_pos_site_id
 _symmetry_equiv_pos_as_xyz
  1  'x, y, z'
loop_
 _atom_site_type_symbol
 _atom_site_label
 _atom_site_symmetry_multiplicity
 _atom_site_fract_x
 _atom_site_fract_y
 _atom_site_fract_z
 _atom_site_occupancy
  Na  Na0  1  0.07915209  0.25000000  0.76000857  1
  Na  Na1  1  0.25854666  0.00635808  0.25649638  1
  Na  Na2  1  0.25854666  0.49364192  0.25649638  1
  Na  Na3  1  0.74145334  0.50635808  0.74350362  1
  Na  Na4  1  0.74145334  0.99364192  0.74350362  1
  Na  Na5  1  0.92084791  0.75000000  0.23999143  1
  Cr  Cr6  1  0.33319231  0.75000000  0.78956997  1
  Cr  Cr7  1  0.66680769  0.25000000  0.21043003  1
  Si  Si8  1  0.42831295  0.25000000  0.70999555  1
  Si  Si9  1  0.57168705  0.75000000  0.29000445  1
  B  B10  1  0.06603321  0.75000000  0.73404449  1
  B  B11  1  0.93396679  0.25000000  0.26595551  1
  O  O12  1  0.08101852  0.25000000  0.30155194  1
  O  O13  1  0.13458314  0.75000000  0.96970841  1
  O  O14  1  0.17601513  0.75000000  0.53765088  1
  O  O15  1  0.32014316  0.04958752  0.77586516  1
  O  O16  1  0.32014316  0.45041248  0.77586516  1
  O  O17  1  0.47475900  0.25000000  0.40734500  1
  O  O18  1  0.42450068  0.75000000  0.11371939  1
  O  O19  1  0.57549932  0.25000000  0.88628061  1
  O  O20  1  0.52524100  0.75000000  0.59265500  1
  O  O21  1  0.67985684  0.54958752  0.22413484  1
  O  O22  1  0.67985684  0.95041248  0.22413484  1
  O  O23  1  0.82398487  0.25000000  0.46234912  1
  O  O24  1  0.86541686  0.25000000  0.03029059  1
  O  O25  1  0.91898148  0.75000000  0.69844806  1
