# generated using pymatgen
data_LiCr3O9
_symmetry_space_group_name_H-M   'P 1'
_cell_length_a   10.46104315
_cell_length_b   12.92470670
_cell_length_c   12.92470670
_cell_angle_alpha   111.78351169
_cell_angle_beta   70.34884468
_cell_angle_gamma   70.34884468
_symmetry_Int_Tables_number   1
_chemical_formula_structural   LiCr3O9
_chemical_formula_sum   'Li6 Cr18 O54'
_cell_volume   1298.52237353
_cell_formula_units_Z   6
loop_
 _symmetry_equiv_pos_site_id
 _symmetry_equiv_pos_as_xyz
  1  'x, y, z'
loop_
 _atom_site_type_symbol
 _atom_site_label
 _atom_site_symmetry_multiplicity
 _atom_site_fract_x
 _atom_site_fract_y
 _atom_site_fract_z
 _atom_site_occupancy
  Li  Li0  1  0.49689285  0.33039279  0.17616452  1
  Li  Li1  1  0.99689285  0.17616452  0.33039279  1
  Li  Li2  1  0.99609773  0.84179554  0.66426151  1
  Li  Li3  1  0.53255044  0.98709927  0.47437139  1
  Li  Li4  1  0.49609773  0.66426151  0.84179554  1
  Li  Li5  1  0.03255044  0.47437139  0.98709927  1
  Cr  Cr6  1  0.81133168  0.09296697  0.15877841  1
  Cr  Cr7  1  0.31133168  0.15877841  0.09296697  1
  Cr  Cr8  1  0.70472017  0.17202289  0.56784025  1
  Cr  Cr9  1  0.69577960  0.50928409  0.23664024  1
  Cr  Cr10  1  0.20472017  0.56784025  0.17202289  1
  Cr  Cr11  1  0.19577960  0.23664024  0.50928409  1
  Cr  Cr12  1  0.79602752  0.82894323  0.11816163  1
  Cr  Cr13  1  0.74172443  0.18856351  0.81894913  1
  Cr  Cr14  1  0.72107243  0.53724658  0.50052019  1
  Cr  Cr15  1  0.29602752  0.11816163  0.82894323  1
  Cr  Cr16  1  0.24172443  0.81894913  0.18856351  1
  Cr  Cr17  1  0.84773401  0.73242373  0.46357760  1
  Cr  Cr18  1  0.22107243  0.50052019  0.53724658  1
  Cr  Cr19  1  0.84794364  0.40225830  0.80541591  1
  Cr  Cr20  1  0.34773401  0.46357760  0.73242373  1
  Cr  Cr21  1  0.34794364  0.80541591  0.40225830  1
  Cr  Cr22  1  0.65912181  0.86720978  0.92631304  1
  Cr  Cr23  1  0.15912181  0.92631304  0.86720978  1
  O  O24  1  0.98151312  0.04892622  0.00967402  1
  O  O25  1  0.48151312  0.00967402  0.04892622  1
  O  O26  1  0.64724468  0.16026012  0.16098591  1
  O  O27  1  0.81641498  0.17402538  0.28654094  1
  O  O28  1  0.14724468  0.16098591  0.16026012  1
  O  O29  1  0.69823995  0.04866351  0.47914274  1
  O  O30  1  0.31641498  0.28654094  0.17402538  1
  O  O31  1  0.67556915  0.38783981  0.16543740  1
  O  O32  1  0.86194797  0.49965505  0.15802819  1
  O  O33  1  0.86620194  0.17384143  0.50314544  1
  O  O34  1  0.19823995  0.47914274  0.04866351  1
  O  O35  1  0.92525623  0.68986091  0.08156398  1
  O  O36  1  0.17556915  0.16543740  0.38783981  1
  O  O37  1  0.90688482  0.04763405  0.73154301  1
  O  O38  1  0.86343164  0.38884163  0.43197958  1
  O  O39  1  0.36194797  0.15802819  0.49965505  1
  O  O40  1  0.36620194  0.50314544  0.17384143  1
  O  O41  1  0.74150729  0.79752621  0.99986763  1
  O  O42  1  0.42525623  0.08156398  0.68986091  1
  O  O43  1  0.40688482  0.73154301  0.04763405  1
  O  O44  1  0.36343164  0.43197958  0.38884163  1
  O  O45  1  0.24150729  0.99986763  0.79752621  1
  O  O46  1  0.64895352  0.20018599  0.73353213  1
  O  O47  1  0.64504680  0.54963914  0.40498661  1
  O  O48  1  0.88227838  0.91913245  0.10931443  1
  O  O49  1  0.53222742  0.32507764  0.62186526  1
  O  O50  1  0.52737983  0.66268484  0.28646529  1
  O  O51  1  0.14895352  0.73353213  0.20018599  1
  O  O52  1  0.14504680  0.40498661  0.54963914  1
  O  O53  1  0.38227838  0.10931443  0.91913245  1
  O  O54  1  0.03222742  0.62186526  0.32507764  1
  O  O55  1  0.02737983  0.28646529  0.66268484  1
  O  O56  1  0.79293377  0.64355203  0.52705114  1
  O  O57  1  0.77648277  0.31810716  0.86490984  1
  O  O58  1  0.62323614  0.20954165  0.95275086  1
  O  O59  1  0.64084581  0.90744576  0.26287543  1
  O  O60  1  0.72037201  0.80007246  0.43037101  1
  O  O61  1  0.72207261  0.48919553  0.78235484  1
  O  O62  1  0.29293377  0.52705114  0.64355203  1
  O  O63  1  0.57893271  0.58719901  0.64115067  1
  O  O64  1  0.27648277  0.86490984  0.31810716  1
  O  O65  1  0.12323614  0.95275086  0.20954165  1
  O  O66  1  0.14084581  0.26287543  0.90744576  1
  O  O67  1  0.22037201  0.43037101  0.80007246  1
  O  O68  1  0.87379326  0.49360762  0.91145719  1
  O  O69  1  0.85553686  0.84167200  0.56956182  1
  O  O70  1  0.22207261  0.78235484  0.48919553  1
  O  O71  1  0.07893271  0.64115067  0.58719901  1
  O  O72  1  0.37379326  0.91145719  0.49360762  1
  O  O73  1  0.35553686  0.56956182  0.84167200  1
  O  O74  1  0.62837980  0.76628372  0.83489616  1
  O  O75  1  0.78069620  0.89447617  0.84092153  1
  O  O76  1  0.12837980  0.83489616  0.76628372  1
  O  O77  1  0.28069620  0.84092153  0.89447617  1
