# generated using pymatgen
data_Na6Co2As(CO4)4
_symmetry_space_group_name_H-M   'P 1'
_cell_length_a   9.92093417
_cell_length_b   9.92093425
_cell_length_c   9.92093453
_cell_angle_alpha   60.00000112
_cell_angle_beta   60.00000123
_cell_angle_gamma   60.00000028
_symmetry_Int_Tables_number   1
_chemical_formula_structural   Na6Co2As(CO4)4
_chemical_formula_sum   'Na12 Co4 As2 C8 O32'
_cell_volume   690.46669255
_cell_formula_units_Z   2
loop_
 _symmetry_equiv_pos_site_id
 _symmetry_equiv_pos_as_xyz
  1  'x, y, z'
loop_
 _atom_site_type_symbol
 _atom_site_label
 _atom_site_symmetry_multiplicity
 _atom_site_fract_x
 _atom_site_fract_y
 _atom_site_fract_z
 _atom_site_occupancy
  Na  Na0  1  0.16428963  0.08571037  0.08571037  1
  Na  Na1  1  0.16428963  0.66428963  0.08571037  1
  Na  Na2  1  0.16428963  0.08571037  0.66428963  1
  Na  Na3  1  0.41428963  0.33571037  0.33571037  1
  Na  Na4  1  0.58571037  0.66428963  0.08571037  1
  Na  Na5  1  0.58571037  0.08571037  0.66428963  1
  Na  Na6  1  0.41428963  0.33571037  0.91428963  1
  Na  Na7  1  0.41428963  0.91428963  0.33571037  1
  Na  Na8  1  0.58571037  0.66428963  0.66428963  1
  Na  Na9  1  0.83571037  0.33571037  0.91428963  1
  Na  Na10  1  0.83571037  0.91428963  0.33571037  1
  Na  Na11  1  0.83571037  0.91428963  0.91428963  1
  Co  Co12  1  0.00000000  0.00000000  0.50000000  1
  Co  Co13  1  0.00000000  0.50000000  0.00000000  1
  Co  Co14  1  0.00000000  0.50000000  0.50000000  1
  Co  Co15  1  0.50000000  0.50000000  0.50000000  1
  As  As16  1  0.62500000  0.12500000  0.12500000  1
  As  As17  1  0.37500000  0.87500000  0.87500000  1
  C  C18  1  0.14389774  0.28536742  0.28536742  1
  C  C19  1  0.21463258  0.71463258  0.35610226  1
  C  C20  1  0.21463258  0.35610226  0.71463258  1
  C  C21  1  0.21463258  0.71463258  0.71463258  1
  C  C22  1  0.78536742  0.28536742  0.28536742  1
  C  C23  1  0.78536742  0.64389774  0.28536742  1
  C  C24  1  0.78536742  0.28536742  0.64389774  1
  C  C25  1  0.85610226  0.71463258  0.71463258  1
  O  O26  1  0.14685352  0.31247206  0.14186687  1
  O  O27  1  0.14685352  0.14186687  0.39880755  1
  O  O28  1  0.14685352  0.39880755  0.31247206  1
  O  O29  1  0.10119245  0.68752794  0.35314648  1
  O  O30  1  0.55413115  0.05413115  0.05413115  1
  O  O31  1  0.18752794  0.35314648  0.60119245  1
  O  O32  1  0.10119245  0.35314648  0.85813313  1
  O  O33  1  0.55413115  0.05413115  0.33760554  1
  O  O34  1  0.55413115  0.33760554  0.05413115  1
  O  O35  1  0.18752794  0.85813313  0.35314648  1
  O  O36  1  0.35813313  0.60119245  0.35314648  1
  O  O37  1  0.83760554  0.05413115  0.05413115  1
  O  O38  1  0.10119245  0.85813313  0.68752794  1
  O  O39  1  0.35813313  0.35314648  0.68752794  1
  O  O40  1  0.18752794  0.60119245  0.85813313  1
  O  O41  1  0.64186687  0.31247206  0.39880755  1
  O  O42  1  0.35813313  0.68752794  0.60119245  1
  O  O43  1  0.81247206  0.39880755  0.14186687  1
  O  O44  1  0.64186687  0.64685352  0.31247206  1
  O  O45  1  0.89880755  0.14186687  0.31247206  1
  O  O46  1  0.16239446  0.94586885  0.94586885  1
  O  O47  1  0.64186687  0.39880755  0.64685352  1
  O  O48  1  0.81247206  0.14186687  0.64685352  1
  O  O49  1  0.44586885  0.94586885  0.66239446  1
  O  O50  1  0.44586885  0.66239446  0.94586885  1
  O  O51  1  0.89880755  0.64685352  0.14186687  1
  O  O52  1  0.81247206  0.64685352  0.39880755  1
  O  O53  1  0.44586885  0.94586885  0.94586885  1
  O  O54  1  0.89880755  0.31247206  0.64685352  1
  O  O55  1  0.85314648  0.60119245  0.68752794  1
  O  O56  1  0.85314648  0.85813313  0.60119245  1
  O  O57  1  0.85314648  0.68752794  0.85813313  1
