# generated using pymatgen
data_Na3TlPCO7
_symmetry_space_group_name_H-M   'P 1'
_cell_length_a   9.38857603
_cell_length_b   5.40465990
_cell_length_c   7.04699147
_cell_angle_alpha   90.00000000
_cell_angle_beta   90.00000000
_cell_angle_gamma   89.86967639
_symmetry_Int_Tables_number   1
_chemical_formula_structural   Na3TlPCO7
_chemical_formula_sum   'Na6 Tl2 P2 C2 O14'
_cell_volume   357.57794215
_cell_formula_units_Z   2
loop_
 _symmetry_equiv_pos_site_id
 _symmetry_equiv_pos_as_xyz
  1  'x, y, z'
loop_
 _atom_site_type_symbol
 _atom_site_label
 _atom_site_symmetry_multiplicity
 _atom_site_fract_x
 _atom_site_fract_y
 _atom_site_fract_z
 _atom_site_occupancy
  Na  Na0  1  0.01425129  0.99101775  0.48341243  1
  Na  Na1  1  0.17152572  0.50452019  0.20064147  1
  Na  Na2  1  0.48494267  0.52683338  0.47554688  1
  Na  Na3  1  0.51505733  0.47316662  0.97554688  1
  Na  Na4  1  0.82847428  0.49547981  0.70064147  1
  Na  Na5  1  0.98574871  0.00898225  0.98341243  1
  Tl  Tl6  1  0.31168704  0.98289134  0.75873566  1
  Tl  Tl7  1  0.68831296  0.01710866  0.25873566  1
  P  P8  1  0.33202778  0.99420365  0.23507868  1
  P  P9  1  0.66797222  0.00579635  0.73507868  1
  C  C10  1  0.14050439  0.48788650  0.74482362  1
  C  C11  1  0.85949561  0.51211350  0.24482362  1
  O  O12  1  0.06134450  0.29291877  0.72509140  1
  O  O13  1  0.07970963  0.70286760  0.76632039  1
  O  O14  1  0.21376299  0.07852735  0.09136458  1
  O  O15  1  0.25264568  0.93331273  0.42532991  1
  O  O16  1  0.28013724  0.47217807  0.74451665  1
  O  O17  1  0.40632150  0.75576535  0.16759807  1
  O  O18  1  0.43768721  0.21360343  0.25613827  1
  O  O19  1  0.56231279  0.78639657  0.75613827  1
  O  O20  1  0.59367850  0.24423465  0.66759807  1
  O  O21  1  0.71986276  0.52782193  0.24451665  1
  O  O22  1  0.74735432  0.06668727  0.92532991  1
  O  O23  1  0.78623701  0.92147265  0.59136458  1
  O  O24  1  0.92029037  0.29713240  0.26632039  1
  O  O25  1  0.93865550  0.70708123  0.22509140  1
