# generated using pymatgen
data_Cr2PO5
_symmetry_space_group_name_H-M   'P 1'
_cell_length_a   5.07985076
_cell_length_b   6.38680875
_cell_length_c   6.41821476
_cell_angle_alpha   108.59461837
_cell_angle_beta   106.20231008
_cell_angle_gamma   99.21125703
_symmetry_Int_Tables_number   1
_chemical_formula_structural   Cr2PO5
_chemical_formula_sum   'Cr4 P2 O10'
_cell_volume   182.29051809
_cell_formula_units_Z   2
loop_
 _symmetry_equiv_pos_site_id
 _symmetry_equiv_pos_as_xyz
  1  'x, y, z'
loop_
 _atom_site_type_symbol
 _atom_site_label
 _atom_site_symmetry_multiplicity
 _atom_site_fract_x
 _atom_site_fract_y
 _atom_site_fract_z
 _atom_site_occupancy
  Cr  Cr0  1  0.16462018  0.62629008  0.25486458  1
  Cr  Cr1  1  0.38182618  0.23549078  0.95007961  1
  Cr  Cr2  1  0.61817382  0.76450922  0.04992039  1
  Cr  Cr3  1  0.83537982  0.37370992  0.74513542  1
  P  P4  1  0.16404811  0.18263834  0.38828793  1
  P  P5  1  0.83595189  0.81736166  0.61171207  1
  O  O6  1  0.08939080  0.74213221  0.56009507  1
  O  O7  1  0.22802635  0.54808951  0.95382176  1
  O  O8  1  0.05894165  0.92402872  0.21504518  1
  O  O9  1  0.40740377  0.20451674  0.61190980  1
  O  O10  1  0.28713715  0.33050100  0.26660436  1
  O  O11  1  0.71286285  0.66949900  0.73339564  1
  O  O12  1  0.59259623  0.79548326  0.38809020  1
  O  O13  1  0.94105835  0.07597128  0.78495482  1
  O  O14  1  0.77197365  0.45191049  0.04617824  1
  O  O15  1  0.91060920  0.25786779  0.43990493  1
