# generated using pymatgen
data_MnTlO3
_symmetry_space_group_name_H-M   'P 1'
_cell_length_a   5.56038720
_cell_length_b   7.96530409
_cell_length_c   5.42177408
_cell_angle_alpha   90.00196666
_cell_angle_beta   90.00068366
_cell_angle_gamma   90.00359687
_symmetry_Int_Tables_number   1
_chemical_formula_structural   MnTlO3
_chemical_formula_sum   'Mn4 Tl4 O12'
_cell_volume   240.13132183
_cell_formula_units_Z   4
loop_
 _symmetry_equiv_pos_site_id
 _symmetry_equiv_pos_as_xyz
  1  'x, y, z'
loop_
 _atom_site_type_symbol
 _atom_site_label
 _atom_site_symmetry_multiplicity
 _atom_site_fract_x
 _atom_site_fract_y
 _atom_site_fract_z
 _atom_site_occupancy
  Mn  Mn0  1  0.00043649  0.00005094  0.49971522  1
  Mn  Mn1  1  0.99954252  0.49979834  0.50001057  1
  Mn  Mn2  1  0.49978653  0.99990863  0.99972867  1
  Mn  Mn3  1  0.49994389  0.50043110  0.00046640  1
  Tl  Tl4  1  0.04953732  0.24999836  0.98474184  1
  Tl  Tl5  1  0.45063466  0.75002561  0.48456365  1
  Tl  Tl6  1  0.54964010  0.25000588  0.51526908  1
  Tl  Tl7  1  0.95056274  0.74997714  0.01540057  1
  O  O8  1  0.05172469  0.74982791  0.60863970  1
  O  O9  1  0.19708535  0.55870801  0.19767691  1
  O  O10  1  0.19697339  0.94125292  0.19791539  1
  O  O11  1  0.30301120  0.05868178  0.69794785  1
  O  O12  1  0.30284042  0.44123839  0.69775587  1
  O  O13  1  0.44828036  0.24988095  0.10870454  1
  O  O14  1  0.55184396  0.75004840  0.89132054  1
  O  O15  1  0.69695405  0.94126899  0.30223056  1
  O  O16  1  0.69705751  0.55877492  0.30225950  1
  O  O17  1  0.80293434  0.05874440  0.80234881  1
  O  O18  1  0.80301987  0.44126318  0.80198453  1
  O  O19  1  0.94819060  0.25011415  0.39131980  1
