# generated using pymatgen
data_Li4MnNb2WO12
_symmetry_space_group_name_H-M   'P 1'
_cell_length_a   5.46757168
_cell_length_b   10.94511647
_cell_length_c   9.64061590
_cell_angle_alpha   28.18580256
_cell_angle_beta   51.10749419
_cell_angle_gamma   56.33503639
_symmetry_Int_Tables_number   1
_chemical_formula_structural   Li4MnNb2WO12
_chemical_formula_sum   'Li4 Mn1 Nb2 W1 O12'
_cell_volume   212.09338407
_cell_formula_units_Z   1
loop_
 _symmetry_equiv_pos_site_id
 _symmetry_equiv_pos_as_xyz
  1  'x, y, z'
loop_
 _atom_site_type_symbol
 _atom_site_label
 _atom_site_symmetry_multiplicity
 _atom_site_fract_x
 _atom_site_fract_y
 _atom_site_fract_z
 _atom_site_occupancy
  Li  Li0  1  0.25458678  0.99771551  0.31260154  1
  Li  Li1  1  0.32320478  0.49803680  0.27040072  1
  Li  Li2  1  0.77477146  0.00647739  0.73255651  1
  Li  Li3  1  0.76555735  0.49629972  0.81230559  1
  Mn  Mn4  1  0.00204036  0.50003470  0.99891467  1
  Nb  Nb5  1  0.48820094  0.00433349  0.50693204  1
  Nb  Nb6  1  0.52705787  0.49832196  0.50232477  1
  W  W7  1  0.00448347  0.00363459  0.00456701  1
  O  O8  1  0.35137042  0.29857930  0.13758384  1
  O  O9  1  0.22425962  0.12355615  0.63444708  1
  O  O10  1  0.11295647  0.31357025  0.74321185  1
  O  O11  1  0.85566311  0.20531918  0.23156290  1
  O  O12  1  0.36852464  0.81901030  0.11214894  1
  O  O13  1  0.72941912  0.39134864  0.35448468  1
  O  O14  1  0.24398884  0.61364264  0.63083312  1
  O  O15  1  0.62389520  0.17140025  0.88532875  1
  O  O16  1  0.13808277  0.80353325  0.73985218  1
  O  O17  1  0.88756400  0.69164320  0.23763690  1
  O  O18  1  0.75190282  0.87234127  0.36725776  1
  O  O19  1  0.64366897  0.69120341  0.85625016  1
