# generated using pymatgen
data_Na2FeBAsO7
_symmetry_space_group_name_H-M   'P 1'
_cell_length_a   9.18472707
_cell_length_b   6.86082540
_cell_length_c   5.39865807
_cell_angle_alpha   90.00000000
_cell_angle_beta   87.78905291
_cell_angle_gamma   90.00000000
_symmetry_Int_Tables_number   1
_chemical_formula_structural   Na2FeBAsO7
_chemical_formula_sum   'Na4 Fe2 B2 As2 O14'
_cell_volume   339.94215194
_cell_formula_units_Z   2
loop_
 _symmetry_equiv_pos_site_id
 _symmetry_equiv_pos_as_xyz
  1  'x, y, z'
loop_
 _atom_site_type_symbol
 _atom_site_label
 _atom_site_symmetry_multiplicity
 _atom_site_fract_x
 _atom_site_fract_y
 _atom_site_fract_z
 _atom_site_occupancy
  Na  Na0  1  0.22041590  0.99657301  0.23609426  1
  Na  Na1  1  0.22041590  0.50342699  0.23609426  1
  Na  Na2  1  0.77958410  0.49657301  0.76390574  1
  Na  Na3  1  0.77958410  0.00342699  0.76390574  1
  Fe  Fe4  1  0.34411694  0.75000000  0.78219074  1
  Fe  Fe5  1  0.65588306  0.25000000  0.21780926  1
  B  B6  1  0.07924289  0.75000000  0.72580712  1
  B  B7  1  0.92075711  0.25000000  0.27419288  1
  As  As8  1  0.42567704  0.25000000  0.72387922  1
  As  As9  1  0.57432296  0.75000000  0.27612078  1
  O  O10  1  0.06476774  0.25000000  0.30360093  1
  O  O11  1  0.13991320  0.75000000  0.95588564  1
  O  O12  1  0.18486929  0.75000000  0.53500048  1
  O  O13  1  0.32281881  0.04923526  0.79871220  1
  O  O14  1  0.32281881  0.45076474  0.79871220  1
  O  O15  1  0.41104480  0.75000000  0.12908747  1
  O  O16  1  0.46770006  0.25000000  0.40616800  1
  O  O17  1  0.53229994  0.75000000  0.59383200  1
  O  O18  1  0.58895520  0.25000000  0.87091253  1
  O  O19  1  0.67718119  0.54923526  0.20128780  1
  O  O20  1  0.67718119  0.95076474  0.20128780  1
  O  O21  1  0.81513071  0.25000000  0.46499952  1
  O  O22  1  0.86008680  0.25000000  0.04411436  1
  O  O23  1  0.93523226  0.75000000  0.69639907  1
