# generated using pymatgen
data_Li4Y3CrO8
_symmetry_space_group_name_H-M   'P 1'
_cell_length_a   5.88284272
_cell_length_b   5.88282827
_cell_length_c   11.77268721
_cell_angle_alpha   136.44545422
_cell_angle_beta   136.44568496
_cell_angle_gamma   63.23706726
_symmetry_Int_Tables_number   1
_chemical_formula_structural   Li4Y3CrO8
_chemical_formula_sum   'Li4 Y3 Cr1 O8'
_cell_volume   191.01465283
_cell_formula_units_Z   1
loop_
 _symmetry_equiv_pos_site_id
 _symmetry_equiv_pos_as_xyz
  1  'x, y, z'
loop_
 _atom_site_type_symbol
 _atom_site_label
 _atom_site_symmetry_multiplicity
 _atom_site_fract_x
 _atom_site_fract_y
 _atom_site_fract_z
 _atom_site_occupancy
  Li  Li0  1  0.24706168  0.74703659  0.74706555  1
  Li  Li1  1  0.50004599  0.49995025  0.49999850  1
  Li  Li2  1  0.25297806  0.75295219  0.25294390  1
  Li  Li3  1  0.50003106  0.49997720  0.00000374  1
  Y  Y4  1  0.00000988  -0.00000078  0.50000334  1
  Y  Y5  1  0.75831845  0.25830341  0.75831536  1
  Y  Y6  1  0.74169214  0.24168528  0.24168307  1
  Cr  Cr7  1  0.00000564  0.99995363  0.99998549  1
  O  O8  1  0.53503792  0.02040028  0.76313616  1
  O  O9  1  0.22487271  0.22505525  0.50009298  1
  O  O10  1  0.99121503  0.50586446  0.76312474  1
  O  O11  1  0.49413441  0.00879143  0.23688182  1
  O  O12  1  0.20658378  0.20652106  0.99997423  1
  O  O13  1  0.77494064  0.77513315  0.49990404  1
  O  O14  1  0.97960503  0.46496399  0.23686724  1
  O  O15  1  0.79346858  0.79341161  0.00002082  1
