# generated using pymatgen
data_InSb
_symmetry_space_group_name_H-M   'P 1'
_cell_length_a   3.27275469
_cell_length_b   4.47445103
_cell_length_c   4.47445103
_cell_angle_alpha   97.68622541
_cell_angle_beta   111.45163172
_cell_angle_gamma   68.54836828
_symmetry_Int_Tables_number   1
_chemical_formula_structural   InSb
_chemical_formula_sum   'In1 Sb1'
_cell_volume   56.75932926
_cell_formula_units_Z   1
loop_
 _symmetry_equiv_pos_site_id
 _symmetry_equiv_pos_as_xyz
  1  'x, y, z'
loop_
 _atom_site_type_symbol
 _atom_site_label
 _atom_site_symmetry_multiplicity
 _atom_site_fract_x
 _atom_site_fract_y
 _atom_site_fract_z
 _atom_site_occupancy
  In  In0  1  0.75000000  0.50000000  0.50000000  1
  Sb  Sb1  1  0.00000000  -0.00000000  0.00000000  1
