# generated using pymatgen
data_Li2NiH8(CO5)2
_symmetry_space_group_name_H-M   'P 1'
_cell_length_a   11.30191826
_cell_length_b   5.89106951
_cell_length_c   6.05957713
_cell_angle_alpha   90.00000000
_cell_angle_beta   97.71650699
_cell_angle_gamma   90.00000000
_symmetry_Int_Tables_number   1
_chemical_formula_structural   Li2NiH8(CO5)2
_chemical_formula_sum   'Li4 Ni2 H16 C4 O20'
_cell_volume   399.79557512
_cell_formula_units_Z   2
loop_
 _symmetry_equiv_pos_site_id
 _symmetry_equiv_pos_as_xyz
  1  'x, y, z'
loop_
 _atom_site_type_symbol
 _atom_site_label
 _atom_site_symmetry_multiplicity
 _atom_site_fract_x
 _atom_site_fract_y
 _atom_site_fract_z
 _atom_site_occupancy
  Li  Li0  1  0.18455455  0.72292822  0.40620408  1
  Li  Li1  1  0.31544545  0.22292822  0.09379592  1
  Li  Li2  1  0.68455455  0.77707178  0.90620408  1
  Li  Li3  1  0.81544545  0.27707178  0.59379592  1
  Ni  Ni4  1  0.00000000  0.00000000  0.00000000  1
  Ni  Ni5  1  0.50000000  0.50000000  0.50000000  1
  H  H6  1  0.01619710  0.31212800  0.25090882  1
  H  H7  1  0.07142009  0.32713995  0.74215092  1
  H  H8  1  0.10360922  0.08974803  0.65402946  1
  H  H9  1  0.13658551  0.16438344  0.32696409  1
  H  H10  1  0.39639078  0.58974803  0.84597054  1
  H  H11  1  0.42857991  0.82713995  0.75784908  1
  H  H12  1  0.36341449  0.66438344  0.17303591  1
  H  H13  1  0.48380290  0.81212800  0.24909118  1
  H  H14  1  0.51619710  0.18787200  0.75090882  1
  H  H15  1  0.63658551  0.33561656  0.82696409  1
  H  H16  1  0.57142009  0.17286005  0.24215092  1
  H  H17  1  0.60360922  0.41025197  0.15402946  1
  H  H18  1  0.86341449  0.83561656  0.67303591  1
  H  H19  1  0.89639078  0.91025197  0.34597054  1
  H  H20  1  0.92857991  0.67286005  0.25784908  1
  H  H21  1  0.98380290  0.68787200  0.74909118  1
  C  C22  1  0.18478128  0.64355895  0.92018661  1
  C  C23  1  0.31521872  0.14355895  0.57981339  1
  C  C24  1  0.68478128  0.85644105  0.42018661  1
  C  C25  1  0.81521872  0.35644105  0.07981339  1
  O  O26  1  0.03864982  0.17025347  0.71919314  1
  O  O27  1  0.12162255  0.60240305  0.72902980  1
  O  O28  1  0.09004966  0.24791277  0.19785373  1
  O  O29  1  0.15361374  0.79516925  0.05548400  1
  O  O30  1  0.21757723  0.02842851  0.52020095  1
  O  O31  1  0.28242277  0.52842851  0.97979905  1
  O  O32  1  0.34638626  0.29516925  0.44451600  1
  O  O33  1  0.37837745  0.10240305  0.77097020  1
  O  O34  1  0.46135018  0.67025347  0.78080686  1
  O  O35  1  0.40995034  0.74791277  0.30214627  1
  O  O36  1  0.59004966  0.25208723  0.69785373  1
  O  O37  1  0.53864982  0.32974653  0.21919314  1
  O  O38  1  0.62162255  0.89759695  0.22902980  1
  O  O39  1  0.65361374  0.70483075  0.55548400  1
  O  O40  1  0.71757723  0.47157149  0.02020095  1
  O  O41  1  0.78242277  0.97157149  0.47979905  1
  O  O42  1  0.84638626  0.20483075  0.94451600  1
  O  O43  1  0.90995034  0.75208723  0.80214627  1
  O  O44  1  0.87837745  0.39759695  0.27097020  1
  O  O45  1  0.96135018  0.82974653  0.28080686  1
