# generated using pymatgen
data_Li2MgNi3O8
_symmetry_space_group_name_H-M   'P 1'
_cell_length_a   10.24747268
_cell_length_b   10.25354836
_cell_length_c   14.56575656
_cell_angle_alpha   18.66575658
_cell_angle_beta   18.66281062
_cell_angle_gamma   32.18417928
_symmetry_Int_Tables_number   1
_chemical_formula_structural   Li2MgNi3O8
_chemical_formula_sum   'Li2 Mg1 Ni3 O8'
_cell_volume   135.70868074
_cell_formula_units_Z   1
loop_
 _symmetry_equiv_pos_site_id
 _symmetry_equiv_pos_as_xyz
  1  'x, y, z'
loop_
 _atom_site_type_symbol
 _atom_site_label
 _atom_site_symmetry_multiplicity
 _atom_site_fract_x
 _atom_site_fract_y
 _atom_site_fract_z
 _atom_site_occupancy
  Li  Li0  1  0.50000000  0.50000000  0.50000000  1
  Li  Li1  1  0.50000000  0.00000000  0.50000000  1
  Mg  Mg2  1  0.50000000  0.50000000  0.00000000  1
  Ni  Ni3  1  0.00000000  0.50000000  0.00000000  1
  Ni  Ni4  1  0.00000000  0.00000000  0.00000000  1
  Ni  Ni5  1  0.50000000  0.00000000  0.00000000  1
  O  O6  1  0.02825997  0.49126802  0.72375708  1
  O  O7  1  0.97174003  0.50873198  0.27624292  1
  O  O8  1  0.02825997  0.03699195  0.21972399  1
  O  O9  1  0.97174003  0.96300805  0.78027601  1
  O  O10  1  0.50000000  0.49514577  0.27143375  1
  O  O11  1  0.50000000  0.50485423  0.72856625  1
  O  O12  1  0.50000000  0.03562513  0.71154693  1
  O  O13  1  0.50000000  0.96437487  0.28845307  1
