# generated using pymatgen
data_Li3FeNi3O8
_symmetry_space_group_name_H-M   'P 1'
_cell_length_a   10.20878611
_cell_length_b   10.20246187
_cell_length_c   14.48007820
_cell_angle_alpha   19.17288689
_cell_angle_beta   19.17743073
_cell_angle_gamma   32.91597317
_symmetry_Int_Tables_number   1
_chemical_formula_structural   Li3FeNi3O8
_chemical_formula_sum   'Li3 Fe1 Ni3 O8'
_cell_volume   142.01814632
_cell_formula_units_Z   1
loop_
 _symmetry_equiv_pos_site_id
 _symmetry_equiv_pos_as_xyz
  1  'x, y, z'
loop_
 _atom_site_type_symbol
 _atom_site_label
 _atom_site_symmetry_multiplicity
 _atom_site_fract_x
 _atom_site_fract_y
 _atom_site_fract_z
 _atom_site_occupancy
  Li  Li0  1  0.00001754  0.50001521  0.49997703  1
  Li  Li1  1  0.50000704  0.00000506  0.49999217  1
  Li  Li2  1  0.50000380  0.49999540  0.50000009  1
  Fe  Fe3  1  -0.00003971  -0.00003317  0.00004777  1
  Ni  Ni4  1  0.99999712  0.49999980  0.00000273  1
  Ni  Ni5  1  0.49999842  -0.00000173  0.00000306  1
  Ni  Ni6  1  0.50000380  0.50000344  0.99999578  1
  O  O7  1  0.01374947  0.01216290  0.24430937  1
  O  O8  1  0.00553838  0.53830305  0.23115117  1
  O  O9  1  0.53579216  0.00307243  0.23502624  1
  O  O10  1  0.98625343  0.98784009  0.75568767  1
  O  O11  1  0.45845318  0.46199168  0.31360549  1
  O  O12  1  0.99446442  0.46169887  0.76884530  1
  O  O13  1  0.46420937  0.99693057  0.76496997  1
  O  O14  1  0.54155257  0.53801639  0.68638716  1
