# generated using pymatgen
data_LiVCSO7
_symmetry_space_group_name_H-M   'P 1'
_cell_length_a   9.00126154
_cell_length_b   6.42714922
_cell_length_c   5.14875074
_cell_angle_alpha   90.00000000
_cell_angle_beta   86.59066150
_cell_angle_gamma   90.00000000
_symmetry_Int_Tables_number   1
_chemical_formula_structural   LiVCSO7
_chemical_formula_sum   'Li2 V2 C2 S2 O14'
_cell_volume   297.34066835
_cell_formula_units_Z   2
loop_
 _symmetry_equiv_pos_site_id
 _symmetry_equiv_pos_as_xyz
  1  'x, y, z'
loop_
 _atom_site_type_symbol
 _atom_site_label
 _atom_site_symmetry_multiplicity
 _atom_site_fract_x
 _atom_site_fract_y
 _atom_site_fract_z
 _atom_site_occupancy
  Li  Li0  1  0.16741575  0.52644907  0.23192486  1
  Li  Li1  1  0.83258425  0.02644907  0.76807514  1
  V  V2  1  0.33684468  0.75049625  0.78250312  1
  V  V3  1  0.66315532  0.25049625  0.21749688  1
  C  C4  1  0.06968051  0.74108566  0.72998891  1
  C  C5  1  0.93031949  0.24108566  0.27001109  1
  S  S6  1  0.42282425  0.24986073  0.72844341  1
  S  S7  1  0.57717575  0.74986073  0.27155559  1
  O  O8  1  0.06155195  0.27318739  0.31525618  1
  O  O9  1  0.12636347  0.73850469  0.96046078  1
  O  O10  1  0.17941141  0.71404201  0.53968946  1
  O  O11  1  0.32857402  0.06489939  0.78866523  1
  O  O12  1  0.33399046  0.43150679  0.82663482  1
  O  O13  1  0.43482773  0.73850967  0.13809943  1
  O  O14  1  0.45815198  0.26931033  0.44485856  1
  O  O15  1  0.54184802  0.76931033  0.55514144  1
  O  O16  1  0.56517227  0.23850967  0.86190057  1
  O  O17  1  0.66600954  0.93150679  0.17336518  1
  O  O18  1  0.67142598  0.56489939  0.21133477  1
  O  O19  1  0.82058859  0.21404201  0.46031054  1
  O  O20  1  0.87363653  0.23850469  0.03953922  1
  O  O21  1  0.93844805  0.77318739  0.68474382  1
