# generated using pymatgen
data_Li3NiPCO7
_symmetry_space_group_name_H-M   'P 1'
_cell_length_a   8.24265532
_cell_length_b   5.10404428
_cell_length_c   6.42168444
_cell_angle_alpha   90.00000000
_cell_angle_beta   90.00000000
_cell_angle_gamma   88.21361199
_symmetry_Int_Tables_number   1
_chemical_formula_structural   Li3NiPCO7
_chemical_formula_sum   'Li6 Ni2 P2 C2 O14'
_cell_volume   270.03459884
_cell_formula_units_Z   2
loop_
 _symmetry_equiv_pos_site_id
 _symmetry_equiv_pos_as_xyz
  1  'x, y, z'
loop_
 _atom_site_type_symbol
 _atom_site_label
 _atom_site_symmetry_multiplicity
 _atom_site_fract_x
 _atom_site_fract_y
 _atom_site_fract_z
 _atom_site_occupancy
  Li  Li0  1  0.99959142  0.00972900  0.49801595  1
  Li  Li1  1  0.17236351  0.45235123  0.19166441  1
  Li  Li2  1  0.50588719  0.45053194  0.43276144  1
  Li  Li3  1  0.49411281  0.54946806  0.93276144  1
  Li  Li4  1  0.82763649  0.54764877  0.69166441  1
  Li  Li5  1  0.00040858  0.99027100  0.99801595  1
  Ni  Ni6  1  0.27293588  0.03402466  0.75036097  1
  Ni  Ni7  1  0.72706412  0.96597534  0.25036097  1
  P  P8  1  0.33666466  0.96377497  0.24652347  1
  P  P9  1  0.66333534  0.03622503  0.74652347  1
  C  C10  1  0.14239127  0.49838386  0.74148035  1
  C  C11  1  0.85760873  0.50161614  0.24148035  1
  O  O12  1  0.03419991  0.31703775  0.73224492  1
  O  O13  1  0.09375392  0.74072327  0.76541662  1
  O  O14  1  0.23420903  0.09237262  0.06501865  1
  O  O15  1  0.23163016  0.01438645  0.44241478  1
  O  O16  1  0.29431614  0.43488471  0.73134462  1
  O  O17  1  0.36570828  0.66694929  0.20658610  1
  O  O18  1  0.49768175  0.10775493  0.27076872  1
  O  O19  1  0.50231825  0.89224507  0.77076872  1
  O  O20  1  0.63429172  0.33305071  0.70658610  1
  O  O21  1  0.70568386  0.56511529  0.23134462  1
  O  O22  1  0.76836984  0.98561355  0.94241478  1
  O  O23  1  0.76579097  0.90762738  0.56501865  1
  O  O24  1  0.90624608  0.25927673  0.26541662  1
  O  O25  1  0.96580009  0.68296225  0.23224492  1
