# generated using pymatgen
data_Na2FeBPO7
_symmetry_space_group_name_H-M   'P 1'
_cell_length_a   9.07968972
_cell_length_b   6.64449832
_cell_length_c   5.28717934
_cell_angle_alpha   90.00000000
_cell_angle_beta   88.65551890
_cell_angle_gamma   90.00000000
_symmetry_Int_Tables_number   1
_chemical_formula_structural   Na2FeBPO7
_chemical_formula_sum   'Na4 Fe2 B2 P2 O14'
_cell_volume   318.88762478
_cell_formula_units_Z   2
loop_
 _symmetry_equiv_pos_site_id
 _symmetry_equiv_pos_as_xyz
  1  'x, y, z'
loop_
 _atom_site_type_symbol
 _atom_site_label
 _atom_site_symmetry_multiplicity
 _atom_site_fract_x
 _atom_site_fract_y
 _atom_site_fract_z
 _atom_site_occupancy
  Na  Na0  1  0.23372444  0.49652715  0.23828885  1
  Na  Na1  1  0.23372444  0.00347285  0.23828885  1
  Na  Na2  1  0.76627556  0.50347285  0.76171115  1
  Na  Na3  1  0.76627556  0.99652715  0.76171115  1
  Fe  Fe4  1  0.34993306  0.75000000  0.77927716  1
  Fe  Fe5  1  0.65006694  0.25000000  0.22072284  1
  B  B6  1  0.08131287  0.75000000  0.72693616  1
  B  B7  1  0.91868713  0.25000000  0.27306384  1
  P  P8  1  0.42766616  0.25000000  0.72252352  1
  P  P9  1  0.57233384  0.75000000  0.27747648  1
  O  O10  1  0.06477531  0.25000000  0.29967864  1
  O  O11  1  0.14688349  0.75000000  0.95907273  1
  O  O12  1  0.18615791  0.75000000  0.53198583  1
  O  O13  1  0.33656772  0.06028056  0.78988219  1
  O  O14  1  0.33656772  0.43971944  0.78988219  1
  O  O15  1  0.42512694  0.75000000  0.13190580  1
  O  O16  1  0.46579376  0.25000000  0.43067472  1
  O  O17  1  0.53420624  0.75000000  0.56932528  1
  O  O18  1  0.57487306  0.25000000  0.86809420  1
  O  O19  1  0.66343228  0.56028056  0.21011781  1
  O  O20  1  0.66343228  0.93971944  0.21011781  1
  O  O21  1  0.81384209  0.25000000  0.46801417  1
  O  O22  1  0.85311651  0.25000000  0.04092727  1
  O  O23  1  0.93522469  0.75000000  0.70032136  1
