# generated using pymatgen
data_Li4Y3FeO8
_symmetry_space_group_name_H-M   'P 1'
_cell_length_a   5.93117675
_cell_length_b   5.93113895
_cell_length_c   11.86829186
_cell_angle_alpha   136.69359280
_cell_angle_beta   136.69392473
_cell_angle_gamma   62.86193602
_symmetry_Int_Tables_number   1
_chemical_formula_structural   Li4Y3FeO8
_chemical_formula_sum   'Li4 Y3 Fe1 O8'
_cell_volume   194.01414185
_cell_formula_units_Z   1
loop_
 _symmetry_equiv_pos_site_id
 _symmetry_equiv_pos_as_xyz
  1  'x, y, z'
loop_
 _atom_site_type_symbol
 _atom_site_label
 _atom_site_symmetry_multiplicity
 _atom_site_fract_x
 _atom_site_fract_y
 _atom_site_fract_z
 _atom_site_occupancy
  Li  Li0  1  0.24858168  0.74860198  0.74861846  1
  Li  Li1  1  0.50000745  0.49999086  0.50000010  1
  Li  Li2  1  0.25139319  0.75142479  0.25138476  1
  Li  Li3  1  0.49996068  0.50004111  0.00000108  1
  Y  Y4  1  0.00004420  0.99996284  0.49999867  1
  Y  Y5  1  0.75744842  0.25747186  0.75744780  1
  Y  Y6  1  0.74256061  0.24252070  0.24255525  1
  Fe  Fe7  1  0.99997178  0.00004772  0.00000758  1
  O  O8  1  0.53755863  0.02179766  0.76211828  1
  O  O9  1  0.22345768  0.22348369  0.50002900  1
  O  O10  1  0.98678755  0.50238244  0.76213938  1
  O  O11  1  0.49761717  0.01321549  0.23786217  1
  O  O12  1  0.20851844  0.20861272  0.99998941  1
  O  O13  1  0.77651048  0.77655952  0.49998100  1
  O  O14  1  0.97819887  0.46244180  0.23787585  1
  O  O15  1  0.79138516  0.79144479  0.99999119  1
