# generated using pymatgen
data_Li3Mn4SbO8
_symmetry_space_group_name_H-M   'P 1'
_cell_length_a   10.88347225
_cell_length_b   10.88347299
_cell_length_c   15.25160369
_cell_angle_alpha   19.73213766
_cell_angle_beta   19.73213560
_cell_angle_gamma   34.17397487
_symmetry_Int_Tables_number   1
_chemical_formula_structural   Li3Mn4SbO8
_chemical_formula_sum   'Li3 Mn4 Sb1 O8'
_cell_volume   176.55177283
_cell_formula_units_Z   1
loop_
 _symmetry_equiv_pos_site_id
 _symmetry_equiv_pos_as_xyz
  1  'x, y, z'
loop_
 _atom_site_type_symbol
 _atom_site_label
 _atom_site_symmetry_multiplicity
 _atom_site_fract_x
 _atom_site_fract_y
 _atom_site_fract_z
 _atom_site_occupancy
  Li  Li0  1  0.00000000  0.50000000  0.50000000  1
  Li  Li1  1  0.50000000  0.00000000  0.50000000  1
  Li  Li2  1  0.50000000  0.50000000  0.50000000  1
  Mn  Mn3  1  0.00000000  0.00000000  0.00000000  1
  Mn  Mn4  1  0.00000000  0.50000000  0.00000000  1
  Mn  Mn5  1  0.50000000  0.00000000  0.00000000  1
  Mn  Mn6  1  0.00000000  0.00000000  0.50000000  1
  Sb  Sb7  1  0.50000000  0.50000000  0.00000000  1
  O  O8  1  0.96711561  0.96711561  0.29902083  1
  O  O9  1  0.05398593  0.50979691  0.21295404  1
  O  O10  1  0.50979691  0.05398593  0.21295404  1
  O  O11  1  0.03288439  0.03288439  0.70097917  1
  O  O12  1  0.51501789  0.51501789  0.23536592  1
  O  O13  1  0.94601407  0.49020309  0.78704596  1
  O  O14  1  0.49020309  0.94601407  0.78704596  1
  O  O15  1  0.48498211  0.48498211  0.76463408  1
