# generated using pymatgen
data_Li3Ti(Si2O5)3
_symmetry_space_group_name_H-M   'P 1'
_cell_length_a   11.06392693
_cell_length_b   11.06392693
_cell_length_c   10.20658880
_cell_angle_alpha   90.00000000
_cell_angle_beta   90.00000000
_cell_angle_gamma   79.89596091
_symmetry_Int_Tables_number   1
_chemical_formula_structural   Li3Ti(Si2O5)3
_chemical_formula_sum   'Li12 Ti4 Si24 O60'
_cell_volume   1230.01635122
_cell_formula_units_Z   4
loop_
 _symmetry_equiv_pos_site_id
 _symmetry_equiv_pos_as_xyz
  1  'x, y, z'
loop_
 _atom_site_type_symbol
 _atom_site_label
 _atom_site_symmetry_multiplicity
 _atom_site_fract_x
 _atom_site_fract_y
 _atom_site_fract_z
 _atom_site_occupancy
  Li  Li0  1  0.23448426  0.76551574  0.00000000  1
  Li  Li1  1  0.47868256  0.97868256  0.25000000  1
  Li  Li2  1  0.02131744  0.52131744  0.75000000  1
  Li  Li3  1  0.26551574  0.73448426  0.50000000  1
  Li  Li4  1  0.06302018  0.06302018  0.80087236  1
  Li  Li5  1  0.56302018  0.56302018  0.69912764  1
  Li  Li6  1  0.43697982  0.43697982  0.30087236  1
  Li  Li7  1  0.93697982  0.93697982  0.19912764  1
  Li  Li8  1  0.73448426  0.26551574  0.50000000  1
  Li  Li9  1  0.52131744  0.02131744  0.75000000  1
  Li  Li10  1  0.97868256  0.47868256  0.25000000  1
  Li  Li11  1  0.76551574  0.23448426  0.00000000  1
  Ti  Ti12  1  0.15602874  0.65602874  0.25000000  1
  Ti  Ti13  1  0.34397126  0.84397126  0.75000000  1
  Ti  Ti14  1  0.84397126  0.34397126  0.75000000  1
  Ti  Ti15  1  0.65602874  0.15602874  0.25000000  1
  Si  Si16  1  0.03990526  0.81042854  0.80691012  1
  Si  Si17  1  0.18957146  0.96009474  0.19308988  1
  Si  Si18  1  0.46009474  0.68957146  0.30691012  1
  Si  Si19  1  0.31042854  0.53990526  0.69308988  1
  Si  Si20  1  0.01679734  0.23465844  0.48340318  1
  Si  Si21  1  0.26534156  0.48320266  0.98340318  1
  Si  Si22  1  0.51679734  0.73465844  0.01659682  1
  Si  Si23  1  0.76534156  0.98320266  0.51659682  1
  Si  Si24  1  0.20008182  0.41830279  0.45514834  1
  Si  Si25  1  0.70008182  0.91830279  0.04485166  1
  Si  Si26  1  0.08169721  0.29991818  0.95514834  1
  Si  Si27  1  0.58169721  0.79991818  0.54485166  1
  Si  Si28  1  0.41830279  0.20008182  0.45514834  1
  Si  Si29  1  0.29991818  0.08169721  0.95514834  1
  Si  Si30  1  0.91830279  0.70008182  0.04485166  1
  Si  Si31  1  0.79991818  0.58169721  0.54485166  1
  Si  Si32  1  0.73465844  0.51679734  0.01659682  1
  Si  Si33  1  0.23465844  0.01679734  0.48340318  1
  Si  Si34  1  0.48320266  0.26534156  0.98340318  1
  Si  Si35  1  0.98320266  0.76534156  0.51659682  1
  Si  Si36  1  0.53990526  0.31042854  0.69308988  1
  Si  Si37  1  0.68957146  0.46009474  0.30691012  1
  Si  Si38  1  0.81042854  0.03990526  0.80691012  1
  Si  Si39  1  0.96009474  0.18957146  0.19308988  1
  O  O40  1  0.28308756  0.98877482  0.07734875  1
  O  O41  1  0.01122518  0.71691244  0.92265125  1
  O  O42  1  0.03119508  0.73427100  0.66976352  1
  O  O43  1  0.26572900  0.96880492  0.33023648  1
  O  O44  1  0.14026186  0.83438098  0.16591021  1
  O  O45  1  0.16561902  0.85973814  0.83408979  1
  O  O46  1  0.09734086  0.74432304  0.41815608  1
  O  O47  1  0.25567696  0.90265914  0.58184392  1
  O  O48  1  0.13927814  0.48801164  0.32792813  1
  O  O49  1  0.63927814  0.98801164  0.17207187  1
  O  O50  1  0.01198836  0.36072186  0.82792813  1
  O  O51  1  0.51198836  0.86072186  0.67207187  1
  O  O52  1  0.24432304  0.59734086  0.08184392  1
  O  O53  1  0.40265914  0.75567696  0.91815608  1
  O  O54  1  0.35973814  0.66561902  0.66591021  1
  O  O55  1  0.33438098  0.64026186  0.33408979  1
  O  O56  1  0.46880492  0.76572900  0.16976352  1
  O  O57  1  0.23427100  0.53119508  0.83023648  1
  O  O58  1  0.21691244  0.51122518  0.57734875  1
  O  O59  1  0.48877482  0.78308756  0.42265125  1
  O  O60  1  0.11448004  0.32631766  0.51566296  1
  O  O61  1  0.17368234  0.38551996  0.01566296  1
  O  O62  1  0.67368234  0.88551996  0.48433704  1
  O  O63  1  0.61448004  0.82631766  0.98433704  1
  O  O64  1  0.59294839  0.59294839  0.00787837  1
  O  O65  1  0.33979843  0.33979843  0.41770645  1
  O  O66  1  0.06630216  0.06630216  0.19482713  1
  O  O67  1  0.16020157  0.16020157  0.91770645  1
  O  O68  1  0.09294839  0.09294839  0.49212163  1
  O  O69  1  0.43369784  0.43369784  0.69482713  1
  O  O70  1  0.56630216  0.56630216  0.30517287  1
  O  O71  1  0.40705161  0.40705161  0.99212163  1
  O  O72  1  0.90705161  0.90705161  0.50787837  1
  O  O73  1  0.66020157  0.66020157  0.58229355  1
  O  O74  1  0.93369784  0.93369784  0.80517287  1
  O  O75  1  0.83979843  0.83979843  0.08229355  1
  O  O76  1  0.32631766  0.11448004  0.51566296  1
  O  O77  1  0.38551996  0.17368234  0.01566296  1
  O  O78  1  0.88551996  0.67368234  0.48433704  1
  O  O79  1  0.82631766  0.61448004  0.98433704  1
  O  O80  1  0.51122518  0.21691244  0.57734875  1
  O  O81  1  0.78308756  0.48877482  0.42265125  1
  O  O82  1  0.53119508  0.23427100  0.83023648  1
  O  O83  1  0.76572900  0.46880492  0.16976352  1
  O  O84  1  0.64026186  0.33438098  0.33408979  1
  O  O85  1  0.66561902  0.35973814  0.66591021  1
  O  O86  1  0.59734086  0.24432304  0.08184392  1
  O  O87  1  0.75567696  0.40265914  0.91815608  1
  O  O88  1  0.36072186  0.01198836  0.82792813  1
  O  O89  1  0.48801164  0.13927814  0.32792813  1
  O  O90  1  0.98801164  0.63927814  0.17207187  1
  O  O91  1  0.86072186  0.51198836  0.67207187  1
  O  O92  1  0.74432304  0.09734086  0.41815608  1
  O  O93  1  0.90265914  0.25567696  0.58184392  1
  O  O94  1  0.83438098  0.14026186  0.16591021  1
  O  O95  1  0.85973814  0.16561902  0.83408979  1
  O  O96  1  0.96880492  0.26572900  0.33023648  1
  O  O97  1  0.73427100  0.03119508  0.66976352  1
  O  O98  1  0.71691244  0.01122518  0.92265125  1
  O  O99  1  0.98877482  0.28308756  0.07734875  1
