# generated using pymatgen
data_Cu3(P2O7)2
_symmetry_space_group_name_H-M   'P 1'
_cell_length_a   6.17291633
_cell_length_b   8.45782852
_cell_length_c   9.98243000
_cell_angle_alpha   104.60800827
_cell_angle_beta   92.30727721
_cell_angle_gamma   92.33299714
_symmetry_Int_Tables_number   1
_chemical_formula_structural   Cu3(P2O7)2
_chemical_formula_sum   'Cu6 P8 O28'
_cell_volume   503.22321696
_cell_formula_units_Z   2
loop_
 _symmetry_equiv_pos_site_id
 _symmetry_equiv_pos_as_xyz
  1  'x, y, z'
loop_
 _atom_site_type_symbol
 _atom_site_label
 _atom_site_symmetry_multiplicity
 _atom_site_fract_x
 _atom_site_fract_y
 _atom_site_fract_z
 _atom_site_occupancy
  Cu  Cu0  1  0.00000000  0.50000000  0.50000000  1
  Cu  Cu1  1  0.30464959  0.88776732  0.62840724  1
  Cu  Cu2  1  0.34922570  0.88107135  0.05665917  1
  Cu  Cu3  1  0.50000000  0.50000000  0.00000000  1
  Cu  Cu4  1  0.65077430  0.11892865  0.94334083  1
  Cu  Cu5  1  0.69535041  0.11223268  0.37159276  1
  P  P6  1  0.15737684  0.20559471  0.01445350  1
  P  P7  1  0.18095380  0.18738303  0.31636777  1
  P  P8  1  0.26828200  0.53452305  0.72575188  1
  P  P9  1  0.47443806  0.76141782  0.32019727  1
  P  P10  1  0.52556194  0.23858218  0.67980273  1
  P  P11  1  0.73171800  0.46547695  0.27424812  1
  P  P12  1  0.81904620  0.81261697  0.68363223  1
  P  P13  1  0.84262316  0.79440529  0.98554650  1
  O  O14  1  0.04615192  0.86107530  0.07696586  1
  O  O15  1  0.00594166  0.07879965  0.35468330  1
  O  O16  1  0.05052770  0.43777656  0.69143125  1
  O  O17  1  0.09489808  0.21348091  0.16817676  1
  O  O18  1  0.23773262  0.37286770  0.00531242  1
  O  O19  1  0.21815829  0.35722651  0.41547501  1
  O  O20  1  0.25518530  0.65442727  0.62966703  1
  O  O21  1  0.29292957  0.80930111  0.41791283  1
  O  O22  1  0.33899636  0.61920353  0.87655133  1
  O  O23  1  0.32378796  0.12216134  0.64481397  1
  O  O24  1  0.33908452  0.07506939  0.97508493  1
  O  O25  1  0.39543777  0.72270609  0.16329665  1
  O  O26  1  0.39775950  0.10417583  0.28581315  1
  O  O27  1  0.45976043  0.41637630  0.66867892  1
  O  O28  1  0.54023957  0.58362370  0.33132108  1
  O  O29  1  0.60224050  0.89582417  0.71418685  1
  O  O30  1  0.60456223  0.27729391  0.83670335  1
  O  O31  1  0.66091448  0.92493061  0.02491507  1
  O  O32  1  0.67621204  0.87783866  0.35518603  1
  O  O33  1  0.66100364  0.38079647  0.12344867  1
  O  O34  1  0.70707043  0.19069889  0.58208717  1
  O  O35  1  0.74481470  0.34557273  0.37033297  1
  O  O36  1  0.78184171  0.64277349  0.58452499  1
  O  O37  1  0.76226738  0.62713230  0.99468758  1
  O  O38  1  0.90510192  0.78651909  0.83182324  1
  O  O39  1  0.94947230  0.56222344  0.30856875  1
  O  O40  1  0.99405834  0.92120035  0.64531670  1
  O  O41  1  0.95384808  0.13892470  0.92303414  1
