# generated using pymatgen
data_La4Ni12B7
_symmetry_space_group_name_H-M   'P 1'
_cell_length_a   5.26071327
_cell_length_b   6.06701822
_cell_length_c   10.41578302
_cell_angle_alpha   82.85014194
_cell_angle_beta   90.00000000
_cell_angle_gamma   115.69307320
_symmetry_Int_Tables_number   1
_chemical_formula_structural   La4Ni12B7
_chemical_formula_sum   'La4 Ni12 B7'
_cell_volume   296.69921635
_cell_formula_units_Z   1
loop_
 _symmetry_equiv_pos_site_id
 _symmetry_equiv_pos_as_xyz
  1  'x, y, z'
loop_
 _atom_site_type_symbol
 _atom_site_label
 _atom_site_symmetry_multiplicity
 _atom_site_fract_x
 _atom_site_fract_y
 _atom_site_fract_z
 _atom_site_occupancy
  La  La0  1  0.36473426  0.72946851  0.09216939  1
  La  La1  1  0.82347573  0.64695145  0.58825870  1
  La  La2  1  0.15407522  0.30815045  0.40907462  1
  La  La3  1  0.66019810  0.32039621  0.88529711  1
  Ni  Ni4  1  0.86876648  0.23025689  0.13717483  1
  Ni  Ni5  1  0.31331135  0.15264805  0.66465286  1
  Ni  Ni6  1  0.17924964  0.83572848  0.34530769  1
  Ni  Ni7  1  0.64790856  0.80592643  0.83653971  1
  Ni  Ni8  1  0.36149041  0.23025689  0.13717483  1
  Ni  Ni9  1  0.83933670  0.15264805  0.66465286  1
  Ni  Ni10  1  0.65647884  0.83572848  0.34530769  1
  Ni  Ni11  1  0.15801787  0.80592643  0.83653971  1
  Ni  Ni12  1  0.73962430  0.47924859  0.29503680  1
  Ni  Ni13  1  0.24886359  0.49772718  0.73444434  1
  Ni  Ni14  1  0.96468406  0.92936812  0.01241267  1
  Ni  Ni15  1  0.54805367  0.09610734  0.48181373  1
  B  B16  1  0.56106081  0.12212163  0.28807662  1
  B  B17  1  0.05877906  0.11755813  0.82603355  1
  B  B18  1  0.92042852  0.84085704  0.20308283  1
  B  B19  1  0.43625064  0.87250128  0.67115969  1
  B  B20  1  0.14670466  0.29340932  0.96654977  1
  B  B21  1  0.78022184  0.56044369  0.10855584  1
  B  B22  1  0.37098569  0.74197137  0.52338417  1
