# generated using pymatgen
data_Li3CuPCO7
_symmetry_space_group_name_H-M   'P 1'
_cell_length_a   8.45702153
_cell_length_b   5.10766003
_cell_length_c   6.27053474
_cell_angle_alpha   90.00000000
_cell_angle_beta   90.00000000
_cell_angle_gamma   88.62643427
_symmetry_Int_Tables_number   1
_chemical_formula_structural   Li3CuPCO7
_chemical_formula_sum   'Li6 Cu2 P2 C2 O14'
_cell_volume   270.78162288
_cell_formula_units_Z   2
loop_
 _symmetry_equiv_pos_site_id
 _symmetry_equiv_pos_as_xyz
  1  'x, y, z'
loop_
 _atom_site_type_symbol
 _atom_site_label
 _atom_site_symmetry_multiplicity
 _atom_site_fract_x
 _atom_site_fract_y
 _atom_site_fract_z
 _atom_site_occupancy
  Li  Li0  1  0.00030073  0.01898740  0.50644562  1
  Li  Li1  1  0.18365322  0.44622263  0.18745898  1
  Li  Li2  1  0.50871132  0.44803195  0.43032965  1
  Li  Li3  1  0.49128868  0.55196805  0.93032965  1
  Li  Li4  1  0.81634678  0.55377737  0.68745898  1
  Li  Li5  1  0.99969927  0.98101260  0.00644562  1
  Cu  Cu6  1  0.27469074  0.02565373  0.75112019  1
  Cu  Cu7  1  0.72530926  0.97434627  0.25112019  1
  P  P8  1  0.33886130  0.96164107  0.24865963  1
  P  P9  1  0.66113870  0.03835893  0.74865963  1
  C  C10  1  0.12969822  0.50806964  0.73842757  1
  C  C11  1  0.87030178  0.49193036  0.23842757  1
  O  O12  1  0.01512534  0.34452582  0.72312526  1
  O  O13  1  0.09268981  0.75699979  0.76069578  1
  O  O14  1  0.23549895  0.08172059  0.06222806  1
  O  O15  1  0.23099234  0.01522857  0.44500173  1
  O  O16  1  0.27681702  0.43274726  0.73659133  1
  O  O17  1  0.37076150  0.66590443  0.21239533  1
  O  O18  1  0.49207330  0.11378600  0.27212187  1
  O  O19  1  0.50792670  0.88621400  0.77212187  1
  O  O20  1  0.62923850  0.33409557  0.71239533  1
  O  O21  1  0.72318298  0.56725274  0.23659133  1
  O  O22  1  0.76900766  0.98477143  0.94500173  1
  O  O23  1  0.76450105  0.91827941  0.56222806  1
  O  O24  1  0.90731019  0.24300021  0.26069578  1
  O  O25  1  0.98487466  0.65547418  0.22312526  1
