# generated using pymatgen
data_Li2Mn(BO2)5
_symmetry_space_group_name_H-M   'P 1'
_cell_length_a   7.25072102
_cell_length_b   15.45550356
_cell_length_c   7.13066964
_cell_angle_alpha   90.00000000
_cell_angle_beta   93.99019042
_cell_angle_gamma   90.00000000
_symmetry_Int_Tables_number   1
_chemical_formula_structural   Li2Mn(BO2)5
_chemical_formula_sum   'Li8 Mn4 B20 O40'
_cell_volume   797.15110837
_cell_formula_units_Z   4
loop_
 _symmetry_equiv_pos_site_id
 _symmetry_equiv_pos_as_xyz
  1  'x, y, z'
loop_
 _atom_site_type_symbol
 _atom_site_label
 _atom_site_symmetry_multiplicity
 _atom_site_fract_x
 _atom_site_fract_y
 _atom_site_fract_z
 _atom_site_occupancy
  Li  Li0  1  0.09733212  0.16870032  0.99260443  1
  Li  Li1  1  0.09733212  0.33129968  0.49260443  1
  Li  Li2  1  0.31267960  0.92474176  0.58972822  1
  Li  Li3  1  0.31267960  0.57525824  0.08972822  1
  Li  Li4  1  0.68732040  0.42474176  0.91027178  1
  Li  Li5  1  0.68732040  0.07525824  0.41027178  1
  Li  Li6  1  0.90266788  0.66870032  0.50739557  1
  Li  Li7  1  0.90266788  0.83129968  0.00739557  1
  Mn  Mn8  1  0.15856631  0.12380552  0.52780261  1
  Mn  Mn9  1  0.15856631  0.37619448  0.02780261  1
  Mn  Mn10  1  0.84143369  0.62380552  0.97219739  1
  Mn  Mn11  1  0.84143369  0.87619448  0.47219739  1
  B  B12  1  0.19790897  0.02384846  0.90461110  1
  B  B13  1  0.19790897  0.47615154  0.40461110  1
  B  B14  1  0.21600549  0.77456617  0.51521551  1
  B  B15  1  0.21600549  0.72543383  0.01521551  1
  B  B16  1  0.26088026  0.50203982  0.73823069  1
  B  B17  1  0.26088026  0.99796018  0.23823069  1
  B  B18  1  0.32182499  0.62011217  0.50925768  1
  B  B19  1  0.32182499  0.87988783  0.00925768  1
  B  B20  1  0.45597326  0.25705231  0.48464292  1
  B  B21  1  0.45597326  0.24294769  0.98464292  1
  B  B22  1  0.54402674  0.75705231  0.01535708  1
  B  B23  1  0.54402674  0.74294769  0.51535708  1
  B  B24  1  0.67817501  0.12011217  0.99074232  1
  B  B25  1  0.67817501  0.37988783  0.49074232  1
  B  B26  1  0.73911974  0.00203982  0.76176931  1
  B  B27  1  0.73911974  0.49796018  0.26176931  1
  B  B28  1  0.78399451  0.27456617  0.98478449  1
  B  B29  1  0.78399451  0.22543383  0.48478449  1
  B  B30  1  0.80209103  0.52384846  0.59538890  1
  B  B31  1  0.80209103  0.97615154  0.09538890  1
  O  O32  1  0.09043526  0.83909106  0.51970441  1
  O  O33  1  0.09043526  0.66090894  0.01970441  1
  O  O34  1  0.13148665  0.08295880  0.77674224  1
  O  O35  1  0.13148665  0.41704120  0.27674224  1
  O  O36  1  0.17204470  0.81119592  0.99176396  1
  O  O37  1  0.17664153  0.45089118  0.59316194  1
  O  O38  1  0.17204470  0.68880408  0.49176396  1
  O  O39  1  0.17664153  0.04910882  0.09316194  1
  O  O40  1  0.27804345  0.47294049  0.92143777  1
  O  O41  1  0.27804345  0.02705951  0.42143777  1
  O  O42  1  0.27407678  0.23149607  0.47622909  1
  O  O43  1  0.27748571  0.94665067  0.86136902  1
  O  O44  1  0.27407678  0.26850393  0.97622909  1
  O  O45  1  0.27748571  0.55334933  0.36136902  1
  O  O46  1  0.32708160  0.58137301  0.69738176  1
  O  O47  1  0.32708160  0.91862699  0.19738176  1
  O  O48  1  0.40174246  0.80222932  0.54231058  1
  O  O49  1  0.40174246  0.69777068  0.04231058  1
  O  O50  1  0.49855660  0.34138053  0.52061928  1
  O  O51  1  0.50144340  0.84138053  0.97938072  1
  O  O52  1  0.49855660  0.15861947  0.02061928  1
  O  O53  1  0.50144340  0.65861947  0.47938072  1
  O  O54  1  0.59825754  0.30222932  0.95768942  1
  O  O55  1  0.59825754  0.19777068  0.45768942  1
  O  O56  1  0.67291840  0.08137301  0.80261824  1
  O  O57  1  0.67291840  0.41862699  0.30261824  1
  O  O58  1  0.72251429  0.44665067  0.63863098  1
  O  O59  1  0.72592322  0.73149607  0.02377091  1
  O  O60  1  0.72251429  0.05334933  0.13863098  1
  O  O61  1  0.72592322  0.76850393  0.52377091  1
  O  O62  1  0.72195655  0.97294049  0.57856223  1
  O  O63  1  0.72195655  0.52705951  0.07856223  1
  O  O64  1  0.82335847  0.95089118  0.90683806  1
  O  O65  1  0.82795530  0.31119592  0.50823604  1
  O  O66  1  0.82335847  0.54910882  0.40683806  1
  O  O67  1  0.82795530  0.18880408  0.00823604  1
  O  O68  1  0.86851335  0.58295880  0.72325776  1
  O  O69  1  0.86851335  0.91704120  0.22325776  1
  O  O70  1  0.90956474  0.33909106  0.98029559  1
  O  O71  1  0.90956474  0.16090894  0.48029559  1
