# generated using pymatgen
data_Co(SO4)2
_symmetry_space_group_name_H-M   'P 1'
_cell_length_a   8.96726280
_cell_length_b   8.96726255
_cell_length_c   8.96726314
_cell_angle_alpha   56.43386148
_cell_angle_beta   56.43386072
_cell_angle_gamma   56.43385981
_symmetry_Int_Tables_number   1
_chemical_formula_structural   Co(SO4)2
_chemical_formula_sum   'Co3 S6 O24'
_cell_volume   467.83588416
_cell_formula_units_Z   3
loop_
 _symmetry_equiv_pos_site_id
 _symmetry_equiv_pos_as_xyz
  1  'x, y, z'
loop_
 _atom_site_type_symbol
 _atom_site_label
 _atom_site_symmetry_multiplicity
 _atom_site_fract_x
 _atom_site_fract_y
 _atom_site_fract_z
 _atom_site_occupancy
  Co  Co0  1  0.35560108  0.35560108  0.35560108  1
  Co  Co1  1  0.64326240  0.64326240  0.64326240  1
  Co  Co2  1  0.85022671  0.85022671  0.85022671  1
  S  S3  1  0.03995182  0.74337013  0.46596828  1
  S  S4  1  0.46596828  0.03995182  0.74337013  1
  S  S5  1  0.74337013  0.46596828  0.03995182  1
  S  S6  1  0.25057549  0.53882685  0.96121357  1
  S  S7  1  0.53882685  0.96121357  0.25057549  1
  S  S8  1  0.96121357  0.25057549  0.53882685  1
  O  O9  1  0.11173211  0.29809540  0.51176066  1
  O  O10  1  0.29809540  0.51176066  0.11173211  1
  O  O11  1  0.00758930  0.94303854  0.33472889  1
  O  O12  1  0.51176066  0.11173211  0.29809540  1
  O  O13  1  0.02287681  0.72523703  0.65100269  1
  O  O14  1  0.23329806  0.60859804  0.38982821  1
  O  O15  1  0.38982821  0.23329806  0.60859804  1
  O  O16  1  0.33472889  0.00758930  0.94303854  1
  O  O17  1  0.60859804  0.38982821  0.23329806  1
  O  O18  1  0.05202910  0.67873832  0.97903636  1
  O  O19  1  0.27967087  0.35791141  0.96597454  1
  O  O20  1  0.35791141  0.96597454  0.27967087  1
  O  O21  1  0.65100269  0.02287681  0.72523703  1
  O  O22  1  0.72523703  0.65100269  0.02287681  1
  O  O23  1  0.94303854  0.33472889  0.00758930  1
  O  O24  1  0.38373385  0.62311459  0.76583458  1
  O  O25  1  0.67873832  0.97903636  0.05202910  1
  O  O26  1  0.62311459  0.76583458  0.38373385  1
  O  O27  1  0.76583458  0.38373385  0.62311459  1
  O  O28  1  0.96597454  0.27967087  0.35791141  1
  O  O29  1  0.50275241  0.89236044  0.68442149  1
  O  O30  1  0.97903636  0.05202910  0.67873832  1
  O  O31  1  0.68442149  0.50275241  0.89236044  1
  O  O32  1  0.89236044  0.68442149  0.50275241  1
