# generated using pymatgen
data_Ba4Tm6O13
_symmetry_space_group_name_H-M   'P 1'
_cell_length_a   6.06546001
_cell_length_b   12.66805595
_cell_length_c   12.33359062
_cell_angle_alpha   60.82699395
_cell_angle_beta   90.02396102
_cell_angle_gamma   76.16516844
_symmetry_Int_Tables_number   1
_chemical_formula_structural   Ba4Tm6O13
_chemical_formula_sum   'Ba8 Tm12 O26'
_cell_volume   795.78108198
_cell_formula_units_Z   2
loop_
 _symmetry_equiv_pos_site_id
 _symmetry_equiv_pos_as_xyz
  1  'x, y, z'
loop_
 _atom_site_type_symbol
 _atom_site_label
 _atom_site_symmetry_multiplicity
 _atom_site_fract_x
 _atom_site_fract_y
 _atom_site_fract_z
 _atom_site_occupancy
  Ba  Ba0  1  0.16073971  0.68090118  0.02537911  1
  Ba  Ba1  1  0.33483837  0.33112075  0.21404150  1
  Ba  Ba2  1  0.83609971  0.33048816  0.45597794  1
  Ba  Ba3  1  0.66075316  0.68105729  0.29258842  1
  Ba  Ba4  1  0.34312492  0.31979717  0.70597733  1
  Ba  Ba5  1  0.16536608  0.67047720  0.54356221  1
  Ba  Ba6  1  0.66485226  0.67018227  0.78391767  1
  Ba  Ba7  1  0.83954898  0.32014986  0.97541274  1
  Tm  Tm8  1  0.53835538  0.07187946  0.09076361  1
  Tm  Tm9  1  0.74468769  0.51037259  0.12045843  1
  Tm  Tm10  1  0.96167222  0.09886501  0.34552298  1
  Tm  Tm11  1  0.46259847  0.09825547  0.55573876  1
  Tm  Tm12  1  0.24492396  0.50955713  0.36940183  1
  Tm  Tm13  1  0.10964808  0.92866880  0.16299607  1
  Tm  Tm14  1  0.03752656  0.07149151  0.83683826  1
  Tm  Tm15  1  0.75432696  0.49097052  0.62960054  1
  Tm  Tm16  1  0.55943400  0.90242159  0.44279100  1
  Tm  Tm17  1  0.06058695  0.90230582  0.65406011  1
  Tm  Tm18  1  0.25400708  0.49124019  0.87832091  1
  Tm  Tm19  1  0.60889408  0.92820503  0.90851222  1
  O  O20  1  0.31086664  0.00011120  0.99960768  1
  O  O21  1  0.81059954  0.99970877  0.00001327  1
  O  O22  1  0.38308479  0.26549970  0.99772178  1
  O  O23  1  0.85044456  0.05953196  0.19640041  1
  O  O24  1  0.00644174  0.48964001  0.00573297  1
  O  O25  1  0.82817730  0.29417714  0.23156626  1
  O  O26  1  0.31524963  0.09940598  0.38356727  1
  O  O27  1  0.99583123  0.51831101  0.23812192  1
  O  O28  1  0.49511698  0.51791653  0.24259625  1
  O  O29  1  0.81596528  0.09944623  0.51676333  1
  O  O30  1  0.14545471  0.73557487  0.26384234  1
  O  O31  1  0.32834670  0.29353383  0.47363466  1
  O  O32  1  0.41053941  0.94067804  0.25495042  1
  O  O33  1  0.50619828  0.48859180  0.50474883  1
  O  O34  1  0.99435779  0.51078823  0.49486005  1
  O  O35  1  0.34901832  0.05847366  0.74375885  1
  O  O36  1  0.61826807  0.70684077  0.52546360  1
  O  O37  1  0.87888449  0.26466060  0.73670154  1
  O  O38  1  0.91206700  0.90205928  0.48327421  1
  O  O39  1  0.01312691  0.48441361  0.75483621  1
  O  O40  1  0.51332686  0.48231811  0.76080565  1
  O  O41  1  0.41363110  0.90158587  0.61432630  1
  O  O42  1  0.12354539  0.70658019  0.76609616  1
  O  O43  1  0.49503726  0.51224335  0.99230874  1
  O  O44  1  0.90916818  0.94015801  0.80384293  1
  O  O45  1  0.64572618  0.73516026  0.00281076  1
