# generated using pymatgen
data_Ni(SO4)2
_symmetry_space_group_name_H-M   'P 1'
_cell_length_a   8.93065341
_cell_length_b   8.93065293
_cell_length_c   8.93065297
_cell_angle_alpha   55.42524044
_cell_angle_beta   55.42524209
_cell_angle_gamma   55.42524515
_symmetry_Int_Tables_number   1
_chemical_formula_structural   Ni(SO4)2
_chemical_formula_sum   'Ni3 S6 O24'
_cell_volume   450.14236711
_cell_formula_units_Z   3
loop_
 _symmetry_equiv_pos_site_id
 _symmetry_equiv_pos_as_xyz
  1  'x, y, z'
loop_
 _atom_site_type_symbol
 _atom_site_label
 _atom_site_symmetry_multiplicity
 _atom_site_fract_x
 _atom_site_fract_y
 _atom_site_fract_z
 _atom_site_occupancy
  Ni  Ni0  1  0.15110023  0.15110023  0.15110023  1
  Ni  Ni1  1  0.64403152  0.64403152  0.64403152  1
  Ni  Ni2  1  0.84874370  0.84874370  0.84874370  1
  S  S3  1  0.04143355  0.75681473  0.45618459  1
  S  S4  1  0.45618459  0.04143355  0.75681473  1
  S  S5  1  0.75681473  0.45618459  0.04143355  1
  S  S6  1  0.24810382  0.54151071  0.95588261  1
  S  S7  1  0.54151071  0.95588261  0.24810382  1
  S  S8  1  0.95588261  0.24810382  0.54151071  1
  O  O9  1  0.10904151  0.29638723  0.50730985  1
  O  O10  1  0.29638723  0.50730985  0.10904151  1
  O  O11  1  0.99798984  0.96686394  0.33217712  1
  O  O12  1  0.50730985  0.10904151  0.29638723  1
  O  O13  1  0.02561923  0.71761320  0.65038509  1
  O  O14  1  0.24301219  0.63942601  0.36614032  1
  O  O15  1  0.36614032  0.24301219  0.63942601  1
  O  O16  1  0.33217712  0.99798984  0.96686394  1
  O  O17  1  0.63942601  0.36614032  0.24301219  1
  O  O18  1  0.04006503  0.67092620  0.99243765  1
  O  O19  1  0.28317481  0.35015721  0.96985394  1
  O  O20  1  0.35015721  0.96985394  0.28317481  1
  O  O21  1  0.65038509  0.02561923  0.71761320  1
  O  O22  1  0.71761320  0.65038509  0.02561923  1
  O  O23  1  0.96686394  0.33217712  0.99798984  1
  O  O24  1  0.37390389  0.63047648  0.75892878  1
  O  O25  1  0.67092620  0.99243765  0.04006503  1
  O  O26  1  0.63047648  0.75892878  0.37390389  1
  O  O27  1  0.75892878  0.37390389  0.63047648  1
  O  O28  1  0.96985394  0.28317481  0.35015721  1
  O  O29  1  0.47954083  0.90194199  0.69778223  1
  O  O30  1  0.99243765  0.04006503  0.67092620  1
  O  O31  1  0.69778223  0.47954083  0.90194199  1
  O  O32  1  0.90194199  0.69778223  0.47954083  1
