# generated using pymatgen
data_LiV4CuO12
_symmetry_space_group_name_H-M   'P 1'
_cell_length_a   6.70401755
_cell_length_b   6.70401775
_cell_length_c   5.91961222
_cell_angle_alpha   74.72989179
_cell_angle_beta   105.27011571
_cell_angle_gamma   96.33116560
_symmetry_Int_Tables_number   1
_chemical_formula_structural   LiV4CuO12
_chemical_formula_sum   'Li1 V4 Cu1 O12'
_cell_volume   247.35660051
_cell_formula_units_Z   1
loop_
 _symmetry_equiv_pos_site_id
 _symmetry_equiv_pos_as_xyz
  1  'x, y, z'
loop_
 _atom_site_type_symbol
 _atom_site_label
 _atom_site_symmetry_multiplicity
 _atom_site_fract_x
 _atom_site_fract_y
 _atom_site_fract_z
 _atom_site_occupancy
  Li  Li0  1  0.08862539  0.08862539  0.75000000  1
  V  V1  1  0.19933360  0.61606359  0.75126498  1
  V  V2  1  0.38886324  0.79252278  0.26509300  1
  V  V3  1  0.61606359  0.19933360  0.74873502  1
  V  V4  1  0.79252278  0.38886324  0.23490700  1
  Cu  Cu5  1  0.91374088  0.91374088  0.25000000  1
  O  O6  1  0.02518794  0.80865293  0.60760070  1
  O  O7  1  0.07889219  0.38426799  0.77555346  1
  O  O8  1  0.19938426  0.96848218  0.17520080  1
  O  O9  1  0.36933606  0.63484415  0.55421500  1
  O  O10  1  0.38426799  0.07889219  0.72444654  1
  O  O11  1  0.34638023  0.63990165  0.05021096  1
  O  O12  1  0.63484415  0.36933606  0.94578500  1
  O  O13  1  0.62742733  0.91809260  0.28769143  1
  O  O14  1  0.63990165  0.34638023  0.44978904  1
  O  O15  1  0.80865293  0.02518794  0.89239930  1
  O  O16  1  0.91809260  0.62742733  0.21230857  1
  O  O17  1  0.96848218  0.19938426  0.32479920  1
