# generated using pymatgen
data_Np(SeO3)2
_symmetry_space_group_name_H-M   'P 1'
_cell_length_a   7.07502132
_cell_length_b   10.92797352
_cell_length_c   7.36887795
_cell_angle_alpha   90.00000000
_cell_angle_beta   106.28388565
_cell_angle_gamma   90.00000000
_symmetry_Int_Tables_number   1
_chemical_formula_structural   Np(SeO3)2
_chemical_formula_sum   'Np4 Se8 O24'
_cell_volume   546.87439399
_cell_formula_units_Z   4
loop_
 _symmetry_equiv_pos_site_id
 _symmetry_equiv_pos_as_xyz
  1  'x, y, z'
loop_
 _atom_site_type_symbol
 _atom_site_label
 _atom_site_symmetry_multiplicity
 _atom_site_fract_x
 _atom_site_fract_y
 _atom_site_fract_z
 _atom_site_occupancy
  Np  Np0  1  0.24223419  0.59651402  0.49463280  1
  Np  Np1  1  0.25776581  0.09651402  0.00536720  1
  Np  Np2  1  0.74223419  0.90348598  0.99463280  1
  Np  Np3  1  0.75776581  0.40348598  0.50536720  1
  Se  Se4  1  0.21589716  0.42263304  0.93062966  1
  Se  Se5  1  0.28410284  0.92263304  0.56937034  1
  Se  Se6  1  0.23784826  0.28625452  0.42534886  1
  Se  Se7  1  0.26215174  0.78625452  0.07465114  1
  Se  Se8  1  0.73784726  0.21374548  0.92534886  1
  Se  Se9  1  0.76215274  0.71374548  0.57465114  1
  Se  Se10  1  0.71589716  0.07736696  0.43062966  1
  Se  Se11  1  0.78410284  0.57736696  0.06937034  1
  O  O12  1  0.06891895  0.39880157  0.45045907  1
  O  O13  1  0.18692425  0.01538139  0.71253038  1
  O  O14  1  0.03184932  0.59263506  0.18749434  1
  O  O15  1  0.19977746  0.77961421  0.61863394  1
  O  O16  1  0.30022254  0.27961421  0.88136606  1
  O  O17  1  0.09094384  0.90189185  0.08595207  1
  O  O18  1  0.31307575  0.51538139  0.78746962  1
  O  O19  1  0.14909752  0.24605322  0.19227922  1
  O  O20  1  0.35090248  0.74605322  0.30772078  1
  O  O21  1  0.56891895  0.10119843  0.95045907  1
  O  O22  1  0.40905616  0.40189185  0.41404793  1
  O  O23  1  0.53184932  0.90736494  0.68749434  1
  O  O24  1  0.46815068  0.09263506  0.31250566  1
  O  O25  1  0.59094384  0.59810815  0.58595207  1
  O  O26  1  0.43108105  0.89880157  0.04954093  1
  O  O27  1  0.64909752  0.25394678  0.69227922  1
  O  O28  1  0.85090248  0.75394678  0.80772078  1
  O  O29  1  0.68692425  0.48461861  0.21253038  1
  O  O30  1  0.90905616  0.09810815  0.91404793  1
  O  O31  1  0.69977746  0.72038579  0.11863394  1
  O  O32  1  0.80022254  0.22038579  0.38136606  1
  O  O33  1  0.96815068  0.40736494  0.81250566  1
  O  O34  1  0.81307575  0.98461861  0.28746962  1
  O  O35  1  0.93108105  0.60119843  0.54954093  1
