# generated using pymatgen
data_Co(CuO2)4
_symmetry_space_group_name_H-M   'P 1'
_cell_length_a   5.96099922
_cell_length_b   5.96099889
_cell_length_c   6.53343393
_cell_angle_alpha   78.80079137
_cell_angle_beta   51.83601416
_cell_angle_gamma   57.61408574
_symmetry_Int_Tables_number   1
_chemical_formula_structural   Co(CuO2)4
_chemical_formula_sum   'Co1 Cu4 O8'
_cell_volume   150.83583284
_cell_formula_units_Z   1
loop_
 _symmetry_equiv_pos_site_id
 _symmetry_equiv_pos_as_xyz
  1  'x, y, z'
loop_
 _atom_site_type_symbol
 _atom_site_label
 _atom_site_symmetry_multiplicity
 _atom_site_fract_x
 _atom_site_fract_y
 _atom_site_fract_z
 _atom_site_occupancy
  Co  Co0  1  0.50000000  0.50000000  0.00000000  1
  Cu  Cu1  1  0.00000000  0.50000000  0.50000000  1
  Cu  Cu2  1  0.00000000  0.00000000  0.00000000  1
  Cu  Cu3  1  0.50000000  0.00000000  0.00000000  1
  Cu  Cu4  1  0.00000000  0.50000000  0.00000000  1
  O  O5  1  0.47258227  0.30062409  0.82804082  1
  O  O6  1  0.96732784  0.29798181  0.76843492  1
  O  O7  1  0.52954689  0.73576277  0.76843492  1
  O  O8  1  0.96321777  0.80248023  0.83926246  1
  O  O9  1  0.03678223  0.19751977  0.16073754  1
  O  O10  1  0.47045311  0.26423723  0.23156508  1
  O  O11  1  0.03267216  0.70201819  0.23156508  1
  O  O12  1  0.52741773  0.69937591  0.17195918  1
