# generated using pymatgen
data_Li5Mn5(SbO6)2
_symmetry_space_group_name_H-M   'P 1'
_cell_length_a   5.49690161
_cell_length_b   5.49690216
_cell_length_c   10.41466945
_cell_angle_alpha   84.08613215
_cell_angle_beta   95.91386253
_cell_angle_gamma   59.01897818
_symmetry_Int_Tables_number   1
_chemical_formula_structural   Li5Mn5(SbO6)2
_chemical_formula_sum   'Li5 Mn5 Sb2 O12'
_cell_volume   263.82634276
_cell_formula_units_Z   1
loop_
 _symmetry_equiv_pos_site_id
 _symmetry_equiv_pos_as_xyz
  1  'x, y, z'
loop_
 _atom_site_type_symbol
 _atom_site_label
 _atom_site_symmetry_multiplicity
 _atom_site_fract_x
 _atom_site_fract_y
 _atom_site_fract_z
 _atom_site_occupancy
  Li  Li0  1  0.16031810  0.65818715  0.50243703  1
  Li  Li1  1  0.33014304  0.84634071  0.99614867  1
  Li  Li2  1  0.65818715  0.16031810  0.99756297  1
  Li  Li3  1  0.84634071  0.33014304  0.50385133  1
  Li  Li4  1  0.92001725  0.92001725  0.75000000  1
  Mn  Mn5  1  0.07900928  0.07900928  0.25000000  1
  Mn  Mn6  1  0.99596629  0.51141641  0.99449930  1
  Mn  Mn7  1  0.51141641  0.99596629  0.50550070  1
  Mn  Mn8  1  0.41874148  0.41874148  0.25000000  1
  Mn  Mn9  1  0.57927618  0.57927618  0.75000000  1
  Sb  Sb10  1  0.25077279  0.25077279  0.75000000  1
  Sb  Sb11  1  0.74819945  0.74819945  0.25000000  1
  O  O12  1  0.99041941  0.21388125  0.86550752  1
  O  O13  1  0.21388125  0.99041941  0.63449248  1
  O  O14  1  0.12375115  0.37485811  0.37011467  1
  O  O15  1  0.37485811  0.12375115  0.12988533  1
  O  O16  1  0.29214015  0.51105630  0.86419485  1
  O  O17  1  0.51105630  0.29214015  0.63580515  1
  O  O18  1  0.47399843  0.70621427  0.37420386  1
  O  O19  1  0.70621427  0.47399843  0.12579614  1
  O  O20  1  0.60066855  0.89547492  0.86766814  1
  O  O21  1  0.89547492  0.60066855  0.63233186  1
  O  O22  1  0.79340861  0.02573873  0.37535902  1
  O  O23  1  0.02573873  0.79340861  0.12464098  1
