# generated using pymatgen
data_Li4CrO5
_symmetry_space_group_name_H-M   'P 1'
_cell_length_a   8.86936963
_cell_length_b   8.91559469
_cell_length_c   5.00994190
_cell_angle_alpha   96.74589125
_cell_angle_beta   96.45095975
_cell_angle_gamma   113.35526801
_symmetry_Int_Tables_number   1
_chemical_formula_structural   Li4CrO5
_chemical_formula_sum   'Li16 Cr4 O20'
_cell_volume   355.65725014
_cell_formula_units_Z   4
loop_
 _symmetry_equiv_pos_site_id
 _symmetry_equiv_pos_as_xyz
  1  'x, y, z'
loop_
 _atom_site_type_symbol
 _atom_site_label
 _atom_site_symmetry_multiplicity
 _atom_site_fract_x
 _atom_site_fract_y
 _atom_site_fract_z
 _atom_site_occupancy
  Li  Li0  1  0.10445578  0.91462812  0.51587323  1
  Li  Li1  1  0.19969193  0.80236031  0.97682222  1
  Li  Li2  1  0.04793060  0.46177991  0.74567393  1
  Li  Li3  1  0.15677796  0.35658355  0.28437132  1
  Li  Li4  1  0.00000000  0.00000000  0.00000000  1
  Li  Li5  1  0.39595525  0.59493452  0.00347859  1
  Li  Li6  1  0.54976258  0.93497513  0.21458387  1
  Li  Li7  1  0.64294198  0.83956359  0.74228739  1
  Li  Li8  1  0.50000000  0.50000000  0.50000000  1
  Li  Li9  1  0.35705802  0.16043641  0.25771261  1
  Li  Li10  1  0.45023742  0.06502487  0.78541613  1
  Li  Li11  1  0.60404475  0.40506548  0.99652141  1
  Li  Li12  1  0.84322204  0.64341645  0.71562868  1
  Li  Li13  1  0.95206940  0.53822009  0.25432607  1
  Li  Li14  1  0.80030807  0.19763969  0.02317778  1
  Li  Li15  1  0.89554422  0.08537188  0.48412677  1
  Cr  Cr16  1  0.29898736  0.73943496  0.47715964  1
  Cr  Cr17  1  0.21364671  0.24653531  0.78745127  1
  Cr  Cr18  1  0.78635329  0.75346469  0.21254873  1
  Cr  Cr19  1  0.70101264  0.26056504  0.52284036  1
  O  O20  1  0.10318032  0.68105811  0.60882301  1
  O  O21  1  0.03133167  0.22295772  0.89478716  1
  O  O22  1  0.31978202  0.91793250  0.36785721  1
  O  O23  1  0.18121179  0.58530878  0.17815394  1
  O  O24  1  0.40504482  0.81765151  0.82959385  1
  O  O25  1  0.27240149  0.43617511  0.65961050  1
  O  O26  1  0.14307008  0.14052964  0.43619678  1
  O  O27  1  0.22893299  0.05658722  0.87031345  1
  O  O28  1  0.47904812  0.71450647  0.39811263  1
  O  O29  1  0.36438069  0.35721923  0.08632626  1
  O  O30  1  0.63561931  0.64278077  0.91367374  1
  O  O31  1  0.52095188  0.28549353  0.60188737  1
  O  O32  1  0.77106701  0.94341278  0.12968655  1
  O  O33  1  0.85692992  0.85947036  0.56380322  1
  O  O34  1  0.72759851  0.56382489  0.34038950  1
  O  O35  1  0.59495518  0.18234849  0.17040615  1
  O  O36  1  0.81878821  0.41469122  0.82184606  1
  O  O37  1  0.68021798  0.08206750  0.63214279  1
  O  O38  1  0.96866833  0.77704228  0.10521284  1
  O  O39  1  0.89681968  0.31894189  0.39117699  1
