# generated using pymatgen
data_Mn2O3F
_symmetry_space_group_name_H-M   'P 1'
_cell_length_a   4.63231875
_cell_length_b   4.63231875
_cell_length_c   3.01198649
_cell_angle_alpha   90.00000000
_cell_angle_beta   90.00000000
_cell_angle_gamma   94.25595084
_symmetry_Int_Tables_number   1
_chemical_formula_structural   Mn2O3F
_chemical_formula_sum   'Mn2 O3 F1'
_cell_volume   64.45411672
_cell_formula_units_Z   1
loop_
 _symmetry_equiv_pos_site_id
 _symmetry_equiv_pos_as_xyz
  1  'x, y, z'
loop_
 _atom_site_type_symbol
 _atom_site_label
 _atom_site_symmetry_multiplicity
 _atom_site_fract_x
 _atom_site_fract_y
 _atom_site_fract_z
 _atom_site_occupancy
  Mn  Mn0  1  0.01639277  0.98360723  0.00000000  1
  Mn  Mn1  1  0.48795909  0.51204091  0.50000000  1
  O  O2  1  0.19388757  0.80611243  0.50000000  1
  O  O3  1  0.30217719  0.30767247  0.00000000  1
  O  O4  1  0.69232753  0.69782281  0.00000000  1
  F  F5  1  0.80725585  0.19274415  0.50000000  1
