# generated using pymatgen
data_La2(Ni2B)3
_symmetry_space_group_name_H-M   'P 1'
_cell_length_a   5.22995277
_cell_length_b   5.95407480
_cell_length_c   5.95411563
_cell_angle_alpha   92.15756008
_cell_angle_beta   116.03911841
_cell_angle_gamma   63.96288629
_symmetry_Int_Tables_number   1
_chemical_formula_structural   La2(Ni2B)3
_chemical_formula_sum   'La2 Ni6 B3'
_cell_volume   146.89492334
_cell_formula_units_Z   1
loop_
 _symmetry_equiv_pos_site_id
 _symmetry_equiv_pos_as_xyz
  1  'x, y, z'
loop_
 _atom_site_type_symbol
 _atom_site_label
 _atom_site_symmetry_multiplicity
 _atom_site_fract_x
 _atom_site_fract_y
 _atom_site_fract_z
 _atom_site_occupancy
  La  La0  1  0.74988748  0.69839975  0.19819181  1
  La  La1  1  0.24991339  0.31185439  0.81164095  1
  Ni  Ni2  1  0.81382564  0.18943310  0.31421125  1
  Ni  Ni3  1  0.68622217  0.81414375  0.68956913  1
  Ni  Ni4  1  0.31025638  0.18991292  0.31353136  1
  Ni  Ni5  1  0.18991443  0.81344239  0.69008901  1
  Ni  Ni6  1  0.49068356  0.50990302  0.49019642  1
  Ni  Ni7  1  0.00927742  0.99021606  0.00985523  1
  B  B8  1  0.75002102  0.12114302  0.62117743  1
  B  B9  1  0.25000990  0.89326869  0.39332444  1
  B  B10  1  0.74998862  0.36028290  0.86021298  1
