# generated using pymatgen
data_NaLi5Mn2P2(CO7)2
_symmetry_space_group_name_H-M   'P 1'
_cell_length_a   8.64950594
_cell_length_b   6.64317606
_cell_length_c   10.01801554
_cell_angle_alpha   90.13944917
_cell_angle_beta   88.07970888
_cell_angle_gamma   89.64786051
_symmetry_Int_Tables_number   1
_chemical_formula_structural   NaLi5Mn2P2(CO7)2
_chemical_formula_sum   'Na2 Li10 Mn4 P4 C4 O28'
_cell_volume   575.30094023
_cell_formula_units_Z   2
loop_
 _symmetry_equiv_pos_site_id
 _symmetry_equiv_pos_as_xyz
  1  'x, y, z'
loop_
 _atom_site_type_symbol
 _atom_site_label
 _atom_site_symmetry_multiplicity
 _atom_site_fract_x
 _atom_site_fract_y
 _atom_site_fract_z
 _atom_site_occupancy
  Na  Na0  1  0.08610856  0.24529812  0.37612388  1
  Na  Na1  1  0.75182199  0.50007720  0.37561043  1
  Li  Li2  1  0.07946891  0.24856621  0.87163041  1
  Li  Li3  1  0.26711836  0.02569217  0.61617309  1
  Li  Li4  1  0.26688099  0.47381020  0.61575932  1
  Li  Li5  1  0.26794635  0.02541047  0.11097224  1
  Li  Li6  1  0.26572214  0.47523589  0.11163183  1
  Li  Li7  1  0.73715832  0.52343712  0.88303588  1
  Li  Li8  1  0.73540030  0.97428845  0.88394522  1
  Li  Li9  1  0.72784715  0.97294572  0.38837597  1
  Li  Li10  1  0.91697391  0.75617204  0.63094949  1
  Li  Li11  1  0.91234346  0.76283524  0.12535574  1
  Mn  Mn12  1  0.34988875  0.75099718  0.88570737  1
  Mn  Mn13  1  0.35696174  0.74725314  0.38927723  1
  Mn  Mn14  1  0.64584536  0.24525426  0.61896521  1
  Mn  Mn15  1  0.64832548  0.24874211  0.10891019  1
  P  P16  1  0.40492848  0.25085919  0.85477084  1
  P  P17  1  0.41443255  0.24283603  0.35717220  1
  P  P18  1  0.59076786  0.74891883  0.65125523  1
  P  P19  1  0.59070635  0.75437017  0.14244558  1
  C  C20  1  0.03746202  0.75031867  0.86427557  1
  C  C21  1  0.04380072  0.75925881  0.36148559  1
  C  C22  1  0.95225278  0.24945982  0.64186642  1
  C  C23  1  0.96130150  0.25045158  0.12723102  1
  O  O24  1  0.10199577  0.25119109  0.65673202  1
  O  O25  1  0.10950750  0.24989380  0.14557603  1
  O  O26  1  0.08000931  0.75274252  0.98650403  1
  O  O27  1  0.07987836  0.75025011  0.48616132  1
  O  O28  1  0.14036224  0.75102269  0.76582175  1
  O  O29  1  0.15133603  0.74435751  0.26764981  1
  O  O30  1  0.31094141  0.06731748  0.90743717  1
  O  O31  1  0.31026133  0.43572340  0.90728823  1
  O  O32  1  0.31640736  0.06246752  0.40986300  1
  O  O33  1  0.32793863  0.43217279  0.41349216  1
  O  O34  1  0.41108264  0.24920179  0.69808286  1
  O  O35  1  0.42111185  0.75206846  0.60291323  1
  O  O36  1  0.41769690  0.24742682  0.20050858  1
  O  O37  1  0.42156154  0.75095193  0.09459421  1
  O  O38  1  0.57536174  0.25183688  0.89991448  1
  O  O39  1  0.58194318  0.75625773  0.80756372  1
  O  O40  1  0.58361064  0.22957741  0.40269736  1
  O  O41  1  0.58218538  0.76723640  0.29834209  1
  O  O42  1  0.68339150  0.56024737  0.60469027  1
  O  O43  1  0.68839322  0.92861888  0.59653820  1
  O  O44  1  0.68682231  0.56587552  0.09689743  1
  O  O45  1  0.68709592  0.93365936  0.08532657  1
  O  O46  1  0.86066591  0.24410304  0.74707714  1
  O  O47  1  0.86459122  0.25133176  0.22997171  1
  O  O48  1  0.89361795  0.25242073  0.52487256  1
  O  O49  1  0.90841154  0.24958147  0.00812216  1
  O  O50  1  0.89142363  0.74751902  0.83508728  1
  O  O51  1  0.90093002  0.78245891  0.32735070  1
