# generated using pymatgen
data_Li2MgCu2(SiO3)4
_symmetry_space_group_name_H-M   'P 1'
_cell_length_a   5.76830635
_cell_length_b   7.54921627
_cell_length_c   5.26107649
_cell_angle_alpha   99.92703907
_cell_angle_beta   97.09972573
_cell_angle_gamma   84.53514706
_symmetry_Int_Tables_number   1
_chemical_formula_structural   Li2MgCu2(SiO3)4
_chemical_formula_sum   'Li2 Mg1 Cu2 Si4 O12'
_cell_volume   223.29806940
_cell_formula_units_Z   1
loop_
 _symmetry_equiv_pos_site_id
 _symmetry_equiv_pos_as_xyz
  1  'x, y, z'
loop_
 _atom_site_type_symbol
 _atom_site_label
 _atom_site_symmetry_multiplicity
 _atom_site_fract_x
 _atom_site_fract_y
 _atom_site_fract_z
 _atom_site_occupancy
  Li  Li0  1  0.24279356  0.58967438  0.92678894  1
  Li  Li1  1  0.75720644  0.41032562  0.07321106  1
  Mg  Mg2  1  0.00000000  0.00000000  0.00000000  1
  Cu  Cu3  1  0.16373397  0.81643204  0.49226208  1
  Cu  Cu4  1  0.83626603  0.18356796  0.50773792  1
  Si  Si5  1  0.22334499  0.37253450  0.30128847  1
  Si  Si6  1  0.41020077  0.18615871  0.77894808  1
  Si  Si7  1  0.58979923  0.81384129  0.22105192  1
  Si  Si8  1  0.77665501  0.62746550  0.69871153  1
  O  O9  1  0.00009972  0.24757097  0.22870799  1
  O  O10  1  0.99990028  0.75242903  0.77129201  1
  O  O11  1  0.19927485  0.05295089  0.73230448  1
  O  O12  1  0.13586820  0.57873463  0.27513427  1
  O  O13  1  0.35984740  0.34433220  0.58734556  1
  O  O14  1  0.32403907  0.90378136  0.23595172  1
  O  O15  1  0.41076285  0.31146937  0.07546294  1
  O  O16  1  0.58923715  0.68853063  0.92453706  1
  O  O17  1  0.67596093  0.09621864  0.76404828  1
  O  O18  1  0.64015260  0.65566780  0.41265444  1
  O  O19  1  0.86413180  0.42126537  0.72486473  1
  O  O20  1  0.80072515  0.94704911  0.26769552  1
