# generated using pymatgen
data_Li4NbFe3O8
_symmetry_space_group_name_H-M   'P 1'
_cell_length_a   5.75137913
_cell_length_b   6.60304481
_cell_length_c   5.16308864
_cell_angle_alpha   89.80317648
_cell_angle_beta   90.18704208
_cell_angle_gamma   90.77821117
_symmetry_Int_Tables_number   1
_chemical_formula_structural   Li4NbFe3O8
_chemical_formula_sum   'Li4 Nb1 Fe3 O8'
_cell_volume   196.05636738
_cell_formula_units_Z   1
loop_
 _symmetry_equiv_pos_site_id
 _symmetry_equiv_pos_as_xyz
  1  'x, y, z'
loop_
 _atom_site_type_symbol
 _atom_site_label
 _atom_site_symmetry_multiplicity
 _atom_site_fract_x
 _atom_site_fract_y
 _atom_site_fract_z
 _atom_site_occupancy
  Li  Li0  1  0.08481246  0.61229549  0.99607417  1
  Li  Li1  1  0.42626385  0.13328578  0.49376423  1
  Li  Li2  1  0.56268622  0.87452489  0.99678298  1
  Li  Li3  1  0.90612129  0.37729147  0.49434461  1
  Nb  Nb4  1  0.91543872  0.87654634  0.50545971  1
  Fe  Fe5  1  0.09813518  0.15031879  0.97463373  1
  Fe  Fe6  1  0.42557415  0.60523805  0.51201540  1
  Fe  Fe7  1  0.58477312  0.37244681  0.99336531  1
  O  O8  1  0.07518402  0.11156651  0.38820235  1
  O  O9  1  0.07465273  0.64517746  0.39327139  1
  O  O10  1  0.42557573  0.13061922  0.87979839  1
  O  O11  1  0.41668003  0.61227560  0.89560437  1
  O  O12  1  0.58514695  0.37391413  0.36280810  1
  O  O13  1  0.60366575  0.87521106  0.38934437  1
  O  O14  1  0.89856044  0.37617845  0.87862659  1
  O  O15  1  0.91672836  0.87311295  0.87230330  1
