# generated using pymatgen
data_Mn5CuO12
_symmetry_space_group_name_H-M   'P 1'
_cell_length_a   5.06899140
_cell_length_b   5.08133045
_cell_length_c   9.66626304
_cell_angle_alpha   90.07044227
_cell_angle_beta   90.14121926
_cell_angle_gamma   60.08028891
_symmetry_Int_Tables_number   1
_chemical_formula_structural   Mn5CuO12
_chemical_formula_sum   'Mn5 Cu1 O12'
_cell_volume   215.79317776
_cell_formula_units_Z   1
loop_
 _symmetry_equiv_pos_site_id
 _symmetry_equiv_pos_as_xyz
  1  'x, y, z'
loop_
 _atom_site_type_symbol
 _atom_site_label
 _atom_site_symmetry_multiplicity
 _atom_site_fract_x
 _atom_site_fract_y
 _atom_site_fract_z
 _atom_site_occupancy
  Mn  Mn0  1  0.16660100  0.66679800  0.50000000  1
  Mn  Mn1  1  0.66693152  0.66613696  0.00000000  1
  Mn  Mn2  1  0.33306848  0.33386304  1.00000000  1
  Mn  Mn3  1  0.83339900  0.33320200  0.50000000  1
  Mn  Mn4  1  0.50000000  0.00000000  0.50000000  1
  Cu  Cu5  1  0.00000000  0.00000000  0.00000000  1
  O  O6  1  0.00041816  0.66301531  0.09990479  1
  O  O7  1  0.33656653  0.66301531  0.90009521  1
  O  O8  1  0.16644177  0.33337174  0.40069463  1
  O  O9  1  0.49981350  0.66662826  0.40069463  1
  O  O10  1  0.50018650  0.33337174  0.59930537  1
  O  O11  1  0.16701382  1.00000000  0.59920191  1
  O  O12  1  0.83355823  0.66662826  0.59930537  1
  O  O13  1  0.66343347  0.33698469  0.09990479  1
  O  O14  1  0.33357950  1.00000000  0.09875423  1
  O  O15  1  0.99958184  0.33698469  0.90009521  1
  O  O16  1  0.66642050  0.00000000  0.90124577  1
  O  O17  1  0.83298618  0.00000000  0.40079809  1
