# generated using pymatgen
data_Na2CrCSO7
_symmetry_space_group_name_H-M   'P 1'
_cell_length_a   8.93883377
_cell_length_b   7.12102637
_cell_length_c   5.24783071
_cell_angle_alpha   90.00000000
_cell_angle_beta   89.29138358
_cell_angle_gamma   90.00000000
_symmetry_Int_Tables_number   1
_chemical_formula_structural   Na2CrCSO7
_chemical_formula_sum   'Na4 Cr2 C2 S2 O14'
_cell_volume   334.01814220
_cell_formula_units_Z   2
loop_
 _symmetry_equiv_pos_site_id
 _symmetry_equiv_pos_as_xyz
  1  'x, y, z'
loop_
 _atom_site_type_symbol
 _atom_site_label
 _atom_site_symmetry_multiplicity
 _atom_site_fract_x
 _atom_site_fract_y
 _atom_site_fract_z
 _atom_site_occupancy
  Na  Na0  1  0.21955661  0.99608120  0.23136685  1
  Na  Na1  1  0.21955661  0.50391880  0.23136685  1
  Na  Na2  1  0.78044339  0.49608120  0.76863315  1
  Na  Na3  1  0.78044339  0.00391880  0.76863315  1
  Cr  Cr4  1  0.35503351  0.75000000  0.77107518  1
  Cr  Cr5  1  0.64496649  0.25000000  0.22892482  1
  C  C6  1  0.07458410  0.75000000  0.72481100  1
  C  C7  1  0.92541590  0.25000000  0.27518900  1
  S  S8  1  0.41928572  0.25000000  0.71505746  1
  S  S9  1  0.58071428  0.75000000  0.28494254  1
  O  O10  1  0.06645362  0.25000000  0.28255048  1
  O  O11  1  0.14825243  0.75000000  0.94173508  1
  O  O12  1  0.16232591  0.75000000  0.52149101  1
  O  O13  1  0.33708629  0.07938011  0.79474931  1
  O  O14  1  0.33708629  0.42061989  0.79474931  1
  O  O15  1  0.42637743  0.75000000  0.17254977  1
  O  O16  1  0.43808392  0.25000000  0.42756444  1
  O  O17  1  0.56191608  0.75000000  0.57243556  1
  O  O18  1  0.57362257  0.25000000  0.82745023  1
  O  O19  1  0.66291371  0.57938011  0.20525069  1
  O  O20  1  0.66291371  0.92061989  0.20525069  1
  O  O21  1  0.83767409  0.25000000  0.47850899  1
  O  O22  1  0.85174757  0.25000000  0.05826492  1
  O  O23  1  0.93354638  0.75000000  0.71744952  1
