# generated using pymatgen
data_Li4Ni2(PO4)3
_symmetry_space_group_name_H-M   'P 1'
_cell_length_a   9.13206812
_cell_length_b   8.47089959
_cell_length_c   8.31128296
_cell_angle_alpha   60.12179360
_cell_angle_beta   63.34722508
_cell_angle_gamma   62.44350640
_symmetry_Int_Tables_number   1
_chemical_formula_structural   Li4Ni2(PO4)3
_chemical_formula_sum   'Li8 Ni4 P6 O24'
_cell_volume   473.92273132
_cell_formula_units_Z   2
loop_
 _symmetry_equiv_pos_site_id
 _symmetry_equiv_pos_as_xyz
  1  'x, y, z'
loop_
 _atom_site_type_symbol
 _atom_site_label
 _atom_site_symmetry_multiplicity
 _atom_site_fract_x
 _atom_site_fract_y
 _atom_site_fract_z
 _atom_site_occupancy
  Li  Li0  1  0.14254526  0.66871348  0.26971960  1
  Li  Li1  1  0.13690430  0.27098784  0.92256146  1
  Li  Li2  1  0.09707885  0.94034459  0.69004036  1
  Li  Li3  1  0.58889052  0.20682822  0.46662183  1
  Li  Li4  1  0.41110948  0.79317178  0.53337817  1
  Li  Li5  1  0.90292115  0.05965541  0.30995964  1
  Li  Li6  1  0.86309570  0.72901216  0.07743854  1
  Li  Li7  1  0.85745474  0.33128652  0.73028040  1
  Ni  Ni8  1  0.03842512  0.64942165  0.65911781  1
  Ni  Ni9  1  0.56658823  0.14444750  0.14149486  1
  Ni  Ni10  1  0.43341177  0.85555250  0.85850514  1
  Ni  Ni11  1  0.96157488  0.35057835  0.34088219  1
  P  P12  1  0.23994320  0.25324638  0.54671289  1
  P  P13  1  0.25277311  0.95633262  0.25678553  1
  P  P14  1  0.24811530  0.54739587  0.95087047  1
  P  P15  1  0.75188470  0.45260413  0.04912953  1
  P  P16  1  0.74722689  0.04366738  0.74321447  1
  P  P17  1  0.76005680  0.74675362  0.45328711  1
  O  O18  1  0.10454039  0.15299054  0.20468110  1
  O  O19  1  0.09821249  0.55718363  0.14038759  1
  O  O20  1  0.09185063  0.21187585  0.53936990  1
  O  O21  1  0.19168960  0.46728789  0.50841683  1
  O  O22  1  0.25354300  0.12507522  0.75598350  1
  O  O23  1  0.41303950  0.19763639  0.40140741  1
  O  O24  1  0.26484386  0.85728958  0.13473010  1
  O  O25  1  0.19653347  0.83596527  0.47803926  1
  O  O26  1  0.19868903  0.49857134  0.82784212  1
  O  O27  1  0.58374122  0.60501149  0.00895939  1
  O  O28  1  0.72747424  0.24993158  0.16842120  1
  O  O29  1  0.57764446  0.02193445  0.77871868  1
  O  O30  1  0.42235554  0.97806555  0.22128132  1
  O  O31  1  0.27252576  0.75006842  0.83157880  1
  O  O32  1  0.41625878  0.39498851  0.99104061  1
  O  O33  1  0.80131097  0.50142866  0.17215788  1
  O  O34  1  0.80346653  0.16403473  0.52196074  1
  O  O35  1  0.73515614  0.14271042  0.86526990  1
  O  O36  1  0.58696050  0.80236361  0.59859259  1
  O  O37  1  0.74645700  0.87492478  0.24401650  1
  O  O38  1  0.80831040  0.53271211  0.49158317  1
  O  O39  1  0.90814937  0.78812415  0.46063010  1
  O  O40  1  0.90178751  0.44281637  0.85961241  1
  O  O41  1  0.89545961  0.84700946  0.79531890  1
