# generated using pymatgen
data_Ba4Nb3O12
_symmetry_space_group_name_H-M   'P 1'
_cell_length_a   5.92169538
_cell_length_b   5.92174325
_cell_length_c   19.45891121
_cell_angle_alpha   89.99909740
_cell_angle_beta   90.00110322
_cell_angle_gamma   120.00151548
_symmetry_Int_Tables_number   1
_chemical_formula_structural   Ba4Nb3O12
_chemical_formula_sum   'Ba8 Nb6 O24'
_cell_volume   590.93290305
_cell_formula_units_Z   2
loop_
 _symmetry_equiv_pos_site_id
 _symmetry_equiv_pos_as_xyz
  1  'x, y, z'
loop_
 _atom_site_type_symbol
 _atom_site_label
 _atom_site_symmetry_multiplicity
 _atom_site_fract_x
 _atom_site_fract_y
 _atom_site_fract_z
 _atom_site_occupancy
  Ba  Ba0  1  0.99999487  -0.00000137  0.00983821  1
  Ba  Ba1  1  0.00000457  -0.00000211  0.50981406  1
  Ba  Ba2  1  0.33337167  0.66665131  0.14548615  1
  Ba  Ba3  1  0.33334508  0.66664158  0.36930639  1
  Ba  Ba4  1  0.33329201  0.66661055  0.74383543  1
  Ba  Ba5  1  0.66671140  0.33332092  0.24379462  1
  Ba  Ba6  1  0.66663186  0.33329952  0.64550906  1
  Ba  Ba7  1  0.66665720  0.33330252  0.86931288  1
  Nb  Nb8  1  0.00003451  0.99997726  0.30334792  1
  Nb  Nb9  1  0.99996942  0.99994980  0.80335649  1
  Nb  Nb10  1  0.33333914  0.66665500  0.56498617  1
  Nb  Nb11  1  0.33332160  0.66665034  0.93629157  1
  Nb  Nb12  1  0.66666241  0.33331784  0.06500633  1
  Nb  Nb13  1  0.66666602  0.33332086  0.43628483  1
  O  O14  1  0.00524649  0.50263168  0.99438844  1
  O  O15  1  0.99476196  0.49738843  0.49438589  1
  O  O16  1  0.16336375  0.83661547  0.25876904  1
  O  O17  1  0.17652261  0.82355925  0.61614947  1
  O  O18  1  0.16984599  0.83010378  0.87715740  1
  O  O19  1  0.16338071  0.32668563  0.25877131  1
  O  O20  1  0.17649319  0.35298942  0.61617084  1
  O  O21  1  0.16984388  0.33972799  0.87715980  1
  O  O22  1  0.67330330  0.83662743  0.25877922  1
  O  O23  1  0.64702863  0.82351830  0.61616107  1
  O  O24  1  0.66025138  0.83010295  0.87715652  1
  O  O25  1  0.49735998  0.50260473  0.99438582  1
  O  O26  1  0.50261877  0.49736541  0.49437988  1
  O  O27  1  0.35302876  0.17651921  0.11614811  1
  O  O28  1  0.33975564  0.16985335  0.37715777  1
  O  O29  1  0.32668952  0.16332083  0.75878294  1
  O  O30  1  0.49738407  0.99475193  0.99438591  1
  O  O31  1  0.50264014  0.00524876  0.49438171  1
  O  O32  1  0.82345441  0.64698018  0.11614348  1
  O  O33  1  0.83015210  0.66025307  0.37715508  1
  O  O34  1  0.83663674  0.67325596  0.75876887  1
  O  O35  1  0.82347422  0.17651844  0.11616062  1
  O  O36  1  0.83014434  0.16988440  0.37715979  1
  O  O37  1  0.83661666  0.16330040  0.75877196  1
