# generated using pymatgen
data_LiCo(SiO3)2
_symmetry_space_group_name_H-M   'P 1'
_cell_length_a   5.19864657
_cell_length_b   10.41995842
_cell_length_c   5.19887631
_cell_angle_alpha   104.77231261
_cell_angle_beta   89.18111005
_cell_angle_gamma   76.32056275
_symmetry_Int_Tables_number   1
_chemical_formula_structural   LiCo(SiO3)2
_chemical_formula_sum   'Li2 Co2 Si4 O12'
_cell_volume   263.75333258
_cell_formula_units_Z   2
loop_
 _symmetry_equiv_pos_site_id
 _symmetry_equiv_pos_as_xyz
  1  'x, y, z'
loop_
 _atom_site_type_symbol
 _atom_site_label
 _atom_site_symmetry_multiplicity
 _atom_site_fract_x
 _atom_site_fract_y
 _atom_site_fract_z
 _atom_site_occupancy
  Li  Li0  1  0.10454800  0.67142392  0.82307453  1
  Li  Li1  1  0.90163536  0.17141730  0.52587253  1
  Co  Co2  1  0.72314679  0.49587345  0.73152733  1
  Co  Co3  1  0.98550627  0.99589503  0.96896353  1
  Si  Si4  1  0.40805432  0.16588649  0.16908164  1
  Si  Si5  1  0.30766871  0.33827478  0.75075244  1
  Si  Si6  1  0.16256052  0.83819554  0.39586205  1
  Si  Si7  1  0.75322973  0.66576634  0.32399395  1
  O  O8  1  0.11391596  0.13672823  0.18390143  1
  O  O9  1  0.04632490  0.98891701  0.60679061  1
  O  O10  1  0.13587011  0.83973276  0.08466213  1
  O  O11  1  0.63013600  0.02400267  0.04204997  1
  O  O12  1  0.48669510  0.23167766  0.47669681  1
  O  O13  1  0.36790921  0.48901898  0.78529692  1
  O  O14  1  0.41784075  0.27647706  0.99758487  1
  O  O15  1  0.47123828  0.77641986  0.44422899  1
  O  O16  1  0.76776078  0.52386413  0.40412416  1
  O  O17  1  0.79735602  0.63664853  0.00077313  1
  O  O18  1  0.99500279  0.33970785  0.72542358  1
  O  O19  1  0.99520739  0.73149942  0.46837239  1
