# generated using pymatgen
data_Ba14Y7(Cu10O21)2
_symmetry_space_group_name_H-M   'P 1'
_cell_length_a   12.24440914
_cell_length_b   8.67125738
_cell_length_c   12.72789206
_cell_angle_alpha   74.20456233
_cell_angle_beta   84.52795720
_cell_angle_gamma   98.27346045
_symmetry_Int_Tables_number   1
_chemical_formula_structural   Ba14Y7(Cu10O21)2
_chemical_formula_sum   'Ba14 Y7 Cu20 O42'
_cell_volume   1273.90785252
_cell_formula_units_Z   1
loop_
 _symmetry_equiv_pos_site_id
 _symmetry_equiv_pos_as_xyz
  1  'x, y, z'
loop_
 _atom_site_type_symbol
 _atom_site_label
 _atom_site_symmetry_multiplicity
 _atom_site_fract_x
 _atom_site_fract_y
 _atom_site_fract_z
 _atom_site_occupancy
  Ba  Ba0  1  0.17836011  0.05231693  0.20087013  1
  Ba  Ba1  1  0.03978353  0.63495393  0.20077333  1
  Ba  Ba2  1  0.32737440  0.48626283  0.19457060  1
  Ba  Ba3  1  0.52797411  0.08418881  0.80417890  1
  Ba  Ba4  1  0.61678228  0.34628104  0.19459205  1
  Ba  Ba5  1  0.24242392  0.22676967  0.80426600  1
  Ba  Ba6  1  0.90281854  0.19277706  0.20088354  1
  Ba  Ba7  1  0.76417012  0.77596139  0.20080009  1
  Ba  Ba8  1  0.38490393  0.65499171  0.80485806  1
  Ba  Ba9  1  0.09958747  0.79858681  0.80298270  1
  Ba  Ba10  1  0.95684886  0.37021212  0.80274911  1
  Ba  Ba11  1  0.47209969  0.91692877  0.19441294  1
  Ba  Ba12  1  0.67102595  0.51239920  0.80322766  1
  Ba  Ba13  1  0.81378444  0.94203072  0.80280817  1
  Y  Y14  1  0.57124599  0.21509457  0.50081579  1
  Y  Y15  1  0.28559552  0.35571181  0.50083043  1
  Y  Y16  1  0.99812934  0.50992155  0.49595580  1
  Y  Y17  1  0.86046719  0.06502818  0.49603482  1
  Y  Y18  1  0.42824112  0.78508715  0.50135152  1
  Y  Y19  1  0.13623854  0.92637096  0.49556533  1
  Y  Y20  1  0.72213337  0.64890942  0.49554975  1
  Cu  Cu21  1  0.00076759  0.00233621  0.99459371  1
  Cu  Cu22  1  0.71427197  0.14277569  0.99992017  1
  Cu  Cu23  1  0.14279698  0.42919079  0.00000221  1
  Cu  Cu24  1  0.42799847  0.28495351  0.00058248  1
  Cu  Cu25  1  0.33682300  0.01298108  0.63516061  1
  Cu  Cu26  1  0.37670631  0.12995259  0.36344290  1
  Cu  Cu27  1  0.05164612  0.15715799  0.63546792  1
  Cu  Cu28  1  0.09134017  0.27352259  0.36847145  1
  Cu  Cu29  1  0.80322450  0.41090512  0.36835484  1
  Cu  Cu30  1  0.23592295  0.69988168  0.36713884  1
  Cu  Cu31  1  0.76696868  0.29853248  0.63473777  1
  Cu  Cu32  1  0.48183287  0.44289527  0.63479420  1
  Cu  Cu33  1  0.28580404  0.85727990  0.00004194  1
  Cu  Cu34  1  0.85706936  0.57056472  0.00033549  1
  Cu  Cu35  1  0.57185762  0.71440893  0.00071302  1
  Cu  Cu36  1  0.51948844  0.55879863  0.36273974  1
  Cu  Cu37  1  0.19471794  0.58484182  0.63575290  1
  Cu  Cu38  1  0.90860130  0.72608712  0.63925462  1
  Cu  Cu39  1  0.62367555  0.87027004  0.63553085  1
  Cu  Cu40  1  0.65927316  0.98512499  0.36797158  1
  O  O41  1  0.02101864  0.06310835  0.38291121  1
  O  O42  1  0.23330953  0.19546361  0.37889969  1
  O  O43  1  0.12174667  0.36550414  0.14841703  1
  O  O44  1  0.02223120  0.06652266  0.84521886  1
  O  O45  1  0.69296570  0.07936113  0.14836201  1
  O  O46  1  0.51673366  0.05086766  0.38049523  1
  O  O47  1  0.19686656  0.09252567  0.61913432  1
  O  O48  1  0.40670869  0.22101449  0.14951682  1
  O  O49  1  0.69685409  0.09136819  0.61857764  1
  O  O50  1  0.44548664  0.33657323  0.38060508  1
  O  O51  1  0.72993163  0.19476861  0.37952843  1
  O  O52  1  0.16172490  0.48011630  0.37887450  1
  O  O53  1  0.41145209  0.23438230  0.62003206  1
  O  O54  1  0.12660140  0.37894344  0.61815167  1
  O  O55  1  0.94575387  0.33786438  0.37817337  1
  O  O56  1  0.37462399  0.62280697  0.38120135  1
  O  O57  1  0.16435391  0.49262227  0.85038690  1
  O  O58  1  0.09743137  0.76045210  0.38279841  1
  O  O59  1  0.65817536  0.47951544  0.37944222  1
  O  O60  1  0.55045459  0.65041231  0.14951197  1
  O  O61  1  0.34013669  0.51965772  0.62092580  1
  O  O62  1  0.83585196  0.50675657  0.14874440  1
  O  O63  1  0.62629495  0.37616565  0.62003607  1
  O  O64  1  0.05347835  0.66258523  0.62195656  1
  O  O65  1  0.91172099  0.23519754  0.61817224  1
  O  O66  1  0.73568023  0.20648196  0.85073310  1
  O  O67  1  0.26469680  0.79355397  0.14875400  1
  O  O68  1  0.44969645  0.34932752  0.85133800  1
  O  O69  1  0.83999135  0.51964573  0.62182530  1
  O  O70  1  0.86954016  0.60856510  0.38297549  1
  O  O71  1  0.30374898  0.90877851  0.37987456  1
  O  O72  1  0.26869184  0.80504160  0.61968963  1
  O  O73  1  0.58787938  0.76637804  0.37891191  1
  O  O74  1  0.55438960  0.66372192  0.61947335  1
  O  O75  1  0.87843249  0.63548776  0.85088155  1
  O  O76  1  0.79330867  0.91130314  0.38300056  1
  O  O77  1  0.97984330  0.93921448  0.14153702  1
  O  O78  1  0.59260284  0.77833785  0.85153958  1
  O  O79  1  0.30704746  0.92133891  0.85036500  1
  O  O80  1  0.48263697  0.94847845  0.62022574  1
  O  O81  1  0.76858429  0.80436495  0.62195325  1
  O  O82  1  0.98227630  0.94736337  0.62165815  1
