# generated using pymatgen
data_MnSbO4
_symmetry_space_group_name_H-M   'P 1'
_cell_length_a   5.63862834
_cell_length_b   5.63862881
_cell_length_c   5.63862874
_cell_angle_alpha   138.52037317
_cell_angle_beta   138.52038250
_cell_angle_gamma   60.10694357
_symmetry_Int_Tables_number   1
_chemical_formula_structural   MnSbO4
_chemical_formula_sum   'Mn1 Sb1 O4'
_cell_volume   77.83758837
_cell_formula_units_Z   1
loop_
 _symmetry_equiv_pos_site_id
 _symmetry_equiv_pos_as_xyz
  1  'x, y, z'
loop_
 _atom_site_type_symbol
 _atom_site_label
 _atom_site_symmetry_multiplicity
 _atom_site_fract_x
 _atom_site_fract_y
 _atom_site_fract_z
 _atom_site_occupancy
  Mn  Mn0  1  0.00000000  0.00000000  0.00000000  1
  Sb  Sb1  1  0.75000000  0.25000000  0.50000000  1
  O  O2  1  0.54746948  0.04746948  0.50000000  1
  O  O3  1  0.20860222  0.20860222  0.00000000  1
  O  O4  1  0.95253052  0.45253052  0.50000000  1
  O  O5  1  0.79139778  0.79139778  1.00000000  1
