# generated using pymatgen
data_Li2Mn2(SiO3)3
_symmetry_space_group_name_H-M   'P 1'
_cell_length_a   10.18019490
_cell_length_b   10.18019447
_cell_length_c   12.52050288
_cell_angle_alpha   90.00000000
_cell_angle_beta   90.00000000
_cell_angle_gamma   120.00000228
_symmetry_Int_Tables_number   1
_chemical_formula_structural   Li2Mn2(SiO3)3
_chemical_formula_sum   'Li12 Mn12 Si18 O54'
_cell_volume   1123.73669035
_cell_formula_units_Z   6
loop_
 _symmetry_equiv_pos_site_id
 _symmetry_equiv_pos_as_xyz
  1  'x, y, z'
loop_
 _atom_site_type_symbol
 _atom_site_label
 _atom_site_symmetry_multiplicity
 _atom_site_fract_x
 _atom_site_fract_y
 _atom_site_fract_z
 _atom_site_occupancy
  Li  Li0  1  0.13640020  0.95303431  0.18589085  1
  Li  Li1  1  0.30085206  0.82838766  0.01765732  1
  Li  Li2  1  0.17161234  0.47246441  0.68432432  1
  Li  Li3  1  0.04696569  0.18336489  0.85255785  1
  Li  Li4  1  0.52753559  0.69914794  0.35099032  1
  Li  Li5  1  0.17318344  0.04577025  0.68173094  1
  Li  Li6  1  0.34256456  0.34226555  0.74959156  1
  Li  Li7  1  0.81663511  0.86359980  0.51922485  1
  Li  Li8  1  0.87258781  0.82681656  0.01506394  1
  Li  Li9  1  0.65773445  0.00029902  0.41625856  1
  Li  Li10  1  0.99970098  0.65743544  0.08292456  1
  Li  Li11  1  0.95422975  0.12741219  0.34839794  1
  Mn  Mn12  1  0.31270177  0.81169568  0.48922016  1
  Mn  Mn13  1  0.18830432  0.50100608  0.15588716  1
  Mn  Mn14  1  0.49899392  0.68729823  0.82255416  1
  Mn  Mn15  1  0.33478184  0.30763157  0.25471741  1
  Mn  Mn16  1  0.36760912  0.33844695  0.00145722  1
  Mn  Mn17  1  0.48593683  0.16287046  0.84051401  1
  Mn  Mn18  1  0.67693264  0.51406317  0.17384801  1
  Mn  Mn19  1  0.97284874  0.66521816  0.58805041  1
  Mn  Mn20  1  0.97083783  0.63239088  0.33479122  1
  Mn  Mn21  1  0.66155305  0.02916217  0.66812422  1
  Mn  Mn22  1  0.69236843  0.02715126  0.92138441  1
  Mn  Mn23  1  0.83712954  0.32306736  0.50718101  1
  Si  Si24  1  0.13918929  0.95665328  0.91721447  1
  Si  Si25  1  0.28434240  0.80816529  0.75830443  1
  Si  Si26  1  0.16857718  0.50788375  0.90143011  1
  Si  Si27  1  0.33930657  0.83142282  0.23476411  1
  Si  Si28  1  0.04334672  0.18253601  0.58388147  1
  Si  Si29  1  0.19183471  0.47617711  0.42497143  1
  Si  Si30  1  0.16842213  0.00594208  0.43918010  1
  Si  Si31  1  0.49211625  0.66069343  0.56809711  1
  Si  Si32  1  0.52382289  0.71565760  0.09163843  1
  Si  Si33  1  0.62191845  0.49151489  0.44806801  1
  Si  Si34  1  0.46625360  0.18584931  0.56872524  1
  Si  Si35  1  0.81746399  0.86081071  0.25054847  1
  Si  Si36  1  0.83751895  0.83157787  0.77251310  1
  Si  Si37  1  0.71959571  0.53374640  0.90205824  1
  Si  Si38  1  0.50848511  0.13040357  0.11473501  1
  Si  Si39  1  0.86959643  0.37808155  0.78140101  1
  Si  Si40  1  0.81415069  0.28040429  0.23539124  1
  Si  Si41  1  0.99405792  0.16248105  0.10584610  1
  O  O42  1  0.07605761  0.82125627  0.44340552  1
  O  O43  1  0.10061151  0.87872386  0.03388632  1
  O  O44  1  0.20308174  0.87090348  0.83976497  1
  O  O45  1  0.15877991  0.71021479  0.22798472  1
  O  O46  1  0.08811566  0.55379511  0.44211277  1
  O  O47  1  0.01001483  0.37114727  0.84661837  1
  O  O48  1  0.21185509  0.77911573  0.63955257  1
  O  O49  1  0.14666525  0.57845563  0.01098700  1
  O  O50  1  0.36113244  0.98998517  0.17995237  1
  O  O51  1  0.23638372  0.63787929  0.80498623  1
  O  O52  1  0.12909652  0.33217825  0.50643197  1
  O  O53  1  0.43179038  0.85333475  0.34432100  1
  O  O54  1  0.12127614  0.22188666  0.70055332  1
  O  O55  1  0.22088427  0.43273936  0.30621957  1
  O  O56  1  0.46568045  0.91188434  0.77544577  1
  O  O57  1  0.40149457  0.76361628  0.13832023  1
  O  O58  1  0.28978521  0.44856513  0.89465172  1
  O  O59  1  0.17874373  0.25480134  0.11007152  1
  O  O60  1  0.08266532  0.05770490  0.52864337  1
  O  O61  1  0.36212071  0.59850543  0.47165323  1
  O  O62  1  0.18996233  0.09170699  0.32683141  1
  O  O63  1  0.42154437  0.56820962  0.67765400  1
  O  O64  1  0.55143487  0.84122009  0.56131772  1
  O  O65  1  0.56726064  0.78814491  0.97288557  1
  O  O66  1  0.25545891  0.13639219  0.90344900  1
  O  O67  1  0.44620489  0.53431955  0.10877877  1
  O  O68  1  0.66782175  0.79691826  0.17309897  1
  O  O69  1  0.62885273  0.63886756  0.51328537  1
  O  O70  1  0.33387242  0.04461987  0.49425078  1
  O  O71  1  0.74519866  0.92394239  0.77673852  1
  O  O72  1  0.56024123  0.49062244  0.32653583  1
  O  O73  1  0.39655266  0.17564862  0.68762660  1
  O  O74  1  0.77811334  0.89938849  0.36721932  1
  O  O75  1  0.49063289  0.34036596  0.50934777  1
  O  O76  1  0.48766230  0.27881915  0.13110143  1
  O  O77  1  0.55229458  0.38597646  0.89315452  1
  O  O78  1  0.71074744  0.66612758  0.82758378  1
  O  O79  1  0.50937756  0.06961879  0.99320183  1
  O  O80  1  0.77909696  0.60344734  0.02096060  1
  O  O81  1  0.90174567  0.81003767  0.66016541  1
  O  O82  1  0.88093428  0.74454109  0.23678200  1
  O  O83  1  0.61402354  0.16631812  0.55982052  1
  O  O84  1  0.79115684  0.51233770  0.46443443  1
  O  O85  1  0.97503958  0.91733468  0.86197637  1
  O  O86  1  0.65963404  0.15026692  0.17601477  1
  O  O87  1  0.84973308  0.50936711  0.84268077  1
  O  O88  1  0.83368188  0.44770542  0.22648752  1
  O  O89  1  0.72118085  0.20884316  0.79776743  1
  O  O90  1  0.82435138  0.22090304  0.35429360  1
  O  O91  1  0.93038121  0.43975877  0.65986883  1
  O  O92  1  0.86360781  0.11906572  0.57011500  1
  O  O93  1  0.95538013  0.28925256  0.16091778  1
  O  O94  1  0.90829301  0.09825433  0.99349841  1
  O  O95  1  0.94229510  0.02496042  0.19531037  1
