# generated using pymatgen
data_LiCrFeO4
_symmetry_space_group_name_H-M   'P 1'
_cell_length_a   6.05558104
_cell_length_b   5.94904963
_cell_length_c   5.94904938
_cell_angle_alpha   59.46336303
_cell_angle_beta   59.40583488
_cell_angle_gamma   59.40583635
_symmetry_Int_Tables_number   1
_chemical_formula_structural   LiCrFeO4
_chemical_formula_sum   'Li2 Cr2 Fe2 O8'
_cell_volume   149.56034073
_cell_formula_units_Z   2
loop_
 _symmetry_equiv_pos_site_id
 _symmetry_equiv_pos_as_xyz
  1  'x, y, z'
loop_
 _atom_site_type_symbol
 _atom_site_label
 _atom_site_symmetry_multiplicity
 _atom_site_fract_x
 _atom_site_fract_y
 _atom_site_fract_z
 _atom_site_occupancy
  Li  Li0  1  0.12400667  0.12599333  0.12599333  1
  Li  Li1  1  0.87599333  0.87400667  0.87400667  1
  Cr  Cr2  1  0.50000000  0.00000000  0.50000000  1
  Cr  Cr3  1  0.50000000  0.50000000  0.00000000  1
  Fe  Fe4  1  0.00000000  0.50000000  0.50000000  1
  Fe  Fe5  1  0.50000000  0.50000000  0.50000000  1
  O  O6  1  0.27691669  0.25732783  0.25732783  1
  O  O7  1  0.26979511  0.24987220  0.71053857  1
  O  O8  1  0.26979511  0.71053857  0.24987220  1
  O  O9  1  0.70842666  0.25732783  0.25732783  1
  O  O10  1  0.29157334  0.74267217  0.74267217  1
  O  O11  1  0.73020489  0.75012780  0.28946143  1
  O  O12  1  0.73020489  0.28946143  0.75012780  1
  O  O13  1  0.72308331  0.74267217  0.74267217  1
