# generated using pymatgen
data_VFe(PO4)2
_symmetry_space_group_name_H-M   'P 1'
_cell_length_a   8.49849471
_cell_length_b   8.64282159
_cell_length_c   8.64282110
_cell_angle_alpha   60.00000269
_cell_angle_beta   59.43661095
_cell_angle_gamma   59.43661044
_symmetry_Int_Tables_number   1
_chemical_formula_structural   VFe(PO4)2
_chemical_formula_sum   'V3 Fe3 P6 O24'
_cell_volume   445.02747956
_cell_formula_units_Z   3
loop_
 _symmetry_equiv_pos_site_id
 _symmetry_equiv_pos_as_xyz
  1  'x, y, z'
loop_
 _atom_site_type_symbol
 _atom_site_label
 _atom_site_symmetry_multiplicity
 _atom_site_fract_x
 _atom_site_fract_y
 _atom_site_fract_z
 _atom_site_occupancy
  V  V0  1  0.00401088  0.99866304  0.99866304  1
  V  V1  1  0.56629371  0.14456876  0.14456876  1
  V  V2  1  0.50234308  0.49921931  0.49921931  1
  Fe  Fe3  1  0.06320370  0.64559910  0.64559910  1
  Fe  Fe4  1  0.43843075  0.85385675  0.85385675  1
  Fe  Fe5  1  0.93671033  0.35442956  0.35442956  1
  P  P6  1  0.24877708  0.25127631  0.54511668  1
  P  P7  1  0.24877708  0.95482893  0.25127631  1
  P  P8  1  0.24877708  0.54511668  0.95482893  1
  P  P9  1  0.74861199  0.45393159  0.04643036  1
  P  P10  1  0.74861199  0.04643036  0.75102606  1
  P  P11  1  0.74861199  0.75102606  0.45393159  1
  O  O12  1  0.06654058  0.10615833  0.32699197  1
  O  O13  1  0.06654058  0.50030912  0.10615833  1
  O  O14  1  0.06654058  0.32699197  0.50030912  1
  O  O15  1  0.22372927  0.09369095  0.74308594  1
  O  O16  1  0.43239558  0.17667523  0.38702486  1
  O  O17  1  0.28280560  0.40695015  0.55556976  1
  O  O18  1  0.22372927  0.93949384  0.09369095  1
  O  O19  1  0.28280560  0.75467449  0.40695015  1
  O  O20  1  0.56609999  0.60722730  0.00268132  1
  O  O21  1  0.28280560  0.55556976  0.75467449  1
  O  O22  1  0.77147182  0.25214421  0.06643172  1
  O  O23  1  0.56609999  0.00268132  0.82399139  1
  O  O24  1  0.43239558  0.00390333  0.17667523  1
  O  O25  1  0.22372927  0.74308594  0.93949384  1
  O  O26  1  0.72278854  0.43662967  0.24658789  1
  O  O27  1  0.43239558  0.38702486  0.00390333  1
  O  O28  1  0.72278854  0.24658789  0.59399390  1
  O  O29  1  0.77147182  0.06643172  0.90995126  1
  O  O30  1  0.72278854  0.59399390  0.43662967  1
  O  O31  1  0.56609999  0.82399139  0.60722730  1
  O  O32  1  0.77147182  0.90995126  0.25214421  1
  O  O33  1  0.93311607  0.68441329  0.49242083  1
  O  O34  1  0.93311607  0.49242083  0.89004981  1
  O  O35  1  0.93311607  0.89004981  0.68441329  1
