# generated using pymatgen
data_NaLi5Mn2P2(CO7)2
_symmetry_space_group_name_H-M   'P 1'
_cell_length_a   8.65484661
_cell_length_b   13.30711639
_cell_length_c   5.01175455
_cell_angle_alpha   89.91888858
_cell_angle_beta   87.79227256
_cell_angle_gamma   90.66802352
_symmetry_Int_Tables_number   1
_chemical_formula_structural   NaLi5Mn2P2(CO7)2
_chemical_formula_sum   'Na2 Li10 Mn4 P4 C4 O28'
_cell_volume   576.74038773
_cell_formula_units_Z   2
loop_
 _symmetry_equiv_pos_site_id
 _symmetry_equiv_pos_as_xyz
  1  'x, y, z'
loop_
 _atom_site_type_symbol
 _atom_site_label
 _atom_site_symmetry_multiplicity
 _atom_site_fract_x
 _atom_site_fract_y
 _atom_site_fract_z
 _atom_site_occupancy
  Na  Na0  1  0.08795034  0.62342486  0.75188928  1
  Na  Na1  1  0.24702339  0.00068096  0.25279119  1
  Li  Li2  1  0.08364689  0.13595668  0.74619098  1
  Li  Li3  1  0.27026579  0.23824208  0.22914003  1
  Li  Li4  1  0.26676622  0.51101728  0.22423820  1
  Li  Li5  1  0.27235215  0.73227833  0.22313666  1
  Li  Li6  1  0.73221815  0.26505145  0.77087783  1
  Li  Li7  1  0.73580275  0.48784852  0.77457089  1
  Li  Li8  1  0.73563627  0.75991957  0.77277252  1
  Li  Li9  1  0.73443434  0.98680057  0.77054908  1
  Li  Li10  1  0.91009811  0.86815239  0.25767483  1
  Li  Li11  1  0.91492987  0.37337657  0.25844106  1
  Mn  Mn12  1  0.35377106  0.37334611  0.77385731  1
  Mn  Mn13  1  0.35665035  0.87376175  0.77251018  1
  Mn  Mn14  1  0.64693014  0.12548634  0.22315419  1
  Mn  Mn15  1  0.64867380  0.62451420  0.22899961  1
  P  P16  1  0.41650470  0.62447558  0.71225308  1
  P  P17  1  0.40884484  0.12734368  0.70744475  1
  P  P18  1  0.59099079  0.37395320  0.28724092  1
  P  P19  1  0.59340033  0.87369014  0.28651155  1
  C  C20  1  0.03956124  0.37739709  0.72695861  1
  C  C21  1  0.03905469  0.87225123  0.73117208  1
  C  C22  1  0.95326141  0.62432632  0.26597776  1
  C  C23  1  0.95709840  0.13161258  0.27947621  1
  O  O24  1  0.09987732  0.14131168  0.34728262  1
  O  O25  1  0.10372209  0.62357329  0.27831219  1
  O  O26  1  0.07868326  0.87394279  0.97792548  1
  O  O27  1  0.07867765  0.37753827  0.97454730  1
  O  O28  1  0.14445794  0.86722771  0.53948491  1
  O  O29  1  0.14620490  0.37970366  0.53609204  1
  O  O30  1  0.31366819  0.03100934  0.78262122  1
  O  O31  1  0.31091798  0.21512214  0.82806685  1
  O  O32  1  0.32640476  0.53131785  0.82488012  1
  O  O33  1  0.32433417  0.71631055  0.81941981  1
  O  O34  1  0.42067636  0.13829166  0.39695838  1
  O  O35  1  0.41580626  0.62353410  0.39905473  1
  O  O36  1  0.42102593  0.37279676  0.19575130  1
  O  O37  1  0.42460486  0.86708556  0.19243643  1
  O  O38  1  0.57648195  0.12543891  0.80829080  1
  O  O39  1  0.58717818  0.62690533  0.79632482  1
  O  O40  1  0.58420446  0.37284479  0.60051853  1
  O  O41  1  0.58573841  0.87616489  0.59929695  1
  O  O42  1  0.68803446  0.28422770  0.17822750  1
  O  O43  1  0.68401865  0.46740641  0.18315143  1
  O  O44  1  0.69305477  0.78345721  0.18837236  1
  O  O45  1  0.68307907  0.96718396  0.17446187  1
  O  O46  1  0.84919103  0.12518999  0.46808812  1
  O  O47  1  0.86566491  0.62440225  0.48218953  1
  O  O48  1  0.92102388  0.12799552  0.03059240  1
  O  O49  1  0.88851278  0.62512141  0.03705008  1
  O  O50  1  0.89408063  0.87477958  0.66861361  1
  O  O51  1  0.89481013  0.37521021  0.66416078  1
