# generated using pymatgen
data_TiMn3(PO4)6
_symmetry_space_group_name_H-M   'P 1'
_cell_length_a   8.75742326
_cell_length_b   8.75742370
_cell_length_c   8.75742359
_cell_angle_alpha   58.25334328
_cell_angle_beta   58.25333997
_cell_angle_gamma   58.25333816
_symmetry_Int_Tables_number   1
_chemical_formula_structural   TiMn3(PO4)6
_chemical_formula_sum   'Ti1 Mn3 P6 O24'
_cell_volume   455.91119248
_cell_formula_units_Z   1
loop_
 _symmetry_equiv_pos_site_id
 _symmetry_equiv_pos_as_xyz
  1  'x, y, z'
loop_
 _atom_site_type_symbol
 _atom_site_label
 _atom_site_symmetry_multiplicity
 _atom_site_fract_x
 _atom_site_fract_y
 _atom_site_fract_z
 _atom_site_occupancy
  Ti  Ti0  1  0.86007936  0.86007936  0.86007936  1
  Mn  Mn1  1  0.14491625  0.14491625  0.14491625  1
  Mn  Mn2  1  0.35579974  0.35579974  0.35579974  1
  Mn  Mn3  1  0.64496237  0.64496237  0.64496237  1
  P  P4  1  0.03541776  0.75001253  0.46325508  1
  P  P5  1  0.46325508  0.03541776  0.75001253  1
  P  P6  1  0.75001253  0.46325508  0.03541776  1
  P  P7  1  0.25682004  0.52964845  0.96662197  1
  P  P8  1  0.52964845  0.96662197  0.25682004  1
  P  P9  1  0.96662197  0.25682004  0.52964845  1
  O  O10  1  0.14109890  0.27764964  0.50941531  1
  O  O11  1  0.27764964  0.50941531  0.14109890  1
  O  O12  1  0.06174791  0.92495944  0.27698394  1
  O  O13  1  0.50941531  0.14109890  0.27764964  1
  O  O14  1  0.22081882  0.57482043  0.43710794  1
  O  O15  1  0.00622598  0.77825179  0.63642162  1
  O  O16  1  0.27698394  0.06174791  0.92495944  1
  O  O17  1  0.43710794  0.22081882  0.57482043  1
  O  O18  1  0.57482043  0.43710794  0.22081882  1
  O  O19  1  0.23035415  0.35699135  0.98845393  1
  O  O20  1  0.08020034  0.71130752  0.93922666  1
  O  O21  1  0.35699135  0.98845393  0.23035415  1
  O  O22  1  0.63642162  0.00622598  0.77825179  1
  O  O23  1  0.92495944  0.27698394  0.06174791  1
  O  O24  1  0.77825179  0.63642162  0.00622598  1
  O  O25  1  0.43164337  0.55394787  0.78247267  1
  O  O26  1  0.55394787  0.78247267  0.43164337  1
  O  O27  1  0.71130752  0.93922666  0.08020034  1
  O  O28  1  0.98845393  0.23035415  0.35699135  1
  O  O29  1  0.78247267  0.43164337  0.55394787  1
  O  O30  1  0.48541486  0.86149942  0.72545258  1
  O  O31  1  0.93922666  0.08020034  0.71130752  1
  O  O32  1  0.72545258  0.48541486  0.86149942  1
  O  O33  1  0.86149942  0.72545258  0.48541486  1
