# generated using pymatgen
data_Mn3CrCu2(PO4)6
_symmetry_space_group_name_H-M   'P 1'
_cell_length_a   8.53030362
_cell_length_b   8.53030385
_cell_length_c   8.53030459
_cell_angle_alpha   59.86906816
_cell_angle_beta   59.86906669
_cell_angle_gamma   59.86906969
_symmetry_Int_Tables_number   1
_chemical_formula_structural   Mn3CrCu2(PO4)6
_chemical_formula_sum   'Mn3 Cr1 Cu2 P6 O24'
_cell_volume   437.60908220
_cell_formula_units_Z   1
loop_
 _symmetry_equiv_pos_site_id
 _symmetry_equiv_pos_as_xyz
  1  'x, y, z'
loop_
 _atom_site_type_symbol
 _atom_site_label
 _atom_site_symmetry_multiplicity
 _atom_site_fract_x
 _atom_site_fract_y
 _atom_site_fract_z
 _atom_site_occupancy
  Mn  Mn0  1  0.14247780  0.14247780  0.14247780  1
  Mn  Mn1  1  0.35781935  0.35781935  0.35781935  1
  Mn  Mn2  1  0.64249847  0.64249847  0.64249847  1
  Cr  Cr3  1  0.85890373  0.85890373  0.85890373  1
  Cu  Cu4  1  0.99909801  0.99909801  0.99909801  1
  Cu  Cu5  1  0.49982020  0.49982020  0.49982020  1
  P  P6  1  0.03910356  0.74978973  0.45949016  1
  P  P7  1  0.45949016  0.03910356  0.74978973  1
  P  P8  1  0.74978973  0.45949016  0.03910356  1
  P  P9  1  0.25111242  0.53928681  0.96228765  1
  P  P10  1  0.53928681  0.96228765  0.25111242  1
  P  P11  1  0.96228765  0.25111242  0.53928681  1
  O  O12  1  0.12514621  0.30484803  0.50646675  1
  O  O13  1  0.30484803  0.50646675  0.12514621  1
  O  O14  1  0.05582481  0.91744214  0.26133264  1
  O  O15  1  0.50646675  0.12514621  0.30484803  1
  O  O16  1  0.01070011  0.80245799  0.61956602  1
  O  O17  1  0.23676277  0.57947538  0.44304209  1
  O  O18  1  0.26133264  0.05582481  0.91744214  1
  O  O19  1  0.44304209  0.23676277  0.57947538  1
  O  O20  1  0.19831428  0.37788644  0.99025510  1
  O  O21  1  0.57947538  0.44304209  0.23676277  1
  O  O22  1  0.08572060  0.73581751  0.94458503  1
  O  O23  1  0.37788644  0.99025510  0.19831428  1
  O  O24  1  0.61956602  0.01070011  0.80245799  1
  O  O25  1  0.91744214  0.26133264  0.05582481  1
  O  O26  1  0.42117319  0.55339665  0.76489986  1
  O  O27  1  0.80245799  0.61956602  0.01070011  1
  O  O28  1  0.55339665  0.76489986  0.42117319  1
  O  O29  1  0.73581751  0.94458503  0.08572060  1
  O  O30  1  0.76489986  0.42117319  0.55339665  1
  O  O31  1  0.99025510  0.19831428  0.37788644  1
  O  O32  1  0.48893947  0.87704894  0.69721212  1
  O  O33  1  0.94458503  0.08572060  0.73581751  1
  O  O34  1  0.69721212  0.48893947  0.87704894  1
  O  O35  1  0.87704894  0.69721212  0.48893947  1
