# generated using pymatgen
data_Si6Bi9O26
_symmetry_space_group_name_H-M   'P 1'
_cell_length_a   9.76738488
_cell_length_b   9.76772199
_cell_length_c   14.09803538
_cell_angle_alpha   90.00272024
_cell_angle_beta   90.00005547
_cell_angle_gamma   59.99665156
_symmetry_Int_Tables_number   1
_chemical_formula_structural   Si6Bi9O26
_chemical_formula_sum   'Si12 Bi18 O52'
_cell_volume   1164.78605978
_cell_formula_units_Z   2
loop_
 _symmetry_equiv_pos_site_id
 _symmetry_equiv_pos_as_xyz
  1  'x, y, z'
loop_
 _atom_site_type_symbol
 _atom_site_label
 _atom_site_symmetry_multiplicity
 _atom_site_fract_x
 _atom_site_fract_y
 _atom_site_fract_z
 _atom_site_occupancy
  Si  Si0  1  0.02456270  0.60104923  0.37498105  1
  Si  Si1  1  0.02617178  0.59933023  0.87231746  1
  Si  Si2  1  0.62567261  0.97534744  0.62499797  1
  Si  Si3  1  0.62555145  0.97376617  0.12768615  1
  Si  Si4  1  0.40068720  0.62549028  0.12771056  1
  Si  Si5  1  0.39893534  0.62562170  0.62501725  1
  Si  Si6  1  0.60106384  0.37443586  0.37497530  1
  Si  Si7  1  0.59930248  0.37454883  0.87231409  1
  Si  Si8  1  0.37448639  0.02623037  0.87231243  1
  Si  Si9  1  0.37440633  0.02455138  0.37500409  1
  Si  Si10  1  0.97379969  0.40068334  0.12770188  1
  Si  Si11  1  0.97538492  0.39896814  0.62500394  1
  Bi  Bi12  1  0.24535218  0.98782354  0.62604790  1
  Bi  Bi13  1  0.24211189  0.98469423  0.12667425  1
  Bi  Bi14  1  0.22683752  0.75786876  0.87333396  1
  Bi  Bi15  1  0.23321801  0.75465640  0.37391902  1
  Bi  Bi16  1  0.01222263  0.23316490  0.37393447  1
  Bi  Bi17  1  0.01533194  0.22678286  0.87331782  1
  Bi  Bi18  1  0.66667232  0.66666689  0.75953840  1
  Bi  Bi19  1  0.33334179  0.33331103  0.97897959  1
  Bi  Bi20  1  0.33336350  0.33330955  0.52919019  1
  Bi  Bi21  1  0.66666184  0.66668162  0.02100989  1
  Bi  Bi22  1  0.66662451  0.66671384  0.47080882  1
  Bi  Bi23  1  0.33330577  0.33337016  0.24047915  1
  Bi  Bi24  1  0.98468434  0.77317872  0.12668203  1
  Bi  Bi25  1  0.98776700  0.76688039  0.62606468  1
  Bi  Bi26  1  0.76678655  0.24539467  0.62607225  1
  Bi  Bi27  1  0.77313710  0.24220291  0.12668652  1
  Bi  Bi28  1  0.75787986  0.01527518  0.87334058  1
  Bi  Bi29  1  0.75466747  0.01214141  0.37393951  1
  O  O30  1  0.07407841  0.68359946  0.78614825  1
  O  O31  1  0.08926313  0.66229979  0.28437011  1
  O  O32  1  0.09329718  0.65846719  0.46551664  1
  O  O33  1  0.09361044  0.65657566  0.96424376  1
  O  O34  1  0.31644409  0.75769022  0.21387491  1
  O  O35  1  0.33772368  0.75153806  0.71562282  1
  O  O36  1  0.34174791  0.75159449  0.53444500  1
  O  O37  1  0.34357603  0.75007200  0.03576287  1
  O  O38  1  0.52128326  0.88566941  0.63019780  1
  O  O39  1  0.49909939  0.83602713  0.87263559  1
  O  O40  1  0.48113721  0.83321162  0.37667257  1
  O  O41  1  0.52780812  0.87741302  0.12192801  1
  O  O42  1  0.11438215  0.40693751  0.36980706  1
  O  O43  1  0.12259781  0.40518279  0.87808980  1
  O  O44  1  0.31437128  0.51879156  0.62332525  1
  O  O45  1  0.16403206  0.33512645  0.12734893  1
  O  O46  1  0.33515705  0.50084134  0.12736669  1
  O  O47  1  0.75162649  0.90661284  0.53439356  1
  O  O48  1  0.75770988  0.92585331  0.21389041  1
  O  O49  1  0.75159871  0.91066989  0.71558302  1
  O  O50  1  0.16688263  0.31433855  0.62328891  1
  O  O51  1  0.75017658  0.90630407  0.03575588  1
  O  O52  1  0.40692103  0.47873346  0.36977285  1
  O  O53  1  0.40516931  0.47223004  0.87807350  1
  O  O54  1  0.00009568  0.00000678  0.87891646  1
  O  O55  1  0.99966139  0.99987819  0.62692405  1
  O  O56  1  -0.00000096  0.00005164  0.37305152  1
  O  O57  1  0.99975140  0.99992904  0.12111177  1
  O  O58  1  0.59487131  0.52773709  0.12196548  1
  O  O59  1  0.59310416  0.52122971  0.63021188  1
  O  O60  1  0.24983984  0.09370812  0.96426009  1
  O  O61  1  0.83315753  0.68566763  0.37667562  1
  O  O62  1  0.24841961  0.08929573  0.28439723  1
  O  O63  1  0.24228687  0.07413807  0.78610979  1
  O  O64  1  0.24838631  0.09336124  0.46559521  1
  O  O65  1  0.66485857  0.49912725  0.87265001  1
  O  O66  1  0.83597766  0.66489234  0.87266320  1
  O  O67  1  0.68563769  0.48116707  0.37666537  1
  O  O68  1  0.87739268  0.59488409  0.12193770  1
  O  O69  1  0.88563860  0.59305730  0.63018253  1
  O  O70  1  0.47218514  0.12260347  0.87806557  1
  O  O71  1  0.51884712  0.16686323  0.62331125  1
  O  O72  1  0.50088553  0.16402550  0.12736151  1
  O  O73  1  0.47876355  0.11433165  0.36981126  1
  O  O74  1  0.65651161  0.24985897  0.96424728  1
  O  O75  1  0.65833678  0.24833580  0.46554120  1
  O  O76  1  0.66236222  0.24838783  0.28437384  1
  O  O77  1  0.68359015  0.24230709  0.78612721  1
  O  O78  1  0.90630583  0.34358609  0.03576843  1
  O  O79  1  0.90667728  0.34158989  0.53445712  1
  O  O80  1  0.91075300  0.33772532  0.71560766  1
  O  O81  1  0.92592269  0.31643101  0.21386037  1
