# generated using pymatgen
data_LiLa20Cu9O40
_symmetry_space_group_name_H-M   'P 1'
_cell_length_a   10.37588346
_cell_length_b   11.71472283
_cell_length_c   8.95596222
_cell_angle_alpha   70.73310359
_cell_angle_beta   103.36471393
_cell_angle_gamma   79.66912954
_symmetry_Int_Tables_number   1
_chemical_formula_structural   LiLa20Cu9O40
_chemical_formula_sum   'Li1 La20 Cu9 O40'
_cell_volume   960.30208370
_cell_formula_units_Z   1
loop_
 _symmetry_equiv_pos_site_id
 _symmetry_equiv_pos_as_xyz
  1  'x, y, z'
loop_
 _atom_site_type_symbol
 _atom_site_label
 _atom_site_symmetry_multiplicity
 _atom_site_fract_x
 _atom_site_fract_y
 _atom_site_fract_z
 _atom_site_occupancy
  Li  Li0  1  0.30000000  0.90000000  0.40000000  1
  La  La1  1  0.01598221  0.11055587  0.62327788  1
  La  La2  1  0.41407761  0.31067458  0.82296724  1
  La  La3  1  0.78554433  0.28914791  0.77641025  1
  La  La4  1  0.38470248  0.08484902  0.57423051  1
  La  La5  1  0.18592239  0.48932542  0.97703276  1
  La  La6  1  0.09481698  0.17460045  0.19330545  1
  La  La7  1  0.49010115  0.37912222  0.39169448  1
  La  La8  1  0.29102618  0.78070334  0.78518941  1
  La  La9  1  0.69063987  0.97872154  0.99254013  1
  La  La10  1  0.88933160  0.58027795  0.59021128  1
  La  La11  1  0.10989885  0.42087778  0.40830552  1
  La  La12  1  0.50518302  0.62539955  0.60669455  1
  La  La13  1  0.90936013  0.82127846  0.80745987  1
  La  La14  1  0.30897382  0.01929666  0.01481059  1
  La  La15  1  0.71066840  0.21972205  0.20978872  1
  La  La16  1  0.21529752  0.71515098  0.22576949  1
  La  La17  1  0.81445567  0.51085209  0.02358975  1
  La  La18  1  0.60845844  0.91167199  0.42260589  1
  La  La19  1  0.99154156  0.88832801  0.37739411  1
  La  La20  1  0.58401779  0.68944413  0.17672212  1
  Cu  Cu21  1  0.70065370  0.09973853  0.60045728  1
  Cu  Cu22  1  0.10028391  0.30048818  0.79978892  1
  Cu  Cu23  1  0.00010713  0.00057398  -0.00072251  1
  Cu  Cu24  1  0.19974958  0.59962308  0.60072747  1
  Cu  Cu25  1  0.40025042  0.20037692  0.19927253  1
  Cu  Cu26  1  0.59989287  0.79942602  0.80072251  1
  Cu  Cu27  1  0.80000000  0.40000000  0.40000000  1
  Cu  Cu28  1  0.89934630  0.70026147  0.19954272  1
  Cu  Cu29  1  0.49971609  0.49951182  0.00021108  1
  O  O30  1  0.84527104  0.05456636  0.80810824  1
  O  O31  1  0.04289082  0.15490012  0.90515589  1
  O  O32  1  0.25679498  0.16999893  0.71478920  1
  O  O33  1  0.65865478  0.36924230  0.91841542  1
  O  O34  1  0.14711265  0.02524789  0.48471591  1
  O  O35  1  0.54457708  0.23049205  0.68426830  1
  O  O36  1  0.94134522  0.43075770  0.88158458  1
  O  O37  1  0.35683522  0.54439778  0.79547422  1
  O  O38  1  0.75776164  0.24535640  0.49511828  1
  O  O39  1  0.55710918  0.64509988  0.89484411  1
  O  O40  1  0.15761034  0.44670734  0.69296304  1
  O  O41  1  0.35675392  0.04707576  0.29354424  1
  O  O42  1  0.75472896  0.74543364  0.99189176  1
  O  O43  1  0.95625946  0.34542243  0.59312837  1
  O  O44  1  0.55749566  0.14462146  0.39534959  1
  O  O45  1  0.85990129  0.09288437  0.13861457  1
  O  O46  1  0.65940097  0.49477314  0.53814779  1
  O  O47  1  0.46102754  0.89266821  0.94285406  1
  O  O48  1  0.26079571  0.29407883  0.33897657  1
  O  O49  1  0.05895607  0.69192363  0.73978324  1
  O  O50  1  0.13897246  0.90733179  0.85714594  1
  O  O51  1  0.33920429  0.50592117  0.46102243  1
  O  O52  1  0.54104393  0.10807637  0.06021676  1
  O  O53  1  0.74009871  0.70711563  0.66138543  1
  O  O54  1  0.94059903  0.30522686  0.26185221  1
  O  O55  1  0.24316478  0.25560222  0.00452578  1
  O  O56  1  0.04250434  0.65537854  0.40465041  1
  O  O57  1  0.64374054  0.45457757  0.20687163  1
  O  O58  1  0.24324608  0.75292424  0.50645576  1
  O  O59  1  0.84223836  0.55464360  0.30488172  1
  O  O60  1  0.44537800  0.85366704  0.60797642  1
  O  O61  1  0.64299286  0.95545790  0.70532764  1
  O  O62  1  0.44238966  0.35329266  0.10703696  1
  O  O63  1  0.05542292  0.56950795  0.11573170  1
  O  O64  1  0.86100185  0.97152263  0.51709469  1
  O  O65  1  0.45288735  0.77475211  0.31528409  1
  O  O66  1  0.34320502  0.63000107  0.08521080  1
  O  O67  1  0.73899815  0.82847737  0.28290531  1
  O  O68  1  0.15462200  0.94633296  0.19202358  1
  O  O69  1  0.95700714  0.84454210  0.09467236  1
