# generated using pymatgen
data_Li4Nb2Cr3Cu3O16
_symmetry_space_group_name_H-M   'P 1'
_cell_length_a   5.99678981
_cell_length_b   5.84637114
_cell_length_c   9.77252486
_cell_angle_alpha   89.98179951
_cell_angle_beta   86.59969630
_cell_angle_gamma   119.16020437
_symmetry_Int_Tables_number   1
_chemical_formula_structural   Li4Nb2Cr3Cu3O16
_chemical_formula_sum   'Li4 Nb2 Cr3 Cu3 O16'
_cell_volume   298.50155479
_cell_formula_units_Z   1
loop_
 _symmetry_equiv_pos_site_id
 _symmetry_equiv_pos_as_xyz
  1  'x, y, z'
loop_
 _atom_site_type_symbol
 _atom_site_label
 _atom_site_symmetry_multiplicity
 _atom_site_fract_x
 _atom_site_fract_y
 _atom_site_fract_z
 _atom_site_occupancy
  Li  Li0  1  0.32291771  0.66169055  0.89884251  1
  Li  Li1  1  0.99843344  0.99909385  0.99318142  1
  Li  Li2  1  0.00871299  0.00494031  0.48842558  1
  Li  Li3  1  0.68014049  0.34009220  0.40371434  1
  Nb  Nb4  1  0.36922187  0.68525953  0.49603554  1
  Nb  Nb5  1  0.66825867  0.33306771  0.98919950  1
  Cr  Cr6  1  0.65979120  0.82905063  0.21802580  1
  Cr  Cr7  1  0.82720854  0.66022543  0.71561627  1
  Cr  Cr8  1  0.82787590  0.16782277  0.71516114  1
  Cu  Cu9  1  0.17517522  0.83639371  0.21296580  1
  Cu  Cu10  1  0.17545143  0.33901246  0.21360820  1
  Cu  Cu11  1  0.33602690  0.16855919  0.71408405  1
  O  O12  1  0.15799926  0.82610461  0.58849327  1
  O  O13  1  0.05663763  0.52961286  0.33210154  1
  O  O14  1  0.33658738  0.66860328  0.11993276  1
  O  O15  1  -0.00011834  0.99912297  0.29863839  1
  O  O16  1  0.99238617  0.99636153  0.80674228  1
  O  O17  1  0.15801905  0.33207105  0.58812714  1
  O  O18  1  0.51834412  0.97779634  0.35588738  1
  O  O19  1  0.51414768  0.53751305  0.35549490  1
  O  O20  1  0.30763149  0.15333236  0.09533900  1
  O  O21  1  0.67237461  0.83644432  0.60381173  1
  O  O22  1  0.51132173  0.47817647  0.84132823  1
  O  O23  1  0.51190635  0.03352463  0.84112183  1
  O  O24  1  0.67312236  0.33706180  0.61170167  1
  O  O25  1  0.79005874  0.64955040  0.08518087  1
  O  O26  1  0.95801712  0.47887414  0.83925100  1
  O  O27  1  0.79234829  0.14094184  0.08583087  1
