# generated using pymatgen
data_Li2Mn3F8
_symmetry_space_group_name_H-M   'P 1'
_cell_length_a   9.39371421
_cell_length_b   9.39371421
_cell_length_c   9.39371421
_cell_angle_alpha   107.38978134
_cell_angle_beta   107.38978134
_cell_angle_gamma   113.71946319
_symmetry_Int_Tables_number   1
_chemical_formula_structural   Li2Mn3F8
_chemical_formula_sum   'Li8 Mn12 F32'
_cell_volume   635.45061143
_cell_formula_units_Z   4
loop_
 _symmetry_equiv_pos_site_id
 _symmetry_equiv_pos_as_xyz
  1  'x, y, z'
loop_
 _atom_site_type_symbol
 _atom_site_label
 _atom_site_symmetry_multiplicity
 _atom_site_fract_x
 _atom_site_fract_y
 _atom_site_fract_z
 _atom_site_occupancy
  Li  Li0  1  0.56453065  0.71407539  0.03746544  1
  Li  Li1  1  0.82339005  0.47293479  0.53746544  1
  Li  Li2  1  0.78592461  0.32339005  0.85045526  1
  Li  Li3  1  0.02706521  0.06453065  0.35045526  1
  Li  Li4  1  0.97293479  0.93546935  0.64954474  1
  Li  Li5  1  0.21407539  0.67660995  0.14954474  1
  Li  Li6  1  0.43546935  0.28592461  0.96253456  1
  Li  Li7  1  0.17660995  0.52706521  0.46253456  1
  Mn  Mn8  1  0.73619931  0.15743868  0.18685371  1
  Mn  Mn9  1  0.87500000  0.62500000  0.25000000  1
  Mn  Mn10  1  0.37500000  0.12500000  0.25000000  1
  Mn  Mn11  1  0.34256132  0.02941503  0.57876063  1
  Mn  Mn12  1  0.04934560  0.23619931  0.07876063  1
  Mn  Mn13  1  0.47058497  0.54934560  0.31314629  1
  Mn  Mn14  1  0.52941503  0.45065440  0.68685371  1
  Mn  Mn15  1  0.65743868  0.97058497  0.42123937  1
  Mn  Mn16  1  0.95065440  0.76380069  0.92123937  1
  Mn  Mn17  1  0.12500000  0.37500000  0.75000000  1
  Mn  Mn18  1  0.62500000  0.87500000  0.75000000  1
  Mn  Mn19  1  0.26380069  0.84256132  0.81314629  1
  F  F20  1  0.78757788  0.18781958  0.99169544  1
  F  F21  1  0.96096744  0.61870098  0.07683447  1
  F  F22  1  0.95813349  0.11586703  0.57683447  1
  F  F23  1  0.48531747  0.13608429  0.08016063  1
  F  F24  1  0.68781958  0.19612314  0.40024070  1
  F  F25  1  0.88129902  0.45813349  0.34226646  1
  F  F26  1  0.61586703  0.53903256  0.15773354  1
  F  F27  1  0.63608429  0.05592367  0.65076682  1
  F  F28  1  0.09484315  0.01468253  0.15076682  1
  F  F29  1  0.29588244  0.28757788  0.09975930  1
  F  F30  1  0.55592367  0.40515685  0.41983937  1
  F  F31  1  0.78404595  0.47683511  0.73336339  1
  F  F32  1  0.75652828  0.94931744  0.23336339  1
  F  F33  1  0.30387686  0.20411756  0.49169544  1
  F  F34  1  0.44931744  0.71595405  0.19278916  1
  F  F35  1  0.97683511  0.74347172  0.69278916  1
  F  F36  1  0.02316489  0.25652828  0.30721084  1
  F  F37  1  0.55068256  0.28404595  0.80721084  1
  F  F38  1  0.69612314  0.79588244  0.50830456  1
  F  F39  1  0.21595405  0.52316489  0.26663661  1
  F  F40  1  0.24347172  0.05068256  0.76663661  1
  F  F41  1  0.44407633  0.59484315  0.58016063  1
  F  F42  1  0.70411756  0.71242212  0.90024070  1
  F  F43  1  0.90515685  0.98531747  0.84923318  1
  F  F44  1  0.36391571  0.94407633  0.34923318  1
  F  F45  1  0.38413297  0.46096744  0.84226646  1
  F  F46  1  0.11870098  0.54186651  0.65773354  1
  F  F47  1  0.31218042  0.80387686  0.59975930  1
  F  F48  1  0.51468253  0.86391571  0.91983937  1
  F  F49  1  0.03903256  0.38129902  0.92316553  1
  F  F50  1  0.04186651  0.88413297  0.42316553  1
  F  F51  1  0.21242212  0.81218042  0.00830456  1
