# generated using pymatgen
data_V(GeO3)2
_symmetry_space_group_name_H-M   'P 1'
_cell_length_a   9.67126886
_cell_length_b   8.88388480
_cell_length_c   5.48477119
_cell_angle_alpha   90.00000000
_cell_angle_beta   102.96701502
_cell_angle_gamma   90.00000000
_symmetry_Int_Tables_number   1
_chemical_formula_structural   V(GeO3)2
_chemical_formula_sum   'V4 Ge8 O24'
_cell_volume   459.22600064
_cell_formula_units_Z   4
loop_
 _symmetry_equiv_pos_site_id
 _symmetry_equiv_pos_as_xyz
  1  'x, y, z'
loop_
 _atom_site_type_symbol
 _atom_site_label
 _atom_site_symmetry_multiplicity
 _atom_site_fract_x
 _atom_site_fract_y
 _atom_site_fract_z
 _atom_site_occupancy
  V  V0  1  0.25191506  0.64725710  0.97802464  1
  V  V1  1  0.25191506  0.85274290  0.47802464  1
  V  V2  1  0.74808494  0.14725710  0.52197536  1
  V  V3  1  0.74808494  0.35274290  0.02197536  1
  Ge  Ge4  1  0.05083950  0.33834200  0.83175209  1
  Ge  Ge5  1  0.05083950  0.16165800  0.33175209  1
  Ge  Ge6  1  0.45246787  0.16383164  0.72704475  1
  Ge  Ge7  1  0.45246787  0.33616836  0.22704475  1
  Ge  Ge8  1  0.54753213  0.66383164  0.77295525  1
  Ge  Ge9  1  0.54753213  0.83616836  0.27295525  1
  Ge  Ge10  1  0.94916050  0.83834200  0.66824791  1
  Ge  Ge11  1  0.94916050  0.66165800  0.16824791  1
  O  O12  1  0.11697117  0.20551727  0.64950895  1
  O  O13  1  0.11805769  0.51620744  0.78444983  1
  O  O14  1  0.14020289  0.81768459  0.72891564  1
  O  O15  1  0.11697117  0.29448273  0.14950895  1
  O  O16  1  0.11805769  0.98379256  0.28444983  1
  O  O17  1  0.14020289  0.68231541  0.22891564  1
  O  O18  1  0.38435222  0.20340604  0.99112052  1
  O  O19  1  0.35909985  0.67653165  0.69873111  1
  O  O20  1  0.38905434  0.98082636  0.63209209  1
  O  O21  1  0.38435222  0.29659396  0.49112052  1
  O  O22  1  0.35909985  0.82346835  0.19873111  1
  O  O23  1  0.38905434  0.51917364  0.13209209  1
  O  O24  1  0.61094566  0.48082636  0.86790791  1
  O  O25  1  0.64090015  0.17653165  0.80126889  1
  O  O26  1  0.61564778  0.70340604  0.50887948  1
  O  O27  1  0.61094566  0.01917364  0.36790791  1
  O  O28  1  0.64090015  0.32346835  0.30126889  1
  O  O29  1  0.61564778  0.79659396  0.00887948  1
  O  O30  1  0.85979711  0.31768459  0.77108436  1
  O  O31  1  0.88194231  0.01620744  0.71555017  1
  O  O32  1  0.88302883  0.70551727  0.85049105  1
  O  O33  1  0.85979711  0.18231541  0.27108436  1
  O  O34  1  0.88194231  0.48379256  0.21555017  1
  O  O35  1  0.88302883  0.79448273  0.35049105  1
