# generated using pymatgen
data_Li2FeO2
_symmetry_space_group_name_H-M   'P 1'
_cell_length_a   3.22547073
_cell_length_b   3.15645602
_cell_length_c   5.28778925
_cell_angle_alpha   89.69735868
_cell_angle_beta   90.00000040
_cell_angle_gamma   120.72594006
_symmetry_Int_Tables_number   1
_chemical_formula_structural   Li2FeO2
_chemical_formula_sum   'Li2 Fe1 O2'
_cell_volume   46.27706676
_cell_formula_units_Z   1
loop_
 _symmetry_equiv_pos_site_id
 _symmetry_equiv_pos_as_xyz
  1  'x, y, z'
loop_
 _atom_site_type_symbol
 _atom_site_label
 _atom_site_symmetry_multiplicity
 _atom_site_fract_x
 _atom_site_fract_y
 _atom_site_fract_z
 _atom_site_occupancy
  Li  Li0  1  0.32990942  0.65988483  0.63520282  1
  Li  Li1  1  0.67002459  0.34011517  0.36479718  1
  Fe  Fe2  1  0.99994785  1.00000000  1.00000000  1
  O  O3  1  0.33292899  0.66593985  0.24335713  1
  O  O4  1  0.66698915  0.33406015  0.75664287  1
