# generated using pymatgen
data_Li4Fe3Sn3(TeO8)2
_symmetry_space_group_name_H-M   'P 1'
_cell_length_a   6.29257100
_cell_length_b   6.23708069
_cell_length_c   10.14802073
_cell_angle_alpha   89.86789805
_cell_angle_beta   90.67541361
_cell_angle_gamma   120.02142843
_symmetry_Int_Tables_number   1
_chemical_formula_structural   Li4Fe3Sn3(TeO8)2
_chemical_formula_sum   'Li4 Fe3 Sn3 Te2 O16'
_cell_volume   344.82102113
_cell_formula_units_Z   1
loop_
 _symmetry_equiv_pos_site_id
 _symmetry_equiv_pos_as_xyz
  1  'x, y, z'
loop_
 _atom_site_type_symbol
 _atom_site_label
 _atom_site_symmetry_multiplicity
 _atom_site_fract_x
 _atom_site_fract_y
 _atom_site_fract_z
 _atom_site_occupancy
  Li  Li0  1  0.34215574  0.67095895  0.89833885  1
  Li  Li1  1  0.98927015  0.99424656  0.98989371  1
  Li  Li2  1  0.99270237  0.99639018  0.49609341  1
  Li  Li3  1  0.66551072  0.33194526  0.40667261  1
  Fe  Fe4  1  0.66447280  0.83211401  0.20998330  1
  Fe  Fe5  1  0.83300331  0.66541809  0.71145974  1
  Fe  Fe6  1  0.83295765  0.16776856  0.71134524  1
  Sn  Sn7  1  0.16655225  0.83134016  0.21487029  1
  Sn  Sn8  1  0.16691998  0.33522594  0.21485958  1
  Sn  Sn9  1  0.33561831  0.16772508  0.71476793  1
  Te  Te10  1  0.35403026  0.67942767  0.48897538  1
  Te  Te11  1  0.69497012  0.35087924  0.98195583  1
  O  O12  1  0.14677128  0.84177702  0.60540143  1
  O  O13  1  0.02324727  0.51065787  0.33313872  1
  O  O14  1  0.32365078  0.66236977  0.10523474  1
  O  O15  1  0.00162052  0.00051685  0.31590812  1
  O  O16  1  0.99164390  0.99604691  0.80937882  1
  O  O17  1  0.14656508  0.30471122  0.60505629  1
  O  O18  1  0.47281643  0.95927311  0.34867460  1
  O  O19  1  0.47718677  0.51535772  0.34708370  1
  O  O20  1  0.30186017  0.15166731  0.10416327  1
  O  O21  1  0.68361640  0.84141980  0.59427073  1
  O  O22  1  0.52712758  0.49256434  0.83160561  1
  O  O23  1  0.52765607  0.03510108  0.83195687  1
  O  O24  1  0.67178714  0.33584932  0.60977159  1
  O  O25  1  0.85295311  0.68280008  0.09157651  1
  O  O26  1  0.96270843  0.48117815  0.84334286  1
  O  O27  1  0.85062341  0.16557074  0.09206029  1
