# generated using pymatgen
data_Y2O3
_symmetry_space_group_name_H-M   'P 1'
_cell_length_a   14.50492183
_cell_length_b   3.50270609
_cell_length_c   8.61719922
_cell_angle_alpha   90.00000000
_cell_angle_beta   98.68598367
_cell_angle_gamma   90.00000000
_symmetry_Int_Tables_number   1
_chemical_formula_structural   Y2O3
_chemical_formula_sum   'Y12 O18'
_cell_volume   432.78824407
_cell_formula_units_Z   6
loop_
 _symmetry_equiv_pos_site_id
 _symmetry_equiv_pos_as_xyz
  1  'x, y, z'
loop_
 _atom_site_type_symbol
 _atom_site_label
 _atom_site_symmetry_multiplicity
 _atom_site_fract_x
 _atom_site_fract_y
 _atom_site_fract_z
 _atom_site_occupancy
  Y  Y0  1  0.00818906  0.25000000  0.18302245  1
  Y  Y1  1  0.11534924  0.25000000  0.54373610  1
  Y  Y2  1  0.21839380  0.75000000  0.17793670  1
  Y  Y3  1  0.28413101  0.75000000  0.81644600  1
  Y  Y4  1  0.39365878  0.25000000  0.49490184  1
  Y  Y5  1  0.43566663  0.25000000  0.13002951  1
  Y  Y6  1  0.56433337  0.75000000  0.86997049  1
  Y  Y7  1  0.60634122  0.75000000  0.50509816  1
  Y  Y8  1  0.71586899  0.25000000  0.18355400  1
  Y  Y9  1  0.78160620  0.25000000  0.82206330  1
  Y  Y10  1  0.88465076  0.75000000  0.45626390  1
  Y  Y11  1  0.99181094  0.75000000  0.81697755  1
  O  O12  1  0.03077222  0.75000000  0.37945766  1
  O  O13  1  0.13084265  0.75000000  0.71641323  1
  O  O14  1  0.07077644  0.75000000  0.06197147  1
  O  O15  1  0.18197191  0.25000000  0.31517822  1
  O  O16  1  0.28334568  0.25000000  0.65163459  1
  O  O17  1  0.27117870  0.25000000  0.01130725  1
  O  O18  1  0.42642861  0.75000000  0.96608722  1
  O  O19  1  0.37031318  0.75000000  0.29752300  1
  O  O20  1  0.46523276  0.75000000  0.62652044  1
  O  O21  1  0.53476724  0.25000000  0.37347956  1
  O  O22  1  0.62968682  0.25000000  0.70247700  1
  O  O23  1  0.57357139  0.25000000  0.03391278  1
  O  O24  1  0.72882130  0.75000000  0.98869275  1
  O  O25  1  0.71665432  0.75000000  0.34836541  1
  O  O26  1  0.81802809  0.75000000  0.68482178  1
  O  O27  1  0.92922356  0.25000000  0.93802853  1
  O  O28  1  0.86915735  0.25000000  0.28358677  1
  O  O29  1  0.96922778  0.25000000  0.62054234  1
