# generated using pymatgen
data_Fe3Cu2Sb(PO4)6
_symmetry_space_group_name_H-M   'P 1'
_cell_length_a   8.62893169
_cell_length_b   8.62893164
_cell_length_c   8.62893134
_cell_angle_alpha   60.11517131
_cell_angle_beta   60.11517079
_cell_angle_gamma   60.11517264
_symmetry_Int_Tables_number   1
_chemical_formula_structural   Fe3Cu2Sb(PO4)6
_chemical_formula_sum   'Fe3 Cu2 Sb1 P6 O24'
_cell_volume   455.49940576
_cell_formula_units_Z   1
loop_
 _symmetry_equiv_pos_site_id
 _symmetry_equiv_pos_as_xyz
  1  'x, y, z'
loop_
 _atom_site_type_symbol
 _atom_site_label
 _atom_site_symmetry_multiplicity
 _atom_site_fract_x
 _atom_site_fract_y
 _atom_site_fract_z
 _atom_site_occupancy
  Fe  Fe0  1  0.14499771  0.14499771  0.14499771  1
  Fe  Fe1  1  0.35502805  0.35502805  0.35502805  1
  Fe  Fe2  1  0.64358603  0.64358603  0.64358603  1
  Cu  Cu3  1  0.00709352  0.00709352  0.00709352  1
  Cu  Cu4  1  0.49995535  0.49995535  0.49995535  1
  Sb  Sb5  1  0.85703813  0.85703813  0.85703813  1
  P  P6  1  0.04587023  0.74669902  0.45372351  1
  P  P7  1  0.45372351  0.04587023  0.74669902  1
  P  P8  1  0.74669902  0.45372351  0.04587023  1
  P  P9  1  0.25267677  0.53910352  0.95502655  1
  P  P10  1  0.53910352  0.95502655  0.25267677  1
  P  P11  1  0.95502655  0.25267677  0.53910352  1
  O  O12  1  0.11389783  0.30542080  0.50904589  1
  O  O13  1  0.30542080  0.50904589  0.11389783  1
  O  O14  1  0.05962959  0.91325031  0.26353050  1
  O  O15  1  0.50904589  0.11389783  0.30542080  1
  O  O16  1  0.01197995  0.80754132  0.61537796  1
  O  O17  1  0.23884810  0.58422413  0.44390779  1
  O  O18  1  0.26353050  0.05962959  0.91325031  1
  O  O19  1  0.44390779  0.23884810  0.58422413  1
  O  O20  1  0.18645385  0.38612164  0.99336860  1
  O  O21  1  0.58422413  0.44390779  0.23884810  1
  O  O22  1  0.08324585  0.73928163  0.94063015  1
  O  O23  1  0.38612164  0.99336860  0.18645385  1
  O  O24  1  0.61537796  0.01197995  0.80754132  1
  O  O25  1  0.91325031  0.26353050  0.05962959  1
  O  O26  1  0.41152296  0.56072404  0.75905670  1
  O  O27  1  0.80754132  0.61537796  0.01197995  1
  O  O28  1  0.56072404  0.75905670  0.41152296  1
  O  O29  1  0.73928163  0.94063015  0.08324585  1
  O  O30  1  0.75905670  0.41152296  0.56072404  1
  O  O31  1  0.99336860  0.18645385  0.38612164  1
  O  O32  1  0.49884841  0.88427172  0.68901990  1
  O  O33  1  0.94063015  0.08324585  0.73928163  1
  O  O34  1  0.68901990  0.49884841  0.88427172  1
  O  O35  1  0.88427172  0.68901990  0.49884841  1
