# generated using pymatgen
data_Li6Sb2S7
_symmetry_space_group_name_H-M   'P 1'
_cell_length_a   12.13421820
_cell_length_b   7.57843369
_cell_length_c   6.49862808
_cell_angle_alpha   90.00000000
_cell_angle_beta   79.54046192
_cell_angle_gamma   90.00000000
_symmetry_Int_Tables_number   1
_chemical_formula_structural   Li6Sb2S7
_chemical_formula_sum   'Li12 Sb4 S14'
_cell_volume   587.67307237
_cell_formula_units_Z   2
loop_
 _symmetry_equiv_pos_site_id
 _symmetry_equiv_pos_as_xyz
  1  'x, y, z'
loop_
 _atom_site_type_symbol
 _atom_site_label
 _atom_site_symmetry_multiplicity
 _atom_site_fract_x
 _atom_site_fract_y
 _atom_site_fract_z
 _atom_site_occupancy
  Li  Li0  1  0.14544463  0.79280966  0.62902555  1
  Li  Li1  1  0.13845543  0.22747966  0.63437321  1
  Li  Li2  1  0.14851463  0.51754651  0.09725119  1
  Li  Li3  1  0.36154457  0.72747966  0.86562679  1
  Li  Li4  1  0.35455537  0.29280966  0.87097445  1
  Li  Li5  1  0.35148537  0.01754651  0.40274881  1
  Li  Li6  1  0.64851463  0.98245349  0.59725119  1
  Li  Li7  1  0.64544463  0.70719034  0.12902555  1
  Li  Li8  1  0.63845543  0.27252034  0.13437321  1
  Li  Li9  1  0.85148537  0.48245349  0.90274881  1
  Li  Li10  1  0.86154457  0.77252034  0.36562679  1
  Li  Li11  1  0.85455537  0.20719034  0.37097445  1
  Sb  Sb12  1  0.12789220  0.00272979  0.12047415  1
  Sb  Sb13  1  0.37210780  0.50272979  0.37952585  1
  Sb  Sb14  1  0.62789220  0.49727021  0.62047415  1
  Sb  Sb15  1  0.87210780  0.99727021  0.87952585  1
  S  S16  1  0.00000000  0.00000000  0.50000000  1
  S  S17  1  0.00472353  0.75999913  0.00384923  1
  S  S18  1  0.26205565  0.01205935  0.78344287  1
  S  S19  1  0.23794435  0.51205935  0.71655713  1
  S  S20  1  0.24232968  0.26709327  0.25337158  1
  S  S21  1  0.25767032  0.76709327  0.24662842  1
  S  S22  1  0.49527647  0.25999913  0.49615077  1
  S  S23  1  0.50472353  0.74000087  0.50384923  1
  S  S24  1  0.50000000  0.50000000  0.00000000  1
  S  S25  1  0.74232968  0.23290673  0.75337158  1
  S  S26  1  0.75767032  0.73290673  0.74662842  1
  S  S27  1  0.76205565  0.48794065  0.28344287  1
  S  S28  1  0.73794435  0.98794065  0.21655713  1
  S  S29  1  0.99527647  0.24000087  0.99615077  1
