# generated using pymatgen
data_Li5V6(CuO4)6
_symmetry_space_group_name_H-M   'P 1'
_cell_length_a   8.14935295
_cell_length_b   8.96984589
_cell_length_c   12.79813419
_cell_angle_alpha   90.00008805
_cell_angle_beta   72.71011382
_cell_angle_gamma   90.00243230
_symmetry_Int_Tables_number   1
_chemical_formula_structural   Li5V6(CuO4)6
_chemical_formula_sum   'Li10 V12 Cu12 O48'
_cell_volume   893.25039630
_cell_formula_units_Z   2
loop_
 _symmetry_equiv_pos_site_id
 _symmetry_equiv_pos_as_xyz
  1  'x, y, z'
loop_
 _atom_site_type_symbol
 _atom_site_label
 _atom_site_symmetry_multiplicity
 _atom_site_fract_x
 _atom_site_fract_y
 _atom_site_fract_z
 _atom_site_occupancy
  Li  Li0  1  0.25119247  0.75016957  0.99985220  1
  Li  Li1  1  0.42105874  0.74773992  0.17060221  1
  Li  Li2  1  0.74554111  0.24763782  0.99612690  1
  Li  Li3  1  0.08332134  0.25021795  0.33335181  1
  Li  Li4  1  0.91544173  0.25012606  0.16682415  1
  Li  Li5  1  0.25122765  0.25015664  0.49981569  1
  Li  Li6  1  0.74556733  0.75198330  0.49608812  1
  Li  Li7  1  0.42113762  0.25219109  0.67057632  1
  Li  Li8  1  0.08333216  0.75017466  0.83335647  1
  Li  Li9  1  0.91546301  0.75001964  0.66677774  1
  V  V10  1  0.00317124  0.88418138  0.24914490  1
  V  V11  1  0.33168964  0.11494830  0.08553079  1
  V  V12  1  0.83504109  0.61494384  0.08110869  1
  V  V13  1  0.49992420  0.38303194  0.24958488  1
  V  V14  1  0.16342813  0.61574697  0.41750488  1
  V  V15  1  0.66687648  0.11694233  0.41714548  1
  V  V16  1  0.33184135  0.88511131  0.58568476  1
  V  V17  1  0.00322394  0.11567581  0.74914045  1
  V  V18  1  0.16343864  0.38419543  0.91758812  1
  V  V19  1  0.83477753  0.38501822  0.58101013  1
  V  V20  1  0.49982822  0.61689997  0.74957496  1
  V  V21  1  0.66670814  0.88311273  0.91699992  1
  Cu  Cu22  1  0.00001460  0.00039633  0.99984207  1
  Cu  Cu23  1  0.49954294  0.49544721  0.99867603  1
  Cu  Cu24  1  0.16651827  0.50046465  0.16692336  1
  Cu  Cu25  1  0.66711371  0.99537820  0.16797000  1
  Cu  Cu26  1  0.33564237  0.99497690  0.33439496  1
  Cu  Cu27  1  0.99970589  0.99956254  0.50004087  1
  Cu  Cu28  1  0.83095655  0.50526168  0.33232868  1
  Cu  Cu29  1  0.16708882  0.49964292  0.66654884  1
  Cu  Cu30  1  0.49998860  0.50470174  0.49837275  1
  Cu  Cu31  1  0.66670002  0.00466772  0.66823284  1
  Cu  Cu32  1  0.33569432  0.00514833  0.83439873  1
  Cu  Cu33  1  0.83119944  0.49495768  0.83219396  1
  O  O34  1  0.25748599  0.50033449  0.00613046  1
  O  O35  1  0.16057551  0.77439717  0.16924724  1
  O  O36  1  0.17269410  0.22542188  0.16356471  1
  O  O37  1  0.48628202  0.22554417  0.01127357  1
  O  O38  1  0.07536659  0.49900622  0.32719951  1
  O  O39  1  0.41131897  0.50185201  0.15936094  1
  O  O40  1  0.75520875  0.00179777  0.00702168  1
  O  O41  1  0.42331049  0.99714615  0.17444685  1
  O  O42  1  0.09211605  0.00096022  0.33964332  1
  O  O43  1  0.31427745  0.72593490  0.33854133  1
  O  O44  1  0.68036705  0.72558309  0.15541608  1
  O  O45  1  0.65842441  0.27462473  0.17020153  1
  O  O46  1  0.00589301  0.72564029  0.49744361  1
  O  O47  1  0.99398008  0.72546008  0.00308341  1
  O  O48  1  0.34054918  0.27452583  0.32860763  1
  O  O49  1  0.90943807  0.00029883  0.16065376  1
  O  O50  1  0.24396258  0.00024465  0.49336429  1
  O  O51  1  0.57726336  0.00822894  0.32720384  1
  O  O52  1  0.92276850  0.49981327  0.17267065  1
  O  O53  1  0.58875495  0.49155204  0.33907033  1
  O  O54  1  0.25649733  0.49960266  0.50637962  1
  O  O55  1  0.85245383  0.77407542  0.32808505  1
  O  O56  1  0.82603399  0.22542200  0.33811766  1
  O  O57  1  0.50840721  0.22529896  0.49644589  1
  O  O58  1  0.48633460  0.77435122  0.51129074  1
  O  O59  1  0.17284268  0.77462733  0.66357383  1
  O  O60  1  0.16066617  0.22561796  0.66928763  1
  O  O61  1  0.74369830  0.50274946  0.49286717  1
  O  O62  1  0.41081443  0.49825298  0.66009586  1
  O  O63  1  0.07434035  0.50093500  0.82708355  1
  O  O64  1  0.75574620  0.99827337  0.50676171  1
  O  O65  1  0.42312968  0.00267313  0.67386162  1
  O  O66  1  0.09152729  0.99912298  0.83926222  1
  O  O67  1  0.68020293  0.27431832  0.65541515  1
  O  O68  1  0.34056454  0.72547687  0.82857160  1
  O  O69  1  0.00603283  0.27433733  0.99742608  1
  O  O70  1  0.99393693  0.27456545  0.50304775  1
  O  O71  1  0.65821586  0.72527603  0.67020828  1
  O  O72  1  0.31421293  0.27404479  0.83854204  1
  O  O73  1  0.90995298  -0.00032269  0.66030231  1
  O  O74  1  0.24417682  -0.00020809  0.99388701  1
  O  O75  1  0.57792461  0.99155365  0.82745102  1
  O  O76  1  0.92262070  0.50033629  0.67352323  1
  O  O77  1  0.58954551  0.50812796  0.83969591  1
  O  O78  1  0.85248114  0.22586405  0.82810554  1
  O  O79  1  0.50834790  0.77473581  0.99641989  1
  O  O80  1  0.82609726  0.77460439  0.83810760  1
  O  O81  1  0.74308458  0.49708987  0.99206360  1
