# generated using pymatgen
data_Li4Mn3Nb2V3O16
_symmetry_space_group_name_H-M   'P 1'
_cell_length_a   6.10464191
_cell_length_b   5.92107472
_cell_length_c   9.80416081
_cell_angle_alpha   90.00148404
_cell_angle_beta   92.21750379
_cell_angle_gamma   119.13799086
_symmetry_Int_Tables_number   1
_chemical_formula_structural   Li4Mn3Nb2V3O16
_chemical_formula_sum   'Li4 Mn3 Nb2 V3 O16'
_cell_volume   309.23038531
_cell_formula_units_Z   1
loop_
 _symmetry_equiv_pos_site_id
 _symmetry_equiv_pos_as_xyz
  1  'x, y, z'
loop_
 _atom_site_type_symbol
 _atom_site_label
 _atom_site_symmetry_multiplicity
 _atom_site_fract_x
 _atom_site_fract_y
 _atom_site_fract_z
 _atom_site_occupancy
  Li  Li0  1  0.31507260  0.65627564  0.90013596  1
  Li  Li1  1  0.00067138  0.00275967  0.99062613  1
  Li  Li2  1  0.00958957  0.00625121  0.48920895  1
  Li  Li3  1  0.66139957  0.32897538  0.40207304  1
  Mn  Mn4  1  0.66612754  0.83377973  0.21028598  1
  Mn  Mn5  1  0.82844816  0.66011312  0.71511196  1
  Mn  Mn6  1  0.82917683  0.16908098  0.71485062  1
  Nb  Nb7  1  0.34017060  0.67226543  0.49416056  1
  Nb  Nb8  1  0.64713148  0.32397970  0.99495823  1
  V  V9  1  0.17461276  0.82931802  0.21492000  1
  V  V10  1  0.17546383  0.35173002  0.22078386  1
  V  V11  1  0.34190206  0.17177566  0.71866328  1
  O  O12  1  0.18665861  0.84455589  0.58934694  1
  O  O13  1  0.03858473  0.50994788  0.34423392  1
  O  O14  1  0.30377648  0.63579458  0.10597342  1
  O  O15  1  0.02547927  0.02218414  0.30157847  1
  O  O16  1  0.00340551  0.00193133  0.80303247  1
  O  O17  1  0.18935760  0.34437207  0.59006313  1
  O  O18  1  0.46710263  0.95741676  0.34584108  1
  O  O19  1  0.46570868  0.50506952  0.34628769  1
  O  O20  1  0.33756447  0.17282516  0.09884914  1
  O  O21  1  0.68150770  0.84058213  0.59056724  1
  O  O22  1  0.50412125  0.47297772  0.84990233  1
  O  O23  1  0.50255447  0.03087407  0.85114375  1
  O  O24  1  0.66281810  0.33129781  0.61428478  1
  O  O25  1  0.84619797  0.66623232  0.08714120  1
  O  O26  1  0.95143899  0.47584215  0.83655228  1
  O  O27  1  0.84395717  0.18209090  0.08726456  1
