# generated using pymatgen
data_ZrO2
_symmetry_space_group_name_H-M   'P 1'
_cell_length_a   4.95715937
_cell_length_b   5.91633747
_cell_length_c   16.31673251
_cell_angle_alpha   90.00000000
_cell_angle_beta   90.00000000
_cell_angle_gamma   90.00000000
_symmetry_Int_Tables_number   1
_chemical_formula_structural   ZrO2
_chemical_formula_sum   'Zr12 O24'
_cell_volume   478.54084679
_cell_formula_units_Z   12
loop_
 _symmetry_equiv_pos_site_id
 _symmetry_equiv_pos_as_xyz
  1  'x, y, z'
loop_
 _atom_site_type_symbol
 _atom_site_label
 _atom_site_symmetry_multiplicity
 _atom_site_fract_x
 _atom_site_fract_y
 _atom_site_fract_z
 _atom_site_occupancy
  Zr  Zr0  1  0.00246224  0.34584887  0.08405262  1
  Zr  Zr1  1  0.00000000  0.01706523  0.25000000  1
  Zr  Zr2  1  0.99753776  0.34584887  0.41594738  1
  Zr  Zr3  1  0.00000000  0.98293477  0.75000000  1
  Zr  Zr4  1  0.00246224  0.65415113  0.58405262  1
  Zr  Zr5  1  0.99753776  0.65415113  0.91594738  1
  Zr  Zr6  1  0.50246224  0.15415113  0.91594738  1
  Zr  Zr7  1  0.49753776  0.15415113  0.58405262  1
  Zr  Zr8  1  0.50000000  0.48293477  0.75000000  1
  Zr  Zr9  1  0.50246224  0.84584887  0.41594738  1
  Zr  Zr10  1  0.49753776  0.84584887  0.08405262  1
  Zr  Zr11  1  0.50000000  0.51706523  0.25000000  1
  O  O12  1  0.20278257  0.62880538  0.03021844  1
  O  O13  1  0.20278257  0.37119462  0.53021844  1
  O  O14  1  0.28080035  0.19350955  0.69593369  1
  O  O15  1  0.28080035  0.80649045  0.19593369  1
  O  O16  1  0.20929745  0.06760083  0.36264942  1
  O  O17  1  0.20929745  0.93239917  0.86264942  1
  O  O18  1  0.29070255  0.56760083  0.36264942  1
  O  O19  1  0.29070255  0.43239917  0.86264942  1
  O  O20  1  0.21919965  0.30649045  0.19593369  1
  O  O21  1  0.21919965  0.69350955  0.69593369  1
  O  O22  1  0.29721743  0.12880538  0.03021844  1
  O  O23  1  0.29721743  0.87119462  0.53021844  1
  O  O24  1  0.70278257  0.12880538  0.46978156  1
  O  O25  1  0.70278257  0.87119462  0.96978156  1
  O  O26  1  0.78080035  0.30649045  0.30406631  1
  O  O27  1  0.78080035  0.69350955  0.80406631  1
  O  O28  1  0.70929745  0.43239917  0.63735058  1
  O  O29  1  0.70929745  0.56760083  0.13735058  1
  O  O30  1  0.79070255  0.06760083  0.13735058  1
  O  O31  1  0.79070255  0.93239917  0.63735058  1
  O  O32  1  0.71919965  0.19350955  0.80406631  1
  O  O33  1  0.71919965  0.80649045  0.30406631  1
  O  O34  1  0.79721743  0.37119462  0.96978156  1
  O  O35  1  0.79721743  0.62880538  0.46978156  1
