# generated using pymatgen
data_NaCo11O17
_symmetry_space_group_name_H-M   'P 1'
_cell_length_a   5.71742459
_cell_length_b   5.71761144
_cell_length_c   23.00497729
_cell_angle_alpha   89.98438015
_cell_angle_beta   90.01304618
_cell_angle_gamma   119.99333162
_symmetry_Int_Tables_number   1
_chemical_formula_structural   NaCo11O17
_chemical_formula_sum   'Na2 Co22 O34'
_cell_volume   651.32340414
_cell_formula_units_Z   2
loop_
 _symmetry_equiv_pos_site_id
 _symmetry_equiv_pos_as_xyz
  1  'x, y, z'
loop_
 _atom_site_type_symbol
 _atom_site_label
 _atom_site_symmetry_multiplicity
 _atom_site_fract_x
 _atom_site_fract_y
 _atom_site_fract_z
 _atom_site_occupancy
  Na  Na0  1  0.33345602  0.66659956  0.74987014  1
  Na  Na1  1  0.66663598  0.33324832  0.24993912  1
  Co  Co2  1  0.16460554  0.83539938  0.60283162  1
  Co  Co3  1  0.16448931  0.83554171  0.89699631  1
  Co  Co4  1  0.33336085  0.66656994  0.17209340  1
  Co  Co5  1  0.33334205  0.66672169  0.02425606  1
  Co  Co6  1  0.99998826  0.00004836  0.00000156  1
  Co  Co7  1  0.00005665  0.99995232  0.49999023  1
  Co  Co8  1  0.33328950  0.66667649  0.32770460  1
  Co  Co9  1  0.33336555  0.66658637  0.47551779  1
  Co  Co10  1  0.16471930  0.32903014  0.60294924  1
  Co  Co11  1  0.16450090  0.32926919  0.89701473  1
  Co  Co12  1  0.32924402  0.16457158  0.10304055  1
  Co  Co13  1  0.32905114  0.16456431  0.39696952  1
  Co  Co14  1  0.67098196  0.83529173  0.60294354  1
  Co  Co15  1  0.67076050  0.83552710  0.89701618  1
  Co  Co16  1  0.83534071  0.67086010  0.39697159  1
  Co  Co17  1  0.83546015  0.67078284  0.10304955  1
  Co  Co18  1  0.66676087  0.33320078  0.67251943  1
  Co  Co19  1  0.66663382  0.33342373  0.82825964  1
  Co  Co20  1  0.66695172  0.33310625  0.52427687  1
  Co  Co21  1  0.66662772  0.33335578  0.97579353  1
  Co  Co22  1  0.83531716  0.16457483  0.39697208  1
  Co  Co23  1  0.83545806  0.16457630  0.10304942  1
  O  O24  1  0.14840909  0.85165397  0.05369022  1
  O  O25  1  0.98499629  0.49260625  0.35326720  1
  O  O26  1  0.01467846  0.50759056  0.64657086  1
  O  O27  1  0.98466562  0.49218708  0.14690006  1
  O  O28  1  0.14827547  0.85166283  0.44631122  1
  O  O29  1  0.01543841  0.50796460  0.85322756  1
  O  O30  1  0.14827457  0.29658416  0.44629303  1
  O  O31  1  0.33343836  0.66689646  0.25009741  1
  O  O32  1  0.00009465  0.99991131  0.14455600  1
  O  O33  1  0.99990267  0.00007460  0.35540124  1
  O  O34  1  0.00017751  0.99977746  0.64448838  1
  O  O35  1  0.99986856  0.00017845  0.85548366  1
  O  O36  1  0.33361656  0.66640063  0.55956938  1
  O  O37  1  0.33326013  0.66673699  0.94032757  1
  O  O38  1  0.14835607  0.29675443  0.05366875  1
  O  O39  1  0.29695142  0.14842830  0.55362092  1
  O  O40  1  0.29667504  0.14837890  0.94638145  1
  O  O41  1  0.50760974  0.49237495  0.14679849  1
  O  O42  1  0.50761306  0.49223857  0.35311082  1
  O  O43  1  0.49258927  0.50741798  0.64684036  1
  O  O44  1  0.49239320  0.50767951  0.85342399  1
  O  O45  1  0.70330518  0.85169964  0.05367051  1
  O  O46  1  0.70338356  0.85167562  0.44629231  1
  O  O47  1  0.50771779  0.01515751  0.14683492  1
  O  O48  1  0.50743572  0.01524752  0.35317005  1
  O  O49  1  0.49235942  0.98522284  0.64660054  1
  O  O50  1  0.66662106  0.33330761  0.44028131  1
  O  O51  1  0.49207166  0.98456124  0.85321016  1
  O  O52  1  0.66607817  0.33391055  0.75011676  1
  O  O53  1  0.66670503  0.33338498  0.05976422  1
  O  O54  1  0.85163820  0.70334701  0.94639100  1
  O  O55  1  0.85163457  0.70310758  0.55361415  1
  O  O56  1  0.85153643  0.14846332  0.94635516  1
  O  O57  1  0.85193132  0.14813973  0.55364465  1
