# generated using pymatgen
data_LiCoPO4F
_symmetry_space_group_name_H-M   'P 1'
_cell_length_a   10.70966909
_cell_length_b   6.30282634
_cell_length_c   10.94391591
_cell_angle_alpha   90.28539445
_cell_angle_beta   89.56863900
_cell_angle_gamma   89.75913940
_symmetry_Int_Tables_number   1
_chemical_formula_structural   LiCoPO4F
_chemical_formula_sum   'Li8 Co8 P8 O32 F8'
_cell_volume   738.69054224
_cell_formula_units_Z   8
loop_
 _symmetry_equiv_pos_site_id
 _symmetry_equiv_pos_as_xyz
  1  'x, y, z'
loop_
 _atom_site_type_symbol
 _atom_site_label
 _atom_site_symmetry_multiplicity
 _atom_site_fract_x
 _atom_site_fract_y
 _atom_site_fract_z
 _atom_site_occupancy
  Li  Li0  1  0.22794554  0.24818323  0.08455800  1
  Li  Li1  1  0.23859389  0.53747301  0.33774513  1
  Li  Li2  1  0.44101874  0.25092272  0.77462901  1
  Li  Li3  1  0.72314047  0.24932706  0.41081669  1
  Li  Li4  1  0.73331875  0.97204833  0.17348075  1
  Li  Li5  1  0.76230368  0.48762491  0.66756512  1
  Li  Li6  1  0.77685834  0.75547210  0.91094496  1
  Li  Li7  1  0.96611471  0.24263121  0.73133988  1
  Co  Co8  1  0.00166485  0.99835980  0.00056535  1
  Co  Co9  1  0.99840371  0.50870741  0.00389619  1
  Co  Co10  1  0.00559879  0.98743043  0.49541581  1
  Co  Co11  1  0.99847151  0.50226328  0.49683904  1
  Co  Co12  1  0.49435863  0.99083899  0.50037413  1
  Co  Co13  1  0.49449142  0.50534749  0.49948663  1
  Co  Co14  1  0.49782860  0.99844105  0.00032406  1
  Co  Co15  1  0.50267924  0.50763213  0.00391243  1
  P  P16  1  0.04133426  0.74756177  0.73967848  1
  P  P17  1  0.23941019  0.74835867  0.07851224  1
  P  P18  1  0.26184021  0.25256248  0.57384046  1
  P  P19  1  0.46335003  0.26191630  0.23728775  1
  P  P20  1  0.54262066  0.74166168  0.76142420  1
  P  P21  1  0.73779289  0.75104570  0.42321818  1
  P  P22  1  0.76297893  0.25742063  0.92285107  1
  P  P23  1  0.96089280  0.23632292  0.26183058  1
  O  O24  1  0.01648668  0.24581316  0.12794966  1
  O  O25  1  0.01929504  0.04302712  0.32909951  1
  O  O26  1  0.01157435  0.43822857  0.32814665  1
  O  O27  1  0.12176567  0.25019920  0.53365797  1
  O  O28  1  0.17884992  0.73404832  0.74865411  1
  O  O29  1  0.17230747  0.54846745  0.02254999  1
  O  O30  1  0.17464005  0.95237033  0.02562885  1
  O  O31  1  0.23512620  0.74371014  0.21465174  1
  O  O32  1  0.27819903  0.26326482  0.70903081  1
  O  O33  1  0.32761950  0.05199464  0.51670648  1
  O  O34  1  0.32252368  0.44637755  0.50380599  1
  O  O35  1  0.32237547  0.27496537  0.23895766  1
  O  O36  1  0.37682912  0.75179603  0.02714104  1
  O  O37  1  0.48465877  0.54921912  0.83087735  1
  O  O38  1  0.49839715  0.95175311  0.82612917  1
  O  O39  1  0.49010835  0.74410246  0.62868888  1
  O  O40  1  0.52046085  0.25611038  0.36852225  1
  O  O41  1  0.51817790  0.06153270  0.16827829  1
  O  O42  1  0.51859369  0.45852756  0.16873285  1
  O  O43  1  0.62277156  0.26009319  0.96197412  1
  O  O44  1  0.68394740  0.71920396  0.76013811  1
  O  O45  1  0.67794982  0.54695698  0.48378257  1
  O  O46  1  0.67161309  0.95356209  0.47800066  1
  O  O47  1  0.73406892  0.74783230  0.28687894  1
  O  O48  1  0.78459092  0.25769309  0.78616708  1
  O  O49  1  0.81928500  0.05292597  0.98442018  1
  O  O50  1  0.82510302  0.45847880  0.98141156  1
  O  O51  1  0.82010264  0.21744457  0.25971754  1
  O  O52  1  0.87563550  0.75012251  0.47339692  1
  O  O53  1  0.97668117  0.55100080  0.67448521  1
  O  O54  1  0.99372459  0.95026520  0.67058638  1
  O  O55  1  0.97771274  0.75751593  0.87296633  1
  F  F56  1  0.03395610  0.25080251  0.89187909  1
  F  F57  1  0.11852874  0.73368175  0.48221126  1
  F  F58  1  0.38262663  0.25041714  0.98114472  1
  F  F59  1  0.46381639  0.74443829  0.39082150  1
  F  F60  1  0.53403530  0.25798711  0.61117067  1
  F  F61  1  0.62267531  0.76103989  0.01544388  1
  F  F62  1  0.87949490  0.25264014  0.52080289  1
  F  F63  1  0.95587955  0.75903546  0.10785402  1
