# generated using pymatgen
data_Ba6YI15
_symmetry_space_group_name_H-M   'P 1'
_cell_length_a   12.01637472
_cell_length_b   12.01637472
_cell_length_c   34.38486222
_cell_angle_alpha   90.03190999
_cell_angle_beta   89.96809001
_cell_angle_gamma   88.09834959
_symmetry_Int_Tables_number   1
_chemical_formula_structural   Ba6YI15
_chemical_formula_sum   'Ba24 Y4 I60'
_cell_volume   4962.20641747
_cell_formula_units_Z   4
loop_
 _symmetry_equiv_pos_site_id
 _symmetry_equiv_pos_as_xyz
  1  'x, y, z'
loop_
 _atom_site_type_symbol
 _atom_site_label
 _atom_site_symmetry_multiplicity
 _atom_site_fract_x
 _atom_site_fract_y
 _atom_site_fract_z
 _atom_site_occupancy
  Ba  Ba0  1  0.02660919  0.99480492  0.61612628  1
  Ba  Ba1  1  0.00519508  0.97339081  0.11612628  1
  Ba  Ba2  1  0.45408234  0.05536950  0.63512530  1
  Ba  Ba3  1  0.24876957  0.81814726  0.74253735  1
  Ba  Ba4  1  0.94463050  0.54591766  0.13512530  1
  Ba  Ba5  1  0.18185274  0.75123043  0.24253735  1
  Ba  Ba6  1  0.07982214  0.56377775  0.62916609  1
  Ba  Ba7  1  0.32124642  0.77577419  0.52340957  1
  Ba  Ba8  1  0.43622225  0.92017786  0.12916609  1
  Ba  Ba9  1  0.22422581  0.67875358  0.02340957  1
  Ba  Ba10  1  0.54220089  0.60624279  0.64271555  1
  Ba  Ba11  1  0.39375721  0.45779911  0.14271555  1
  Ba  Ba12  1  0.60624279  0.54220089  0.85728445  1
  Ba  Ba13  1  0.45779911  0.39375721  0.35728445  1
  Ba  Ba14  1  0.77577419  0.32124642  0.97659043  1
  Ba  Ba15  1  0.56377775  0.07982214  0.87083391  1
  Ba  Ba16  1  0.67875358  0.22422581  0.47659043  1
  Ba  Ba17  1  0.92017786  0.43622225  0.37083391  1
  Ba  Ba18  1  0.81814726  0.24876957  0.75746265  1
  Ba  Ba19  1  0.05536950  0.45408234  0.86487470  1
  Ba  Ba20  1  0.75123043  0.18185274  0.25746265  1
  Ba  Ba21  1  0.54591766  0.94463050  0.36487470  1
  Ba  Ba22  1  0.99480492  0.02660919  0.88387372  1
  Ba  Ba23  1  0.97339081  0.00519508  0.38387372  1
  Y  Y24  1  0.29294461  0.74764226  0.88688989  1
  Y  Y25  1  0.25235774  0.70705539  0.38688989  1
  Y  Y26  1  0.74764226  0.29294461  0.61311011  1
  Y  Y27  1  0.70705539  0.25235774  0.11311011  1
  I  I28  1  0.10152476  0.82216565  0.94575246  1
  I  I29  1  0.17783435  0.89847524  0.44575246  1
  I  I30  1  0.08984957  0.78408332  0.82843208  1
  I  I31  1  0.04283740  0.75683525  0.55655451  1
  I  I32  1  0.21591668  0.91015043  0.32843208  1
  I  I33  1  0.24316475  0.95716260  0.05655451  1
  I  I34  1  0.24063115  0.53068043  0.93648535  1
  I  I35  1  0.51226017  0.84519232  0.70247131  1
  I  I36  1  0.46931957  0.75936885  0.43648635  1
  I  I37  1  0.01341734  0.29201513  0.61268169  1
  I  I38  1  0.15480768  0.48773983  0.20247131  1
  I  I39  1  0.31926184  0.54163371  0.82827350  1
  I  I40  1  0.70798487  0.98658266  0.11268169  1
  I  I41  1  0.55881386  0.83031129  0.57879731  1
  I  I42  1  0.29200267  0.56550148  0.69881237  1
  I  I43  1  0.49361234  0.73593512  0.93834524  1
  I  I44  1  0.03878795  0.25969300  0.93891051  1
  I  I45  1  0.78894868  0.00256778  0.81261562  1
  I  I46  1  0.45836629  0.68073816  0.32827350  1
  I  I47  1  0.16968871  0.44118614  0.07879731  1
  I  I48  1  0.43449852  0.70799733  0.19881237  1
  I  I49  1  0.26406488  0.50638766  0.43834524  1
  I  I50  1  0.74030700  0.96121205  0.43891051  1
  I  I51  1  0.99743222  0.21105132  0.31261562  1
  I  I52  1  0.47936124  0.81226092  0.82327254  1
  I  I53  1  0.33415473  0.53632545  0.57757006  1
  I  I54  1  0.06951928  0.21203661  0.80821117  1
  I  I55  1  0.18773908  0.52063876  0.32327254  1
  I  I56  1  0.46367455  0.66584527  0.07757006  1
  I  I57  1  0.78796339  0.93048072  0.30821117  1
  I  I58  1  0.21203661  0.06951928  0.69178883  1
  I  I59  1  0.53632545  0.33415473  0.92242994  1
  I  I60  1  0.81226092  0.47936124  0.67672746  1
  I  I61  1  0.93048072  0.78796339  0.19178883  1
  I  I62  1  0.66584527  0.46367455  0.42242994  1
  I  I63  1  0.52063876  0.18773908  0.17672746  1
  I  I64  1  0.00256778  0.78894868  0.68738438  1
  I  I65  1  0.25969300  0.03878795  0.56108949  1
  I  I66  1  0.73593512  0.49361234  0.56165476  1
  I  I67  1  0.56550148  0.29200267  0.80118763  1
  I  I68  1  0.83031129  0.55881386  0.92120269  1
  I  I69  1  0.54163371  0.31926184  0.67172650  1
  I  I70  1  0.21105132  0.99743222  0.18738438  1
  I  I71  1  0.96121205  0.74030700  0.06108949  1
  I  I72  1  0.50638766  0.26406488  0.06165476  1
  I  I73  1  0.70799733  0.43449852  0.30118763  1
  I  I74  1  0.44118614  0.16968871  0.42120269  1
  I  I75  1  0.29201513  0.01341734  0.88731831  1
  I  I76  1  0.68073816  0.45836629  0.17172650  1
  I  I77  1  0.84519232  0.51226017  0.79752869  1
  I  I78  1  0.98658266  0.70798487  0.38731831  1
  I  I79  1  0.53068043  0.24063115  0.56351465  1
  I  I80  1  0.48773983  0.15480768  0.29752869  1
  I  I81  1  0.75936885  0.46931957  0.06351365  1
  I  I82  1  0.75683525  0.04283740  0.94344549  1
  I  I83  1  0.78408332  0.08984957  0.67156792  1
  I  I84  1  0.95716260  0.24316475  0.44344549  1
  I  I85  1  0.91015043  0.21591668  0.17156792  1
  I  I86  1  0.82216565  0.10152476  0.55424754  1
  I  I87  1  0.89847524  0.17783435  0.05424754  1
