# generated using pymatgen
data_Li2Fe3F8
_symmetry_space_group_name_H-M   'P 1'
_cell_length_a   5.36609751
_cell_length_b   9.78262348
_cell_length_c   6.21212929
_cell_angle_alpha   89.99973972
_cell_angle_beta   89.99979693
_cell_angle_gamma   89.77953132
_symmetry_Int_Tables_number   1
_chemical_formula_structural   Li2Fe3F8
_chemical_formula_sum   'Li4 Fe6 F16'
_cell_volume   326.10027847
_cell_formula_units_Z   2
loop_
 _symmetry_equiv_pos_site_id
 _symmetry_equiv_pos_as_xyz
  1  'x, y, z'
loop_
 _atom_site_type_symbol
 _atom_site_label
 _atom_site_symmetry_multiplicity
 _atom_site_fract_x
 _atom_site_fract_y
 _atom_site_fract_z
 _atom_site_occupancy
  Li  Li0  1  0.98552533  0.69223724  0.99897172  1
  Li  Li1  1  0.51225306  0.19271876  0.49897470  1
  Li  Li2  1  0.48775943  0.80729703  0.49900749  1
  Li  Li3  1  0.01455030  0.30778101  0.99900466  1
  Fe  Fe4  1  0.99990272  0.00005764  0.26733995  1
  Fe  Fe5  1  0.99994573  0.00001920  0.73222993  1
  Fe  Fe6  1  0.00004602  0.50001236  0.50471983  1
  Fe  Fe7  1  0.49978235  0.99988892  0.00442352  1
  Fe  Fe8  1  0.50003565  0.49997633  0.23254307  1
  Fe  Fe9  1  0.50007680  0.50001960  0.76743858  1
  F  F10  1  0.15208370  0.11614083  0.00400199  1
  F  F11  1  0.17946069  0.39008491  0.25742444  1
  F  F12  1  0.17013634  0.38509459  0.74307737  1
  F  F13  1  0.16900522  0.12153278  0.49417377  1
  F  F14  1  0.32922401  0.62142696  0.99436723  1
  F  F15  1  0.33173050  0.88521205  0.24314357  1
  F  F16  1  0.32224937  0.89014803  0.75706602  1
  F  F17  1  0.34639856  0.61621186  0.50420330  1
  F  F18  1  0.65370000  0.38380495  0.50427386  1
  F  F19  1  0.66820296  0.11481842  0.24313385  1
  F  F20  1  0.67756970  0.10975690  0.75720372  1
  F  F21  1  0.67085994  0.37857040  0.99436712  1
  F  F22  1  0.83098789  0.87846547  0.49418548  1
  F  F23  1  0.82071841  0.60986086  0.25749119  1
  F  F24  1  0.82992282  0.61496878  0.74315543  1
  F  F25  1  0.84787251  0.88389411  0.00407820  1
