# generated using pymatgen
data_LiFeF3
_symmetry_space_group_name_H-M   'P 1'
_cell_length_a   7.03236122
_cell_length_b   7.03236122
_cell_length_c   5.79063157
_cell_angle_alpha   72.29659961
_cell_angle_beta   107.70340039
_cell_angle_gamma   112.35712187
_symmetry_Int_Tables_number   1
_chemical_formula_structural   LiFeF3
_chemical_formula_sum   'Li4 Fe4 F12'
_cell_volume   246.46484359
_cell_formula_units_Z   4
loop_
 _symmetry_equiv_pos_site_id
 _symmetry_equiv_pos_as_xyz
  1  'x, y, z'
loop_
 _atom_site_type_symbol
 _atom_site_label
 _atom_site_symmetry_multiplicity
 _atom_site_fract_x
 _atom_site_fract_y
 _atom_site_fract_z
 _atom_site_occupancy
  Li  Li0  1  0.06835703  0.06835703  0.75000000  1
  Li  Li1  1  0.69208960  0.69208960  0.75000000  1
  Li  Li2  1  0.93164297  0.93164297  0.25000000  1
  Li  Li3  1  0.30791040  0.30791040  0.25000000  1
  Fe  Fe4  1  0.16735072  0.66062643  0.68732224  1
  Fe  Fe5  1  0.33937357  0.83264928  0.18732224  1
  Fe  Fe6  1  0.66062643  0.16735072  0.81267776  1
  Fe  Fe7  1  0.83264928  0.33937357  0.31267776  1
  F  F8  1  0.93836841  0.79054194  0.61532629  1
  F  F9  1  0.20945906  0.06163159  0.11532629  1
  F  F10  1  0.97253645  0.34554686  0.71545622  1
  F  F11  1  0.41664207  0.68232417  0.56040348  1
  F  F12  1  0.65445314  0.02746355  0.21545622  1
  F  F13  1  0.31767583  0.58335793  0.06040348  1
  F  F14  1  0.68232417  0.41664207  0.93959652  1
  F  F15  1  0.34554686  0.97253645  0.78454378  1
  F  F16  1  0.58335793  0.31767583  0.43959652  1
  F  F17  1  0.02746355  0.65445314  0.28454378  1
  F  F18  1  0.79054194  0.93836841  0.88467371  1
  F  F19  1  0.06163159  0.20945906  0.38467371  1
