# generated using pymatgen
data_BaLi4NiO4
_symmetry_space_group_name_H-M   'P 1'
_cell_length_a   5.73719042
_cell_length_b   15.30625250
_cell_length_c   10.92814676
_cell_angle_alpha   90.00000000
_cell_angle_beta   78.29914091
_cell_angle_gamma   90.00000000
_symmetry_Int_Tables_number   1
_chemical_formula_structural   BaLi4NiO4
_chemical_formula_sum   'Ba8 Li32 Ni8 O32'
_cell_volume   939.71212250
_cell_formula_units_Z   8
loop_
 _symmetry_equiv_pos_site_id
 _symmetry_equiv_pos_as_xyz
  1  'x, y, z'
loop_
 _atom_site_type_symbol
 _atom_site_label
 _atom_site_symmetry_multiplicity
 _atom_site_fract_x
 _atom_site_fract_y
 _atom_site_fract_z
 _atom_site_occupancy
  Ba  Ba0  1  0.11720431  0.70514313  0.26089805  1
  Ba  Ba1  1  0.09841806  0.93942421  0.83062758  1
  Ba  Ba2  1  0.38279569  0.20514313  0.23910195  1
  Ba  Ba3  1  0.40158194  0.43942421  0.66937242  1
  Ba  Ba4  1  0.59841806  0.56057579  0.33062758  1
  Ba  Ba5  1  0.61720431  0.79485687  0.76089805  1
  Ba  Ba6  1  0.90158194  0.06057579  0.16937242  1
  Ba  Ba7  1  0.88279569  0.29485687  0.73910195  1
  Li  Li8  1  0.03182547  0.57100707  0.04447003  1
  Li  Li9  1  0.07201985  0.34121462  0.11804505  1
  Li  Li10  1  0.04562977  0.84152384  0.50928438  1
  Li  Li11  1  0.19821269  0.88699758  0.12718876  1
  Li  Li12  1  0.09076579  0.57381902  0.52715358  1
  Li  Li13  1  0.08608676  0.02876913  0.57463544  1
  Li  Li14  1  0.18435149  0.12832860  0.72469583  1
  Li  Li15  1  0.30178731  0.38699758  0.37281124  1
  Li  Li16  1  0.12304586  0.76286104  0.98186641  1
  Li  Li17  1  0.54562977  0.65847616  0.00928438  1
  Li  Li18  1  0.42798015  0.84121462  0.38195495  1
  Li  Li19  1  0.37695414  0.26286104  0.51813359  1
  Li  Li20  1  0.31564851  0.62832860  0.77530417  1
  Li  Li21  1  0.59076579  0.92618098  0.02715358  1
  Li  Li22  1  0.46817453  0.07100707  0.45552997  1
  Li  Li23  1  0.58608676  0.47123087  0.07463544  1
  Li  Li24  1  0.41391324  0.52876913  0.92536456  1
  Li  Li25  1  0.53182547  0.92899293  0.54447003  1
  Li  Li26  1  0.40923421  0.07381902  0.97284642  1
  Li  Li27  1  0.68435149  0.37167140  0.22469583  1
  Li  Li28  1  0.62304586  0.73713896  0.48186641  1
  Li  Li29  1  0.57201985  0.15878538  0.61804505  1
  Li  Li30  1  0.45437023  0.34152384  0.99071562  1
  Li  Li31  1  0.87695414  0.23713896  0.01813359  1
  Li  Li32  1  0.69821269  0.61300242  0.62718876  1
  Li  Li33  1  0.81564851  0.87167140  0.27530417  1
  Li  Li34  1  0.91391324  0.97123087  0.42536456  1
  Li  Li35  1  0.90923421  0.42618098  0.47284642  1
  Li  Li36  1  0.80178731  0.11300242  0.87281124  1
  Li  Li37  1  0.95437023  0.15847616  0.49071562  1
  Li  Li38  1  0.92798015  0.65878538  0.88195495  1
  Li  Li39  1  0.96817453  0.42899293  0.95552997  1
  Ni  Ni40  1  0.16138059  0.47934542  0.20712992  1
  Ni  Ni41  1  0.17877592  0.72034787  0.62355688  1
  Ni  Ni42  1  0.33861941  0.97934542  0.29287008  1
  Ni  Ni43  1  0.32122408  0.22034787  0.87644312  1
  Ni  Ni44  1  0.67877592  0.77965213  0.12355688  1
  Ni  Ni45  1  0.66138059  0.02065458  0.70712992  1
  Ni  Ni46  1  0.82122408  0.27965213  0.37644312  1
  Ni  Ni47  1  0.83861941  0.52065458  0.79287008  1
  O  O48  1  0.08421932  0.29842947  0.46791005  1
  O  O49  1  0.12685849  0.87328495  0.32353542  1
  O  O50  1  0.16163325  0.50767372  0.37835474  1
  O  O51  1  0.14535697  0.06999536  0.39706847  1
  O  O52  1  0.35464303  0.56999536  0.10293153  1
  O  O53  1  0.12072984  0.53688308  0.86640675  1
  O  O54  1  0.14458933  0.74903807  0.80480753  1
  O  O55  1  0.33836675  0.00767372  0.12164526  1
  O  O56  1  0.11503268  0.11302597  0.91519706  1
  O  O57  1  0.37314151  0.37328495  0.17646458  1
  O  O58  1  0.41578068  0.79842947  0.03208995  1
  O  O59  1  0.12230247  0.32100238  0.93973940  1
  O  O60  1  0.37769753  0.82100238  0.56026060  1
  O  O61  1  0.38496732  0.61302597  0.58480294  1
  O  O62  1  0.35541067  0.24903807  0.69519247  1
  O  O63  1  0.37927016  0.03688308  0.63359325  1
  O  O64  1  0.62072984  0.96311692  0.36640675  1
  O  O65  1  0.64458933  0.75096193  0.30480753  1
  O  O66  1  0.61503268  0.38697403  0.41519706  1
  O  O67  1  0.62230247  0.17899762  0.43973940  1
  O  O68  1  0.87769753  0.67899762  0.06026060  1
  O  O69  1  0.58421932  0.20157053  0.96791005  1
  O  O70  1  0.62685849  0.62671505  0.82353542  1
  O  O71  1  0.88496732  0.88697403  0.08480294  1
  O  O72  1  0.66163325  0.99232628  0.87835474  1
  O  O73  1  0.85541067  0.25096193  0.19519247  1
  O  O74  1  0.87927016  0.46311692  0.13359325  1
  O  O75  1  0.64535697  0.43000464  0.89706847  1
  O  O76  1  0.85464303  0.93000464  0.60293153  1
  O  O77  1  0.83836675  0.49232628  0.62164526  1
  O  O78  1  0.87314151  0.12671505  0.67646458  1
  O  O79  1  0.91578068  0.70157053  0.53208995  1
