# generated using pymatgen
data_NbFe3Cu2(PO4)6
_symmetry_space_group_name_H-M   'P 1'
_cell_length_a   8.65130351
_cell_length_b   8.65130341
_cell_length_c   8.65130391
_cell_angle_alpha   60.19655823
_cell_angle_beta   60.19655833
_cell_angle_gamma   60.19655494
_symmetry_Int_Tables_number   1
_chemical_formula_structural   NbFe3Cu2(PO4)6
_chemical_formula_sum   'Nb1 Fe3 Cu2 P6 O24'
_cell_volume   459.89466289
_cell_formula_units_Z   1
loop_
 _symmetry_equiv_pos_site_id
 _symmetry_equiv_pos_as_xyz
  1  'x, y, z'
loop_
 _atom_site_type_symbol
 _atom_site_label
 _atom_site_symmetry_multiplicity
 _atom_site_fract_x
 _atom_site_fract_y
 _atom_site_fract_z
 _atom_site_occupancy
  Nb  Nb0  1  0.85813472  0.85813472  0.85813472  1
  Fe  Fe1  1  0.14547233  0.14547233  0.14547233  1
  Fe  Fe2  1  0.35594773  0.35594773  0.35594773  1
  Fe  Fe3  1  0.64473274  0.64473274  0.64473274  1
  Cu  Cu4  1  0.00606614  0.00606614  0.00606614  1
  Cu  Cu5  1  0.50047174  0.50047174  0.50047174  1
  P  P6  1  0.04555438  0.74770810  0.45116874  1
  P  P7  1  0.45116874  0.04555438  0.74770810  1
  P  P8  1  0.74770810  0.45116874  0.04555438  1
  P  P9  1  0.25719514  0.53623234  0.95674709  1
  P  P10  1  0.53623234  0.95674709  0.25719514  1
  P  P11  1  0.95674709  0.25719514  0.53623234  1
  O  O12  1  0.11594851  0.30939147  0.50564465  1
  O  O13  1  0.30939147  0.50564465  0.11594851  1
  O  O14  1  0.05938429  0.91446449  0.26255421  1
  O  O15  1  0.50564465  0.11594851  0.30939147  1
  O  O16  1  0.99731991  0.80981347  0.61768987  1
  O  O17  1  0.23721127  0.58607087  0.44581571  1
  O  O18  1  0.26255421  0.05938429  0.91446449  1
  O  O19  1  0.44581571  0.23721127  0.58607087  1
  O  O20  1  0.19172492  0.38312145  0.99425784  1
  O  O21  1  0.58607087  0.44581571  0.23721127  1
  O  O22  1  0.08904913  0.73294408  0.93871914  1
  O  O23  1  0.38312145  0.99425784  0.19172492  1
  O  O24  1  0.61768987  0.99731991  0.80981347  1
  O  O25  1  0.91446449  0.26255421  0.05938429  1
  O  O26  1  0.41585504  0.55672717  0.76167793  1
  O  O27  1  0.80981347  0.61768987  0.99731991  1
  O  O28  1  0.55672717  0.76167793  0.41585504  1
  O  O29  1  0.73294408  0.93871914  0.08904913  1
  O  O30  1  0.76167793  0.41585504  0.55672717  1
  O  O31  1  0.99425784  0.19172492  0.38312145  1
  O  O32  1  0.49393119  0.88446487  0.69078933  1
  O  O33  1  0.93871914  0.08904913  0.73294408  1
  O  O34  1  0.69078933  0.49393119  0.88446487  1
  O  O35  1  0.88446487  0.69078933  0.49393119  1
