# generated using pymatgen
data_Mn2OF3
_symmetry_space_group_name_H-M   'P 1'
_cell_length_a   4.87083451
_cell_length_b   10.27272429
_cell_length_c   6.32172596
_cell_angle_alpha   72.07964186
_cell_angle_beta   90.00000000
_cell_angle_gamma   87.78170518
_symmetry_Int_Tables_number   1
_chemical_formula_structural   Mn2OF3
_chemical_formula_sum   'Mn8 O4 F12'
_cell_volume   300.72326277
_cell_formula_units_Z   4
loop_
 _symmetry_equiv_pos_site_id
 _symmetry_equiv_pos_as_xyz
  1  'x, y, z'
loop_
 _atom_site_type_symbol
 _atom_site_label
 _atom_site_symmetry_multiplicity
 _atom_site_fract_x
 _atom_site_fract_y
 _atom_site_fract_z
 _atom_site_occupancy
  Mn  Mn0  1  0.50037567  0.25059295  0.62050489  1
  Mn  Mn1  1  0.50037567  0.25059295  0.12890216  1
  Mn  Mn2  1  0.49962433  0.74940705  0.37949511  1
  Mn  Mn3  1  0.49962433  0.74940705  0.87109784  1
  Mn  Mn4  1  0.00000000  0.00000000  0.50000000  1
  Mn  Mn5  1  0.03508164  0.48217723  0.75891188  1
  Mn  Mn6  1  0.00000000  0.00000000  0.00000000  1
  Mn  Mn7  1  0.96491836  0.51782277  0.24108812  1
  O  O8  1  0.67412899  0.16448278  0.41775861  1
  O  O9  1  0.66930128  0.66657022  0.16671539  1
  O  O10  1  0.33069872  0.33342978  0.83328461  1
  O  O11  1  0.32587101  0.83551722  0.58224139  1
  F  F12  1  0.79684622  0.39898566  0.55003652  1
  F  F13  1  0.79684622  0.39898566  0.05097782  1
  F  F14  1  0.79656629  0.89841295  0.79979109  1
  F  F15  1  0.79656629  0.89841295  0.30179596  1
  F  F16  1  0.69914340  0.14920803  0.92539598  1
  F  F17  1  0.71372375  0.64156864  0.67921568  1
  F  F18  1  0.30085660  0.85079197  0.07460402  1
  F  F19  1  0.28627625  0.35843136  0.32078432  1
  F  F20  1  0.20315378  0.60101434  0.94902218  1
  F  F21  1  0.20343371  0.10158705  0.20020891  1
  F  F22  1  0.20315378  0.60101434  0.44996348  1
  F  F23  1  0.20343371  0.10158705  0.69820404  1
