# generated using pymatgen
data_Mn2O3F
_symmetry_space_group_name_H-M   'P 1'
_cell_length_a   8.74623773
_cell_length_b   5.49565348
_cell_length_c   5.49565348
_cell_angle_alpha   74.86922034
_cell_angle_beta   87.77982217
_cell_angle_gamma   87.77982217
_symmetry_Int_Tables_number   1
_chemical_formula_structural   Mn2O3F
_chemical_formula_sum   'Mn8 O12 F4'
_cell_volume   254.69442033
_cell_formula_units_Z   4
loop_
 _symmetry_equiv_pos_site_id
 _symmetry_equiv_pos_as_xyz
  1  'x, y, z'
loop_
 _atom_site_type_symbol
 _atom_site_label
 _atom_site_symmetry_multiplicity
 _atom_site_fract_x
 _atom_site_fract_y
 _atom_site_fract_z
 _atom_site_occupancy
  Mn  Mn0  1  0.87554507  0.62670881  0.62341617  1
  Mn  Mn1  1  0.62586834  0.85734622  0.89186109  1
  Mn  Mn2  1  0.74927746  0.26969013  0.23105619  1
  Mn  Mn3  1  0.50000000  0.51464246  0.48535754  1
  Mn  Mn4  1  0.25072254  0.76894381  0.73030987  1
  Mn  Mn5  1  0.37413166  0.10813991  0.14265378  1
  Mn  Mn6  1  0.12445493  0.37658383  0.37329119  1
  Mn  Mn7  1  0.00000000  0.97246420  0.02753580  1
  O  O8  1  0.75002824  0.55796067  0.93910858  1
  O  O9  1  0.47413028  0.72800919  0.71708607  1
  O  O10  1  0.72061839  0.47418420  0.46900487  1
  O  O11  1  0.97030843  0.21822772  0.22607219  1
  O  O12  1  0.22192529  0.97274844  0.97352433  1
  O  O13  1  0.77807471  0.02647567  0.02725156  1
  O  O14  1  0.27938161  0.53099513  0.52581580  1
  O  O15  1  0.52586972  0.28291393  0.27199081  1
  O  O16  1  0.02969157  0.77392781  0.78177228  1
  O  O17  1  0.50000000  0.80183808  0.19816192  1
  O  O18  1  0.24997176  0.06089142  0.44203933  1
  O  O19  1  0.00000000  0.68734265  0.31265735  1
  F  F20  1  0.74398477  0.96592717  0.54604798  1
  F  F21  1  0.50000000  0.18982399  0.81017601  1
  F  F22  1  0.00000000  0.28026454  0.71973546  1
  F  F23  1  0.25601523  0.45395202  0.03407283  1
