# generated using pymatgen
data_Li3V3(CoO6)2
_symmetry_space_group_name_H-M   'P 1'
_cell_length_a   8.79547010
_cell_length_b   12.40547307
_cell_length_c   9.18682658
_cell_angle_alpha   90.00000000
_cell_angle_beta   90.00000000
_cell_angle_gamma   92.09354004
_symmetry_Int_Tables_number   1
_chemical_formula_structural   Li3V3(CoO6)2
_chemical_formula_sum   'Li12 V12 Co8 O48'
_cell_volume   1001.72364547
_cell_formula_units_Z   4
loop_
 _symmetry_equiv_pos_site_id
 _symmetry_equiv_pos_as_xyz
  1  'x, y, z'
loop_
 _atom_site_type_symbol
 _atom_site_label
 _atom_site_symmetry_multiplicity
 _atom_site_fract_x
 _atom_site_fract_y
 _atom_site_fract_z
 _atom_site_occupancy
  Li  Li0  1  0.07058769  0.69867743  0.08821627  1
  Li  Li1  1  0.06158746  0.34472523  0.50602247  1
  Li  Li2  1  0.18092777  0.17932511  0.77625062  1
  Li  Li3  1  0.31907223  0.32067489  0.27625062  1
  Li  Li4  1  0.42941231  0.80132257  0.58821627  1
  Li  Li5  1  0.43841254  0.15527477  0.00602247  1
  Li  Li6  1  0.56158746  0.84472523  0.99397753  1
  Li  Li7  1  0.57058769  0.19867743  0.41178373  1
  Li  Li8  1  0.68092777  0.67932511  0.72374938  1
  Li  Li9  1  0.81907223  0.82067489  0.22374938  1
  Li  Li10  1  0.93841254  0.65527477  0.49397753  1
  Li  Li11  1  0.92941231  0.30132257  0.91178373  1
  V  V12  1  0.03935763  0.49101172  0.24691003  1
  V  V13  1  0.11736640  0.85257765  0.37962762  1
  V  V14  1  0.11317721  0.14350736  0.11576873  1
  V  V15  1  0.38263360  0.64742235  0.87962762  1
  V  V16  1  0.38682279  0.35649264  0.61576873  1
  V  V17  1  0.46064237  0.00898828  0.74691003  1
  V  V18  1  0.53935763  0.99101172  0.25308997  1
  V  V19  1  0.61317721  0.64350736  0.38423127  1
  V  V20  1  0.61736640  0.35257765  0.12037238  1
  V  V21  1  0.88682279  0.85649264  0.88423127  1
  V  V22  1  0.88263360  0.14742235  0.62037238  1
  V  V23  1  0.96064237  0.50898828  0.75308997  1
  Co  Co24  1  0.24669615  0.89464232  0.02154638  1
  Co  Co25  1  0.25330385  0.60535768  0.52154638  1
  Co  Co26  1  0.25420065  0.38476923  0.97011005  1
  Co  Co27  1  0.24579935  0.11523077  0.47011005  1
  Co  Co28  1  0.75420065  0.88476923  0.52988995  1
  Co  Co29  1  0.74579935  0.61523077  0.02988995  1
  Co  Co30  1  0.74669615  0.39464232  0.47845362  1
  Co  Co31  1  0.75330385  0.10535768  0.97845362  1
  O  O32  1  0.05964538  0.43903745  0.88173330  1
  O  O33  1  0.07076855  0.90615997  0.89055271  1
  O  O34  1  0.06573826  0.60746043  0.66085194  1
  O  O35  1  0.06970081  0.19266355  0.57819722  1
  O  O36  1  0.10246620  0.59214104  0.37124651  1
  O  O37  1  0.12720989  0.84014266  0.18809593  1
  O  O38  1  0.14231541  0.98797567  0.42269642  1
  O  O39  1  0.12807692  0.24840170  0.98511302  1
  O  O40  1  0.17297999  0.19132748  0.28446955  1
  O  O41  1  0.19631040  0.42941281  0.17140304  1
  O  O42  1  0.24548950  0.77682501  0.47201454  1
  O  O43  1  0.25451050  0.72317499  0.97201454  1
  O  O44  1  0.24747355  0.05268079  0.05416863  1
  O  O45  1  0.25252645  0.44731921  0.55416863  1
  O  O46  1  0.30368960  0.07058719  0.67140304  1
  O  O47  1  0.32702001  0.30867252  0.78446955  1
  O  O48  1  0.35768459  0.51202433  0.92269642  1
  O  O49  1  0.37192308  0.25159830  0.48511302  1
  O  O50  1  0.37279011  0.65985734  0.68809593  1
  O  O51  1  0.39753380  0.90785896  0.87124651  1
  O  O52  1  0.43426174  0.89253957  0.16085194  1
  O  O53  1  0.42923145  0.59384003  0.39055271  1
  O  O54  1  0.43029919  0.30733645  0.07819722  1
  O  O55  1  0.44035462  0.06096255  0.38173330  1
  O  O56  1  0.55964538  0.93903745  0.61826670  1
  O  O57  1  0.56970081  0.69266355  0.92180278  1
  O  O58  1  0.57076855  0.40615997  0.60944729  1
  O  O59  1  0.56573826  0.10746043  0.83914806  1
  O  O60  1  0.60246620  0.09214104  0.12875349  1
  O  O61  1  0.62720989  0.34014266  0.31190407  1
  O  O62  1  0.62807692  0.74840170  0.51488698  1
  O  O63  1  0.64231541  0.48797567  0.07730358  1
  O  O64  1  0.67297999  0.69132748  0.21553045  1
  O  O65  1  0.69631040  0.92941281  0.32859696  1
  O  O66  1  0.74747355  0.55268079  0.44583137  1
  O  O67  1  0.75252645  0.94731921  0.94583137  1
  O  O68  1  0.74548950  0.27682501  0.02798546  1
  O  O69  1  0.75451050  0.22317499  0.52798546  1
  O  O70  1  0.80368960  0.57058719  0.82859696  1
  O  O71  1  0.82702001  0.80867252  0.71553045  1
  O  O72  1  0.87192308  0.75159830  0.01488698  1
  O  O73  1  0.85768459  0.01202433  0.57730358  1
  O  O74  1  0.87279011  0.15985734  0.81190407  1
  O  O75  1  0.89753380  0.40785896  0.62875349  1
  O  O76  1  0.93029919  0.80733645  0.42180278  1
  O  O77  1  0.93426174  0.39253957  0.33914806  1
  O  O78  1  0.92923145  0.09384003  0.10944729  1
  O  O79  1  0.94035462  0.56096255  0.11826670  1
