# generated using pymatgen
data_SmTmO3
_symmetry_space_group_name_H-M   'P 1'
_cell_length_a   5.99296506
_cell_length_b   8.40330305
_cell_length_c   5.73125464
_cell_angle_alpha   90.00000000
_cell_angle_beta   90.00000000
_cell_angle_gamma   90.00000000
_symmetry_Int_Tables_number   1
_chemical_formula_structural   SmTmO3
_chemical_formula_sum   'Sm4 Tm4 O12'
_cell_volume   288.63000453
_cell_formula_units_Z   4
loop_
 _symmetry_equiv_pos_site_id
 _symmetry_equiv_pos_as_xyz
  1  'x, y, z'
loop_
 _atom_site_type_symbol
 _atom_site_label
 _atom_site_symmetry_multiplicity
 _atom_site_fract_x
 _atom_site_fract_y
 _atom_site_fract_z
 _atom_site_occupancy
  Sm  Sm0  1  0.05266445  0.25000000  0.98315436  1
  Sm  Sm1  1  0.44733555  0.75000000  0.48315436  1
  Sm  Sm2  1  0.55266445  0.25000000  0.51684564  1
  Sm  Sm3  1  0.94733555  0.75000000  0.01684564  1
  Tm  Tm4  1  0.00000000  0.00000000  0.50000000  1
  Tm  Tm5  1  0.00000000  0.50000000  0.50000000  1
  Tm  Tm6  1  0.50000000  0.00000000  0.00000000  1
  Tm  Tm7  1  0.50000000  0.50000000  0.00000000  1
  O  O8  1  0.06695736  0.75000000  0.63526744  1
  O  O9  1  0.19026762  0.57191861  0.18722506  1
  O  O10  1  0.19026762  0.92808139  0.18722506  1
  O  O11  1  0.30973238  0.42808139  0.68722506  1
  O  O12  1  0.30973238  0.07191861  0.68722506  1
  O  O13  1  0.43304264  0.25000000  0.13526744  1
  O  O14  1  0.56695736  0.75000000  0.86473256  1
  O  O15  1  0.69026762  0.92808139  0.31277494  1
  O  O16  1  0.69026762  0.57191861  0.31277494  1
  O  O17  1  0.80973238  0.07191861  0.81277494  1
  O  O18  1  0.80973238  0.42808139  0.81277494  1
  O  O19  1  0.93304264  0.25000000  0.36473256  1
