# generated using pymatgen
data_CsCu4S3
_symmetry_space_group_name_H-M   'P 1'
_cell_length_a   3.96938198
_cell_length_b   3.96938198
_cell_length_c   9.68938671
_cell_angle_alpha   90.00000000
_cell_angle_beta   90.00000000
_cell_angle_gamma   90.00000000
_symmetry_Int_Tables_number   1
_chemical_formula_structural   CsCu4S3
_chemical_formula_sum   'Cs1 Cu4 S3'
_cell_volume   152.66591211
_cell_formula_units_Z   1
loop_
 _symmetry_equiv_pos_site_id
 _symmetry_equiv_pos_as_xyz
  1  'x, y, z'
loop_
 _atom_site_type_symbol
 _atom_site_label
 _atom_site_symmetry_multiplicity
 _atom_site_fract_x
 _atom_site_fract_y
 _atom_site_fract_z
 _atom_site_occupancy
  S  S0  1  0.50000000  0.50000000  0.72895278  1
  S  S1  1  0.50000000  0.50000000  0.27104722  1
  S  S2  1  0.00000000  0.00000000  0.00000000  1
  Cu  Cu3  1  0.50000000  0.00000000  0.14930345  1
  Cu  Cu4  1  0.50000000  0.00000000  0.85069655  1
  Cu  Cu5  1  0.00000000  0.50000000  0.85069655  1
  Cu  Cu6  1  0.00000000  0.50000000  0.14930345  1
  Cs  Cs7  1  0.00000000  0.00000000  0.50000000  1
