# generated using pymatgen
data_LiMnF3
_symmetry_space_group_name_H-M   'P 1'
_cell_length_a   11.20508284
_cell_length_b   7.32303118
_cell_length_c   5.37667139
_cell_angle_alpha   90.00000000
_cell_angle_beta   90.00000000
_cell_angle_gamma   90.00000000
_symmetry_Int_Tables_number   1
_chemical_formula_structural   LiMnF3
_chemical_formula_sum   'Li8 Mn8 F24'
_cell_volume   441.18369038
_cell_formula_units_Z   8
loop_
 _symmetry_equiv_pos_site_id
 _symmetry_equiv_pos_as_xyz
  1  'x, y, z'
loop_
 _atom_site_type_symbol
 _atom_site_label
 _atom_site_symmetry_multiplicity
 _atom_site_fract_x
 _atom_site_fract_y
 _atom_site_fract_z
 _atom_site_occupancy
  Li  Li0  1  0.11732638  0.50718287  0.13591346  1
  Li  Li1  1  0.11732638  0.99281713  0.13591346  1
  Li  Li2  1  0.38267362  0.00718287  0.63591346  1
  Li  Li3  1  0.38267362  0.49281713  0.63591346  1
  Li  Li4  1  0.61732638  0.50718287  0.36408654  1
  Li  Li5  1  0.61732638  0.99281713  0.36408654  1
  Li  Li6  1  0.88267362  0.00718287  0.86408654  1
  Li  Li7  1  0.88267362  0.49281713  0.86408654  1
  Mn  Mn8  1  0.17349229  0.75000000  0.67198304  1
  Mn  Mn9  1  0.10026564  0.25000000  0.64709677  1
  Mn  Mn10  1  0.39973436  0.75000000  0.14709677  1
  Mn  Mn11  1  0.32650771  0.25000000  0.17198304  1
  Mn  Mn12  1  0.67349229  0.75000000  0.82801696  1
  Mn  Mn13  1  0.60026564  0.25000000  0.85290323  1
  Mn  Mn14  1  0.89973436  0.75000000  0.35290323  1
  Mn  Mn15  1  0.82650771  0.25000000  0.32801696  1
  F  F16  1  0.04966832  0.54413664  0.77052316  1
  F  F17  1  0.04966832  0.95586336  0.77052316  1
  F  F18  1  0.09038882  0.75000000  0.30234077  1
  F  F19  1  0.15215806  0.25000000  0.02090049  1
  F  F20  1  0.22013423  0.42748562  0.44706713  1
  F  F21  1  0.22013423  0.07251438  0.44706713  1
  F  F22  1  0.27986577  0.92748562  0.94706713  1
  F  F23  1  0.27986577  0.57251438  0.94706713  1
  F  F24  1  0.34784194  0.75000000  0.52090049  1
  F  F25  1  0.40961118  0.25000000  0.80234077  1
  F  F26  1  0.45033168  0.04413664  0.27052316  1
  F  F27  1  0.45033168  0.45586336  0.27052316  1
  F  F28  1  0.54966832  0.54413664  0.72947684  1
  F  F29  1  0.54966832  0.95586336  0.72947684  1
  F  F30  1  0.59038882  0.75000000  0.19765923  1
  F  F31  1  0.65215806  0.25000000  0.47909951  1
  F  F32  1  0.72013423  0.07251438  0.05293287  1
  F  F33  1  0.72013423  0.42748562  0.05293287  1
  F  F34  1  0.77986577  0.57251438  0.55293287  1
  F  F35  1  0.77986577  0.92748562  0.55293287  1
  F  F36  1  0.84784194  0.75000000  0.97909951  1
  F  F37  1  0.90961118  0.25000000  0.69765923  1
  F  F38  1  0.95033168  0.04413664  0.22947684  1
  F  F39  1  0.95033168  0.45586336  0.22947684  1
