# generated using pymatgen
data_Ga3NO3
_symmetry_space_group_name_H-M   'P 1'
_cell_length_a   8.41894608
_cell_length_b   8.45466326
_cell_length_c   6.14117737
_cell_angle_alpha   90.15265355
_cell_angle_beta   90.53816370
_cell_angle_gamma   120.56015498
_symmetry_Int_Tables_number   1
_chemical_formula_structural   Ga3NO3
_chemical_formula_sum   'Ga12 N4 O12'
_cell_volume   376.37588966
_cell_formula_units_Z   4
loop_
 _symmetry_equiv_pos_site_id
 _symmetry_equiv_pos_as_xyz
  1  'x, y, z'
loop_
 _atom_site_type_symbol
 _atom_site_label
 _atom_site_symmetry_multiplicity
 _atom_site_fract_x
 _atom_site_fract_y
 _atom_site_fract_z
 _atom_site_occupancy
  Ga  Ga0  1  0.16481081  0.90690541  0.45583525  1
  Ga  Ga1  1  0.07115664  0.56669405  0.14845086  1
  Ga  Ga2  1  0.08918180  0.26077312  0.46588399  1
  Ga  Ga3  1  0.49318353  0.92086384  0.15111875  1
  Ga  Ga4  1  0.42238160  0.50251279  0.14938317  1
  Ga  Ga5  1  0.25664281  0.08966900  0.95614470  1
  Ga  Ga6  1  0.50865849  0.42492946  0.66420938  1
  Ga  Ga7  1  0.74337484  0.83828050  0.45947087  1
  Ga  Ga8  1  0.83191291  0.74316972  0.95990458  1
  Ga  Ga9  1  0.58330523  0.09122490  0.67036429  1
  Ga  Ga10  1  0.92322438  0.48813061  0.66806235  1
  Ga  Ga11  1  0.91408726  0.16980518  0.94688986  1
  N  N12  1  0.39135946  0.34219734  0.92810904  1
  N  N13  1  0.65577722  0.03543603  0.93058329  1
  N  N14  1  0.95975397  0.62196586  0.92535734  1
  N  N15  1  -0.00025319  0.31828734  0.70136163  1
  O  O16  1  0.03810687  0.65253743  0.42607875  1
  O  O17  1  0.30963408  0.98791875  0.20326252  1
  O  O18  1  0.01551910  0.32112425  0.20136053  1
  O  O19  1  0.00140090  0.99838455  0.45162018  1
  O  O20  1  0.00032686  0.99861422  0.96456332  1
  O  O21  1  0.32991328  0.66429294  0.13329411  1
  O  O22  1  0.60632225  0.95559067  0.43375580  1
  O  O23  1  0.34861971  0.38494695  0.42445320  1
  O  O24  1  0.32019336  0.00355001  0.69674689  1
  O  O25  1  0.67608977  0.69278092  0.20412951  1
  O  O26  1  0.68121634  0.68410469  0.69745212  1
  O  O27  1  0.66409971  0.33530946  0.57880472  1
