# generated using pymatgen
data_In5SnSb3Te
_symmetry_space_group_name_H-M   'P 1'
_cell_length_a   6.68074934
_cell_length_b   8.16248880
_cell_length_c   8.17523845
_cell_angle_alpha   99.75584071
_cell_angle_beta   114.08521467
_cell_angle_gamma   65.85099282
_symmetry_Int_Tables_number   1
_chemical_formula_structural   In5SnSb3Te
_chemical_formula_sum   'In5 Sn1 Sb3 Te1'
_cell_volume   371.37597139
_cell_formula_units_Z   1
loop_
 _symmetry_equiv_pos_site_id
 _symmetry_equiv_pos_as_xyz
  1  'x, y, z'
loop_
 _atom_site_type_symbol
 _atom_site_label
 _atom_site_symmetry_multiplicity
 _atom_site_fract_x
 _atom_site_fract_y
 _atom_site_fract_z
 _atom_site_occupancy
  In  In0  1  0.00260648  0.99632964  0.99813573  1
  In  In1  1  0.59566551  0.19071704  0.39621647  1
  In  In2  1  0.21314864  0.40114387  0.81025069  1
  In  In3  1  0.79432514  0.60555094  0.18734320  1
  In  In4  1  0.39075425  0.80688477  0.60803958  1
  Sn  Sn5  1  0.34749586  0.70155007  0.90061123  1
  Sb  Sb6  1  0.95488818  0.90044132  0.29953967  1
  Sb  Sb7  1  0.55163827  0.10050661  0.70059317  1
  Sb  Sb8  1  0.14758771  0.29869665  0.10011788  1
  Te  Te9  1  0.75188998  0.49817911  0.49915238  1
