# generated using pymatgen
data_Mn6O5F7
_symmetry_space_group_name_H-M   'P 1'
_cell_length_a   5.73924500
_cell_length_b   5.17856648
_cell_length_c   14.42501125
_cell_angle_alpha   92.60550202
_cell_angle_beta   88.90916874
_cell_angle_gamma   90.06663471
_symmetry_Int_Tables_number   1
_chemical_formula_structural   Mn6O5F7
_chemical_formula_sum   'Mn12 O10 F14'
_cell_volume   428.20580100
_cell_formula_units_Z   2
loop_
 _symmetry_equiv_pos_site_id
 _symmetry_equiv_pos_as_xyz
  1  'x, y, z'
loop_
 _atom_site_type_symbol
 _atom_site_label
 _atom_site_symmetry_multiplicity
 _atom_site_fract_x
 _atom_site_fract_y
 _atom_site_fract_z
 _atom_site_occupancy
  Mn  Mn0  1  0.12526422  0.96797668  0.00921252  1
  Mn  Mn1  1  0.84869951  0.49133777  0.16852808  1
  Mn  Mn2  1  0.11454585  0.00697560  0.33032350  1
  Mn  Mn3  1  0.89404153  0.51056245  0.50365611  1
  Mn  Mn4  1  0.14548600  0.01220708  0.66650497  1
  Mn  Mn5  1  0.96167642  0.51086034  0.82696274  1
  Mn  Mn6  1  0.55795501  0.99117181  0.16745479  1
  Mn  Mn7  1  0.41935428  0.47425158  0.00816161  1
  Mn  Mn8  1  0.42492051  0.52614688  0.66111736  1
  Mn  Mn9  1  0.54920980  0.03899422  0.49686422  1
  Mn  Mn10  1  0.39602351  0.50067128  0.32500627  1
  Mn  Mn11  1  0.48942139  0.97956048  0.83163193  1
  O  O12  1  0.20384073  0.73412066  0.74462869  1
  O  O13  1  0.36510661  0.16015733  0.07703342  1
  O  O14  1  0.35587389  0.81833153  0.26022004  1
  O  O15  1  0.37266498  0.84294569  0.58782356  1
  O  O16  1  0.36254706  0.78025717  0.94183420  1
  O  O17  1  0.34865077  0.19714836  0.39681715  1
  O  O18  1  0.36522764  0.21498592  0.73028005  1
  O  O19  1  0.61424829  0.34886235  0.56657564  1
  O  O20  1  0.61142498  0.31807192  0.23769656  1
  O  O21  1  0.61931753  0.66562975  0.09885798  1
  F  F22  1  0.08950064  0.34330096  0.24931998  1
  F  F23  1  0.10430648  0.63194425  0.09156103  1
  F  F24  1  0.16644934  0.29907629  0.92281295  1
  F  F25  1  0.12384218  0.31486206  0.58690758  1
  F  F26  1  0.13546830  0.66433572  0.40996550  1
  F  F27  1  0.63834345  0.30329283  0.90346164  1
  F  F28  1  0.62384830  0.70307552  0.42475721  1
  F  F29  1  0.67716235  0.67941709  0.75826306  1
  F  F30  1  0.86481931  0.15889367  0.41834724  1
  F  F31  1  0.86994543  0.13934879  0.08563975  1
  F  F32  1  0.90605576  0.16756204  0.74566485  1
  F  F33  1  0.89737562  0.84672196  0.58778737  1
  F  F34  1  0.89538815  0.80977114  0.92666943  1
  F  F35  1  0.86199517  0.84717082  0.25165202  1
