# generated using pymatgen
data_Li2MnF4
_symmetry_space_group_name_H-M   'P 1'
_cell_length_a   6.09116001
_cell_length_b   6.09116001
_cell_length_c   6.09116001
_cell_angle_alpha   60.00000000
_cell_angle_beta   90.00000000
_cell_angle_gamma   120.00000000
_symmetry_Int_Tables_number   1
_chemical_formula_structural   Li2MnF4
_chemical_formula_sum   'Li4 Mn2 F8'
_cell_volume   159.80303651
_cell_formula_units_Z   2
loop_
 _symmetry_equiv_pos_site_id
 _symmetry_equiv_pos_as_xyz
  1  'x, y, z'
loop_
 _atom_site_type_symbol
 _atom_site_label
 _atom_site_symmetry_multiplicity
 _atom_site_fract_x
 _atom_site_fract_y
 _atom_site_fract_z
 _atom_site_occupancy
  Li  Li0  1  0.50000000  0.00000000  0.00000000  1
  Li  Li1  1  0.50000000  0.00000000  0.50000000  1
  Li  Li2  1  0.50000000  0.50000000  0.50000000  1
  Li  Li3  1  0.00000000  0.50000000  0.50000000  1
  Mn  Mn4  1  0.12500000  0.25000000  0.12500000  1
  Mn  Mn5  1  0.87500000  0.75000000  0.87500000  1
  F  F6  1  0.73955346  0.47910693  0.28133961  1
  F  F7  1  0.73955346  0.02089307  0.73955346  1
  F  F8  1  0.73955346  0.47910693  0.73955346  1
  F  F9  1  0.28133961  0.02089307  0.73955346  1
  F  F10  1  0.71866039  0.97910693  0.26044654  1
  F  F11  1  0.26044654  0.52089307  0.26044654  1
  F  F12  1  0.26044654  0.97910693  0.26044654  1
  F  F13  1  0.26044654  0.52089307  0.71866039  1
