# generated using pymatgen
data_LiFeF4
_symmetry_space_group_name_H-M   'P 1'
_cell_length_a   6.55190248
_cell_length_b   6.09077604
_cell_length_c   10.08813959
_cell_angle_alpha   89.85606091
_cell_angle_beta   143.37171850
_cell_angle_gamma   62.53224392
_symmetry_Int_Tables_number   1
_chemical_formula_structural   LiFeF4
_chemical_formula_sum   'Li2 Fe2 F8'
_cell_volume   151.35020691
_cell_formula_units_Z   2
loop_
 _symmetry_equiv_pos_site_id
 _symmetry_equiv_pos_as_xyz
  1  'x, y, z'
loop_
 _atom_site_type_symbol
 _atom_site_label
 _atom_site_symmetry_multiplicity
 _atom_site_fract_x
 _atom_site_fract_y
 _atom_site_fract_z
 _atom_site_occupancy
  Li  Li0  1  0.00673811  0.49985404  0.50396923  1
  Li  Li1  1  0.99806066  0.50050434  0.00054464  1
  Fe  Fe2  1  0.99852605  0.09048337  0.74935024  1
  Fe  Fe3  1  0.00095811  0.92091207  0.24990808  1
  F  F4  1  0.37577723  0.16737336  0.04214037  1
  F  F5  1  0.37825595  0.72186763  0.06532758  1
  F  F6  1  0.37349830  0.46810722  0.54120238  1
  F  F7  1  0.38353308  0.90683661  0.56794641  1
  F  F8  1  0.63114208  0.29061250  0.94018393  1
  F  F9  1  0.61948529  0.84985113  0.95366795  1
  F  F10  1  0.62376217  0.09536601  0.43681101  1
  F  F11  1  0.62325496  0.54147072  0.45619220  1
