# generated using pymatgen
data_LiV4O5F7
_symmetry_space_group_name_H-M   'P 1'
_cell_length_a   5.37839245
_cell_length_b   9.05466967
_cell_length_c   9.14750042
_cell_angle_alpha   110.88822928
_cell_angle_beta   91.86391626
_cell_angle_gamma   87.46474074
_symmetry_Int_Tables_number   1
_chemical_formula_structural   LiV4O5F7
_chemical_formula_sum   'Li2 V8 O10 F14'
_cell_volume   415.72702821
_cell_formula_units_Z   2
loop_
 _symmetry_equiv_pos_site_id
 _symmetry_equiv_pos_as_xyz
  1  'x, y, z'
loop_
 _atom_site_type_symbol
 _atom_site_label
 _atom_site_symmetry_multiplicity
 _atom_site_fract_x
 _atom_site_fract_y
 _atom_site_fract_z
 _atom_site_occupancy
  Li  Li0  1  0.93685080  0.86426568  0.62619728  1
  Li  Li1  1  0.54593878  0.88680937  0.10503959  1
  V  V2  1  0.97520023  0.01943225  0.99935410  1
  V  V3  1  0.99356158  0.24462630  0.76792616  1
  V  V4  1  0.46932306  0.01747754  0.49805800  1
  V  V5  1  0.49848729  0.73174188  0.72638942  1
  V  V6  1  0.03261271  0.50388803  0.50828668  1
  V  V7  1  0.49368505  0.24634640  0.26853456  1
  V  V8  1  0.00749432  0.73140714  0.22669798  1
  V  V9  1  0.53289439  0.50518816  0.00822177  1
  O  O10  1  0.79308338  0.37436830  0.91706735  1
  O  O11  1  0.00414216  0.06732056  0.81328114  1
  O  O12  1  0.21686122  0.12416715  0.58159047  1
  O  O13  1  0.70205365  0.63022412  0.58872021  1
  O  O14  1  0.50244990  0.07045373  0.31321270  1
  O  O15  1  0.18055116  0.68219570  0.62541008  1
  O  O16  1  0.29406928  0.37577675  0.41943315  1
  O  O17  1  0.71521410  0.12033974  0.08030523  1
  O  O18  1  0.68644653  0.67966091  0.12266747  1
  O  O19  1  0.20180616  0.62481763  0.08619976  1
  F  F20  1  0.78920677  0.82649184  0.87943908  1
  F  F21  1  0.29386779  0.33461560  0.88633988  1
  F  F22  1  0.71061852  0.17548820  0.61787475  1
  F  F23  1  0.48324448  0.57229759  0.82464484  1
  F  F24  1  0.30669793  0.87644438  0.93048047  1
  F  F25  1  0.51959966  0.92391064  0.67090230  1
  F  F26  1  0.01406845  0.41485563  0.67263998  1
  F  F27  1  0.79414542  0.33575656  0.38689388  1
  F  F28  1  0.80138715  0.87385980  0.42738914  1
  F  F29  1  0.29174187  0.82540043  0.37716183  1
  F  F30  1  0.51733807  0.41435197  0.17225235  1
  F  F31  1  0.20776530  0.17998206  0.11943519  1
  F  F32  1  0.98574084  0.57264214  0.32610688  1
  F  F33  1  0.99725701  0.92339680  0.17123732  1
