# generated using pymatgen
data_MnP2WO8
_symmetry_space_group_name_H-M   'P 1'
_cell_length_a   10.31267632
_cell_length_b   6.08044030
_cell_length_c   5.02477084
_cell_angle_alpha   90.00000000
_cell_angle_beta   91.76386053
_cell_angle_gamma   90.00000000
_symmetry_Int_Tables_number   1
_chemical_formula_structural   MnP2WO8
_chemical_formula_sum   'Mn2 P4 W2 O16'
_cell_volume   314.93204055
_cell_formula_units_Z   2
loop_
 _symmetry_equiv_pos_site_id
 _symmetry_equiv_pos_as_xyz
  1  'x, y, z'
loop_
 _atom_site_type_symbol
 _atom_site_label
 _atom_site_symmetry_multiplicity
 _atom_site_fract_x
 _atom_site_fract_y
 _atom_site_fract_z
 _atom_site_occupancy
  Mn  Mn0  1  0.27565135  0.25000000  0.95620288  1
  Mn  Mn1  1  0.72434865  0.75000000  0.04379712  1
  P  P2  1  0.09079381  0.25000000  0.42574426  1
  P  P3  1  0.40255046  0.75000000  0.90008357  1
  P  P4  1  0.59744954  0.25000000  0.09991643  1
  P  P5  1  0.90920619  0.75000000  0.57425574  1
  W  W6  1  0.22021994  0.75000000  0.45902058  1
  W  W7  1  0.77978006  0.25000000  0.54097942  1
  O  O8  1  0.04971930  0.75000000  0.68157886  1
  O  O9  1  0.10295039  0.25000000  0.72631730  1
  O  O10  1  0.16705920  0.04904198  0.29689241  1
  O  O11  1  0.16705920  0.45095802  0.29689241  1
  O  O12  1  0.32642153  0.94370791  0.74740890  1
  O  O13  1  0.32642153  0.55629209  0.74740890  1
  O  O14  1  0.37496849  0.75000000  0.19696611  1
  O  O15  1  0.45436719  0.25000000  0.15106451  1
  O  O16  1  0.54563281  0.75000000  0.84893549  1
  O  O17  1  0.62503151  0.25000000  0.80303389  1
  O  O18  1  0.67357847  0.05629209  0.25259110  1
  O  O19  1  0.67357847  0.44370791  0.25259110  1
  O  O20  1  0.83294080  0.54904198  0.70310759  1
  O  O21  1  0.83294080  0.95095802  0.70310759  1
  O  O22  1  0.89704961  0.75000000  0.27368270  1
  O  O23  1  0.95028070  0.25000000  0.31842114  1
