# generated using pymatgen
data_Li2MnF4
_symmetry_space_group_name_H-M   'P 1'
_cell_length_a   6.00991711
_cell_length_b   5.48273720
_cell_length_c   10.58527590
_cell_angle_alpha   90.00000000
_cell_angle_beta   74.14893047
_cell_angle_gamma   90.00000000
_symmetry_Int_Tables_number   1
_chemical_formula_structural   Li2MnF4
_chemical_formula_sum   'Li8 Mn4 F16'
_cell_volume   335.53037591
_cell_formula_units_Z   4
loop_
 _symmetry_equiv_pos_site_id
 _symmetry_equiv_pos_as_xyz
  1  'x, y, z'
loop_
 _atom_site_type_symbol
 _atom_site_label
 _atom_site_symmetry_multiplicity
 _atom_site_fract_x
 _atom_site_fract_y
 _atom_site_fract_z
 _atom_site_occupancy
  Li  Li0  1  0.81855345  0.74617786  0.29548193  1
  Li  Li1  1  0.10015107  0.14633954  0.07306497  1
  Li  Li2  1  0.39984893  0.64633954  0.42693503  1
  Li  Li3  1  0.68144655  0.24617786  0.20451807  1
  Li  Li4  1  0.31855345  0.75382214  0.79548193  1
  Li  Li5  1  0.60015107  0.35366046  0.57306497  1
  Li  Li6  1  0.89984893  0.85366046  0.92693503  1
  Li  Li7  1  0.18144655  0.25382214  0.70451807  1
  Mn  Mn8  1  0.20718233  0.14002924  0.38260873  1
  Mn  Mn9  1  0.29281767  0.64002924  0.11739127  1
  Mn  Mn10  1  0.70718233  0.35997076  0.88260873  1
  Mn  Mn11  1  0.79281767  0.85997076  0.61739127  1
  F  F12  1  0.13906794  0.81883663  0.50421867  1
  F  F13  1  0.96162819  0.45293874  0.20422038  1
  F  F14  1  0.18430757  0.84043216  0.97176640  1
  F  F15  1  0.09198956  0.94562727  0.23130695  1
  F  F16  1  0.40801044  0.44562727  0.26869305  1
  F  F17  1  0.31569243  0.34043216  0.52823360  1
  F  F18  1  0.53837181  0.95293874  0.29577962  1
  F  F19  1  0.36093206  0.31883663  0.99578133  1
  F  F20  1  0.63906794  0.68116337  0.00421867  1
  F  F21  1  0.46162819  0.04706126  0.70422038  1
  F  F22  1  0.68430757  0.65956784  0.47176640  1
  F  F23  1  0.59198956  0.55437273  0.73130695  1
  F  F24  1  0.90801044  0.05437273  0.76869305  1
  F  F25  1  0.81569243  0.15956784  0.02823360  1
  F  F26  1  0.03837181  0.54706126  0.79577962  1
  F  F27  1  0.86093206  0.18116337  0.49578133  1
