# generated using pymatgen
data_Li3VF6
_symmetry_space_group_name_H-M   'P 1'
_cell_length_a   6.06769430
_cell_length_b   6.06769461
_cell_length_c   6.06769442
_cell_angle_alpha   91.38366915
_cell_angle_beta   91.38367709
_cell_angle_gamma   91.38367376
_symmetry_Int_Tables_number   1
_chemical_formula_structural   Li3VF6
_chemical_formula_sum   'Li6 V2 F12'
_cell_volume   223.19517346
_cell_formula_units_Z   2
loop_
 _symmetry_equiv_pos_site_id
 _symmetry_equiv_pos_as_xyz
  1  'x, y, z'
loop_
 _atom_site_type_symbol
 _atom_site_label
 _atom_site_symmetry_multiplicity
 _atom_site_fract_x
 _atom_site_fract_y
 _atom_site_fract_z
 _atom_site_occupancy
  Li  Li0  1  0.06064975  0.55252926  0.25055448  1
  Li  Li1  1  0.44747074  0.74944552  0.93935025  1
  Li  Li2  1  0.74944552  0.93935025  0.44747074  1
  Li  Li3  1  0.25055448  0.06064975  0.55252926  1
  Li  Li4  1  0.55252926  0.25055448  0.06064975  1
  Li  Li5  1  0.93935025  0.44747074  0.74944552  1
  V  V6  1  0.50000000  0.50000000  0.50000000  1
  V  V7  1  0.00000000  0.00000000  0.00000000  1
  F  F8  1  0.08009774  0.92582704  0.30589688  1
  F  F9  1  0.07417296  0.69410312  0.91990226  1
  F  F10  1  0.45292758  0.80622926  0.60124594  1
  F  F11  1  0.69410312  0.91990226  0.07417296  1
  F  F12  1  0.19377074  0.39875406  0.54707242  1
  F  F13  1  0.39875406  0.54707242  0.19377074  1
  F  F14  1  0.60124594  0.45292758  0.80622926  1
  F  F15  1  0.80622926  0.60124594  0.45292758  1
  F  F16  1  0.30589688  0.08009774  0.92582704  1
  F  F17  1  0.54707242  0.19377074  0.39875406  1
  F  F18  1  0.92582704  0.30589688  0.08009774  1
  F  F19  1  0.91990226  0.07417296  0.69410312  1
