# generated using pymatgen
data_LiV2P4(HO8)2
_symmetry_space_group_name_H-M   'P 1'
_cell_length_a   9.76351320
_cell_length_b   7.90114627
_cell_length_c   7.74621243
_cell_angle_alpha   90.13040399
_cell_angle_beta   67.10680663
_cell_angle_gamma   90.39907808
_symmetry_Int_Tables_number   1
_chemical_formula_structural   LiV2P4(HO8)2
_chemical_formula_sum   'Li2 V4 P8 H4 O32'
_cell_volume   550.48295807
_cell_formula_units_Z   2
loop_
 _symmetry_equiv_pos_site_id
 _symmetry_equiv_pos_as_xyz
  1  'x, y, z'
loop_
 _atom_site_type_symbol
 _atom_site_label
 _atom_site_symmetry_multiplicity
 _atom_site_fract_x
 _atom_site_fract_y
 _atom_site_fract_z
 _atom_site_occupancy
  Li  Li0  1  0.22371002  0.36734644  0.65147476  1
  Li  Li1  1  0.77652142  0.63554287  0.35023517  1
  V  V2  1  0.24724705  0.50322060  0.01456211  1
  V  V3  1  0.25692248  0.98939753  0.49343309  1
  V  V4  1  0.74967222  0.49683283  0.99340804  1
  V  V5  1  0.74840611  0.00897923  0.50372659  1
  P  P6  1  0.07021706  0.85514562  0.22705715  1
  P  P7  1  0.06762555  0.65357014  0.73682254  1
  P  P8  1  0.43268665  0.34451710  0.26771486  1
  P  P9  1  0.57746487  0.85449332  0.22565950  1
  P  P10  1  0.42847709  0.15272710  0.76820815  1
  P  P11  1  0.56739003  0.65471113  0.73992122  1
  P  P12  1  0.92834877  0.35255481  0.26928299  1
  P  P13  1  0.93098591  0.15065756  0.76643056  1
  H  H14  1  0.01002897  0.50975956  0.50997215  1
  H  H15  1  0.50843257  0.50636011  0.51378181  1
  H  H16  1  0.48922547  0.00769883  0.98981905  1
  H  H17  1  0.99069910  0.00710771  0.98733985  1
  O  O18  1  0.09652763  0.94793931  0.04937438  1
  O  O19  1  0.09828346  0.34239045  0.13300217  1
  O  O20  1  0.14475250  0.67197126  0.17362955  1
  O  O21  1  0.14898590  0.93866894  0.34772489  1
  O  O22  1  0.09661448  0.54609958  0.55865768  1
  O  O23  1  0.10048865  0.16749816  0.63815916  1
  O  O24  1  0.14319556  0.82949188  0.67508047  1
  O  O25  1  0.14978962  0.55520895  0.84208705  1
  O  O26  1  0.35261719  0.43894749  0.15161664  1
  O  O27  1  0.35492189  0.16779717  0.32174250  1
  O  O28  1  0.40530186  0.83903660  0.36447059  1
  O  O29  1  0.40520776  0.44100580  0.44668867  1
  O  O30  1  0.35188088  0.05724454  0.65055646  1
  O  O31  1  0.34825256  0.32744766  0.81754621  1
  O  O32  1  0.58980405  0.94668944  0.05288919  1
  O  O33  1  0.59590436  0.32688841  0.13510070  1
  O  O34  1  0.39927618  0.66166234  0.86711574  1
  O  O35  1  0.40246413  0.05694676  0.94902749  1
  O  O36  1  0.64446970  0.67492436  0.19108383  1
  O  O37  1  0.64937936  0.94787900  0.34765706  1
  O  O38  1  0.59278574  0.55619696  0.55619130  1
  O  O39  1  0.59374016  0.17540112  0.63924092  1
  O  O40  1  0.63675125  0.82889754  0.68501292  1
  O  O41  1  0.64454515  0.55619582  0.84928279  1
  O  O42  1  0.85004112  0.44837139  0.15616443  1
  O  O43  1  0.86770412  0.17333804  0.31557440  1
  O  O44  1  0.90486125  0.82726168  0.35794414  1
  O  O45  1  0.90851174  0.46279515  0.43724040  1
  O  O46  1  0.85374559  0.05714060  0.65222604  1
  O  O47  1  0.86541579  0.32822015  0.81563031  1
  O  O48  1  0.90302427  0.67291356  0.86233720  1
  O  O49  1  0.90511176  0.05065739  0.94555912  1
