# generated using pymatgen
data_Li2Mn3(BO3)3
_symmetry_space_group_name_H-M   'P 1'
_cell_length_a   12.86381966
_cell_length_b   5.25880660
_cell_length_c   6.13532198
_cell_angle_alpha   64.70409921
_cell_angle_beta   85.90151252
_cell_angle_gamma   89.24197248
_symmetry_Int_Tables_number   1
_chemical_formula_structural   Li2Mn3(BO3)3
_chemical_formula_sum   'Li4 Mn6 B6 O18'
_cell_volume   374.21845484
_cell_formula_units_Z   2
loop_
 _symmetry_equiv_pos_site_id
 _symmetry_equiv_pos_as_xyz
  1  'x, y, z'
loop_
 _atom_site_type_symbol
 _atom_site_label
 _atom_site_symmetry_multiplicity
 _atom_site_fract_x
 _atom_site_fract_y
 _atom_site_fract_z
 _atom_site_occupancy
  Li  Li0  1  0.25471994  0.13163729  0.05880813  1
  Li  Li1  1  0.41194606  0.20169571  0.27452487  1
  Li  Li2  1  0.92830386  0.45478556  0.41015000  1
  Li  Li3  1  0.73836314  0.87854844  0.92318400  1
  Mn  Mn4  1  0.13166249  0.62685911  0.11873107  1
  Mn  Mn5  1  0.18950081  0.03671938  0.56049867  1
  Mn  Mn6  1  0.53500451  0.70647389  0.21460193  1
  Mn  Mn7  1  0.47716619  0.29661362  0.77283433  1
  Mn  Mn8  1  0.79607411  0.95593901  0.44496569  1
  Mn  Mn9  1  0.87059289  0.37739499  0.88836731  1
  B  B10  1  0.02269773  0.05994284  0.22926090  1
  B  B11  1  0.31079019  0.62013055  0.41167910  1
  B  B12  1  0.64396927  0.27339016  0.10407310  1
  B  B13  1  0.35587681  0.71320245  0.92165390  1
  B  B14  1  0.69412986  0.39880443  0.54868400  1
  B  B15  1  0.97253714  0.93452957  0.78464900  1
  O  O16  1  0.01727497  0.78794048  0.25280461  1
  O  O17  1  0.11875014  0.19403449  0.20476357  1
  O  O18  1  0.06678561  0.78271562  0.80902354  1
  O  O19  1  0.21917014  0.48170921  0.40637237  1
  O  O20  1  0.31137027  0.89023134  0.38923750  1
  O  O21  1  0.40404336  0.47173391  0.42769733  1
  O  O22  1  0.54791586  0.13929851  0.12856943  1
  O  O23  1  0.26262364  0.86160009  0.90563567  1
  O  O24  1  0.64939203  0.54539252  0.08052839  1
  O  O25  1  0.35529673  0.44310166  0.94409550  1
  O  O26  1  0.73501350  0.13358458  0.09091940  1
  O  O27  1  0.44749686  0.85162379  0.92696163  1
  O  O28  1  0.59988139  0.55061838  0.52431046  1
  O  O29  1  0.68761908  0.11992927  0.60749730  1
  O  O30  1  0.78866143  0.53259275  0.53252251  1
  O  O31  1  0.93165350  0.19974842  0.24241360  1
  O  O32  1  0.87800557  0.80074125  0.80081149  1
  O  O33  1  0.97904692  0.21340373  0.72583670  1
