# generated using pymatgen
data_Li3MnV(PO4)3
_symmetry_space_group_name_H-M   'P 1'
_cell_length_a   8.73991818
_cell_length_b   8.65260344
_cell_length_c   8.81358113
_cell_angle_alpha   89.99999759
_cell_angle_beta   59.72079812
_cell_angle_gamma   60.81299752
_symmetry_Int_Tables_number   1
_chemical_formula_structural   Li3MnV(PO4)3
_chemical_formula_sum   'Li6 Mn2 V2 P6 O24'
_cell_volume   475.02761721
_cell_formula_units_Z   2
loop_
 _symmetry_equiv_pos_site_id
 _symmetry_equiv_pos_as_xyz
  1  'x, y, z'
loop_
 _atom_site_type_symbol
 _atom_site_label
 _atom_site_symmetry_multiplicity
 _atom_site_fract_x
 _atom_site_fract_y
 _atom_site_fract_z
 _atom_site_occupancy
  Li  Li0  1  0.62920412  0.71018911  0.10828444  1
  Li  Li1  1  0.38930786  0.67527545  0.65133854  1
  Li  Li2  1  0.62920412  0.21018911  0.26251143  1
  Li  Li3  1  0.97895985  0.75279011  0.63980436  1
  Li  Li4  1  0.97895985  0.25279011  0.38123679  1
  Li  Li5  1  0.38930786  0.17527545  0.95935360  1
  Mn  Mn6  1  0.80288063  0.63869733  0.35002694  1
  Mn  Mn7  1  0.80288063  0.13869733  0.84709243  1
  V  V8  1  0.20927343  0.85995558  0.14753053  1
  V  V9  1  0.20927343  0.35995558  0.64319604  1
  P  P10  1  0.28195135  0.95432052  0.47039179  1
  P  P11  1  0.28195135  0.45432052  0.24765687  1
  P  P12  1  -0.00081404  0.25669137  0.05010520  1
  P  P13  1  0.72076533  0.53748066  0.75385669  1
  P  P14  1  -0.00081404  0.75669137  0.95070984  1
  P  P15  1  0.72076533  0.03748066  0.52537898  1
  O  O16  1  0.32140625  0.91931727  0.27710630  1
  O  O17  1  0.09535088  0.93972094  0.61913691  1
  O  O18  1  0.23263730  0.64862355  0.24554697  1
  O  O19  1  0.09535088  0.43972094  0.28551221  1
  O  O20  1  0.48352274  0.79195869  0.45190898  1
  O  O21  1  0.17191148  0.10107535  0.07290554  1
  O  O22  1  0.48352274  0.29195869  0.06456828  1
  O  O23  1  0.12471551  0.80769681  0.98948596  1
  O  O24  1  0.86639201  0.70078513  0.10197341  1
  O  O25  1  0.32140625  0.41931727  0.40148846  1
  O  O26  1  0.17191148  0.60107535  0.75518198  1
  O  O27  1  0.78510504  0.83425880  0.47269449  1
  O  O28  1  0.23263730  0.14862355  0.52181573  1
  O  O29  1  0.82646118  0.42514385  0.23826003  1
  O  O30  1  0.66653217  0.57871120  0.61143595  1
  O  O31  1  0.12471551  0.30769681  0.88579753  1
  O  O32  1  0.86639201  0.20078513  0.03163558  1
  O  O33  1  0.53311061  0.68253865  0.94991735  1
  O  O34  1  0.82646118  0.92514385  0.93527879  1
  O  O35  1  0.53311061  0.18253865  0.51697304  1
  O  O36  1  0.91232731  0.54922761  0.70654844  1
  O  O37  1  0.78510504  0.33425880  0.74220047  1
  O  O38  1  0.91232731  0.04922761  0.38112425  1
  O  O39  1  0.66653217  0.07871120  0.72203189  1
