# generated using pymatgen
data_Na4Cu2C4SO16
_symmetry_space_group_name_H-M   'P 1'
_cell_length_a   9.89834767
_cell_length_b   9.63259150
_cell_length_c   9.89834780
_cell_angle_alpha   60.63064453
_cell_angle_beta   92.60554453
_cell_angle_gamma   60.63065046
_symmetry_Int_Tables_number   1
_chemical_formula_structural   Na4Cu2C4SO16
_chemical_formula_sum   'Na8 Cu4 C8 S2 O32'
_cell_volume   664.00903547
_cell_formula_units_Z   2
loop_
 _symmetry_equiv_pos_site_id
 _symmetry_equiv_pos_as_xyz
  1  'x, y, z'
loop_
 _atom_site_type_symbol
 _atom_site_label
 _atom_site_symmetry_multiplicity
 _atom_site_fract_x
 _atom_site_fract_y
 _atom_site_fract_z
 _atom_site_occupancy
  Na  Na0  1  0.08686991  0.82626118  0.83686991  1
  Na  Na1  1  0.08533047  0.25000000  0.83533047  1
  Na  Na2  1  0.33533047  0.75000000  0.58533047  1
  Na  Na3  1  0.33686991  0.32626118  0.58686991  1
  Na  Na4  1  0.66313009  0.67373882  0.41313009  1
  Na  Na5  1  0.66466953  0.25000000  0.41466953  1
  Na  Na6  1  0.91466953  0.75000000  0.16466953  1
  Na  Na7  1  0.91313009  0.17373882  0.16313009  1
  Cu  Cu8  1  0.00000000  0.50000000  0.00000000  1
  Cu  Cu9  1  0.50000000  0.00000000  0.50000000  1
  Cu  Cu10  1  0.50000000  0.50000000  0.00000000  1
  Cu  Cu11  1  0.50000000  0.00000000  0.00000000  1
  C  C12  1  0.35499316  0.93108935  0.77738677  1
  C  C13  1  0.27738677  0.43108935  0.85499316  1
  C  C14  1  0.71391749  0.93108935  0.79152288  1
  C  C15  1  0.70847712  0.56891065  0.78608251  1
  C  C16  1  0.29152288  0.43108935  0.21391749  1
  C  C17  1  0.28608251  0.06891065  0.20847712  1
  C  C18  1  0.72261323  0.56891065  0.14500684  1
  C  C19  1  0.64500684  0.06891065  0.22261323  1
  S  S20  1  0.12500000  0.75000000  0.37500000  1
  S  S21  1  0.87500000  0.25000000  0.62500000  1
  O  O22  1  0.34944141  0.79252185  0.89310327  1
  O  O23  1  0.06561977  0.87852867  0.43295796  1
  O  O24  1  0.36126056  0.94746192  0.64119588  1
  O  O25  1  0.14119588  0.44746192  0.86126056  1
  O  O26  1  0.69127752  0.94746192  0.91134220  1
  O  O27  1  0.29667131  0.55901311  0.84557101  1
  O  O28  1  0.05585156  0.87852867  0.18851337  1
  O  O29  1  0.06704204  0.62147133  0.43438023  1
  O  O30  1  0.40458412  0.94098689  0.35568442  1
  O  O31  1  0.58865780  0.55253808  0.80872248  1
  O  O32  1  0.39310327  0.29252185  0.84944141  1
  O  O33  1  0.31148663  0.62147133  0.44414844  1
  O  O34  1  0.85803674  0.79252185  0.81437488  1
  O  O35  1  0.68562512  0.70747815  0.64196326  1
  O  O36  1  0.34557101  0.05901311  0.79667131  1
  O  O37  1  0.14431558  0.55901311  0.09541588  1
  O  O38  1  0.85568442  0.44098689  0.90458412  1
  O  O39  1  0.65442899  0.94098689  0.20332869  1
  O  O40  1  0.31437488  0.29252185  0.35803674  1
  O  O41  1  0.14196326  0.20747815  0.18562512  1
  O  O42  1  0.68851337  0.37852867  0.55585156  1
  O  O43  1  0.60689673  0.70747815  0.15055859  1
  O  O44  1  0.41134220  0.44746192  0.19127752  1
  O  O45  1  0.59541588  0.05901311  0.64431558  1
  O  O46  1  0.93295796  0.37852867  0.56561977  1
  O  O47  1  0.94414844  0.12147133  0.81148663  1
  O  O48  1  0.70332869  0.44098689  0.15442899  1
  O  O49  1  0.30872248  0.05253808  0.08865780  1
  O  O50  1  0.85880412  0.55253808  0.13873944  1
  O  O51  1  0.63873944  0.05253808  0.35880412  1
  O  O52  1  0.93438023  0.12147133  0.56704204  1
  O  O53  1  0.65055859  0.20747815  0.10689673  1
