# generated using pymatgen
data_Li5Mn2(PO4)3
_symmetry_space_group_name_H-M   'P 1'
_cell_length_a   8.89919506
_cell_length_b   8.92231964
_cell_length_c   12.58011956
_cell_angle_alpha   89.99988447
_cell_angle_beta   89.48252091
_cell_angle_gamma   89.99969346
_symmetry_Int_Tables_number   1
_chemical_formula_structural   Li5Mn2(PO4)3
_chemical_formula_sum   'Li20 Mn8 P12 O48'
_cell_volume   998.83915614
_cell_formula_units_Z   4
loop_
 _symmetry_equiv_pos_site_id
 _symmetry_equiv_pos_as_xyz
  1  'x, y, z'
loop_
 _atom_site_type_symbol
 _atom_site_label
 _atom_site_symmetry_multiplicity
 _atom_site_fract_x
 _atom_site_fract_y
 _atom_site_fract_z
 _atom_site_occupancy
  Li  Li0  1  0.95061534  0.51946698  0.34233173  1
  Li  Li1  1  0.92681467  0.09577581  0.69697425  1
  Li  Li2  1  0.87047702  0.72763892  0.74649281  1
  Li  Li3  1  0.90485729  0.64529346  0.98365210  1
  Li  Li4  1  0.79247690  0.77007824  0.18245732  1
  Li  Li5  1  0.70752153  0.27008026  0.31754284  1
  Li  Li6  1  0.59514713  0.14529798  0.51634713  1
  Li  Li7  1  0.62952014  0.22763849  0.75350742  1
  Li  Li8  1  0.57318276  0.59577797  0.80302506  1
  Li  Li9  1  0.54938166  0.01946569  0.15766884  1
  Li  Li10  1  0.45447400  0.98325262  0.83789583  1
  Li  Li11  1  0.42218060  0.40675421  0.19476526  1
  Li  Li12  1  0.38660739  0.77667013  0.25614580  1
  Li  Li13  1  0.34589431  0.68255808  0.48957163  1
  Li  Li14  1  0.29703287  0.73474645  0.69607472  1
  Li  Li15  1  0.20296886  0.23474213  0.80392466  1
  Li  Li16  1  0.15410425  0.18256199  0.01043006  1
  Li  Li17  1  0.11339572  0.27667180  0.24385622  1
  Li  Li18  1  0.07781824  0.90674985  0.30523665  1
  Li  Li19  1  0.04551995  0.48324879  0.66210063  1
  Mn  Mn20  1  0.74199729  0.53531830  0.60066747  1
  Mn  Mn21  1  0.75800325  0.03531412  0.89933587  1
  Mn  Mn22  1  0.74440988  0.43980062  0.10738516  1
  Mn  Mn23  1  0.75558426  0.93980998  0.39260863  1
  Mn  Mn24  1  0.24967744  0.04583714  0.59912952  1
  Mn  Mn25  1  0.25032616  0.54583401  0.90086914  1
  Mn  Mn26  1  0.24850669  0.93392297  0.10240255  1
  Mn  Mn27  1  0.25148679  0.43391894  0.39760308  1
  P  P28  1  0.94687813  0.24771807  0.49248069  1
  P  P29  1  0.89642858  0.39312194  0.84517508  1
  P  P30  1  0.90031341  0.10168545  0.15697350  1
  P  P31  1  0.60356940  0.89312777  0.65482205  1
  P  P32  1  0.59968076  0.60167940  0.34302749  1
  P  P33  1  0.55312218  0.74772003  0.00751874  1
  P  P34  1  0.44809582  0.24346974  0.99063036  1
  P  P35  1  0.40015881  0.40334533  0.65285192  1
  P  P36  1  0.39898899  0.11081589  0.34286408  1
  P  P37  1  0.09984042  0.90334111  0.84714991  1
  P  P38  1  0.10101749  0.61081263  0.15713514  1
  P  P39  1  0.05190463  0.74346915  0.50936988  1
  O  O40  1  0.96856984  0.85874630  0.44059854  1
  O  O41  1  0.92772620  0.86984795  0.85794165  1
  O  O42  1  0.95831321  0.68315249  0.60534194  1
  O  O43  1  0.93115351  0.59599750  0.18967780  1
  O  O44  1  0.91350967  0.37912005  0.56963036  1
  O  O45  1  0.84237836  0.23418237  0.81117952  1
  O  O46  1  0.87620990  0.41966455  0.96513556  1
  O  O47  1  0.87485767  0.97252389  0.23899993  1
  O  O48  1  0.84446572  0.25548473  0.19942329  1
  O  O49  1  0.79527972  0.18256430  0.45039348  1
  O  O50  1  0.81810592  0.06129098  0.05457816  1
  O  O51  1  0.80890608  0.51695739  0.78286921  1
  O  O52  1  0.69109140  0.01696213  0.71712658  1
  O  O53  1  0.68189355  0.56128357  0.44542558  1
  O  O54  1  0.70472272  0.68256580  0.04960091  1
  O  O55  1  0.65552810  0.75548009  0.30057704  1
  O  O56  1  0.62378975  0.91966974  0.53486005  1
  O  O57  1  0.62514437  0.47252117  0.26100201  1
  O  O58  1  0.65761715  0.73418822  0.68882014  1
  O  O59  1  0.58648083  0.87912518  0.93036942  1
  O  O60  1  0.54168277  0.18314595  0.89465850  1
  O  O61  1  0.57227364  0.36985395  0.64206071  1
  O  O62  1  0.56885380  0.09599683  0.31032193  1
  O  O63  1  0.53142655  0.35874747  0.05940213  1
  O  O64  1  0.46704884  0.62955973  0.94254067  1
  O  O65  1  0.43386975  0.90785144  0.68800972  1
  O  O66  1  0.42512549  0.61732038  0.35788844  1
  O  O67  1  0.46193864  0.80769025  0.10585260  1
  O  O68  1  0.40023060  0.11444307  0.06674843  1
  O  O69  1  0.33914405  0.26283760  0.29841375  1
  O  O70  1  0.37508175  0.52512039  0.74078062  1
  O  O71  1  0.38544352  0.11513675  0.46558065  1
  O  O72  1  0.32391757  0.25320460  0.68211315  1
  O  O73  1  0.29889776  0.31047508  0.94392298  1
  O  O74  1  0.33498580  0.47183789  0.55012371  1
  O  O75  1  0.31171515  0.97968560  0.29115172  1
  O  O76  1  0.18829355  0.47968272  0.20884928  1
  O  O77  1  0.16501117  0.97183178  0.94988019  1
  O  O78  1  0.20110321  0.81047157  0.55607726  1
  O  O79  1  0.17608597  0.75320417  0.81788777  1
  O  O80  1  0.12491660  0.02511987  0.75922137  1
  O  O81  1  0.11456104  0.61512541  0.03441783  1
  O  O82  1  0.16086354  0.76283400  0.20158531  1
  O  O83  1  0.09976746  0.61444116  0.43325345  1
  O  O84  1  0.06612710  0.40784174  0.81198388  1
  O  O85  1  0.03806458  0.30769005  0.39414927  1
  O  O86  1  0.07487211  0.11732572  0.14211401  1
  O  O87  1  0.03294929  0.12955900  0.55745926  1
