# generated using pymatgen
data_Mn3O5F
_symmetry_space_group_name_H-M   'P 1'
_cell_length_a   7.23802347
_cell_length_b   5.45303494
_cell_length_c   5.45303494
_cell_angle_alpha   70.73048963
_cell_angle_beta   71.40331016
_cell_angle_gamma   71.40331016
_symmetry_Int_Tables_number   1
_chemical_formula_structural   Mn3O5F
_chemical_formula_sum   'Mn6 O10 F2'
_cell_volume   186.98948656
_cell_formula_units_Z   2
loop_
 _symmetry_equiv_pos_site_id
 _symmetry_equiv_pos_as_xyz
  1  'x, y, z'
loop_
 _atom_site_type_symbol
 _atom_site_label
 _atom_site_symmetry_multiplicity
 _atom_site_fract_x
 _atom_site_fract_y
 _atom_site_fract_z
 _atom_site_occupancy
  Mn  Mn0  1  0.82139060  0.66122568  0.66122568  1
  Mn  Mn1  1  0.66666700  0.33333300  0.33333300  1
  Mn  Mn2  1  0.34240281  0.65384192  0.65384192  1
  Mn  Mn3  1  0.16666700  0.33333300  0.33333300  1
  Mn  Mn4  1  0.51194240  0.00544132  0.00544132  1
  Mn  Mn5  1  0.99093119  0.01282508  0.01282508  1
  O  O6  1  0.66666700  0.02701757  0.63964843  1
  O  O7  1  0.33381907  0.35975070  0.96887714  1
  O  O8  1  0.63024342  0.56062858  0.56062858  1
  O  O9  1  0.95971840  0.23568466  0.23568466  1
  O  O10  1  0.70308958  0.10603742  0.10603742  1
  O  O11  1  0.37361460  0.43098234  0.43098234  1
  O  O12  1  0.33381907  0.96887714  0.35975070  1
  O  O13  1  0.66666700  0.63964843  0.02701757  1
  O  O14  1  0.99951393  0.30691630  0.69778886  1
  O  O15  1  0.99951393  0.69778886  0.30691630  1
  F  F16  1  0.29745414  0.89613300  0.89613300  1
  F  F17  1  0.03587886  0.77053400  0.77053400  1
