# generated using pymatgen
data_Li4Co2Ni3O10
_symmetry_space_group_name_H-M   'P 1'
_cell_length_a   5.05357122
_cell_length_b   4.99281544
_cell_length_c   7.61543926
_cell_angle_alpha   70.44395284
_cell_angle_beta   109.07835527
_cell_angle_gamma   100.99191039
_symmetry_Int_Tables_number   1
_chemical_formula_structural   Li4Co2Ni3O10
_chemical_formula_sum   'Li4 Co2 Ni3 O10'
_cell_volume   170.40577214
_cell_formula_units_Z   1
loop_
 _symmetry_equiv_pos_site_id
 _symmetry_equiv_pos_as_xyz
  1  'x, y, z'
loop_
 _atom_site_type_symbol
 _atom_site_label
 _atom_site_symmetry_multiplicity
 _atom_site_fract_x
 _atom_site_fract_y
 _atom_site_fract_z
 _atom_site_occupancy
  Li  Li0  1  0.39032038  0.52500630  0.78032882  1
  Li  Li1  1  0.22589514  0.50203133  0.40781515  1
  Li  Li2  1  0.77410486  0.49796867  0.59218485  1
  Li  Li3  1  0.60967962  0.47499370  0.21967118  1
  Co  Co4  1  0.10322762  0.00351438  0.69089979  1
  Co  Co5  1  0.89677238  0.99648562  0.30910021  1
  Ni  Ni6  1  0.00000000  0.50000000  0.00000000  1
  Ni  Ni7  1  0.69569324  0.99962552  0.89621156  1
  Ni  Ni8  1  0.30430676  0.00037448  0.10378844  1
  O  O9  1  0.05309179  0.23076231  0.84794204  1
  O  O10  1  0.11180930  0.77629814  0.54856259  1
  O  O11  1  0.32402492  0.76251992  0.93841165  1
  O  O12  1  0.21344662  0.24571907  0.23112230  1
  O  O13  1  0.42536005  0.23181866  0.66818870  1
  O  O14  1  0.57463995  0.76818134  0.33181130  1
  O  O15  1  0.78655338  0.75428093  0.76887770  1
  O  O16  1  0.67597508  0.23748008  0.06158835  1
  O  O17  1  0.88819070  0.22370186  0.45143741  1
  O  O18  1  0.94690821  0.76923769  0.15205796  1
