# generated using pymatgen
data_Ni4(PO4)3
_symmetry_space_group_name_H-M   'P 1'
_cell_length_a   6.13859628
_cell_length_b   16.29559913
_cell_length_c   9.57169649
_cell_angle_alpha   90.00000000
_cell_angle_beta   90.00000000
_cell_angle_gamma   90.00000000
_symmetry_Int_Tables_number   1
_chemical_formula_structural   Ni4(PO4)3
_chemical_formula_sum   'Ni16 P12 O48'
_cell_volume   957.47694066
_cell_formula_units_Z   4
loop_
 _symmetry_equiv_pos_site_id
 _symmetry_equiv_pos_as_xyz
  1  'x, y, z'
loop_
 _atom_site_type_symbol
 _atom_site_label
 _atom_site_symmetry_multiplicity
 _atom_site_fract_x
 _atom_site_fract_y
 _atom_site_fract_z
 _atom_site_occupancy
  Ni  Ni0  1  0.00000000  0.09172962  0.53350019  1
  Ni  Ni1  1  0.00000000  0.14143617  0.99056292  1
  Ni  Ni2  1  0.00000000  0.85856383  0.00943708  1
  Ni  Ni3  1  0.00000000  0.90827038  0.46649981  1
  Ni  Ni4  1  0.24849565  0.29639338  0.75151830  1
  Ni  Ni5  1  0.24849565  0.70360662  0.24848170  1
  Ni  Ni6  1  0.25150435  0.20360662  0.25151830  1
  Ni  Ni7  1  0.25150435  0.79639338  0.74848170  1
  Ni  Ni8  1  0.50000000  0.59172962  0.96649981  1
  Ni  Ni9  1  0.50000000  0.40827038  0.03350019  1
  Ni  Ni10  1  0.50000000  0.35856383  0.49056292  1
  Ni  Ni11  1  0.50000000  0.64143617  0.50943708  1
  Ni  Ni12  1  0.74849565  0.79639338  0.74848170  1
  Ni  Ni13  1  0.74849565  0.20360662  0.25151830  1
  Ni  Ni14  1  0.75150435  0.29639338  0.75151830  1
  Ni  Ni15  1  0.75150435  0.70360662  0.24848170  1
  P  P16  1  0.00000000  0.03586466  0.20647305  1
  P  P17  1  0.00000000  0.33914949  0.04335479  1
  P  P18  1  0.00000000  0.28173356  0.45373479  1
  P  P19  1  0.00000000  0.71826644  0.54626521  1
  P  P20  1  0.00000000  0.66085051  0.95664521  1
  P  P21  1  0.00000000  0.96413534  0.79352695  1
  P  P22  1  0.50000000  0.21826644  0.95373479  1
  P  P23  1  0.50000000  0.53586466  0.29352695  1
  P  P24  1  0.50000000  0.16085051  0.54335479  1
  P  P25  1  0.50000000  0.46413534  0.70647305  1
  P  P26  1  0.50000000  0.78173356  0.04626521  1
  P  P27  1  0.50000000  0.83914949  0.45664521  1
  O  O28  1  0.00000000  0.01971163  0.36619168  1
  O  O29  1  0.00000000  0.24904465  0.11553528  1
  O  O30  1  0.00000000  0.18887466  0.39357787  1
  O  O31  1  0.00000000  0.04648897  0.86497305  1
  O  O32  1  0.00000000  0.27529916  0.61506041  1
  O  O33  1  0.00000000  0.67243400  0.11849745  1
  O  O34  1  0.00000000  0.32756600  0.88150255  1
  O  O35  1  0.00000000  0.72470084  0.38493959  1
  O  O36  1  0.00000000  0.95351103  0.13502695  1
  O  O37  1  0.00000000  0.81112534  0.60642213  1
  O  O38  1  0.00000000  0.75095535  0.88446472  1
  O  O39  1  0.00000000  0.98028837  0.63380832  1
  O  O40  1  0.20374779  0.38429002  0.09083930  1
  O  O41  1  0.20374779  0.61570998  0.90916070  1
  O  O42  1  0.19809666  0.09082949  0.15979018  1
  O  O43  1  0.19809666  0.90917051  0.84020982  1
  O  O44  1  0.21399726  0.31542228  0.39221051  1
  O  O45  1  0.21399726  0.68457772  0.60778949  1
  O  O46  1  0.28600274  0.18457772  0.89221051  1
  O  O47  1  0.28600274  0.81542228  0.10778949  1
  O  O48  1  0.30190334  0.59082949  0.34020982  1
  O  O49  1  0.30190334  0.40917051  0.65979018  1
  O  O50  1  0.29625221  0.88429002  0.40916070  1
  O  O51  1  0.29625221  0.11570998  0.59083930  1
  O  O52  1  0.50000000  0.17243400  0.38150255  1
  O  O53  1  0.50000000  0.45351103  0.36497305  1
  O  O54  1  0.50000000  0.51971163  0.13380832  1
  O  O55  1  0.50000000  0.22470084  0.11506041  1
  O  O56  1  0.50000000  0.48028837  0.86619168  1
  O  O57  1  0.50000000  0.54648897  0.63502695  1
  O  O58  1  0.50000000  0.77529916  0.88493959  1
  O  O59  1  0.50000000  0.25095535  0.61553528  1
  O  O60  1  0.50000000  0.31112534  0.89357787  1
  O  O61  1  0.50000000  0.68887466  0.10642213  1
  O  O62  1  0.50000000  0.74904465  0.38446472  1
  O  O63  1  0.50000000  0.82756600  0.61849745  1
  O  O64  1  0.70374779  0.11570998  0.59083930  1
  O  O65  1  0.70374779  0.88429002  0.40916070  1
  O  O66  1  0.69809666  0.40917051  0.65979018  1
  O  O67  1  0.69809666  0.59082949  0.34020982  1
  O  O68  1  0.71399726  0.18457772  0.89221051  1
  O  O69  1  0.71399726  0.81542228  0.10778949  1
  O  O70  1  0.78600274  0.68457772  0.60778949  1
  O  O71  1  0.78600274  0.31542228  0.39221051  1
  O  O72  1  0.80190334  0.09082949  0.15979018  1
  O  O73  1  0.80190334  0.90917051  0.84020982  1
  O  O74  1  0.79625221  0.38429002  0.09083930  1
  O  O75  1  0.79625221  0.61570998  0.90916070  1
