# generated using pymatgen
data_LiV2P4(HO8)2
_symmetry_space_group_name_H-M   'P 1'
_cell_length_a   9.76170511
_cell_length_b   7.90623293
_cell_length_c   7.35948439
_cell_angle_alpha   90.00000000
_cell_angle_beta   104.43688065
_cell_angle_gamma   90.00000000
_symmetry_Int_Tables_number   1
_chemical_formula_structural   LiV2P4(HO8)2
_chemical_formula_sum   'Li2 V4 P8 H4 O32'
_cell_volume   550.05703031
_cell_formula_units_Z   2
loop_
 _symmetry_equiv_pos_site_id
 _symmetry_equiv_pos_as_xyz
  1  'x, y, z'
loop_
 _atom_site_type_symbol
 _atom_site_label
 _atom_site_symmetry_multiplicity
 _atom_site_fract_x
 _atom_site_fract_y
 _atom_site_fract_z
 _atom_site_occupancy
  Li  Li0  1  0.05037231  0.37017114  0.64941924  1
  Li  Li1  1  0.69962769  0.87017114  0.85058076  1
  V  V2  1  0.25426722  0.50611725  0.01057393  1
  V  V3  1  0.49573278  0.00611725  0.48942607  1
  V  V4  1  0.75015826  0.49516637  0.00717611  1
  V  V5  1  -0.00015826  0.99516637  0.49282389  1
  P  P6  1  0.06273154  0.34900873  0.26642293  1
  P  P7  1  0.18245821  0.85569374  0.22602507  1
  P  P8  1  0.31063598  0.14986675  0.76779216  1
  P  P9  1  0.43936402  0.64986675  0.73220784  1
  P  P10  1  0.56754179  0.35569374  0.27397493  1
  P  P11  1  0.68726846  0.84900873  0.23357707  1
  P  P12  1  0.81297063  0.15647322  0.76160478  1
  P  P13  1  0.93702937  0.65647322  0.73839522  1
  H  H14  1  0.26701366  0.50996170  0.50940249  1
  H  H15  1  0.48298634  0.00996170  0.99059751  1
  H  H16  1  0.76850872  0.50790332  0.51503483  1
  H  H17  1  0.98149128  0.00790332  0.98496517  1
  O  O18  1  0.07027355  0.55481367  0.84665564  1
  O  O19  1  0.02143312  0.16957345  0.30886328  1
  O  O20  1  0.08791082  0.82619350  0.36175021  1
  O  O21  1  0.12974412  0.44328076  0.44542105  1
  O  O22  1  0.17830160  0.05676243  0.65293127  1
  O  O23  1  0.26102842  0.32818170  0.81463696  1
  O  O24  1  0.11938166  0.95241458  0.05107248  1
  O  O25  1  0.16642827  0.34337780  0.13301865  1
  O  O26  1  0.33438633  0.66087998  0.86150295  1
  O  O27  1  0.37823418  0.05790320  0.95110104  1
  O  O28  1  0.23220963  0.67513868  0.17155873  1
  O  O29  1  0.32211494  0.94101688  0.34735184  1
  O  O30  1  0.37176582  0.55790320  0.54889896  1
  O  O31  1  0.41561367  0.16087998  0.63849705  1
  O  O32  1  0.48897158  0.82818170  0.68536304  1
  O  O33  1  0.57169840  0.55676243  0.84706873  1
  O  O34  1  0.42788506  0.44101688  0.15264816  1
  O  O35  1  0.51779037  0.17513868  0.32844127  1
  O  O36  1  0.58357173  0.84337780  0.36698135  1
  O  O37  1  0.63061834  0.45241458  0.44892752  1
  O  O38  1  0.67972645  0.05481367  0.65334436  1
  O  O39  1  0.77066627  0.32917681  0.81860251  1
  O  O40  1  0.62025588  0.94328076  0.05457895  1
  O  O41  1  0.66208918  0.32619350  0.13824979  1
  O  O42  1  0.83145860  0.67577263  0.86271352  1
  O  O43  1  0.87239854  0.04402013  0.93639063  1
  O  O44  1  0.72856688  0.66957345  0.19113672  1
  O  O45  1  0.82133530  0.94386660  0.34780255  1
  O  O46  1  0.87760146  0.54402013  0.56360937  1
  O  O47  1  0.91854140  0.17577263  0.63728648  1
  O  O48  1  0.97933373  0.82917681  0.68139749  1
  O  O49  1  0.92866470  0.44386660  0.15219745  1
