# generated using pymatgen
data_K4Pb2Br8O
_symmetry_space_group_name_H-M   'P 1'
_cell_length_a   4.43069009
_cell_length_b   8.27718941
_cell_length_c   14.41866228
_cell_angle_alpha   90.38612310
_cell_angle_beta   89.62768833
_cell_angle_gamma   90.09496102
_symmetry_Int_Tables_number   1
_chemical_formula_structural   K4Pb2Br8O
_chemical_formula_sum   'K4 Pb2 Br8 O1'
_cell_volume   528.76127491
_cell_formula_units_Z   1
loop_
 _symmetry_equiv_pos_site_id
 _symmetry_equiv_pos_as_xyz
  1  'x, y, z'
loop_
 _atom_site_type_symbol
 _atom_site_label
 _atom_site_symmetry_multiplicity
 _atom_site_fract_x
 _atom_site_fract_y
 _atom_site_fract_z
 _atom_site_occupancy
  K  K0  1  0.46559892  0.08573521  0.33081667  1
  K  K1  1  0.51997531  0.41288842  0.82652471  1
  K  K2  1  0.53440108  0.91426479  0.66918333  1
  K  K3  1  0.48002469  0.58711158  0.17347529  1
  Pb  Pb4  1  -0.00000000  0.50000000  0.50000000  1
  Pb  Pb5  1  -0.00000000  -0.00000000  0.00000000  1
  Br  Br6  1  0.98441696  0.38578587  0.30180808  1
  Br  Br7  1  0.02080095  0.11880127  0.80170872  1
  Br  Br8  1  0.01558304  0.61421413  0.69819192  1
  Br  Br9  1  0.97919905  0.88119873  0.19829128  1
  Br  Br10  1  0.49605437  0.74813970  0.45683175  1
  Br  Br11  1  0.50561225  0.74884568  0.95924285  1
  Br  Br12  1  0.50394563  0.25186030  0.54316825  1
  Br  Br13  1  0.49438775  0.25115432  0.04075715  1
  O  O14  1  -0.00000000  -0.00000000  0.50000000  1
