# generated using pymatgen
data_LiVP4(H2O7)2
_symmetry_space_group_name_H-M   'P 1'
_cell_length_a   5.14991726
_cell_length_b   7.02620205
_cell_length_c   7.47463682
_cell_angle_alpha   93.87110864
_cell_angle_beta   98.96826766
_cell_angle_gamma   71.51041107
_symmetry_Int_Tables_number   1
_chemical_formula_structural   LiVP4(H2O7)2
_chemical_formula_sum   'Li1 V1 P4 H4 O14'
_cell_volume   253.32092125
_cell_formula_units_Z   1
loop_
 _symmetry_equiv_pos_site_id
 _symmetry_equiv_pos_as_xyz
  1  'x, y, z'
loop_
 _atom_site_type_symbol
 _atom_site_label
 _atom_site_symmetry_multiplicity
 _atom_site_fract_x
 _atom_site_fract_y
 _atom_site_fract_z
 _atom_site_occupancy
  Li  Li0  1  0.00000000  0.50000000  0.00000000  1
  V  V1  1  0.00000000  0.00000000  0.00000000  1
  P  P2  1  0.33660143  0.18641065  0.72377718  1
  P  P3  1  0.39832811  0.62000557  0.76607406  1
  P  P4  1  0.60167189  0.37999443  0.23392594  1
  P  P5  1  0.66339857  0.81358935  0.27622282  1
  H  H6  1  0.09181017  0.76669320  0.53265615  1
  H  H7  1  0.70802572  0.96924198  0.63809244  1
  H  H8  1  0.29197428  0.03075802  0.36190756  1
  H  H9  1  0.90818983  0.23330680  0.46734385  1
  O  O10  1  0.19245727  0.14287054  0.87059278  1
  O  O11  1  0.21783011  0.15207164  0.53060983  1
  O  O12  1  0.21552891  0.74134834  0.90474460  1
  O  O13  1  0.29838306  0.42245619  0.18713515  1
  O  O14  1  0.31238773  0.41482393  0.75713174  1
  O  O15  1  0.29985673  0.71605831  0.57563120  1
  O  O16  1  0.65814170  0.05458744  0.75524981  1
  O  O17  1  0.34185830  0.94541256  0.24475019  1
  O  O18  1  0.70014327  0.28394169  0.42436880  1
  O  O19  1  0.68761227  0.58517607  0.24286826  1
  O  O20  1  0.70161694  0.57754381  0.81286485  1
  O  O21  1  0.78447109  0.25865166  0.09525540  1
  O  O22  1  0.78216989  0.84792836  0.46939017  1
  O  O23  1  0.80754273  0.85712946  0.12940722  1
