# generated using pymatgen
data_Li2Mn3(BO3)3
_symmetry_space_group_name_H-M   'P 1'
_cell_length_a   6.14248244
_cell_length_b   11.95671621
_cell_length_c   5.22519071
_cell_angle_alpha   78.72784990
_cell_angle_beta   87.20831513
_cell_angle_gamma   83.70524460
_symmetry_Int_Tables_number   1
_chemical_formula_structural   Li2Mn3(BO3)3
_chemical_formula_sum   'Li4 Mn6 B6 O18'
_cell_volume   373.94021141
_cell_formula_units_Z   2
loop_
 _symmetry_equiv_pos_site_id
 _symmetry_equiv_pos_as_xyz
  1  'x, y, z'
loop_
 _atom_site_type_symbol
 _atom_site_label
 _atom_site_symmetry_multiplicity
 _atom_site_fract_x
 _atom_site_fract_y
 _atom_site_fract_z
 _atom_site_occupancy
  Li  Li0  1  0.90584688  0.24037952  0.30443722  1
  Li  Li1  1  0.42748612  0.09295448  0.02889578  1
  Li  Li2  1  0.25160887  0.56590912  0.62611006  1
  Li  Li3  1  0.08172413  0.76742488  0.70722394  1
  Mn  Mn4  1  0.24254456  0.99414061  0.60835400  1
  Mn  Mn5  1  0.58471990  0.33748037  0.92981612  1
  Mn  Mn6  1  0.90798278  0.66087232  0.26547826  1
  Mn  Mn7  1  0.09078844  0.33919339  0.72497900  1
  Mn  Mn8  1  0.42535022  0.67246068  0.06785474  1
  Mn  Mn9  1  0.74861410  0.99585263  0.40351688  1
  B  B10  1  0.86643912  0.11403768  0.84844257  1
  B  B11  1  0.46689388  0.21929532  0.48489043  1
  B  B12  1  0.82856860  0.55546763  0.82080768  1
  B  B13  1  0.18910439  0.44480151  0.17816492  1
  B  B14  1  0.50476540  0.77786637  0.51252632  1
  B  B15  1  0.14422861  0.88853249  0.15516808  1
  O  O16  1  0.95079232  0.09608212  0.59777900  1
  O  O17  1  0.74127323  0.03889518  0.99752921  1
  O  O18  1  0.43557037  0.11562603  0.41145419  1
  O  O19  1  0.89776263  0.21770797  0.92187881  1
  O  O20  1  0.59206077  0.29443882  0.33580479  1
  O  O21  1  0.38254168  0.23725188  0.73555500  1
  O  O22  1  0.72684537  0.57638730  0.04894937  1
  O  O23  1  0.81875138  0.44733391  0.75765950  1
  O  O24  1  0.94457553  0.63641996  0.66667188  1
  O  O25  1  0.09666533  0.35583389  0.33271538  1
  O  O26  1  0.21105628  0.54720110  0.25919220  1
  O  O27  1  0.26331973  0.43558017  0.92216109  1
  O  O28  1  0.60648763  0.75694570  0.28438363  1
  O  O29  1  0.38875847  0.69691304  0.66666112  1
  O  O30  1  0.12227672  0.78613290  0.07414080  1
  O  O31  1  0.51458162  0.88599909  0.57567350  1
  O  O32  1  0.23666767  0.97749911  0.00061762  1
  O  O33  1  0.07001427  0.89775383  0.41117191  1
