# generated using pymatgen
data_Mn3O5F
_symmetry_space_group_name_H-M   'P 1'
_cell_length_a   4.54501644
_cell_length_b   4.54501644
_cell_length_c   9.02403538
_cell_angle_alpha   90.00000000
_cell_angle_beta   90.00000000
_cell_angle_gamma   92.04360678
_symmetry_Int_Tables_number   1
_chemical_formula_structural   Mn3O5F
_chemical_formula_sum   'Mn6 O10 F2'
_cell_volume   186.29251129
_cell_formula_units_Z   2
loop_
 _symmetry_equiv_pos_site_id
 _symmetry_equiv_pos_as_xyz
  1  'x, y, z'
loop_
 _atom_site_type_symbol
 _atom_site_label
 _atom_site_symmetry_multiplicity
 _atom_site_fract_x
 _atom_site_fract_y
 _atom_site_fract_z
 _atom_site_occupancy
  Mn  Mn0  1  0.00729902  0.99270098  0.00698618  1
  Mn  Mn1  1  0.00729902  0.99270098  0.32634682  1
  Mn  Mn2  1  0.01634650  0.98365350  0.66666700  1
  Mn  Mn3  1  0.48321845  0.51678155  0.83437502  1
  Mn  Mn4  1  0.50680520  0.49319480  0.16666700  1
  Mn  Mn5  1  0.48321845  0.51678155  0.49895898  1
  O  O6  1  0.19705466  0.80294534  0.16666700  1
  O  O7  1  0.19475738  0.80524262  0.49481440  1
  O  O8  1  0.19475738  0.80524262  0.83851860  1
  O  O9  1  0.30574273  0.30505122  0.00022205  1
  O  O10  1  0.30574273  0.30505122  0.33311095  1
  O  O11  1  0.30346839  0.30728856  0.66666700  1
  O  O12  1  0.69494878  0.69425727  0.00022205  1
  O  O13  1  0.69494878  0.69425727  0.33311095  1
  O  O14  1  0.69271144  0.69653161  0.66666700  1
  O  O15  1  0.80938979  0.19061021  0.16666700  1
  F  F16  1  0.80114516  0.19885484  0.49725669  1
  F  F17  1  0.80114516  0.19885484  0.83607731  1
