# generated using pymatgen
data_Li2Mn3(BO3)3
_symmetry_space_group_name_H-M   'P 1'
_cell_length_a   5.85628769
_cell_length_b   8.25964857
_cell_length_c   9.12689358
_cell_angle_alpha   67.10877912
_cell_angle_beta   102.36737778
_cell_angle_gamma   78.20653261
_symmetry_Int_Tables_number   1
_chemical_formula_structural   Li2Mn3(BO3)3
_chemical_formula_sum   'Li4 Mn6 B6 O18'
_cell_volume   376.41902164
_cell_formula_units_Z   2
loop_
 _symmetry_equiv_pos_site_id
 _symmetry_equiv_pos_as_xyz
  1  'x, y, z'
loop_
 _atom_site_type_symbol
 _atom_site_label
 _atom_site_symmetry_multiplicity
 _atom_site_fract_x
 _atom_site_fract_y
 _atom_site_fract_z
 _atom_site_occupancy
  Li  Li0  1  0.72430878  0.94732847  0.56249334  1
  Li  Li1  1  0.94245910  0.38588311  0.77101291  1
  Li  Li2  1  0.59467403  0.72216620  0.10539413  1
  Li  Li3  1  0.07189439  0.61127309  0.22775982  1
  Mn  Mn4  1  0.76499831  0.98611878  0.19166835  1
  Mn  Mn5  1  0.90163666  0.34732451  0.14140928  1
  Mn  Mn6  1  0.52855365  0.71721728  0.44484129  1
  Mn  Mn7  1  0.43496464  0.31511775  0.55120881  1
  Mn  Mn8  1  0.13807297  0.61622565  0.88851547  1
  Mn  Mn9  1  0.23149591  0.01833787  0.78200468  1
  B  B10  1  0.88111007  0.38044290  0.45503401  1
  B  B11  1  0.78577114  0.95257653  0.87883594  1
  B  B12  1  0.57729342  0.68731308  0.79583355  1
  B  B13  1  0.45488081  0.29543023  0.23426185  1
  B  B14  1  0.21188469  0.03775168  0.09930301  1
  B  B15  1  0.08952736  0.64595277  0.53742389  1
  O  O16  1  0.85274727  0.84792862  0.05052445  1
  O  O17  1  0.86981530  0.79409685  0.44966722  1
  O  O18  1  0.93722346  0.91230413  0.78816481  1
  O  O19  1  0.81383278  0.48553181  0.28276302  1
  O  O20  1  0.72965271  0.42052035  0.54501482  1
  O  O21  1  0.79692750  0.53917179  0.88365938  1
  O  O22  1  0.44288689  0.89583980  0.18610936  1
  O  O23  1  0.59259590  0.25870826  0.13633789  1
  O  O24  1  0.50427375  0.79625281  0.62719675  1
  O  O25  1  0.53856560  0.19863481  0.40315884  1
  O  O26  1  0.43439825  0.73245962  0.89021784  1
  O  O27  1  0.55559253  0.08790267  0.78771977  1
  O  O28  1  0.22390035  0.43748776  0.14729547  1
  O  O29  1  0.23219463  0.60071063  0.44327343  1
  O  O30  1  0.16241950  0.53704064  0.70618660  1
  O  O31  1  0.07396640  0.07449726  0.19711983  1
  O  O32  1  0.11076290  0.24623561  0.54525364  1
  O  O33  1  0.12805234  0.13488467  0.93000653  1
