# generated using pymatgen
data_Li2FeO2F
_symmetry_space_group_name_H-M   'P 1'
_cell_length_a   4.10695539
_cell_length_b   8.91490076
_cell_length_c   5.91208778
_cell_angle_alpha   90.00000000
_cell_angle_beta   90.00020374
_cell_angle_gamma   90.00000000
_symmetry_Int_Tables_number   1
_chemical_formula_structural   Li2FeO2F
_chemical_formula_sum   'Li8 Fe4 O8 F4'
_cell_volume   216.45985937
_cell_formula_units_Z   4
loop_
 _symmetry_equiv_pos_site_id
 _symmetry_equiv_pos_as_xyz
  1  'x, y, z'
loop_
 _atom_site_type_symbol
 _atom_site_label
 _atom_site_symmetry_multiplicity
 _atom_site_fract_x
 _atom_site_fract_y
 _atom_site_fract_z
 _atom_site_occupancy
  Li  Li0  1  0.24998759  0.74673453  0.85706932  1
  Li  Li1  1  0.24998759  0.75326547  0.35706932  1
  Li  Li2  1  0.25000825  0.41802170  0.88508074  1
  Li  Li3  1  0.25000825  0.08197830  0.38508074  1
  Li  Li4  1  0.74999175  0.91802170  0.61491926  1
  Li  Li5  1  0.74999175  0.58197830  0.11491926  1
  Li  Li6  1  0.75001241  0.24673453  0.64293068  1
  Li  Li7  1  0.75001241  0.25326547  0.14293068  1
  Fe  Fe8  1  0.24999221  0.10324648  0.89599291  1
  Fe  Fe9  1  0.24999221  0.39675352  0.39599291  1
  Fe  Fe10  1  0.75000779  0.60324648  0.60400709  1
  Fe  Fe11  1  0.75000779  0.89675352  0.10400709  1
  O  O12  1  0.25000436  0.57766829  0.60821045  1
  O  O13  1  0.25000436  0.92233171  0.10821045  1
  O  O14  1  0.25000349  0.24523186  0.63909285  1
  O  O15  1  0.25000349  0.25476814  0.13909285  1
  O  O16  1  0.74999651  0.74523186  0.86090715  1
  O  O17  1  0.74999651  0.75476814  0.36090715  1
  O  O18  1  0.74999564  0.07766829  0.89178955  1
  O  O19  1  0.74999564  0.42233171  0.39178955  1
  F  F20  1  0.24997035  0.92592980  0.62561791  1
  F  F21  1  0.24997035  0.57407020  0.12561791  1
  F  F22  1  0.75002965  0.42592980  0.87438209  1
  F  F23  1  0.75002965  0.07407020  0.37438209  1
