# generated using pymatgen
data_LiMnPO4
_symmetry_space_group_name_H-M   'P 1'
_cell_length_a   11.43767759
_cell_length_b   6.13643634
_cell_length_c   5.09401558
_cell_angle_alpha   90.00000000
_cell_angle_beta   90.00000000
_cell_angle_gamma   90.00000000
_symmetry_Int_Tables_number   1
_chemical_formula_structural   LiMnPO4
_chemical_formula_sum   'Li4 Mn4 P4 O16'
_cell_volume   357.53153411
_cell_formula_units_Z   4
loop_
 _symmetry_equiv_pos_site_id
 _symmetry_equiv_pos_as_xyz
  1  'x, y, z'
loop_
 _atom_site_type_symbol
 _atom_site_label
 _atom_site_symmetry_multiplicity
 _atom_site_fract_x
 _atom_site_fract_y
 _atom_site_fract_z
 _atom_site_occupancy
  Li  Li0  1  0.06471512  0.21632955  0.99409427  1
  Li  Li1  1  0.43528488  0.71632955  0.49409427  1
  Li  Li2  1  0.56471512  0.28367045  0.99409427  1
  Li  Li3  1  0.93528488  0.78367045  0.49409427  1
  Mn  Mn4  1  0.17026511  0.47499003  0.48987479  1
  Mn  Mn5  1  0.32973489  0.97499003  0.98987479  1
  Mn  Mn6  1  0.67026511  0.02500997  0.48987479  1
  Mn  Mn7  1  0.82973489  0.52500997  0.98987479  1
  P  P8  1  0.08497841  0.73529106  0.99721940  1
  P  P9  1  0.41502159  0.23529106  0.49721940  1
  P  P10  1  0.58497841  0.76470894  0.99721940  1
  P  P11  1  0.91502159  0.26470894  0.49721940  1
  O  O12  1  0.04162198  0.24691093  0.38532314  1
  O  O13  1  0.08231291  0.72512250  0.30118511  1
  O  O14  1  0.15426133  0.94201763  0.90999949  1
  O  O15  1  0.14576958  0.52362858  0.89319280  1
  O  O16  1  0.35423042  0.02362858  0.39319280  1
  O  O17  1  0.34573867  0.44201763  0.40999949  1
  O  O18  1  0.41768709  0.22512250  0.80118511  1
  O  O19  1  0.45837802  0.74691093  0.88532314  1
  O  O20  1  0.54162198  0.25308907  0.38532314  1
  O  O21  1  0.58231291  0.77487750  0.30118511  1
  O  O22  1  0.65426133  0.55798237  0.90999949  1
  O  O23  1  0.64576958  0.97637142  0.89319280  1
  O  O24  1  0.85423042  0.47637142  0.39319280  1
  O  O25  1  0.84573867  0.05798237  0.40999949  1
  O  O26  1  0.91768709  0.27487750  0.80118511  1
  O  O27  1  0.95837802  0.75308907  0.88532314  1
