# generated using pymatgen
data_Li8FeO5F
_symmetry_space_group_name_H-M   'P 1'
_cell_length_a   5.39511692
_cell_length_b   6.07579103
_cell_length_c   5.44681288
_cell_angle_alpha   114.71482040
_cell_angle_beta   63.08863055
_cell_angle_gamma   118.11416649
_symmetry_Int_Tables_number   1
_chemical_formula_structural   Li8FeO5F
_chemical_formula_sum   'Li8 Fe1 O5 F1'
_cell_volume   135.57911484
_cell_formula_units_Z   1
loop_
 _symmetry_equiv_pos_site_id
 _symmetry_equiv_pos_as_xyz
  1  'x, y, z'
loop_
 _atom_site_type_symbol
 _atom_site_label
 _atom_site_symmetry_multiplicity
 _atom_site_fract_x
 _atom_site_fract_y
 _atom_site_fract_z
 _atom_site_occupancy
  Li  Li0  1  0.11071560  0.35569447  0.47411283  1
  Li  Li1  1  0.53161623  0.65841570  0.23299958  1
  Li  Li2  1  0.23270898  0.63608440  0.89486982  1
  Li  Li3  1  0.29481850  0.01605781  0.34561689  1
  Li  Li4  1  0.67135703  0.96898032  0.67536404  1
  Li  Li5  1  0.76627218  0.34604980  0.09559847  1
  Li  Li6  1  0.46820544  0.36949780  0.79509306  1
  Li  Li7  1  0.89154847  0.64835935  0.51564728  1
  Fe  Fe8  1  0.03581518  0.96834613  0.94809108  1
  O  O9  1  0.25209629  0.76211811  0.60091818  1
  O  O10  1  0.37121654  0.24075283  0.10203943  1
  O  O11  1  0.07282166  0.23286772  0.76845917  1
  O  O12  1  0.93096507  0.76184210  0.22224211  1
  O  O13  1  0.63025215  0.75810852  0.89970084  1
  F  F14  1  0.73959169  0.27682594  0.42924824  1
