# generated using pymatgen
data_LiMnSiO4
_symmetry_space_group_name_H-M   'P 1'
_cell_length_a   4.90827468
_cell_length_b   4.90827468
_cell_length_c   6.31551064
_cell_angle_alpha   90.00000000
_cell_angle_beta   90.00000000
_cell_angle_gamma   68.61795148
_symmetry_Int_Tables_number   1
_chemical_formula_structural   LiMnSiO4
_chemical_formula_sum   'Li2 Mn2 Si2 O8'
_cell_volume   141.67564775
_cell_formula_units_Z   2
loop_
 _symmetry_equiv_pos_site_id
 _symmetry_equiv_pos_as_xyz
  1  'x, y, z'
loop_
 _atom_site_type_symbol
 _atom_site_label
 _atom_site_symmetry_multiplicity
 _atom_site_fract_x
 _atom_site_fract_y
 _atom_site_fract_z
 _atom_site_occupancy
  Li  Li0  1  0.32629443  0.32629443  0.75000000  1
  Li  Li1  1  0.67370557  0.67370557  0.25000000  1
  Mn  Mn2  1  0.00000000  0.00000000  0.00000000  1
  Mn  Mn3  1  0.00000000  0.00000000  0.50000000  1
  Si  Si4  1  0.34639331  0.34639331  0.25000000  1
  Si  Si5  1  0.65360669  0.65360669  0.75000000  1
  O  O6  1  0.28972842  0.76523276  0.75000000  1
  O  O7  1  0.23476724  0.71027158  0.25000000  1
  O  O8  1  0.23307321  0.23307321  0.03647965  1
  O  O9  1  0.23307321  0.23307321  0.46352035  1
  O  O10  1  0.76692679  0.76692679  0.53647965  1
  O  O11  1  0.76692679  0.76692679  0.96352035  1
  O  O12  1  0.76523276  0.28972842  0.75000000  1
  O  O13  1  0.71027158  0.23476724  0.25000000  1
