# generated using pymatgen
data_LiV2P4(HO8)2
_symmetry_space_group_name_H-M   'P 1'
_cell_length_a   9.75632687
_cell_length_b   7.89122695
_cell_length_c   7.75770001
_cell_angle_alpha   90.00000000
_cell_angle_beta   66.78340498
_cell_angle_gamma   90.00000000
_symmetry_Int_Tables_number   1
_chemical_formula_structural   LiV2P4(HO8)2
_chemical_formula_sum   'Li2 V4 P8 H4 O32'
_cell_volume   548.89514258
_cell_formula_units_Z   2
loop_
 _symmetry_equiv_pos_site_id
 _symmetry_equiv_pos_as_xyz
  1  'x, y, z'
loop_
 _atom_site_type_symbol
 _atom_site_label
 _atom_site_symmetry_multiplicity
 _atom_site_fract_x
 _atom_site_fract_y
 _atom_site_fract_z
 _atom_site_occupancy
  Li  Li0  1  0.27385439  0.86922572  0.84891250  1
  Li  Li1  1  0.72614561  0.36922572  0.65108750  1
  V  V2  1  0.24726200  0.49506260  0.00472898  1
  V  V3  1  0.25123163  0.00688709  0.48740902  1
  V  V4  1  0.74876837  0.50688709  0.01259098  1
  V  V5  1  0.75273800  0.99506260  0.49527102  1
  P  P6  1  0.06910265  0.84508707  0.23263362  1
  P  P7  1  0.07166803  0.65037168  0.73371019  1
  P  P8  1  0.42989559  0.35894968  0.27276843  1
  P  P9  1  0.57010441  0.85894968  0.22723157  1
  P  P10  1  0.43124646  0.15609245  0.76212626  1
  P  P11  1  0.56875354  0.65609245  0.73787374  1
  P  P12  1  0.93089735  0.34508707  0.26736638  1
  P  P13  1  0.92833197  0.15037168  0.76628981  1
  H  H14  1  0.01240518  0.51152754  0.50941220  1
  H  H15  1  0.51081165  0.50675219  0.51449042  1
  H  H16  1  0.48918835  0.00675219  0.98550958  1
  H  H17  1  0.98759482  0.01152754  0.99058780  1
  O  O18  1  0.09534361  0.94315486  0.05419872  1
  O  O19  1  0.09641390  0.32809293  0.13587230  1
  O  O20  1  0.14201263  0.67023689  0.18694375  1
  O  O21  1  0.14562234  0.94416267  0.35180996  1
  O  O22  1  0.09634500  0.55546767  0.55145297  1
  O  O23  1  0.09877340  0.16297544  0.63878858  1
  O  O24  1  0.14659145  0.82775680  0.68480457  1
  O  O25  1  0.14552891  0.55701226  0.84928518  1
  O  O26  1  0.35272943  0.44182806  0.15517543  1
  O  O27  1  0.36042813  0.17407688  0.32453379  1
  O  O28  1  0.40114421  0.84053551  0.36145474  1
  O  O29  1  0.40890628  0.45156077  0.45005471  1
  O  O30  1  0.35416612  0.05271934  0.65329618  1
  O  O31  1  0.36073949  0.33025159  0.81682609  1
  O  O32  1  0.59109372  0.95156077  0.04994529  1
  O  O33  1  0.59885579  0.34053551  0.13854526  1
  O  O34  1  0.40048191  0.67533488  0.86065276  1
  O  O35  1  0.40243087  0.04760946  0.94004099  1
  O  O36  1  0.63957187  0.67407688  0.17546621  1
  O  O37  1  0.64727057  0.94182806  0.34482457  1
  O  O38  1  0.59756913  0.54760946  0.55995901  1
  O  O39  1  0.59951809  0.17533488  0.63934724  1
  O  O40  1  0.63926051  0.83025159  0.68317391  1
  O  O41  1  0.64583388  0.55271934  0.84670382  1
  O  O42  1  0.85437766  0.44416267  0.14819004  1
  O  O43  1  0.85798737  0.17023689  0.31305625  1
  O  O44  1  0.90358610  0.82809293  0.36412770  1
  O  O45  1  0.90465639  0.44315486  0.44580128  1
  O  O46  1  0.85447109  0.05701226  0.65071482  1
  O  O47  1  0.85340855  0.32775680  0.81519543  1
  O  O48  1  0.90122660  0.66297544  0.86121142  1
  O  O49  1  0.90365500  0.05546767  0.94854703  1
