# generated using pymatgen
data_LiV2P4(HO8)2
_symmetry_space_group_name_H-M   'P 1'
_cell_length_a   12.55235652
_cell_length_b   9.26217791
_cell_length_c   7.35544090
_cell_angle_alpha   97.67112853
_cell_angle_beta   101.07723912
_cell_angle_gamma   97.05400090
_symmetry_Int_Tables_number   1
_chemical_formula_structural   LiV2P4(HO8)2
_chemical_formula_sum   'Li3 V6 P12 H6 O48'
_cell_volume   821.97075722
_cell_formula_units_Z   3
loop_
 _symmetry_equiv_pos_site_id
 _symmetry_equiv_pos_as_xyz
  1  'x, y, z'
loop_
 _atom_site_type_symbol
 _atom_site_label
 _atom_site_symmetry_multiplicity
 _atom_site_fract_x
 _atom_site_fract_y
 _atom_site_fract_z
 _atom_site_occupancy
  Li  Li0  1  0.17378918  0.04458227  0.84694216  1
  Li  Li1  1  0.75895732  0.39025751  0.35215452  1
  Li  Li2  1  0.57684954  0.94824818  0.64926848  1
  V  V3  1  0.00021938  0.50047457  0.00212105  1
  V  V4  1  0.33349128  0.33343132  0.49666852  1
  V  V5  1  0.99575844  0.99707379  0.48895503  1
  V  V6  1  0.66657288  0.16659963  0.00232530  1
  V  V7  1  0.33382125  0.82486807  0.00942988  1
  V  V8  1  0.66671147  0.66765252  0.49847886  1
  P  P9  1  0.17498374  0.02350340  0.23414990  1
  P  P10  1  0.15723271  0.31196503  0.76160850  1
  P  P11  1  0.40291654  0.06043612  0.73401333  1
  P  P12  1  0.07591417  0.72524186  0.73502801  1
  P  P13  1  0.25681589  0.60991895  0.27566756  1
  P  P14  1  0.50570450  0.36253853  0.22952588  1
  P  P15  1  0.49099709  0.64327123  0.76835534  1
  P  P16  1  0.74199849  0.39391373  0.74012097  1
  P  P17  1  0.92887752  0.27815007  0.26845677  1
  P  P18  1  0.59110948  0.94288020  0.26674688  1
  P  P19  1  0.83813107  0.68950422  0.22355435  1
  P  P20  1  0.82535683  0.97491857  0.76385952  1
  H  H21  1  0.00854105  0.51438537  0.51080512  1
  H  H22  1  0.32279064  0.32973868  0.99233831  1
  H  H23  1  0.33850974  0.84808140  0.50728865  1
  H  H24  1  0.67519542  0.18265166  0.51276786  1
  H  H25  1  0.65457559  0.66081464  0.98997540  1
  H  H26  1  0.98253720  0.99296292  0.98745258  1
  O  O27  1  0.10152050  0.15648692  0.65636179  1
  O  O28  1  0.07037812  0.40255237  0.81929220  1
  O  O29  1  0.10170763  0.04433548  0.05356669  1
  O  O30  1  0.00162986  0.33890684  0.13537209  1
  O  O31  1  0.23395357  0.28325963  0.93996611  1
  O  O32  1  0.23587845  0.17575225  0.34991570  1
  O  O33  1  0.06497021  0.61749763  0.55378636  1
  O  O34  1  0.22184436  0.38996414  0.63351653  1
  O  O35  1  0.37595810  0.20934821  0.67698710  1
  O  O36  1  0.05164276  0.87694535  0.69124771  1
  O  O37  1  0.52340809  0.07881353  0.84045038  1
  O  O38  1  0.19641895  0.75036606  0.85454125  1
  O  O39  1  0.13903406  0.58152470  0.15216782  1
  O  O40  1  0.28786569  0.45915702  0.32092943  1
  O  O41  1  0.44306353  0.28466905  0.36550492  1
  O  O42  1  0.11541542  0.94387112  0.36455520  1
  O  O43  1  0.27135719  0.72074342  0.44985477  1
  O  O44  1  0.60242821  0.05185972  0.44541794  1
  O  O45  1  0.43194786  0.49414866  0.64936631  1
  O  O46  1  0.72947669  0.05375686  0.81059235  1
  O  O47  1  0.40090424  0.73114348  0.82683035  1
  O  O48  1  0.42716368  0.37642536  0.05212925  1
  O  O49  1  0.66272203  0.00578522  0.13562447  1
  O  O50  1  0.33255090  0.66709716  0.14151322  1
  O  O51  1  0.66733235  0.32818664  0.86247015  1
  O  O52  1  0.32480925  0.00247994  0.85601925  1
  O  O53  1  0.56657247  0.61807968  0.94635196  1
  O  O54  1  0.26687420  0.93511820  0.17908556  1
  O  O55  1  0.60135360  0.27953624  0.19168331  1
  O  O56  1  0.56400258  0.51359184  0.34938036  1
  O  O57  1  0.73132281  0.28399971  0.55530958  1
  O  O58  1  0.39755050  0.94993233  0.55389050  1
  O  O59  1  0.55271046  0.73172168  0.64462985  1
  O  O60  1  0.88735215  0.05564377  0.63702955  1
  O  O61  1  0.71159188  0.53800449  0.68407037  1
  O  O62  1  0.86268020  0.41592467  0.85085163  1
  O  O63  1  0.47003068  0.91502353  0.14790578  1
  O  O64  1  0.80723022  0.25674844  0.15862005  1
  O  O65  1  0.96103934  0.13058747  0.31285654  1
  O  O66  1  0.62174975  0.79527586  0.31293737  1
  O  O67  1  0.77998404  0.60420225  0.35576950  1
  O  O68  1  0.93627926  0.38988951  0.44329559  1
  O  O69  1  0.76816399  0.82145319  0.64961803  1
  O  O70  1  0.76187538  0.71044955  0.04856762  1
  O  O71  1  0.00210223  0.66425600  0.86374096  1
  O  O72  1  0.89890090  0.95549707  0.94937514  1
  O  O73  1  0.93120997  0.60247613  0.17216678  1
  O  O74  1  0.89876725  0.83901919  0.34598689  1
