# generated using pymatgen
data_Li4V3Cr3O12
_symmetry_space_group_name_H-M   'P 1'
_cell_length_a   6.00323645
_cell_length_b   7.87745498
_cell_length_c   5.17530648
_cell_angle_alpha   77.91699348
_cell_angle_beta   72.89179050
_cell_angle_gamma   78.17311601
_symmetry_Int_Tables_number   1
_chemical_formula_structural   Li4V3Cr3O12
_chemical_formula_sum   'Li4 V3 Cr3 O12'
_cell_volume   226.02194024
_cell_formula_units_Z   1
loop_
 _symmetry_equiv_pos_site_id
 _symmetry_equiv_pos_as_xyz
  1  'x, y, z'
loop_
 _atom_site_type_symbol
 _atom_site_label
 _atom_site_symmetry_multiplicity
 _atom_site_fract_x
 _atom_site_fract_y
 _atom_site_fract_z
 _atom_site_occupancy
  Li  Li0  1  0.83399776  0.16495178  0.49588225  1
  Li  Li1  1  0.16600224  0.83504822  0.50411775  1
  Li  Li2  1  0.66601131  0.33491994  0.00181663  1
  Li  Li3  1  0.33398869  0.66508006  0.99818337  1
  V  V4  1  0.83002654  0.67387492  0.00141971  1
  V  V5  1  0.50000000  0.00000000  0.00000000  1
  V  V6  1  0.16997346  0.32612508  0.99858029  1
  Cr  Cr7  1  0.66918596  0.83281180  0.49588639  1
  Cr  Cr8  1  0.33081404  0.16718820  0.50411361  1
  Cr  Cr9  1  0.00000000  0.50000000  0.50000000  1
  O  O10  1  0.81703771  0.90312959  0.74985986  1
  O  O11  1  0.98409970  0.73244613  0.25874368  1
  O  O12  1  0.69038600  0.59750056  0.75185721  1
  O  O13  1  0.36175554  0.92463110  0.73492338  1
  O  O14  1  0.86880836  0.42168582  0.22507234  1
  O  O15  1  0.52710636  0.75472505  0.22937117  1
  O  O16  1  0.47289364  0.24527495  0.77062883  1
  O  O17  1  0.13119164  0.57831418  0.77492766  1
  O  O18  1  0.63824446  0.07536890  0.26507662  1
  O  O19  1  0.30961400  0.40249944  0.24814279  1
  O  O20  1  0.01590030  0.26755387  0.74125632  1
  O  O21  1  0.18296229  0.09687041  0.25014014  1
