# generated using pymatgen
data_Li4Ti2Mn3Cu3O16
_symmetry_space_group_name_H-M   'P 1'
_cell_length_a   5.84941381
_cell_length_b   5.82456801
_cell_length_c   9.49503293
_cell_angle_alpha   89.57240989
_cell_angle_beta   89.41045757
_cell_angle_gamma   119.46126023
_symmetry_Int_Tables_number   1
_chemical_formula_structural   Li4Ti2Mn3Cu3O16
_chemical_formula_sum   'Li4 Ti2 Mn3 Cu3 O16'
_cell_volume   281.62253159
_cell_formula_units_Z   1
loop_
 _symmetry_equiv_pos_site_id
 _symmetry_equiv_pos_as_xyz
  1  'x, y, z'
loop_
 _atom_site_type_symbol
 _atom_site_label
 _atom_site_symmetry_multiplicity
 _atom_site_fract_x
 _atom_site_fract_y
 _atom_site_fract_z
 _atom_site_occupancy
  Li  Li0  1  0.33884253  0.67297339  0.89683595  1
  Li  Li1  1  0.99898176  0.00006605  0.99689178  1
  Li  Li2  1  0.00056518  0.00020294  0.49309546  1
  Li  Li3  1  0.67046742  0.33344976  0.39431728  1
  Ti  Ti4  1  0.31911408  0.65956836  0.49086204  1
  Ti  Ti5  1  0.65918650  0.33354902  0.00035224  1
  Mn  Mn6  1  0.65561095  0.82736037  0.21604636  1
  Mn  Mn7  1  0.82978303  0.66027330  0.71487493  1
  Mn  Mn8  1  0.82846725  0.16767704  0.71489746  1
  Cu  Cu9  1  0.16768170  0.82855140  0.21456374  1
  Cu  Cu10  1  0.16824632  0.33881738  0.21395622  1
  Cu  Cu11  1  0.33983343  0.17420712  0.71521611  1
  O  O12  1  0.14671933  0.81155425  0.59025838  1
  O  O13  1  0.04233074  0.51723967  0.35018993  1
  O  O14  1  0.34033206  0.67143089  0.10855007  1
  O  O15  1  0.98945700  0.99386029  0.30507325  1
  O  O16  1  0.99351398  0.99394240  0.80700306  1
  O  O17  1  0.15686894  0.32743815  0.59438999  1
  O  O18  1  0.49504808  0.96272825  0.34379954  1
  O  O19  1  0.49477628  0.52860684  0.34237186  1
  O  O20  1  0.33485662  0.16897636  0.08511125  1
  O  O21  1  0.67057537  0.83664055  0.60419546  1
  O  O22  1  0.54493424  0.50667834  0.84477543  1
  O  O23  1  0.53244992  0.04491435  0.83931265  1
  O  O24  1  0.67491867  0.33999419  0.60941079  1
  O  O25  1  0.81929191  0.66376115  0.09678704  1
  O  O26  1  0.96936422  0.48119945  0.82993052  1
  O  O27  1  0.81778250  0.15463972  0.09477020  1
