# generated using pymatgen
data_Mn3O5F
_symmetry_space_group_name_H-M   'P 1'
_cell_length_a   7.24299724
_cell_length_b   5.45439369
_cell_length_c   5.45439369
_cell_angle_alpha   70.82505602
_cell_angle_beta   71.21801503
_cell_angle_gamma   71.21801503
_symmetry_Int_Tables_number   1
_chemical_formula_structural   Mn3O5F
_chemical_formula_sum   'Mn6 O10 F2'
_cell_volume   186.97203440
_cell_formula_units_Z   2
loop_
 _symmetry_equiv_pos_site_id
 _symmetry_equiv_pos_as_xyz
  1  'x, y, z'
loop_
 _atom_site_type_symbol
 _atom_site_label
 _atom_site_symmetry_multiplicity
 _atom_site_fract_x
 _atom_site_fract_y
 _atom_site_fract_z
 _atom_site_occupancy
  Mn  Mn0  1  0.84445451  0.67411805  0.67411805  1
  Mn  Mn1  1  0.66892951  0.32777340  0.32777340  1
  Mn  Mn2  1  0.32045865  0.65619213  0.65619213  1
  Mn  Mn3  1  0.16289046  0.33092535  0.33092535  1
  Mn  Mn4  1  0.50843890  0.00387351  0.00387351  1
  Mn  Mn5  1  0.99128073  0.00472100  0.00472100  1
  O  O6  1  0.66689692  0.02721502  0.63867497  1
  O  O7  1  0.33495197  0.36238491  0.97054176  1
  O  O8  1  0.96121493  0.23119656  0.23119656  1
  O  O9  1  0.70521102  0.10325319  0.10325319  1
  O  O10  1  0.03355073  0.77250530  0.77250530  1
  O  O11  1  0.37230109  0.43087592  0.43087592  1
  O  O12  1  0.33495197  0.97054176  0.36238491  1
  O  O13  1  0.66689692  0.63867497  0.02721502  1
  O  O14  1  0.99951374  0.30758888  0.69599575  1
  O  O15  1  0.99951374  0.69599575  0.30758888  1
  F  F16  1  0.29593188  0.89536653  0.89536653  1
  F  F17  1  0.63261236  0.56679776  0.56679776  1
