# generated using pymatgen
data_Tb2TiO5
_symmetry_space_group_name_H-M   'P 1'
_cell_length_a   7.48769647
_cell_length_b   3.64796227
_cell_length_c   15.65112189
_cell_angle_alpha   90.00000000
_cell_angle_beta   90.00000000
_cell_angle_gamma   90.00000000
_symmetry_Int_Tables_number   1
_chemical_formula_structural   Tb2TiO5
_chemical_formula_sum   'Tb8 Ti4 O20'
_cell_volume   427.50779965
_cell_formula_units_Z   4
loop_
 _symmetry_equiv_pos_site_id
 _symmetry_equiv_pos_as_xyz
  1  'x, y, z'
loop_
 _atom_site_type_symbol
 _atom_site_label
 _atom_site_symmetry_multiplicity
 _atom_site_fract_x
 _atom_site_fract_y
 _atom_site_fract_z
 _atom_site_occupancy
  Tb  Tb0  1  0.11302045  0.25000000  0.08259365  1
  Tb  Tb1  1  0.14322348  0.25000000  0.73844048  1
  Tb  Tb2  1  0.35677652  0.75000000  0.23844048  1
  Tb  Tb3  1  0.38697955  0.75000000  0.58259365  1
  Tb  Tb4  1  0.61302045  0.25000000  0.41740635  1
  Tb  Tb5  1  0.64322348  0.25000000  0.76155952  1
  Tb  Tb6  1  0.85677652  0.75000000  0.26155952  1
  Tb  Tb7  1  0.88697955  0.75000000  0.91740635  1
  Ti  Ti8  1  0.12355660  0.25000000  0.42300156  1
  Ti  Ti9  1  0.37644340  0.75000000  0.92300156  1
  Ti  Ti10  1  0.62355660  0.25000000  0.07699844  1
  Ti  Ti11  1  0.87644340  0.75000000  0.57699844  1
  O  O12  1  0.08942813  0.75000000  0.17382208  1
  O  O13  1  0.08335939  0.75000000  0.45392896  1
  O  O14  1  0.10386236  0.75000000  0.64935875  1
  O  O15  1  0.15425495  0.75000000  0.99457117  1
  O  O16  1  0.26503793  0.25000000  0.32553189  1
  O  O17  1  0.23496207  0.75000000  0.82553189  1
  O  O18  1  0.34574505  0.25000000  0.49457117  1
  O  O19  1  0.39613764  0.25000000  0.14935875  1
  O  O20  1  0.41664061  0.25000000  0.95392896  1
  O  O21  1  0.41057187  0.25000000  0.67382208  1
  O  O22  1  0.58942813  0.75000000  0.32617792  1
  O  O23  1  0.58335939  0.75000000  0.04607104  1
  O  O24  1  0.60386236  0.75000000  0.85064125  1
  O  O25  1  0.65425495  0.75000000  0.50542883  1
  O  O26  1  0.76503793  0.25000000  0.17446811  1
  O  O27  1  0.73496207  0.75000000  0.67446811  1
  O  O28  1  0.84574505  0.25000000  0.00542883  1
  O  O29  1  0.89613764  0.25000000  0.35064125  1
  O  O30  1  0.91664061  0.25000000  0.54607104  1
  O  O31  1  0.91057187  0.25000000  0.82617792  1
