# generated using pymatgen
data_LiMn4(PO4)3
_symmetry_space_group_name_H-M   'P 1'
_cell_length_a   6.59007843
_cell_length_b   15.96926964
_cell_length_c   10.16624411
_cell_angle_alpha   90.00000000
_cell_angle_beta   90.00000000
_cell_angle_gamma   90.00000000
_symmetry_Int_Tables_number   1
_chemical_formula_structural   LiMn4(PO4)3
_chemical_formula_sum   'Li4 Mn16 P12 O48'
_cell_volume   1069.88271454
_cell_formula_units_Z   4
loop_
 _symmetry_equiv_pos_site_id
 _symmetry_equiv_pos_as_xyz
  1  'x, y, z'
loop_
 _atom_site_type_symbol
 _atom_site_label
 _atom_site_symmetry_multiplicity
 _atom_site_fract_x
 _atom_site_fract_y
 _atom_site_fract_z
 _atom_site_occupancy
  Li  Li0  1  0.25000000  0.21189050  0.74168540  1
  Li  Li1  1  0.25000000  0.28810950  0.24168540  1
  Li  Li2  1  0.75000000  0.78810950  0.25831460  1
  Li  Li3  1  0.75000000  0.71189050  0.75831460  1
  Mn  Mn4  1  0.00003888  0.55256169  0.25480691  1
  Mn  Mn5  1  0.00003888  0.94743831  0.75480691  1
  Mn  Mn6  1  0.25000000  0.62634274  0.57220000  1
  Mn  Mn7  1  0.25000000  0.63192816  0.96511251  1
  Mn  Mn8  1  0.25000000  0.86807184  0.46511251  1
  Mn  Mn9  1  0.25000000  0.87365726  0.07220000  1
  Mn  Mn10  1  0.49996112  0.55256169  0.25480691  1
  Mn  Mn11  1  0.49996112  0.94743831  0.75480691  1
  Mn  Mn12  1  0.50003888  0.44743831  0.74519309  1
  Mn  Mn13  1  0.50003888  0.05256169  0.24519309  1
  Mn  Mn14  1  0.75000000  0.37365726  0.42780000  1
  Mn  Mn15  1  0.75000000  0.13192816  0.53488749  1
  Mn  Mn16  1  0.75000000  0.36807184  0.03488749  1
  Mn  Mn17  1  0.75000000  0.12634274  0.92780000  1
  Mn  Mn18  1  -0.00003888  0.05256169  0.24519309  1
  Mn  Mn19  1  -0.00003888  0.44743831  0.74519309  1
  P  P20  1  0.25000000  0.06325302  0.52663039  1
  P  P21  1  0.25000000  0.05639681  0.94852432  1
  P  P22  1  0.25000000  0.44360319  0.44852432  1
  P  P23  1  0.25000000  0.77409012  0.79580934  1
  P  P24  1  0.25000000  0.43674698  0.02663039  1
  P  P25  1  0.25000000  0.72590988  0.29580934  1
  P  P26  1  0.75000000  0.27409012  0.70419066  1
  P  P27  1  0.75000000  0.22590988  0.20419066  1
  P  P28  1  0.75000000  0.55639681  0.55147568  1
  P  P29  1  0.75000000  0.93674698  0.47336961  1
  P  P30  1  0.75000000  0.94360319  0.05147568  1
  P  P31  1  0.75000000  0.56325302  0.97336961  1
  O  O32  1  0.05997371  0.40237289  0.38990250  1
  O  O33  1  0.05997371  0.09762711  0.88990250  1
  O  O34  1  0.06122460  0.11498848  0.55589106  1
  O  O35  1  0.06122460  0.38501152  0.05589106  1
  O  O36  1  0.05425766  0.68268690  0.24358691  1
  O  O37  1  0.05425766  0.81731310  0.74358691  1
  O  O38  1  0.25000000  0.05338234  0.10227984  1
  O  O39  1  0.25000000  0.02982468  0.37942993  1
  O  O40  1  0.25000000  0.68018821  0.75769473  1
  O  O41  1  0.25000000  0.72978188  0.44973750  1
  O  O42  1  0.25000000  0.53865878  0.40042873  1
  O  O43  1  0.25000000  0.98013949  0.61459513  1
  O  O44  1  0.25000000  0.96134122  0.90042873  1
  O  O45  1  0.25000000  0.51986051  0.11459513  1
  O  O46  1  0.25000000  0.77021812  0.94973750  1
  O  O47  1  0.25000000  0.44661766  0.60227984  1
  O  O48  1  0.25000000  0.47017532  0.87942993  1
  O  O49  1  0.25000000  0.81981179  0.25769473  1
  O  O50  1  0.44574234  0.68268690  0.24358691  1
  O  O51  1  0.44574234  0.81731310  0.74358691  1
  O  O52  1  0.43877540  0.11498848  0.55589106  1
  O  O53  1  0.43877540  0.38501152  0.05589106  1
  O  O54  1  0.44002629  0.09762711  0.88990250  1
  O  O55  1  0.44002629  0.40237289  0.38990250  1
  O  O56  1  0.55997371  0.59762711  0.61009750  1
  O  O57  1  0.55997371  0.90237289  0.11009750  1
  O  O58  1  0.56122460  0.61498848  0.94410894  1
  O  O59  1  0.56122460  0.88501152  0.44410894  1
  O  O60  1  0.55425766  0.18268690  0.25641309  1
  O  O61  1  0.55425766  0.31731310  0.75641309  1
  O  O62  1  0.75000000  0.46134122  0.59957127  1
  O  O63  1  0.75000000  0.97017532  0.62057007  1
  O  O64  1  0.75000000  0.01986051  0.38540487  1
  O  O65  1  0.75000000  0.03865878  0.09957127  1
  O  O66  1  0.75000000  0.22978188  0.05026250  1
  O  O67  1  0.75000000  0.27021812  0.55026250  1
  O  O68  1  0.75000000  0.31981179  0.24230527  1
  O  O69  1  0.75000000  0.18018821  0.74230527  1
  O  O70  1  0.75000000  0.52982468  0.12057007  1
  O  O71  1  0.75000000  0.55338234  0.39772016  1
  O  O72  1  0.75000000  0.48013949  0.88540487  1
  O  O73  1  0.75000000  0.94661766  0.89772016  1
  O  O74  1  0.94574234  0.18268690  0.25641309  1
  O  O75  1  0.94574234  0.31731310  0.75641309  1
  O  O76  1  0.93877540  0.88501152  0.44410894  1
  O  O77  1  0.93877540  0.61498848  0.94410894  1
  O  O78  1  0.94002629  0.59762711  0.61009750  1
  O  O79  1  0.94002629  0.90237289  0.11009750  1
