# generated using pymatgen
data_Li3V3P8O29
_symmetry_space_group_name_H-M   'P 1'
_cell_length_a   9.78830823
_cell_length_b   9.75202428
_cell_length_c   14.15339098
_cell_angle_alpha   90.05553824
_cell_angle_beta   90.24446808
_cell_angle_gamma   59.94367005
_symmetry_Int_Tables_number   1
_chemical_formula_structural   Li3V3P8O29
_chemical_formula_sum   'Li6 V6 P16 O58'
_cell_volume   1169.34430428
_cell_formula_units_Z   2
loop_
 _symmetry_equiv_pos_site_id
 _symmetry_equiv_pos_as_xyz
  1  'x, y, z'
loop_
 _atom_site_type_symbol
 _atom_site_label
 _atom_site_symmetry_multiplicity
 _atom_site_fract_x
 _atom_site_fract_y
 _atom_site_fract_z
 _atom_site_occupancy
  Li  Li0  1  0.67318032  0.66437901  0.38958465  1
  Li  Li1  1  0.31370143  0.77058084  0.55401259  1
  Li  Li2  1  0.23141216  0.67555381  0.94752674  1
  Li  Li3  1  0.09281146  0.23362923  0.94470905  1
  Li  Li4  1  0.95373031  0.01558076  0.00971592  1
  Li  Li5  1  0.95328974  0.03492776  0.48643895  1
  V  V6  1  0.57128902  0.42717257  0.24764174  1
  V  V7  1  0.44154863  0.55743651  0.75109351  1
  V  V8  1  0.56470447  0.00071881  0.75184407  1
  V  V9  1  0.43391533  0.00189331  0.24717570  1
  V  V10  1  0.00127089  0.56839988  0.25110879  1
  V  V11  1  0.99929216  0.43798841  0.74204916  1
  P  P12  1  0.91748036  0.77467957  0.83950649  1
  P  P13  1  0.77905884  0.91334195  0.34399492  1
  P  P14  1  0.91238448  0.30661826  0.34297313  1
  P  P15  1  0.66749232  0.66514403  0.13124365  1
  P  P16  1  0.66183887  0.67060533  0.63063808  1
  P  P17  1  0.78314291  0.30521496  0.84247525  1
  P  P18  1  0.69463472  0.21948372  0.65773026  1
  P  P19  1  0.30920427  0.91548186  0.84303775  1
  P  P20  1  0.69694094  0.07901245  0.15761645  1
  P  P21  1  0.31815585  0.77632237  0.34111279  1
  P  P22  1  0.22574259  0.68903311  0.16015646  1
  P  P23  1  0.33539700  0.33383328  0.36890478  1
  P  P24  1  0.32956964  0.33383602  0.86750831  1
  P  P25  1  0.08650969  0.69385306  0.65467273  1
  P  P26  1  0.22716330  0.08140480  0.65747606  1
  P  P27  1  0.08344427  0.22694727  0.15891748  1
  O  O28  1  0.01116339  0.78039069  0.56728980  1
  O  O29  1  0.91619737  0.73641694  0.33432110  1
  O  O30  1  0.79127100  0.00377666  0.07245279  1
  O  O31  1  0.74299633  0.90967098  0.83280820  1
  O  O32  1  0.92090299  0.61471055  0.82447216  1
  O  O33  1  0.81559693  0.65989141  0.17926182  1
  O  O34  1  0.90375397  0.47014602  0.33466963  1
  O  O35  1  0.01490971  0.21464357  0.06748020  1
  O  O36  1  0.91755320  0.34597030  0.83403000  1
  O  O37  1  0.66273818  0.81503759  0.67626634  1
  O  O38  1  0.62522300  0.90488604  0.33355249  1
  O  O39  1  0.81202509  0.52085955  0.67295562  1
  O  O40  1  0.66630179  0.66444152  0.02699294  1
  O  O41  1  0.65577460  0.67231445  0.52544351  1
  O  O42  1  0.66257402  0.52007409  0.17696931  1
  O  O43  1  0.46554605  0.91798785  0.82893810  1
  O  O44  1  0.52372920  0.81438349  0.17815282  1
  O  O45  1  0.73690340  0.34444265  0.33342551  1
  O  O46  1  0.80084527  0.20269818  0.74924011  1
  O  O47  1  0.77764764  0.21361378  0.57031829  1
  O  O48  1  0.79424219  0.21699421  0.92922193  1
  O  O49  1  0.62060062  0.46365195  0.82639399  1
  O  O50  1  0.51256160  0.66932426  0.67216255  1
  O  O51  1  0.65579751  0.25587048  0.16756633  1
  O  O52  1  0.48127390  0.62427632  0.32949395  1
  O  O53  1  0.34855053  0.91832807  0.33186704  1
  O  O54  1  0.79916278  0.99548740  0.25049526  1
  O  O55  1  0.79817122  0.99175900  0.42797526  1
  O  O56  1  0.21927937  0.99641663  0.57284730  1
  O  O57  1  0.65302522  0.08669821  0.67046549  1
  O  O58  1  0.53551688  0.38101746  0.67531343  1
  O  O59  1  0.34595013  0.74002205  0.83922230  1
  O  O60  1  0.47468558  0.34604689  0.32263667  1
  O  O61  1  0.38324184  0.53342161  0.17401557  1
  O  O62  1  0.21247844  0.77300517  0.06995342  1
  O  O63  1  0.23278500  0.78495123  0.42929633  1
  O  O64  1  0.20847319  0.79652365  0.25051342  1
  O  O65  1  0.26224329  0.65434138  0.66466680  1
  O  O66  1  0.47751406  0.18806240  0.82295104  1
  O  O67  1  0.54223691  0.07431321  0.16952772  1
  O  O68  1  0.32845344  0.48661050  0.82547646  1
  O  O69  1  0.32481634  0.34035320  0.97230421  1
  O  O70  1  0.33458493  0.33503710  0.47298509  1
  O  O71  1  0.18175059  0.47459946  0.32345213  1
  O  O72  1  0.38459828  0.08114181  0.67250955  1
  O  O73  1  0.34844613  0.18233846  0.32068691  1
  O  O74  1  0.08644951  0.65532219  0.17024615  1
  O  O75  1  0.00082317  0.79736592  0.74711980  1
  O  O76  1  0.00403907  0.78224867  0.92405469  1
  O  O77  1  0.08463931  0.53444607  0.67081551  1
  O  O78  1  0.18277699  0.33071864  0.82476015  1
  O  O79  1  0.08184036  0.38413261  0.17479953  1
  O  O80  1  0.25778518  0.08854368  0.16961354  1
  O  O81  1  0.21377788  0.00371805  0.92633438  1
  O  O82  1  0.20565822  0.99577750  0.74913749  1
  O  O83  1  0.09036115  0.25687188  0.66598747  1
  O  O84  1  0.99282469  0.20489568  0.42526350  1
  O  O85  1  0.99064142  0.20882873  0.24590141  1
