# generated using pymatgen
data_Mn3O5F
_symmetry_space_group_name_H-M   'P 1'
_cell_length_a   7.10944646
_cell_length_b   5.44909550
_cell_length_c   5.46225021
_cell_angle_alpha   72.17775974
_cell_angle_beta   72.60025958
_cell_angle_gamma   72.61389829
_symmetry_Int_Tables_number   1
_chemical_formula_structural   Mn3O5F
_chemical_formula_sum   'Mn6 O10 F2'
_cell_volume   187.16368521
_cell_formula_units_Z   2
loop_
 _symmetry_equiv_pos_site_id
 _symmetry_equiv_pos_as_xyz
  1  'x, y, z'
loop_
 _atom_site_type_symbol
 _atom_site_label
 _atom_site_symmetry_multiplicity
 _atom_site_fract_x
 _atom_site_fract_y
 _atom_site_fract_z
 _atom_site_occupancy
  Mn  Mn0  1  0.84256284  0.65257658  0.66732625  1
  Mn  Mn1  1  0.66807398  0.35953505  0.31563890  1
  Mn  Mn2  1  0.33311778  0.65106795  0.65846307  1
  Mn  Mn3  1  0.16193661  0.33168213  0.33151114  1
  Mn  Mn4  1  0.50208624  0.00771629  0.02263387  1
  Mn  Mn5  1  0.99148018  0.99815008  0.00548353  1
  O  O6  1  0.33145823  0.35696292  0.97535366  1
  O  O7  1  0.62926242  0.56695518  0.56237631  1
  O  O8  1  0.95751575  0.23316904  0.23458822  1
  O  O9  1  0.70000853  0.11186726  0.10848015  1
  O  O10  1  0.03928765  0.76469426  0.76565446  1
  O  O11  1  0.37389013  0.42793014  0.43303304  1
  O  O12  1  0.32817067  0.96947023  0.36614418  1
  O  O13  1  0.66517619  0.64863231  0.02329839  1
  O  O14  1  0.00301963  0.30122453  0.69411466  1
  O  O15  1  0.00140741  0.69041856  0.30774732  1
  F  F16  1  0.66691253  0.03539128  0.63514191  1
  F  F17  1  0.30463424  0.89255623  0.89301293  1
