# generated using pymatgen
data_Li10Mn(SiO5)2
_symmetry_space_group_name_H-M   'P 1'
_cell_length_a   6.12905639
_cell_length_b   15.39560793
_cell_length_c   5.17650230
_cell_angle_alpha   80.13202268
_cell_angle_beta   89.96558665
_cell_angle_gamma   78.47929752
_symmetry_Int_Tables_number   1
_chemical_formula_structural   Li10Mn(SiO5)2
_chemical_formula_sum   'Li20 Mn2 Si4 O20'
_cell_volume   471.24927383
_cell_formula_units_Z   2
loop_
 _symmetry_equiv_pos_site_id
 _symmetry_equiv_pos_as_xyz
  1  'x, y, z'
loop_
 _atom_site_type_symbol
 _atom_site_label
 _atom_site_symmetry_multiplicity
 _atom_site_fract_x
 _atom_site_fract_y
 _atom_site_fract_z
 _atom_site_occupancy
  Li  Li0  1  0.50795523  0.98362179  0.75895504  1
  Li  Li1  1  0.35500653  0.86990949  0.23123348  1
  Li  Li2  1  0.77381364  0.86955443  0.23245648  1
  Li  Li3  1  0.13126481  0.73615730  0.48331074  1
  Li  Li4  1  0.34730017  0.73724408  0.02890666  1
  Li  Li5  1  0.91281750  0.73737326  0.03050945  1
  Li  Li6  1  0.67176985  0.65022507  0.42296491  1
  Li  Li7  1  0.43675550  0.61013035  0.79074458  1
  Li  Li8  1  0.95094985  0.61094016  0.78995320  1
  Li  Li9  1  0.72932783  0.53894781  0.13825585  1
  Li  Li10  1  0.27118931  0.46000330  0.86769371  1
  Li  Li11  1  0.04788322  0.38901954  0.21133381  1
  Li  Li12  1  0.56319540  0.38834202  0.21470566  1
  Li  Li13  1  0.32088547  0.35036880  0.58206393  1
  Li  Li14  1  0.08530121  0.26258295  0.96952979  1
  Li  Li15  1  0.65290910  0.26263955  0.97139649  1
  Li  Li16  1  0.86833471  0.26329986  0.51642805  1
  Li  Li17  1  0.64390867  0.13115478  0.76800817  1
  Li  Li18  1  0.22509669  0.13042574  0.76953272  1
  Li  Li19  1  0.49125463  0.01734202  0.24168903  1
  Mn  Mn20  1  0.03749673  0.92586891  0.87225621  1
  Mn  Mn21  1  0.96160241  0.07480579  0.12884948  1
  Si  Si22  1  0.59944332  0.80012448  0.69447582  1
  Si  Si23  1  0.21865648  0.56139066  0.31141506  1
  Si  Si24  1  0.78189417  0.43797850  0.69259125  1
  Si  Si25  1  0.39974880  0.20017591  0.30545768  1
  O  O26  1  0.54801524  0.89992301  0.50170367  1
  O  O27  1  0.09143987  0.81556904  0.13798702  1
  O  O28  1  0.59451781  0.80951151  0.00992554  1
  O  O29  1  0.41150663  0.74190771  0.63865579  1
  O  O30  1  0.84597588  0.74294858  0.63838525  1
  O  O31  1  0.41845038  0.61239029  0.17376043  1
  O  O32  1  0.96812924  0.61231137  0.17312418  1
  O  O33  1  0.21320518  0.57215310  0.62180247  1
  O  O34  1  0.72751973  0.54404339  0.73761002  1
  O  O35  1  0.27216240  0.45540982  0.26596054  1
  O  O36  1  0.78692951  0.42660147  0.38254207  1
  O  O37  1  0.58271506  0.38724270  0.83195244  1
  O  O38  1  0.03305532  0.38737826  0.82901618  1
  O  O39  1  0.15382102  0.25820892  0.36209173  1
  O  O40  1  0.58995831  0.25705827  0.36176254  1
  O  O41  1  0.40468995  0.19076747  0.99023639  1
  O  O42  1  0.90820958  0.18471134  0.86126587  1
  O  O43  1  0.44850668  0.10048405  0.49850920  1
  O  O44  1  0.24623899  0.00040771  0.00067912  1
  O  O45  1  0.75319901  0.00032744  0.00086327  1
