# generated using pymatgen
data_Li2Mn3(BO3)3
_symmetry_space_group_name_H-M   'P 1'
_cell_length_a   6.14799029
_cell_length_b   11.99016161
_cell_length_c   5.22815375
_cell_angle_alpha   78.74787890
_cell_angle_beta   86.59314019
_cell_angle_gamma   84.17619125
_symmetry_Int_Tables_number   1
_chemical_formula_structural   Li2Mn3(BO3)3
_chemical_formula_sum   'Li4 Mn6 B6 O18'
_cell_volume   375.72620496
_cell_formula_units_Z   2
loop_
 _symmetry_equiv_pos_site_id
 _symmetry_equiv_pos_as_xyz
  1  'x, y, z'
loop_
 _atom_site_type_symbol
 _atom_site_label
 _atom_site_symmetry_multiplicity
 _atom_site_fract_x
 _atom_site_fract_y
 _atom_site_fract_z
 _atom_site_occupancy
  Li  Li0  1  0.41174398  0.09895792  0.04152401  1
  Li  Li1  1  0.76584128  0.42369596  0.37155543  1
  Li  Li2  1  0.59166553  0.89791906  0.96277827  1
  Li  Li3  1  0.10098808  0.75646083  0.69326503  1
  Mn  Mn4  1  0.24986653  0.99979618  0.59747902  1
  Mn  Mn5  1  0.57651809  0.32509115  0.94703917  1
  Mn  Mn6  1  0.91231872  0.66120301  0.26944997  1
  Mn  Mn7  1  0.08815761  0.33469747  0.74269344  1
  Mn  Mn8  1  0.42309538  0.66475155  0.06734176  1
  Mn  Mn9  1  0.76910133  0.00890494  0.39667094  1
  B  B10  1  0.83652573  0.11510996  0.84002905  1
  B  B11  1  0.47783567  0.22436038  0.48412945  1
  B  B12  1  0.80663940  0.55408184  0.82059374  1
  B  B13  1  0.18624769  0.44514064  0.17999360  1
  B  B14  1  0.53812077  0.78174000  0.51559762  1
  B  B15  1  0.14892955  0.88417605  0.15765581  1
  O  O16  1  0.94211261  0.09436043  0.61390147  1
  O  O17  1  0.72110062  0.03380343  0.99878144  1
  O  O18  1  0.44946893  0.12536193  0.39696358  1
  O  O19  1  0.84490228  0.22374685  0.90323366  1
  O  O20  1  0.57737384  0.31289645  0.33174859  1
  O  O21  1  0.40799525  0.23285252  0.74296577  1
  O  O22  1  0.73855286  0.56509172  0.07867406  1
  O  O23  1  0.77762506  0.45235442  0.74364451  1
  O  O24  1  0.90601348  0.64129425  0.66134999  1
  O  O25  1  0.07363569  0.36792897  0.34243684  1
  O  O26  1  0.18179618  0.55907732  0.21426972  1
  O  O27  1  0.29644766  0.41946409  0.95064232  1
  O  O28  1  0.62683486  0.76268998  0.26316982  1
  O  O29  1  0.41476916  0.70386501  0.66316867  1
  O  O30  1  0.10880554  0.78580130  0.06731983  1
  O  O31  1  0.56714502  0.88451745  0.58847693  1
  O  O32  1  0.27379155  0.96413292  0.00828454  1
  O  O33  1  0.07268208  0.89635102  0.40738294  1
