# generated using pymatgen
data_InGaCoS4
_symmetry_space_group_name_H-M   'P 1'
_cell_length_a   3.70908919
_cell_length_b   3.69967901
_cell_length_c   12.23816368
_cell_angle_alpha   90.00000001
_cell_angle_beta   89.82641269
_cell_angle_gamma   119.91611422
_symmetry_Int_Tables_number   1
_chemical_formula_structural   InGaCoS4
_chemical_formula_sum   'In1 Ga1 Co1 S4'
_cell_volume   145.55999807
_cell_formula_units_Z   1
loop_
 _symmetry_equiv_pos_site_id
 _symmetry_equiv_pos_as_xyz
  1  'x, y, z'
loop_
 _atom_site_type_symbol
 _atom_site_label
 _atom_site_symmetry_multiplicity
 _atom_site_fract_x
 _atom_site_fract_y
 _atom_site_fract_z
 _atom_site_occupancy
  In  In0  1  0.66812205  0.33406103  0.78130988  1
  Ga  Ga1  1  0.33182342  0.66591171  0.22022406  1
  Co  Co2  1  0.00040748  0.00020374  0.49043363  1
  S  S3  1  0.33197500  0.66598750  0.88607167  1
  S  S4  1  0.66699059  0.33349529  0.13795207  1
  S  S5  1  0.33309971  0.66654985  0.40545744  1
  S  S6  1  0.66758174  0.33379087  0.57855125  1
