# generated using pymatgen
data_NiH12S2(NO5)2
_symmetry_space_group_name_H-M   'P 1'
_cell_length_a   6.42354842
_cell_length_b   6.78287448
_cell_length_c   6.83582397
_cell_angle_alpha   89.21540431
_cell_angle_beta   68.09235333
_cell_angle_gamma   67.84373095
_symmetry_Int_Tables_number   1
_chemical_formula_structural   NiH12S2(NO5)2
_chemical_formula_sum   'Ni1 H12 S2 N2 O10'
_cell_volume   253.11364587
_cell_formula_units_Z   1
loop_
 _symmetry_equiv_pos_site_id
 _symmetry_equiv_pos_as_xyz
  1  'x, y, z'
loop_
 _atom_site_type_symbol
 _atom_site_label
 _atom_site_symmetry_multiplicity
 _atom_site_fract_x
 _atom_site_fract_y
 _atom_site_fract_z
 _atom_site_occupancy
  Ni  Ni0  1  0.00000000  0.00000000  0.00000000  1
  H  H1  1  0.20804199  0.04824593  0.28007328  1
  H  H2  1  0.24823485  0.18094083  0.69882472  1
  H  H3  1  0.17666087  0.82721164  0.28868795  1
  H  H4  1  0.27334350  0.22016238  0.91872840  1
  H  H5  1  0.26063104  0.68002187  0.68227877  1
  H  H6  1  0.26809966  0.58984869  0.91105872  1
  H  H7  1  0.73190034  0.41015131  0.08894128  1
  H  H8  1  0.73936896  0.31997813  0.31772123  1
  H  H9  1  0.72665650  0.77983762  0.08127160  1
  H  H10  1  0.82333913  0.17278836  0.71131205  1
  H  H11  1  0.75176515  0.81905917  0.30117528  1
  H  H12  1  0.79195801  0.95175407  0.71992672  1
  S  S13  1  0.39394227  0.36165283  0.28082710  1
  S  S14  1  0.60605773  0.63834717  0.71917290  1
  N  N15  1  0.70175084  0.29778735  0.18696126  1
  N  N16  1  0.29824916  0.70221265  0.81303874  1
  O  O17  1  0.34679534  0.35161848  0.08804977  1
  O  O18  1  0.16776687  0.19771410  0.85556924  1
  O  O19  1  0.35473251  0.19556919  0.41062184  1
  O  O20  1  0.12123072  0.97111489  0.24518512  1
  O  O21  1  0.27237034  0.58010474  0.40137406  1
  O  O22  1  0.72762966  0.41989526  0.59862594  1
  O  O23  1  0.87876928  0.02888511  0.75481488  1
  O  O24  1  0.64526749  0.80443081  0.58937816  1
  O  O25  1  0.83223313  0.80228590  0.14443076  1
  O  O26  1  0.65320466  0.64838152  0.91195023  1
