# generated using pymatgen
data_LiV3OF11
_symmetry_space_group_name_H-M   'P 1'
_cell_length_a   5.24035345
_cell_length_b   5.41180847
_cell_length_c   15.37962901
_cell_angle_alpha   79.93171103
_cell_angle_beta   90.00428645
_cell_angle_gamma   90.06021157
_symmetry_Int_Tables_number   1
_chemical_formula_structural   LiV3OF11
_chemical_formula_sum   'Li2 V6 O2 F22'
_cell_volume   429.44592380
_cell_formula_units_Z   2
loop_
 _symmetry_equiv_pos_site_id
 _symmetry_equiv_pos_as_xyz
  1  'x, y, z'
loop_
 _atom_site_type_symbol
 _atom_site_label
 _atom_site_symmetry_multiplicity
 _atom_site_fract_x
 _atom_site_fract_y
 _atom_site_fract_z
 _atom_site_occupancy
  Li  Li0  1  0.95985529  0.03312454  0.77008483  1
  Li  Li1  1  0.53977479  0.53333629  0.76995930  1
  V  V2  1  0.46842330  0.14832929  0.65980233  1
  V  V3  1  0.99920647  0.99867926  0.00318712  1
  V  V4  1  0.00001371  0.33341034  0.33320000  1
  V  V5  1  0.03237231  0.64793978  0.65986122  1
  V  V6  1  0.50062389  0.49864582  0.00315977  1
  V  V7  1  0.50001619  0.83340189  0.33319094  1
  O  O8  1  0.20192895  0.35445014  0.69077928  1
  O  O9  1  0.29771915  0.85441941  0.69092555  1
  F  F10  1  0.19339084  0.01930606  0.35666366  1
  F  F11  1  0.30599471  0.18578298  0.02409496  1
  F  F12  1  0.69432152  0.14825314  0.30937762  1
  F  F13  1  0.08490638  0.04217752  0.88505410  1
  F  F14  1  0.08680653  0.37497336  0.22029389  1
  F  F15  1  0.42126912  0.22076761  0.54513508  1
  F  F16  1  0.91645659  0.29582542  0.44584154  1
  F  F17  1  0.59027529  0.46071870  0.11554466  1
  F  F18  1  0.60650589  0.15097381  0.77554693  1
  F  F19  1  0.30675997  0.51919392  0.35668036  1
  F  F20  1  0.19463594  0.68541264  0.02376792  1
  F  F21  1  0.70268731  0.48128251  0.64417313  1
  F  F22  1  0.80311530  0.31283333  0.97610145  1
  F  F23  1  0.80558970  0.64812698  0.30939492  1
  F  F24  1  0.41561932  0.54160501  0.88519895  1
  F  F25  1  0.41373281  0.87518456  0.22025684  1
  F  F26  1  0.07956358  0.72077602  0.54519189  1
  F  F27  1  0.58332909  0.79561673  0.44588106  1
  F  F28  1  0.90958009  0.96088142  0.11581792  1
  F  F29  1  0.89337971  0.65102084  0.77546862  1
  F  F30  1  0.79667504  0.98143971  0.64424611  1
  F  F31  1  0.69545320  0.81263799  0.97643706  1
