# generated using pymatgen
data_Li3V3P8O29
_symmetry_space_group_name_H-M   'P 1'
_cell_length_a   9.78238438
_cell_length_b   9.75713114
_cell_length_c   14.19385476
_cell_angle_alpha   90.07890000
_cell_angle_beta   90.14399020
_cell_angle_gamma   60.01219879
_symmetry_Int_Tables_number   1
_chemical_formula_structural   Li3V3P8O29
_chemical_formula_sum   'Li6 V6 P16 O58'
_cell_volume   1173.41017678
_cell_formula_units_Z   2
loop_
 _symmetry_equiv_pos_site_id
 _symmetry_equiv_pos_as_xyz
  1  'x, y, z'
loop_
 _atom_site_type_symbol
 _atom_site_label
 _atom_site_symmetry_multiplicity
 _atom_site_fract_x
 _atom_site_fract_y
 _atom_site_fract_z
 _atom_site_occupancy
  Li  Li0  1  0.90531555  0.76564943  0.05645046  1
  Li  Li1  1  0.90415389  0.32111609  0.55859591  1
  Li  Li2  1  0.32529141  0.90659923  0.05303730  1
  Li  Li3  1  0.31223788  0.76870887  0.56334612  1
  Li  Li4  1  0.22502956  0.08748782  0.44377959  1
  Li  Li5  1  0.96989526  0.05289263  0.99474383  1
  V  V6  1  0.56758254  0.43575247  0.24665265  1
  V  V7  1  0.43532417  0.55864400  0.75530289  1
  V  V8  1  0.56976817  0.00011339  0.74694143  1
  V  V9  1  0.44238929  0.99696063  0.24895006  1
  V  V10  1  0.00219471  0.56432041  0.25184970  1
  V  V11  1  0.00250575  0.43662267  0.75409859  1
  P  P12  1  0.91340139  0.77741410  0.84122385  1
  P  P13  1  0.77457565  0.91377944  0.34567833  1
  P  P14  1  0.91213120  0.31613567  0.33988787  1
  P  P15  1  0.66673337  0.66773900  0.13034374  1
  P  P16  1  0.66382614  0.66421507  0.63148297  1
  P  P17  1  0.77932552  0.30552495  0.84160856  1
  P  P18  1  0.68738746  0.22737358  0.65788492  1
  P  P19  1  0.31550552  0.91238340  0.84025905  1
  P  P20  1  0.69526785  0.08404438  0.16149026  1
  P  P21  1  0.31975046  0.76921317  0.34478081  1
  P  P22  1  0.22325968  0.69363499  0.16189999  1
  P  P23  1  0.33657396  0.33097713  0.36727556  1
  P  P24  1  0.33561427  0.32812133  0.86899517  1
  P  P25  1  0.08655225  0.68668459  0.65819399  1
  P  P26  1  0.22869665  0.08991914  0.65960947  1
  P  P27  1  0.08781372  0.22107776  0.15817415  1
  O  O28  1  0.00132778  0.76581851  0.57179671  1
  O  O29  1  0.91414853  0.74138377  0.32983472  1
  O  O30  1  0.79005956  0.99533532  0.07811934  1
  O  O31  1  0.74231921  0.91607282  0.82876812  1
  O  O32  1  0.91083623  0.61906774  0.82723615  1
  O  O33  1  0.81449333  0.67413002  0.16759844  1
  O  O34  1  0.90314771  0.47824423  0.32044336  1
  O  O35  1  0.00930634  0.20000017  0.07504344  1
  O  O36  1  0.91174347  0.34818587  0.82904260  1
  O  O37  1  0.65731138  0.81612488  0.67737233  1
  O  O38  1  0.62065279  0.90601815  0.32046221  1
  O  O39  1  0.81669384  0.51670073  0.67115529  1
  O  O40  1  0.65140887  0.67949295  0.02605170  1
  O  O41  1  0.65637063  0.66972472  0.52691979  1
  O  O42  1  0.67088696  0.51805769  0.17495177  1
  O  O43  1  0.46996699  0.91571985  0.82701828  1
  O  O44  1  0.51244384  0.81457394  0.17456016  1
  O  O45  1  0.74406878  0.34195347  0.33264473  1
  O  O46  1  0.79556034  0.20190957  0.74984344  1
  O  O47  1  0.76839786  0.23773334  0.57285348  1
  O  O48  1  0.79958932  0.21250953  0.92729702  1
  O  O49  1  0.61726785  0.46152364  0.83110366  1
  O  O50  1  0.51725314  0.66147350  0.67506004  1
  O  O51  1  0.65570184  0.25859434  0.16606974  1
  O  O52  1  0.47869603  0.61786667  0.32062596  1
  O  O53  1  0.33999105  0.91783880  0.33587012  1
  O  O54  1  0.79392958  0.00572548  0.25624121  1
  O  O55  1  0.76329563  0.99329743  0.43530703  1
  O  O56  1  0.23942248  0.99954110  0.57134158  1
  O  O57  1  0.65614388  0.08645947  0.66358364  1
  O  O58  1  0.52730717  0.38075538  0.67798621  1
  O  O59  1  0.34855272  0.73970370  0.82941192  1
  O  O60  1  0.47687256  0.33915079  0.32139869  1
  O  O61  1  0.38311110  0.53546047  0.17157600  1
  O  O62  1  0.21460508  0.79548819  0.08175447  1
  O  O63  1  0.25463039  0.76170456  0.43722701  1
  O  O64  1  0.20169556  0.78594681  0.26069125  1
  O  O65  1  0.25950731  0.65553822  0.66415539  1
  O  O66  1  0.48273302  0.18420725  0.82386521  1
  O  O67  1  0.53628491  0.08316955  0.17304278  1
  O  O68  1  0.33102114  0.47994829  0.82441043  1
  O  O69  1  0.33072322  0.33239051  0.97303007  1
  O  O70  1  0.32643076  0.33273622  0.47123113  1
  O  O71  1  0.18355828  0.47583813  0.31997978  1
  O  O72  1  0.37997632  0.09840106  0.67647165  1
  O  O73  1  0.33582565  0.18055276  0.32544272  1
  O  O74  1  0.08453286  0.65834003  0.16111064  1
  O  O75  1  0.00854099  0.79064159  0.75400599  1
  O  O76  1  0.98234042  0.78482585  0.93320162  1
  O  O77  1  0.09120562  0.52683058  0.68074027  1
  O  O78  1  0.18540002  0.32931462  0.82418106  1
  O  O79  1  0.08003895  0.38316320  0.17118263  1
  O  O80  1  0.26382348  0.08460845  0.16412542  1
  O  O81  1  0.22932692  0.98345619  0.92962950  1
  O  O82  1  0.20568488  0.00323788  0.74991544  1
  O  O83  1  0.08177993  0.25790532  0.65922003  1
  O  O84  1  0.99719940  0.24671749  0.43072005  1
  O  O85  1  0.01053782  0.20026491  0.25522736  1
