# generated using pymatgen
data_Li5Mn4(P2O7)4
_symmetry_space_group_name_H-M   'P 1'
_cell_length_a   9.80000793
_cell_length_b   9.80618281
_cell_length_c   11.27269235
_cell_angle_alpha   90.03810286
_cell_angle_beta   103.03716630
_cell_angle_gamma   89.88423074
_symmetry_Int_Tables_number   1
_chemical_formula_structural   Li5Mn4(P2O7)4
_chemical_formula_sum   'Li10 Mn8 P16 O56'
_cell_volume   1055.38755219
_cell_formula_units_Z   2
loop_
 _symmetry_equiv_pos_site_id
 _symmetry_equiv_pos_as_xyz
  1  'x, y, z'
loop_
 _atom_site_type_symbol
 _atom_site_label
 _atom_site_symmetry_multiplicity
 _atom_site_fract_x
 _atom_site_fract_y
 _atom_site_fract_z
 _atom_site_occupancy
  Li  Li0  1  0.08803509  0.10821051  0.02650461  1
  Li  Li1  1  0.40945710  0.60825374  0.97296514  1
  Li  Li2  1  0.33679101  0.92200262  0.46112727  1
  Li  Li3  1  0.65010859  0.06367622  0.52931339  1
  Li  Li4  1  0.58866249  0.39475873  0.02950479  1
  Li  Li5  1  0.85203797  0.58609762  0.95508295  1
  Li  Li6  1  0.64702090  0.09032866  0.04320512  1
  Li  Li7  1  0.91168261  0.89491949  0.96968979  1
  Li  Li8  1  0.83983873  0.57961734  0.46263975  1
  Li  Li9  1  0.89081072  0.28015459  0.54816827  1
  Mn  Mn10  1  0.19877374  0.92394500  0.67071656  1
  Mn  Mn11  1  0.25722452  0.21276233  0.82394113  1
  Mn  Mn12  1  0.24013442  0.71233300  0.17707587  1
  Mn  Mn13  1  0.30084630  0.42438920  0.33446243  1
  Mn  Mn14  1  0.70293023  0.57538227  0.67251115  1
  Mn  Mn15  1  0.75669472  0.28464344  0.82501529  1
  Mn  Mn16  1  0.73959279  0.78357233  0.17516450  1
  Mn  Mn17  1  0.79966648  0.07492001  0.32654185  1
  P  P18  1  0.02728775  0.44983179  0.75237431  1
  P  P19  1  0.12015070  0.71057360  0.88664353  1
  P  P20  1  0.06218645  0.92894480  0.24086414  1
  P  P21  1  0.12560992  0.15056947  0.42842644  1
  P  P22  1  0.37723084  0.64167118  0.56967031  1
  P  P23  1  0.43673893  0.42808114  0.75755390  1
  P  P24  1  0.52075546  0.05103851  0.75618589  1
  P  P25  1  0.37884057  0.21185488  0.11567761  1
  P  P26  1  0.61480355  0.79219653  0.89156991  1
  P  P27  1  0.47279070  0.94445392  0.24596217  1
  P  P28  1  0.56294246  0.57015906  0.24131277  1
  P  P29  1  0.62304616  0.35113929  0.42429258  1
  P  P30  1  0.87811718  0.85062184  0.57986214  1
  P  P31  1  0.93538384  0.07144544  0.75749382  1
  P  P32  1  0.88466344  0.29423647  0.10949731  1
  P  P33  1  0.97409641  0.55513254  0.24395187  1
  O  O34  1  0.01564552  0.42063915  0.62105889  1
  O  O35  1  0.03288071  0.84404351  0.56968684  1
  O  O36  1  0.08310172  0.08824422  0.73204683  1
  O  O37  1  0.11532809  0.34748725  0.84389216  1
  O  O38  1  0.10432501  0.59331507  0.78353239  1
  O  O39  1  0.17766926  0.83114108  0.82653114  1
  O  O40  1  0.22824122  0.65707305  0.00054695  1
  O  O41  1  0.02141048  0.26823748  0.07796786  1
  O  O42  1  0.12004513  0.07211058  0.29876508  1
  O  O43  1  0.06106162  0.93589472  0.10665588  1
  O  O44  1  0.12508556  0.55147907  0.21460702  1
  O  O45  1  0.18852835  0.28639128  0.41059964  1
  O  O46  1  0.17357660  0.82093492  0.30169931  1
  O  O47  1  0.21573418  0.05435124  0.52535125  1
  O  O48  1  0.28932864  0.56151112  0.46231709  1
  O  O49  1  0.33757434  0.30944866  0.70418931  1
  O  O50  1  0.32058028  0.78426756  0.58228002  1
  O  O51  1  0.36592803  0.04123448  0.78043435  1
  O  O52  1  0.36812455  0.56615849  0.69495036  1
  O  O53  1  0.44149820  0.44108387  0.89174680  1
  O  O54  1  0.47800459  0.76788805  0.92335707  1
  O  O55  1  0.27022904  0.16064011  0.00131781  1
  O  O56  1  0.32191499  0.32959584  0.18074230  1
  O  O57  1  0.39857635  0.09009856  0.21464954  1
  O  O58  1  0.41746732  0.58791477  0.26983818  1
  O  O59  1  0.38302259  0.84228066  0.15701742  1
  O  O60  1  0.52193167  0.08230608  0.62745702  1
  O  O61  1  0.47353364  0.34637887  0.43946662  1
  O  O62  1  0.53499640  0.64831628  0.56785048  1
  O  O63  1  0.48429767  0.92471247  0.37902262  1
  O  O64  1  0.60610542  0.14341569  0.85661610  1
  O  O65  1  0.58377889  0.41550082  0.72715372  1
  O  O66  1  0.59163789  0.90196594  0.78157884  1
  O  O67  1  0.68739421  0.67212681  0.84268252  1
  O  O68  1  0.72310995  0.86109924  0.00218008  1
  O  O69  1  0.51894283  0.23241066  0.08363841  1
  O  O70  1  0.56315976  0.56610361  0.10750913  1
  O  O71  1  0.62333089  0.42421269  0.29489018  1
  O  O72  1  0.62136947  0.95177089  0.20980152  1
  O  O73  1  0.68406477  0.20938742  0.41548865  1
  O  O74  1  0.67157933  0.67837377  0.30369469  1
  O  O75  1  0.72499273  0.43575186  0.52063839  1
  O  O76  1  0.78705109  0.93710904  0.48224127  1
  O  O77  1  0.83309162  0.17863220  0.68713462  1
  O  O78  1  0.82409830  0.70557494  0.59334089  1
  O  O79  1  0.87617592  0.46555844  0.78501204  1
  O  O80  1  0.93056849  0.07033913  0.89058979  1
  O  O81  1  0.87719104  0.92308828  0.70903475  1
  O  O82  1  0.97934874  0.72898727  0.91810206  1
  O  O83  1  0.77759597  0.36611717  0.00231160  1
  O  O84  1  0.81199821  0.17383183  0.15720856  1
  O  O85  1  0.91039053  0.40414773  0.22143846  1
  O  O86  1  0.87984204  0.64597409  0.14219839  1
  O  O87  1  0.91653124  0.90674509  0.26827506  1
  O  O88  1  0.97468955  0.16238551  0.44226521  1
  O  O89  1  0.97232158  0.59307086  0.37047329  1
