# generated using pymatgen
data_LiV2P4(HO8)2
_symmetry_space_group_name_H-M   'P 1'
_cell_length_a   13.62152107
_cell_length_b   7.89535740
_cell_length_c   7.75520650
_cell_angle_alpha   89.93663565
_cell_angle_beta   98.59589262
_cell_angle_gamma   89.94393859
_symmetry_Int_Tables_number   1
_chemical_formula_structural   LiV2P4(HO8)2
_chemical_formula_sum   'Li3 V6 P12 H6 O48'
_cell_volume   824.67763530
_cell_formula_units_Z   3
loop_
 _symmetry_equiv_pos_site_id
 _symmetry_equiv_pos_as_xyz
  1  'x, y, z'
loop_
 _atom_site_type_symbol
 _atom_site_label
 _atom_site_symmetry_multiplicity
 _atom_site_fract_x
 _atom_site_fract_y
 _atom_site_fract_z
 _atom_site_occupancy
  Li  Li0  1  0.18191138  0.86658171  0.03255449  1
  Li  Li1  1  0.48188688  0.13300119  0.62761031  1
  Li  Li2  1  0.85189358  0.62975027  0.20871469  1
  V  V3  1  0.16604680  0.49343958  0.16912529  1
  V  V4  1  0.16617340  0.00497442  0.65490463  1
  V  V5  1  0.49918184  0.50688718  0.50093216  1
  V  V6  1  0.50287176  0.99387369  0.00898874  1
  V  V7  1  0.83218494  0.00746711  0.33167995  1
  V  V8  1  0.83328395  0.49542575  0.82524914  1
  P  P9  1  0.04568495  0.84496826  0.27806971  1
  P  P10  1  0.04808142  0.64755902  0.77992145  1
  P  P11  1  0.28875828  0.15226698  0.04949863  1
  P  P12  1  0.38064013  0.64756539  0.11131675  1
  P  P13  1  0.28556655  0.35710224  0.56019528  1
  P  P14  1  0.37939546  0.85223371  0.61263830  1
  P  P15  1  0.62125100  0.15858245  0.38596682  1
  P  P16  1  0.71109227  0.65814562  0.44811968  1
  P  P17  1  0.61845908  0.35434606  0.88964624  1
  P  P18  1  0.71602629  0.85440709  0.94245861  1
  P  P19  1  0.95439814  0.34802038  0.21984788  1
  P  P20  1  0.95229345  0.14642715  0.72030776  1
  H  H21  1  0.00588833  0.51008615  0.51261799  1
  H  H22  1  0.32719687  0.00897513  0.31603324  1
  H  H23  1  0.33871640  0.50547515  0.84627296  1
  H  H24  1  0.66665925  0.49896635  0.17095235  1
  H  H25  1  0.66808780  0.99634042  0.66663076  1
  H  H26  1  0.99204848  0.01087867  0.98610306  1
  O  O27  1  0.06359975  0.94516679  0.11893071  1
  O  O28  1  0.06434648  0.32740963  0.19353358  1
  O  O29  1  0.09428367  0.67051290  0.27883699  1
  O  O30  1  0.09533671  0.94198773  0.44905447  1
  O  O31  1  0.06286231  0.54959175  0.61643497  1
  O  O32  1  0.24730732  0.32895419  0.06291666  1
  O  O33  1  0.06407392  0.16260449  0.70365129  1
  O  O34  1  0.27001109  0.67575009  0.12649771  1
  O  O35  1  0.09665095  0.82606841  0.78040644  1
  O  O36  1  0.27142819  0.04038190  0.20703683  1
  O  O37  1  0.10068864  0.55677681  0.94572536  1
  O  O38  1  0.23388566  0.44087948  0.38992462  1
  O  O39  1  0.23523627  0.17392766  0.56537197  1
  O  O40  1  0.40093698  0.16010394  0.03241761  1
  O  O41  1  0.26607482  0.84355216  0.63369736  1
  O  O42  1  0.27034313  0.45009291  0.72188183  1
  O  O43  1  0.43184546  0.82710225  0.10358586  1
  O  O44  1  0.23255617  0.05326786  0.89078725  1
  O  O45  1  0.43164475  0.56011668  0.27860622  1
  O  O46  1  0.39431477  0.96313850  0.45864231  1
  O  O47  1  0.39594036  0.32709187  0.53904807  1
  O  O48  1  0.41861263  0.67254887  0.60494661  1
  O  O49  1  0.60810071  0.44802555  0.05553068  1
  O  O50  1  0.43379186  0.94635624  0.77835596  1
  O  O51  1  0.56983369  0.05995101  0.21701784  1
  O  O52  1  0.39819298  0.55100021  0.94947868  1
  O  O53  1  0.57169063  0.33165606  0.38914692  1
  O  O54  1  0.60140897  0.67453877  0.47179163  1
  O  O55  1  0.60353190  0.05780537  0.54662914  1
  O  O56  1  0.56523785  0.44636197  0.72405277  1
  O  O57  1  0.76653527  0.94792950  0.10664923  1
  O  O58  1  0.57006608  0.17473331  0.88573454  1
  O  O59  1  0.72817854  0.55817753  0.28597452  1
  O  O60  1  0.73110715  0.17477122  0.36466625  1
  O  O61  1  0.60338399  0.83907042  0.96498595  1
  O  O62  1  0.76013081  0.83126828  0.44152413  1
  O  O63  1  0.76495680  0.56024089  0.61487174  1
  O  O64  1  0.89910474  0.44540475  0.05309801  1
  O  O65  1  0.72640627  0.94779318  0.77522734  1
  O  O66  1  0.90920438  0.17098603  0.22599756  1
  O  O67  1  0.73073178  0.34052847  0.86400073  1
  O  O68  1  0.93436664  0.82781332  0.29602166  1
  O  O69  1  0.76554216  0.67576402  0.94664735  1
  O  O70  1  0.93763217  0.45731467  0.37367451  1
  O  O71  1  0.89969815  0.05814973  0.55708300  1
  O  O72  1  0.90588038  0.32773826  0.72978517  1
  O  O73  1  0.93540522  0.66067310  0.79729828  1
  O  O74  1  0.93547215  0.04994115  0.88440880  1
