# generated using pymatgen
data_Li4Mn5Cr2O12
_symmetry_space_group_name_H-M   'P 1'
_cell_length_a   5.14758234
_cell_length_b   9.11502902
_cell_length_c   10.15204459
_cell_angle_alpha   90.00000188
_cell_angle_beta   100.71520022
_cell_angle_gamma   89.99999308
_symmetry_Int_Tables_number   1
_chemical_formula_structural   Li4Mn5Cr2O12
_chemical_formula_sum   'Li8 Mn10 Cr4 O24'
_cell_volume   468.03195365
_cell_formula_units_Z   2
loop_
 _symmetry_equiv_pos_site_id
 _symmetry_equiv_pos_as_xyz
  1  'x, y, z'
loop_
 _atom_site_type_symbol
 _atom_site_label
 _atom_site_symmetry_multiplicity
 _atom_site_fract_x
 _atom_site_fract_y
 _atom_site_fract_z
 _atom_site_occupancy
  Li  Li0  1  0.24038527  0.08936566  0.98912863  1
  Li  Li1  1  0.75828543  0.07591912  0.51692822  1
  Li  Li2  1  0.48992387  0.41652766  0.75363342  1
  Li  Li3  1  0.74906062  0.41447679  0.51487801  1
  Li  Li4  1  0.25961473  0.58936566  0.51087137  1
  Li  Li5  1  0.74171457  0.57591912  0.98307178  1
  Li  Li6  1  0.01007613  0.91652766  0.74636658  1
  Li  Li7  1  0.75093938  0.91447679  0.98512199  1
  Mn  Mn8  1  0.99950106  0.08600397  0.24797722  1
  Mn  Mn9  1  0.50138048  0.07464322  0.74824386  1
  Mn  Mn10  1  0.25303072  0.24827536  0.51031458  1
  Mn  Mn11  1  0.00112011  0.42101635  0.25498550  1
  Mn  Mn12  1  0.73954283  0.26478022  0.99032865  1
  Mn  Mn13  1  0.99861952  0.57464322  0.75175614  1
  Mn  Mn14  1  0.50049894  0.58600397  0.25202278  1
  Mn  Mn15  1  0.24696928  0.74827536  0.98968542  1
  Mn  Mn16  1  0.76045717  0.76478022  0.50967135  1
  Mn  Mn17  1  0.49887989  0.92101635  0.24501450  1
  Cr  Cr18  1  0.00136016  0.24788564  0.75448277  1
  Cr  Cr19  1  0.49759018  0.25383811  0.24853841  1
  Cr  Cr20  1  0.00240982  0.75383811  0.25146159  1
  Cr  Cr21  1  0.49863984  0.74788564  0.74551723  1
  O  O22  1  0.14277720  0.09448488  0.64165732  1
  O  O23  1  0.37224801  0.08715430  0.35112445  1
  O  O24  1  0.12475174  0.23500414  0.13805709  1
  O  O25  1  0.37371096  0.22622249  0.86064313  1
  O  O26  1  0.64200402  0.10439215  0.13572976  1
  O  O27  1  0.85496681  0.08988373  0.86504742  1
  O  O28  1  0.10903262  0.41389265  0.63987746  1
  O  O29  1  0.63276381  0.22967119  0.63552695  1
  O  O30  1  0.35484454  0.40452615  0.36662408  1
  O  O31  1  0.86462086  0.26746629  0.36746305  1
  O  O32  1  0.64206279  0.42506000  0.14741439  1
  O  O33  1  0.12775199  0.58715430  0.14887555  1
  O  O34  1  0.86896288  0.41513193  0.85941700  1
  O  O35  1  0.35722280  0.59448488  0.85834268  1
  O  O36  1  0.12628904  0.72622249  0.63935687  1
  O  O37  1  0.64503319  0.58988373  0.63495258  1
  O  O38  1  0.37524826  0.73500414  0.36194291  1
  O  O39  1  0.85799598  0.60439215  0.36427024  1
  O  O40  1  0.14515546  0.90452615  0.13337592  1
  O  O41  1  0.63537914  0.76746629  0.13253695  1
  O  O42  1  0.86723619  0.72967119  0.86447305  1
  O  O43  1  0.39096738  0.91389265  0.86012254  1
  O  O44  1  0.63103712  0.91513193  0.64058300  1
  O  O45  1  0.85793721  0.92506000  0.35258561  1
