# generated using pymatgen
data_Li3P3(WO6)2
_symmetry_space_group_name_H-M   'P 1'
_cell_length_a   8.86645524
_cell_length_b   12.62762128
_cell_length_c   9.07726322
_cell_angle_alpha   90.00000000
_cell_angle_beta   90.00000000
_cell_angle_gamma   89.76148568
_symmetry_Int_Tables_number   1
_chemical_formula_structural   Li3P3(WO6)2
_chemical_formula_sum   'Li12 P12 W8 O48'
_cell_volume   1016.30190680
_cell_formula_units_Z   4
loop_
 _symmetry_equiv_pos_site_id
 _symmetry_equiv_pos_as_xyz
  1  'x, y, z'
loop_
 _atom_site_type_symbol
 _atom_site_label
 _atom_site_symmetry_multiplicity
 _atom_site_fract_x
 _atom_site_fract_y
 _atom_site_fract_z
 _atom_site_occupancy
  Li  Li0  1  0.06078325  0.70521321  0.07104132  1
  Li  Li1  1  0.21053638  0.17827394  0.77545581  1
  Li  Li2  1  0.20234433  0.82244319  0.72914870  1
  Li  Li3  1  0.29765567  0.67755681  0.22914870  1
  Li  Li4  1  0.28946362  0.32172606  0.27545581  1
  Li  Li5  1  0.43921675  0.79478679  0.57104132  1
  Li  Li6  1  0.56078325  0.20521321  0.42895868  1
  Li  Li7  1  0.71053638  0.67827394  0.72454419  1
  Li  Li8  1  0.70234433  0.32244319  0.77085130  1
  Li  Li9  1  0.79765567  0.17755681  0.27085130  1
  Li  Li10  1  0.78946362  0.82172606  0.22454419  1
  Li  Li11  1  0.93921675  0.29478679  0.92895868  1
  P  P12  1  0.04854835  0.50054051  0.24517563  1
  P  P13  1  0.10673588  0.84977668  0.39209364  1
  P  P14  1  0.10801261  0.14912578  0.10235658  1
  P  P15  1  0.39198739  0.35087422  0.60235658  1
  P  P16  1  0.39326412  0.65022332  0.89209364  1
  P  P17  1  0.45145165  0.99945949  0.74517563  1
  P  P18  1  0.54854835  0.00054051  0.25482437  1
  P  P19  1  0.60673588  0.34977668  0.10790636  1
  P  P20  1  0.60801261  0.64912578  0.39764342  1
  P  P21  1  0.89198739  0.85087422  0.89764342  1
  P  P22  1  0.89326412  0.15022332  0.60790636  1
  P  P23  1  0.95145165  0.49945949  0.75482437  1
  W  W24  1  0.24481169  0.61288045  0.54200261  1
  W  W25  1  0.25518831  0.88711955  0.04200261  1
  W  W26  1  0.74481169  0.11288045  0.95799739  1
  W  W27  1  0.75518831  0.38711955  0.45799739  1
  W  W28  1  0.24603016  0.11322727  0.45681778  1
  W  W29  1  0.25396984  0.38677273  0.95681778  1
  W  W30  1  0.74603016  0.61322727  0.04318222  1
  W  W31  1  0.75396984  0.88677273  0.54318222  1
  O  O32  1  0.03605538  0.42995148  0.86995341  1
  O  O33  1  0.05350512  0.57517132  0.67095501  1
  O  O34  1  0.06844161  0.84965803  0.89000086  1
  O  O35  1  0.06407517  0.17266114  0.59496576  1
  O  O36  1  0.13456862  0.58280078  0.34012653  1
  O  O37  1  0.14184693  0.96632156  0.40900159  1
  O  O38  1  0.15465322  0.80773705  0.23548933  1
  O  O39  1  0.14469136  0.23234045  0.97789572  1
  O  O40  1  0.17278336  0.43233160  0.16941584  1
  O  O41  1  0.16970267  0.18764530  0.25238159  1
  O  O42  1  0.17211178  0.04396644  0.05417938  1
  O  O43  1  0.19749258  0.78624876  0.51380854  1
  O  O44  1  0.30250742  0.71375124  0.01380854  1
  O  O45  1  0.32788822  0.45603356  0.55417938  1
  O  O46  1  0.33029733  0.31235470  0.75238159  1
  O  O47  1  0.32721664  0.06766840  0.66941584  1
  O  O48  1  0.35530864  0.26765955  0.47789572  1
  O  O49  1  0.34534678  0.69226295  0.73548933  1
  O  O50  1  0.35815307  0.53367844  0.90900159  1
  O  O51  1  0.36543138  0.91719922  0.84012653  1
  O  O52  1  0.43155839  0.65034197  0.39000086  1
  O  O53  1  0.43592483  0.32733886  0.09496576  1
  O  O54  1  0.44649488  0.92482868  0.17095501  1
  O  O55  1  0.46394462  0.07004852  0.36995341  1
  O  O56  1  0.53605538  0.92995148  0.63004659  1
  O  O57  1  0.55350512  0.07517132  0.82904499  1
  O  O58  1  0.56407517  0.67266114  0.90503424  1
  O  O59  1  0.56844161  0.34965803  0.60999914  1
  O  O60  1  0.63456862  0.08280178  0.15987347  1
  O  O61  1  0.64184693  0.46632156  0.09099841  1
  O  O62  1  0.65465322  0.30773705  0.26451067  1
  O  O63  1  0.64469136  0.73234045  0.52210428  1
  O  O64  1  0.67278336  0.93233160  0.33058416  1
  O  O65  1  0.66970267  0.68764530  0.24761841  1
  O  O66  1  0.67211178  0.54396644  0.44582062  1
  O  O67  1  0.69749258  0.28624876  0.98619146  1
  O  O68  1  0.80250742  0.21375124  0.48619146  1
  O  O69  1  0.82788822  0.95603356  0.94582062  1
  O  O70  1  0.83029733  0.81235470  0.74761841  1
  O  O71  1  0.82721664  0.56766840  0.83058416  1
  O  O72  1  0.85530864  0.76765955  0.02210428  1
  O  O73  1  0.84534678  0.19226295  0.76451067  1
  O  O74  1  0.85815307  0.03367844  0.59099841  1
  O  O75  1  0.86543138  0.41719822  0.65987347  1
  O  O76  1  0.93592483  0.82733886  0.40503424  1
  O  O77  1  0.93155839  0.15034197  0.10999914  1
  O  O78  1  0.94649488  0.42482868  0.32904499  1
  O  O79  1  0.96394462  0.57004852  0.13004659  1
