# generated using pymatgen
data_Li4Mn7(PO4)6
_symmetry_space_group_name_H-M   'P 1'
_cell_length_a   6.63916816
_cell_length_b   8.30625621
_cell_length_c   9.74704810
_cell_angle_alpha   102.62277257
_cell_angle_beta   106.48256961
_cell_angle_gamma   101.13725103
_symmetry_Int_Tables_number   1
_chemical_formula_structural   Li4Mn7(PO4)6
_chemical_formula_sum   'Li4 Mn7 P6 O24'
_cell_volume   483.90895675
_cell_formula_units_Z   1
loop_
 _symmetry_equiv_pos_site_id
 _symmetry_equiv_pos_as_xyz
  1  'x, y, z'
loop_
 _atom_site_type_symbol
 _atom_site_label
 _atom_site_symmetry_multiplicity
 _atom_site_fract_x
 _atom_site_fract_y
 _atom_site_fract_z
 _atom_site_occupancy
  Li  Li0  1  0.44895517  0.90313567  0.88574253  1
  Li  Li1  1  0.31521979  0.42714888  0.66800757  1
  Li  Li2  1  0.26787385  0.50319408  0.39147257  1
  Li  Li3  1  0.69433234  0.57354387  0.33779977  1
  Mn  Mn4  1  0.07131866  0.75228529  0.54885244  1
  Mn  Mn5  1  0.27909551  0.80821575  0.27966993  1
  Mn  Mn6  1  0.01598946  0.00567864  0.01423693  1
  Mn  Mn7  1  0.66085697  0.56986780  0.91331559  1
  Mn  Mn8  1  0.34730050  0.42851429  0.08472151  1
  Mn  Mn9  1  0.72476613  0.20021126  0.71849857  1
  Mn  Mn10  1  0.91832694  0.25416783  0.45659873  1
  P  P11  1  0.09805047  0.59020488  0.83074420  1
  P  P12  1  0.23638468  0.14953382  0.77325661  1
  P  P13  1  0.59970353  0.77025249  0.62890227  1
  P  P14  1  0.39784590  0.22953566  0.37467874  1
  P  P15  1  0.76532532  0.85229261  0.22784102  1
  P  P16  1  0.90379176  0.40532243  0.16391215  1
  O  O17  1  0.12536406  0.77892135  0.91307417  1
  O  O18  1  0.07772232  0.55680278  0.66242162  1
  O  O19  1  0.24869924  0.96456273  0.72441257  1
  O  O20  1  0.03504898  0.18608126  0.66927348  1
  O  O21  1  0.22036228  0.17769183  0.93419188  1
  O  O22  1  0.30907370  0.53918159  0.90463046  1
  O  O23  1  0.11805605  0.53353185  0.16873895  1
  O  O24  1  0.37700724  0.75510856  0.50182369  1
  O  O25  1  0.25113917  0.29089931  0.46196694  1
  O  O26  1  0.45052456  0.26998424  0.77517615  1
  O  O27  1  0.54324439  0.63890845  0.71197433  1
  O  O28  1  0.69191242  0.94988957  0.74834764  1
  O  O29  1  0.27869902  0.05492044  0.25018842  1
  O  O30  1  0.45373532  0.37222191  0.29988443  1
  O  O31  1  0.54948873  0.73173675  0.22571582  1
  O  O32  1  0.75219056  0.72658305  0.54320172  1
  O  O33  1  0.60621647  0.21667946  0.49079868  1
  O  O34  1  0.89478800  0.46760330  0.84016142  1
  O  O35  1  0.69573282  0.45891169  0.09351826  1
  O  O36  1  0.77087561  0.82455420  0.06214422  1
  O  O37  1  0.96260129  0.80024765  0.32329403  1
  O  O38  1  0.77169451  0.03742899  0.28575677  1
  O  O39  1  0.93101312  0.43940452  0.33450722  1
  O  O40  1  0.89359314  0.22398226  0.08046397  1
