# generated using pymatgen
data_Li2FeP2O7
_symmetry_space_group_name_H-M   'P 1'
_cell_length_a   6.29687157
_cell_length_b   8.10036342
_cell_length_c   8.10036342
_cell_angle_alpha   73.69462990
_cell_angle_beta   112.87228285
_cell_angle_gamma   67.12771715
_symmetry_Int_Tables_number   1
_chemical_formula_structural   Li2FeP2O7
_chemical_formula_sum   'Li4 Fe2 P4 O14'
_cell_volume   301.98693244
_cell_formula_units_Z   2
loop_
 _symmetry_equiv_pos_site_id
 _symmetry_equiv_pos_as_xyz
  1  'x, y, z'
loop_
 _atom_site_type_symbol
 _atom_site_label
 _atom_site_symmetry_multiplicity
 _atom_site_fract_x
 _atom_site_fract_y
 _atom_site_fract_z
 _atom_site_occupancy
  Li  Li0  1  0.00000000  0.22930781  0.22930781  1
  Li  Li1  1  0.50000000  0.27069219  0.27069219  1
  Li  Li2  1  0.00000000  0.77069219  0.77069219  1
  Li  Li3  1  0.50000000  0.72930781  0.72930781  1
  Fe  Fe4  1  0.00000000  0.00000000  0.00000000  1
  Fe  Fe5  1  0.50000000  0.50000000  0.50000000  1
  P  P6  1  0.58902096  0.63840576  0.13840576  1
  P  P7  1  0.41097904  0.13840576  0.63840576  1
  P  P8  1  0.58902096  0.86159424  0.36159424  1
  P  P9  1  0.41097904  0.36159424  0.86159424  1
  O  O10  1  0.27675730  0.03521483  0.19126181  1
  O  O11  1  0.72324270  0.19126181  0.03521483  1
  O  O12  1  0.24600255  0.05360279  0.55360279  1
  O  O13  1  0.75399745  0.55360279  0.05360279  1
  O  O14  1  0.62071032  0.46478517  0.30873819  1
  O  O15  1  0.37928968  0.30873819  0.46478517  1
  O  O16  1  0.71072969  0.75000000  0.25000000  1
  O  O17  1  0.28927031  0.25000000  0.75000000  1
  O  O18  1  0.37928968  0.53521483  0.69126181  1
  O  O19  1  0.62071032  0.69126181  0.53521483  1
  O  O20  1  0.24600255  0.44639721  0.94639721  1
  O  O21  1  0.75399745  0.94639721  0.44639721  1
  O  O22  1  0.27675730  0.80873819  0.96478517  1
  O  O23  1  0.72324270  0.96478517  0.80873819  1
