# generated using pymatgen
data_CaLaMg6
_symmetry_space_group_name_H-M   'P 1'
_cell_length_a   6.84195008
_cell_length_b   6.84194944
_cell_length_c   5.36433775
_cell_angle_alpha   90.00000000
_cell_angle_beta   90.00000000
_cell_angle_gamma   119.25220978
_symmetry_Int_Tables_number   1
_chemical_formula_structural   CaLaMg6
_chemical_formula_sum   'Ca1 La1 Mg6'
_cell_volume   219.09372711
_cell_formula_units_Z   1
loop_
 _symmetry_equiv_pos_site_id
 _symmetry_equiv_pos_as_xyz
  1  'x, y, z'
loop_
 _atom_site_type_symbol
 _atom_site_label
 _atom_site_symmetry_multiplicity
 _atom_site_fract_x
 _atom_site_fract_y
 _atom_site_fract_z
 _atom_site_occupancy
  Ca  Ca0  1  0.15765544  0.34234456  0.25000000  1
  La  La1  1  0.34190542  0.15809458  0.75000000  1
  Mg  Mg2  1  0.16275506  0.83013709  0.25000000  1
  Mg  Mg3  1  0.66986291  0.33724494  0.25000000  1
  Mg  Mg4  1  0.66556151  0.83443849  0.25000000  1
  Mg  Mg5  1  0.33342340  0.66739081  0.75000000  1
  Mg  Mg6  1  0.83260919  0.16657660  0.75000000  1
  Mg  Mg7  1  0.83622707  0.66377293  0.75000000  1
