# generated using pymatgen
data_Li2Mn3(BO3)3
_symmetry_space_group_name_H-M   'P 1'
_cell_length_a   9.66854335
_cell_length_b   7.93368557
_cell_length_c   5.22870949
_cell_angle_alpha   87.71284222
_cell_angle_beta   103.42194841
_cell_angle_gamma   105.13683066
_symmetry_Int_Tables_number   1
_chemical_formula_structural   Li2Mn3(BO3)3
_chemical_formula_sum   'Li4 Mn6 B6 O18'
_cell_volume   376.49793800
_cell_formula_units_Z   2
loop_
 _symmetry_equiv_pos_site_id
 _symmetry_equiv_pos_as_xyz
  1  'x, y, z'
loop_
 _atom_site_type_symbol
 _atom_site_label
 _atom_site_symmetry_multiplicity
 _atom_site_fract_x
 _atom_site_fract_y
 _atom_site_fract_z
 _atom_site_occupancy
  Li  Li0  1  0.35019734  0.31059787  0.09310275  1
  Li  Li1  1  0.01457112  0.64448616  0.43257706  1
  Li  Li2  1  0.64162640  0.66666505  0.90968967  1
  Li  Li3  1  0.69095183  0.99336005  0.75624307  1
  Mn  Mn4  1  0.15966763  0.07968546  0.66960377  1
  Mn  Mn5  1  0.50518345  0.24454268  0.64996966  1
  Mn  Mn6  1  0.17004376  0.57435098  0.97870085  1
  Mn  Mn7  1  0.83313621  0.41445047  0.01818401  1
  Mn  Mn8  1  0.48552922  0.75624146  0.34177405  1
  Mn  Mn9  1  0.83620233  0.91860911  0.31916933  1
  B  B10  1  0.06863074  0.20636411  0.13108631  1
  B  B11  1  0.60800931  0.14045993  0.20761358  1
  B  B12  1  0.27253964  0.46632546  0.53877433  1
  B  B13  1  0.71426889  0.53033161  0.45223706  1
  B  B14  1  0.39555054  0.86543428  0.80018009  1
  B  B15  1  0.94183487  0.79754140  0.87114771  1
  O  O16  1  0.02597340  0.35298024  0.00352586  1
  O  O17  1  0.01005639  0.14491154  0.34502690  1
  O  O18  1  0.16543221  0.13704683  0.05077832  1
  O  O19  1  0.65337384  0.17472125  0.96768284  1
  O  O20  1  0.65552960  0.01311124  0.36747606  1
  O  O21  1  0.33111754  0.34474753  0.69762884  1
  O  O22  1  0.51550122  0.22809094  0.27056028  1
  O  O23  1  0.17843706  0.54955462  0.60668982  1
  O  O24  1  0.31371941  0.50495641  0.29741013  1
  O  O25  1  0.66232309  0.47642959  0.68723649  1
  O  O26  1  0.82267991  0.46902389  0.39764880  1
  O  O27  1  0.50307747  0.79983608  0.74268284  1
  O  O28  1  0.65950315  0.65707897  0.29885739  1
  O  O29  1  0.35955348  0.01254964  0.67602759  1
  O  O30  1  0.32649210  0.79447559  0.00320626  1
  O  O31  1  0.82991493  0.86032768  0.92104658  1
  O  O32  1  0.98968458  0.83950635  0.63767697  1
  O  O33  1  0.99936035  0.67856152  0.03857273  1
