# generated using pymatgen
data_LiNi(PO3)3
_symmetry_space_group_name_H-M   'P 1'
_cell_length_a   7.20824419
_cell_length_b   11.77332498
_cell_length_c   9.07210788
_cell_angle_alpha   90.00000000
_cell_angle_beta   90.00000000
_cell_angle_gamma   90.00000000
_symmetry_Int_Tables_number   1
_chemical_formula_structural   LiNi(PO3)3
_chemical_formula_sum   'Li4 Ni4 P12 O36'
_cell_volume   769.90444779
_cell_formula_units_Z   4
loop_
 _symmetry_equiv_pos_site_id
 _symmetry_equiv_pos_as_xyz
  1  'x, y, z'
loop_
 _atom_site_type_symbol
 _atom_site_label
 _atom_site_symmetry_multiplicity
 _atom_site_fract_x
 _atom_site_fract_y
 _atom_site_fract_z
 _atom_site_occupancy
  Li  Li0  1  0.25000000  0.02195660  0.04151791  1
  Li  Li1  1  0.25000000  0.47804340  0.54151791  1
  Li  Li2  1  0.75000000  0.52195660  0.45848209  1
  Li  Li3  1  0.75000000  0.97804340  0.95848209  1
  Ni  Ni4  1  0.25000000  0.70878705  0.47982312  1
  Ni  Ni5  1  0.25000000  0.79121295  0.97982312  1
  Ni  Ni6  1  0.75000000  0.20878705  0.02017688  1
  Ni  Ni7  1  0.75000000  0.29121295  0.52017688  1
  P  P8  1  0.04216527  0.34796174  0.24790093  1
  P  P9  1  0.04216527  0.15203826  0.74790093  1
  P  P10  1  0.25000000  0.95322778  0.69310744  1
  P  P11  1  0.25000000  0.54677222  0.19310744  1
  P  P12  1  0.45783473  0.15203826  0.74790093  1
  P  P13  1  0.45783473  0.34796174  0.24790093  1
  P  P14  1  0.54216527  0.65203826  0.75209907  1
  P  P15  1  0.54216527  0.84796174  0.25209907  1
  P  P16  1  0.75000000  0.45322778  0.80689256  1
  P  P17  1  0.75000000  0.04677222  0.30689256  1
  P  P18  1  0.95783473  0.65203826  0.75209907  1
  P  P19  1  0.95783473  0.84796174  0.25209907  1
  O  O20  1  0.02956472  0.75810572  0.35224457  1
  O  O21  1  0.02956472  0.74189428  0.85224457  1
  O  O22  1  0.06126086  0.88224385  0.11387956  1
  O  O23  1  0.06126086  0.61775615  0.61387956  1
  O  O24  1  0.07781717  0.03682148  0.65370814  1
  O  O25  1  0.07781717  0.46317852  0.15370814  1
  O  O26  1  0.25000000  0.31223980  0.30151352  1
  O  O27  1  0.25000000  0.85596511  0.59184716  1
  O  O28  1  0.25000000  0.64403489  0.09184716  1
  O  O29  1  0.25000000  0.93824703  0.85912691  1
  O  O30  1  0.25000000  0.18776020  0.80151352  1
  O  O31  1  0.25000000  0.56175297  0.35912691  1
  O  O32  1  0.42218283  0.03682148  0.65370814  1
  O  O33  1  0.42218283  0.46317852  0.15370814  1
  O  O34  1  0.43873914  0.88224385  0.11387956  1
  O  O35  1  0.43873914  0.61775615  0.61387956  1
  O  O36  1  0.47043528  0.75810572  0.35224457  1
  O  O37  1  0.47043528  0.74189428  0.85224457  1
  O  O38  1  0.52956472  0.25810572  0.14775543  1
  O  O39  1  0.52956472  0.24189428  0.64775543  1
  O  O40  1  0.56126086  0.11775615  0.88612044  1
  O  O41  1  0.56126086  0.38224385  0.38612044  1
  O  O42  1  0.57781717  0.53682148  0.84629186  1
  O  O43  1  0.57781717  0.96317852  0.34629186  1
  O  O44  1  0.75000000  0.06175297  0.14087309  1
  O  O45  1  0.75000000  0.14403389  0.40815284  1
  O  O46  1  0.75000000  0.43824703  0.64087309  1
  O  O47  1  0.75000000  0.35596611  0.90815284  1
  O  O48  1  0.75000000  0.68776020  0.69848648  1
  O  O49  1  0.75000000  0.81223980  0.19848648  1
  O  O50  1  0.92218283  0.53682148  0.84629186  1
  O  O51  1  0.92218283  0.96317852  0.34629186  1
  O  O52  1  0.93873914  0.38224385  0.38612044  1
  O  O53  1  0.93873914  0.11775615  0.88612044  1
  O  O54  1  0.97043528  0.24189428  0.64775543  1
  O  O55  1  0.97043528  0.25810572  0.14775543  1
