# generated using pymatgen
data_Li3VF5
_symmetry_space_group_name_H-M   'P 1'
_cell_length_a   6.63363485
_cell_length_b   8.10678097
_cell_length_c   7.88906751
_cell_angle_alpha   90.00000000
_cell_angle_beta   90.00000000
_cell_angle_gamma   90.00000000
_symmetry_Int_Tables_number   1
_chemical_formula_structural   Li3VF5
_chemical_formula_sum   'Li12 V4 F20'
_cell_volume   424.25373448
_cell_formula_units_Z   4
loop_
 _symmetry_equiv_pos_site_id
 _symmetry_equiv_pos_as_xyz
  1  'x, y, z'
loop_
 _atom_site_type_symbol
 _atom_site_label
 _atom_site_symmetry_multiplicity
 _atom_site_fract_x
 _atom_site_fract_y
 _atom_site_fract_z
 _atom_site_occupancy
  Li  Li0  1  0.01640439  0.77202371  0.07370607  1
  Li  Li1  1  0.01640439  0.77202371  0.42629393  1
  Li  Li2  1  0.20832186  0.47224255  0.75000000  1
  Li  Li3  1  0.29167814  0.97224255  0.25000000  1
  Li  Li4  1  0.48359561  0.27202371  0.57370607  1
  Li  Li5  1  0.48359561  0.27202371  0.92629393  1
  Li  Li6  1  0.51640439  0.72797629  0.07370607  1
  Li  Li7  1  0.51640439  0.72797629  0.42629393  1
  Li  Li8  1  0.70832186  0.02775745  0.75000000  1
  Li  Li9  1  0.79167814  0.52775745  0.25000000  1
  Li  Li10  1  0.98359561  0.22797629  0.92629393  1
  Li  Li11  1  0.98359561  0.22797629  0.57370607  1
  V  V12  1  0.22917653  0.39788705  0.25000000  1
  V  V13  1  0.27082347  0.89788705  0.75000000  1
  V  V14  1  0.72917653  0.10211295  0.25000000  1
  V  V15  1  0.77082347  0.60211295  0.75000000  1
  F  F16  1  0.00616403  0.04437883  0.75000000  1
  F  F17  1  0.07361399  0.62151482  0.25000000  1
  F  F18  1  0.07999610  0.68765753  0.75000000  1
  F  F19  1  0.22287618  0.35901729  0.51662260  1
  F  F20  1  0.22287618  0.35901729  0.98337740  1
  F  F21  1  0.27712382  0.85901729  0.01662260  1
  F  F22  1  0.27712382  0.85901729  0.48337740  1
  F  F23  1  0.42000390  0.18765753  0.25000000  1
  F  F24  1  0.42638601  0.12151482  0.75000000  1
  F  F25  1  0.49383597  0.54437883  0.25000000  1
  F  F26  1  0.50616403  0.45562117  0.75000000  1
  F  F27  1  0.57361399  0.87848518  0.25000000  1
  F  F28  1  0.57999610  0.81234247  0.75000000  1
  F  F29  1  0.72287618  0.14098271  0.51662260  1
  F  F30  1  0.72287618  0.14098271  0.98337740  1
  F  F31  1  0.77712382  0.64098271  0.01662260  1
  F  F32  1  0.77712382  0.64098271  0.48337740  1
  F  F33  1  0.92000390  0.31234247  0.25000000  1
  F  F34  1  0.92638601  0.37848518  0.75000000  1
  F  F35  1  0.99383597  0.95562117  0.25000000  1
