# generated using pymatgen
data_La3ScBeS7
_symmetry_space_group_name_H-M   'P 1'
_cell_length_a   10.24004330
_cell_length_b   10.24002849
_cell_length_c   6.05843100
_cell_angle_alpha   90.00000000
_cell_angle_beta   90.00000000
_cell_angle_gamma   120.00271059
_symmetry_Int_Tables_number   1
_chemical_formula_structural   La3ScBeS7
_chemical_formula_sum   'La6 Sc2 Be2 S14'
_cell_volume   550.15098273
_cell_formula_units_Z   2
loop_
 _symmetry_equiv_pos_site_id
 _symmetry_equiv_pos_as_xyz
  1  'x, y, z'
loop_
 _atom_site_type_symbol
 _atom_site_label
 _atom_site_symmetry_multiplicity
 _atom_site_fract_x
 _atom_site_fract_y
 _atom_site_fract_z
 _atom_site_occupancy
  La  La0  1  0.13947884  0.39356528  0.24733223  1
  La  La1  1  0.86052116  0.60643472  0.74733323  1
  La  La2  1  0.60642748  0.74591825  0.24730758  1
  La  La3  1  0.25408084  0.86050974  0.24730417  1
  La  La4  1  0.74592016  0.13949126  0.74730517  1
  La  La5  1  0.39357352  0.25408075  0.74730858  1
  Sc  Sc6  1  0.00000466  0.00000200  0.01854000  1
  Sc  Sc7  1  0.99999434  0.99999700  0.51854100  1
  Be  Be8  1  0.33332568  0.66666819  0.65854428  1
  Be  Be9  1  0.66667632  0.33333281  0.15854328  1
  S  S10  1  0.33333029  0.66666930  0.00938425  1
  S  S11  1  0.66666971  0.33333170  0.50938525  1
  S  S12  1  0.40638854  0.52012484  0.52967210  1
  S  S13  1  0.59361246  0.47987616  0.02967110  1
  S  S14  1  0.47987958  0.88627547  0.52965272  1
  S  S15  1  0.11371862  0.59360218  0.52966180  1
  S  S16  1  0.88628338  0.40639882  0.02966280  1
  S  S17  1  0.52011942  0.11372453  0.02965372  1
  S  S18  1  0.08075171  0.23118730  0.77153305  1
  S  S19  1  0.91924929  0.76881270  0.27153405  1
  S  S20  1  0.76881089  0.84955390  0.77153386  1
  S  S21  1  0.15043608  0.91926056  0.77153095  1
  S  S22  1  0.84956492  0.08073944  0.27153195  1
  S  S23  1  0.23119011  0.15044810  0.27153486  1
