# generated using pymatgen
data_Li2Mn(PO4)2
_symmetry_space_group_name_H-M   'P 1'
_cell_length_a   4.86520689
_cell_length_b   8.13166814
_cell_length_c   8.89394879
_cell_angle_alpha   115.38171083
_cell_angle_beta   104.15992055
_cell_angle_gamma   90.84074873
_symmetry_Int_Tables_number   1
_chemical_formula_structural   Li2Mn(PO4)2
_chemical_formula_sum   'Li4 Mn2 P4 O16'
_cell_volume   305.35805972
_cell_formula_units_Z   2
loop_
 _symmetry_equiv_pos_site_id
 _symmetry_equiv_pos_as_xyz
  1  'x, y, z'
loop_
 _atom_site_type_symbol
 _atom_site_label
 _atom_site_symmetry_multiplicity
 _atom_site_fract_x
 _atom_site_fract_y
 _atom_site_fract_z
 _atom_site_occupancy
  Li  Li0  1  0.11601370  0.90578831  0.69123094  1
  Li  Li1  1  0.38109202  0.61476245  0.41842503  1
  Li  Li2  1  0.61890798  0.38523755  0.58157497  1
  Li  Li3  1  0.88398630  0.09421169  0.30876906  1
  Mn  Mn4  1  0.27709957  0.76891120  0.05106678  1
  Mn  Mn5  1  0.72290043  0.23108880  0.94893322  1
  P  P6  1  0.14116622  0.32196667  0.75980327  1
  P  P7  1  0.31664224  0.20399842  0.17972794  1
  P  P8  1  0.68335776  0.79600158  0.82027206  1
  P  P9  1  0.85883378  0.67803333  0.24019673  1
  O  O10  1  0.01925170  0.83248072  0.88016410  1
  O  O11  1  0.11921724  0.51779284  0.89064864  1
  O  O12  1  0.00409328  0.71749616  0.42754796  1
  O  O13  1  0.01928636  0.81809951  0.19948462  1
  O  O14  1  0.46105307  0.28485935  0.77224063  1
  O  O15  1  0.56622002  0.97080993  0.80786822  1
  O  O16  1  0.57508339  0.74856669  0.94726073  1
  O  O17  1  0.57961390  0.64175208  0.64043467  1
  O  O18  1  0.42038610  0.35824792  0.35956533  1
  O  O19  1  0.42491661  0.25143331  0.05273927  1
  O  O20  1  0.43377998  0.02919007  0.19213178  1
  O  O21  1  0.53894693  0.71514065  0.22775937  1
  O  O22  1  0.98071364  0.18190049  0.80051538  1
  O  O23  1  0.99590672  0.28250384  0.57245204  1
  O  O24  1  0.88078276  0.48220716  0.10935136  1
  O  O25  1  0.98074830  0.16751928  0.11983590  1
