# generated using pymatgen
data_LiFeP3H8O13
_symmetry_space_group_name_H-M   'P 1'
_cell_length_a   7.79189890
_cell_length_b   10.12000279
_cell_length_c   7.31076896
_cell_angle_alpha   105.71571537
_cell_angle_beta   103.18327992
_cell_angle_gamma   83.80407010
_symmetry_Int_Tables_number   1
_chemical_formula_structural   LiFeP3H8O13
_chemical_formula_sum   'Li2 Fe2 P6 H16 O26'
_cell_volume   539.65275623
_cell_formula_units_Z   2
loop_
 _symmetry_equiv_pos_site_id
 _symmetry_equiv_pos_as_xyz
  1  'x, y, z'
loop_
 _atom_site_type_symbol
 _atom_site_label
 _atom_site_symmetry_multiplicity
 _atom_site_fract_x
 _atom_site_fract_y
 _atom_site_fract_z
 _atom_site_occupancy
  Li  Li0  1  0.18570220  0.23642569  0.80384323  1
  Li  Li1  1  0.81429780  0.76357431  0.19615677  1
  Fe  Fe2  1  0.00000000  0.00000000  0.00000000  1
  Fe  Fe3  1  0.50000000  0.50000000  0.00000000  1
  P  P4  1  0.19325244  0.25507471  0.33023411  1
  P  P5  1  0.19552605  0.52275672  0.24286536  1
  P  P6  1  0.54268183  0.27128622  0.59218744  1
  P  P7  1  0.45731817  0.72871378  0.40781256  1
  P  P8  1  0.80447395  0.47724328  0.75713464  1
  P  P9  1  0.80674756  0.74492529  0.66976589  1
  H  H10  1  0.03283654  0.03981000  0.36700519  1
  H  H11  1  0.17902006  0.56986805  0.81397722  1
  H  H12  1  0.13514448  0.89836085  0.31164463  1
  H  H13  1  0.26029121  0.79459860  0.92450155  1
  H  H14  1  0.30204937  0.60167049  0.69044436  1
  H  H15  1  0.34612133  0.99243738  0.85278813  1
  H  H16  1  0.37866389  0.99489454  0.65243103  1
  H  H17  1  0.35337533  0.91311355  0.09809374  1
  H  H18  1  0.64662467  0.08688645  0.90190626  1
  H  H19  1  0.62133611  0.00510546  0.34756897  1
  H  H20  1  0.65387867  0.00756262  0.14721187  1
  H  H21  1  0.69795063  0.39832951  0.30955564  1
  H  H22  1  0.73970879  0.20540140  0.07549845  1
  H  H23  1  0.86485552  0.10163915  0.68835537  1
  H  H24  1  0.82097994  0.43013195  0.18602278  1
  H  H25  1  0.96716346  0.96019000  0.63299481  1
  O  O26  1  0.11985791  0.21142051  0.47485407  1
  O  O27  1  0.02056938  0.94834978  0.27223930  1
  O  O28  1  0.04150803  0.61452734  0.19180959  1
  O  O29  1  0.14166077  0.41889762  0.35309955  1
  O  O30  1  0.14463365  0.18107523  0.11792364  1
  O  O31  1  0.25574028  0.89537385  0.98243739  1
  O  O32  1  0.28558389  0.61700008  0.82419796  1
  O  O33  1  0.38708172  0.05248804  0.78663682  1
  O  O34  1  0.44718015  0.33026243  0.75643369  1
  O  O35  1  0.29642109  0.44016176  0.09075020  1
  O  O36  1  0.34219389  0.60801082  0.42642958  1
  O  O37  1  0.40766810  0.25218674  0.38485413  1
  O  O38  1  0.34597492  0.85889025  0.41162020  1
  O  O39  1  0.65402508  0.14110975  0.58837980  1
  O  O40  1  0.59233190  0.74781326  0.61514587  1
  O  O41  1  0.65780611  0.39198918  0.57357042  1
  O  O42  1  0.70357891  0.55983824  0.90924980  1
  O  O43  1  0.55281985  0.66973757  0.24356631  1
  O  O44  1  0.61291828  0.94751196  0.21336318  1
  O  O45  1  0.71441611  0.38299992  0.17580204  1
  O  O46  1  0.74425972  0.10462615  0.01756261  1
  O  O47  1  0.85536635  0.81892477  0.88207636  1
  O  O48  1  0.85833923  0.58110238  0.64690045  1
  O  O49  1  0.95849197  0.38547266  0.80819041  1
  O  O50  1  0.97943062  0.05165022  0.72776070  1
  O  O51  1  0.88014209  0.78857949  0.52514593  1
