# generated using pymatgen
data_Li6Mn5CoO12
_symmetry_space_group_name_H-M   'P 1'
_cell_length_a   5.06319788
_cell_length_b   5.06572260
_cell_length_c   10.15765082
_cell_angle_alpha   83.10269090
_cell_angle_beta   83.65835907
_cell_angle_gamma   65.28483389
_symmetry_Int_Tables_number   1
_chemical_formula_structural   Li6Mn5CoO12
_chemical_formula_sum   'Li6 Mn5 Co1 O12'
_cell_volume   234.42819242
_cell_formula_units_Z   1
loop_
 _symmetry_equiv_pos_site_id
 _symmetry_equiv_pos_as_xyz
  1  'x, y, z'
loop_
 _atom_site_type_symbol
 _atom_site_label
 _atom_site_symmetry_multiplicity
 _atom_site_fract_x
 _atom_site_fract_y
 _atom_site_fract_z
 _atom_site_occupancy
  Li  Li0  1  0.36923636  0.02700308  0.76218982  1
  Li  Li1  1  0.03498764  0.69443476  0.76243832  1
  Li  Li2  1  0.24279211  0.68973814  0.24598035  1
  Li  Li3  1  0.63080160  0.97300862  0.23779983  1
  Li  Li4  1  0.75723253  0.31027120  0.75401556  1
  Li  Li5  1  0.96503805  0.30557801  0.23756039  1
  Mn  Mn6  1  0.33044422  0.33018695  0.99946865  1
  Mn  Mn7  1  0.16785849  0.66417506  0.50334533  1
  Mn  Mn8  1  0.49996350  0.99997847  0.50000879  1
  Mn  Mn9  1  0.66961018  0.66983372  0.00052798  1
  Mn  Mn10  1  0.83206290  0.33580649  0.49664926  1
  Co  Co11  1  0.00002026  0.00000805  0.99999831  1
  O  O12  1  0.18108183  0.94628359  0.61581356  1
  O  O13  1  0.05141755  0.31549355  0.88610484  1
  O  O14  1  0.14927480  0.39240813  0.38602051  1
  O  O15  1  0.27978371  0.01649584  0.11346340  1
  O  O16  1  0.72025892  0.98351369  0.88654111  1
  O  O17  1  0.52050018  0.27538950  0.61282570  1
  O  O18  1  0.33918337  0.69147804  0.90330145  1
  O  O19  1  0.66085540  0.30853901  0.09669584  1
  O  O20  1  0.47944536  0.72458958  0.38718318  1
  O  O21  1  0.81885711  0.05370985  0.38419503  1
  O  O22  1  0.85066495  0.60757834  0.61398863  1
  O  O23  1  0.94861899  0.68451634  0.11388716  1
