# generated using pymatgen
data_Li8VO5F
_symmetry_space_group_name_H-M   'P 1'
_cell_length_a   5.64668713
_cell_length_b   5.64673582
_cell_length_c   10.92071270
_cell_angle_alpha   89.99982574
_cell_angle_beta   90.00112212
_cell_angle_gamma   119.99694851
_symmetry_Int_Tables_number   1
_chemical_formula_structural   Li8VO5F
_chemical_formula_sum   'Li16 V2 O10 F2'
_cell_volume   301.56862932
_cell_formula_units_Z   2
loop_
 _symmetry_equiv_pos_site_id
 _symmetry_equiv_pos_as_xyz
  1  'x, y, z'
loop_
 _atom_site_type_symbol
 _atom_site_label
 _atom_site_symmetry_multiplicity
 _atom_site_fract_x
 _atom_site_fract_y
 _atom_site_fract_z
 _atom_site_occupancy
  Li  Li0  1  0.97586837  0.68466013  0.77207301  1
  Li  Li1  1  0.01972587  0.62975681  0.12114026  1
  Li  Li2  1  0.98030244  0.37024705  0.62112991  1
  Li  Li3  1  0.02411807  0.31534259  0.27208354  1
  Li  Li4  1  0.33318773  0.66661953  0.41383076  1
  Li  Li5  1  0.33347828  0.66672880  0.92411925  1
  Li  Li6  1  0.31554061  0.29123243  0.77207530  1
  Li  Li7  1  0.37019007  0.39002604  0.12115813  1
  Li  Li8  1  0.62983151  0.60999609  0.62114945  1
  Li  Li9  1  0.29098368  0.97571177  0.27208293  1
  Li  Li10  1  0.68445808  0.70878331  0.27209338  1
  Li  Li11  1  0.38995047  0.01982941  0.62115314  1
  Li  Li12  1  0.66678664  0.33337940  0.91382881  1
  Li  Li13  1  0.66649201  0.33326637  0.42412849  1
  Li  Li14  1  0.61001801  0.98018701  0.12116994  1
  Li  Li15  1  0.70902010  0.02431104  0.77207186  1
  V  V16  1  0.00011064  0.00004726  0.98786639  1
  V  V17  1  0.99981158  0.99990141  0.48787846  1
  O  O18  1  0.00187829  0.67324911  0.94775237  1
  O  O19  1  0.99808546  0.32674866  0.44768846  1
  O  O20  1  0.33319846  0.66661588  0.21225667  1
  O  O21  1  0.00022390  0.00010123  0.67534265  1
  O  O22  1  0.99978740  0.99990134  0.17528792  1
  O  O23  1  0.32686415  0.32854957  0.94777086  1
  O  O24  1  0.32842448  0.00169233  0.44770627  1
  O  O25  1  0.67310645  0.67145359  0.44771720  1
  O  O26  1  0.66680697  0.33338619  0.71239275  1
  O  O27  1  0.67155956  0.99829949  0.94776980  1
  F  F28  1  0.33355785  0.66671211  0.70933102  1
  F  F29  1  0.66642886  0.33326404  0.20921202  1
