# generated using pymatgen
data_Li2Mn3(BO3)3
_symmetry_space_group_name_H-M   'P 1'
_cell_length_a   9.25556125
_cell_length_b   5.26947693
_cell_length_c   8.30121700
_cell_angle_alpha   89.36873077
_cell_angle_beta   75.66531225
_cell_angle_gamma   105.66162234
_symmetry_Int_Tables_number   1
_chemical_formula_structural   Li2Mn3(BO3)3
_chemical_formula_sum   'Li4 Mn6 B6 O18'
_cell_volume   376.38040686
_cell_formula_units_Z   2
loop_
 _symmetry_equiv_pos_site_id
 _symmetry_equiv_pos_as_xyz
  1  'x, y, z'
loop_
 _atom_site_type_symbol
 _atom_site_label
 _atom_site_symmetry_multiplicity
 _atom_site_fract_x
 _atom_site_fract_y
 _atom_site_fract_z
 _atom_site_occupancy
  Li  Li0  1  0.70763052  0.01455489  0.36939029  1
  Li  Li1  1  0.64267364  0.66435458  0.95128554  1
  Li  Li2  1  0.35823301  0.34068094  0.04331319  1
  Li  Li3  1  0.04402798  0.69236923  0.70039681  1
  Mn  Mn4  1  0.79423881  0.21910688  0.02985735  1
  Mn  Mn5  1  0.88571263  0.13510244  0.62927900  1
  Mn  Mn6  1  0.54863315  0.44590756  0.30519696  1
  Mn  Mn7  1  0.44407307  0.54236188  0.69020358  1
  Mn  Mn8  1  0.11077694  0.87004866  0.35754749  1
  Mn  Mn9  1  0.21961650  0.80021825  0.96797676  1
  B  B10  1  0.89628915  0.77653335  0.13375729  1
  B  B11  1  0.77063646  0.56350594  0.52602875  1
  B  B12  1  0.44663429  0.89081685  0.17903479  1
  B  B13  1  0.55602730  0.10349756  0.82421351  1
  B  B14  1  0.21632051  0.42966706  0.48922241  1
  B  B15  1  0.11041393  0.22821979  0.85180242  1
  O  O16  1  0.88259424  0.01855029  0.17634670  1
  O  O17  1  0.99220082  0.31504947  0.81031345  1
  O  O18  1  0.88899074  0.74198641  0.57656580  1
  O  O19  1  0.77583605  0.58998678  0.09008501  1
  O  O20  1  0.76868829  0.30384126  0.50639821  1
  O  O21  1  0.65272920  0.65586168  0.48871933  1
  O  O22  1  0.56476591  0.07230314  0.22796976  1
  O  O23  1  0.69091880  0.02991098  0.83140227  1
  O  O24  1  0.45358882  0.63845990  0.14848031  1
  O  O25  1  0.54619153  0.35537340  0.84668028  1
  O  O26  1  0.32371848  0.97807302  0.14719991  1
  O  O27  1  0.42955694  0.89823200  0.80654381  1
  O  O28  1  0.34738825  0.36360482  0.50662981  1
  O  O29  1  0.20370034  0.67921793  0.50338436  1
  O  O30  1  0.22738401  0.41409631  0.90056567  1
  O  O31  1  0.09275712  0.22047992  0.46444538  1
  O  O32  1  0.02966627  0.70270942  0.14870825  1
  O  O33  1  0.10918929  0.96848045  0.83988652  1
