# generated using pymatgen
data_Ho3Mg
_symmetry_space_group_name_H-M   'P 1'
_cell_length_a   6.98047653
_cell_length_b   6.98047620
_cell_length_c   5.52604730
_cell_angle_alpha   90.00000000
_cell_angle_beta   90.00000000
_cell_angle_gamma   119.99999676
_symmetry_Int_Tables_number   1
_chemical_formula_structural   Ho3Mg
_chemical_formula_sum   'Ho6 Mg2'
_cell_volume   233.19292286
_cell_formula_units_Z   2
loop_
 _symmetry_equiv_pos_site_id
 _symmetry_equiv_pos_as_xyz
  1  'x, y, z'
loop_
 _atom_site_type_symbol
 _atom_site_label
 _atom_site_symmetry_multiplicity
 _atom_site_fract_x
 _atom_site_fract_y
 _atom_site_fract_z
 _atom_site_occupancy
  Ho  Ho0  1  0.16960931  0.33921861  0.25000000  1
  Ho  Ho1  1  0.66078139  0.83039069  0.25000000  1
  Ho  Ho2  1  0.16960931  0.83039069  0.25000000  1
  Ho  Ho3  1  0.83039069  0.16961031  0.75000000  1
  Ho  Ho4  1  0.33921961  0.16961031  0.75000000  1
  Ho  Ho5  1  0.83039169  0.66078239  0.75000000  1
  Mg  Mg6  1  0.66666700  0.33333300  0.25000000  1
  Mg  Mg7  1  0.33333300  0.66666700  0.75000000  1
