# generated using pymatgen
data_K8Zr3Si12SnO40
_symmetry_space_group_name_H-M   'P 1'
_cell_length_a   7.24679284
_cell_length_b   10.33907439
_cell_length_c   13.53332172
_cell_angle_alpha   89.70394768
_cell_angle_beta   89.94533824
_cell_angle_gamma   90.08220882
_symmetry_Int_Tables_number   1
_chemical_formula_structural   K8Zr3Si12SnO40
_chemical_formula_sum   'K8 Zr3 Si12 Sn1 O40'
_cell_volume   1013.97084458
_cell_formula_units_Z   1
loop_
 _symmetry_equiv_pos_site_id
 _symmetry_equiv_pos_as_xyz
  1  'x, y, z'
loop_
 _atom_site_type_symbol
 _atom_site_label
 _atom_site_symmetry_multiplicity
 _atom_site_fract_x
 _atom_site_fract_y
 _atom_site_fract_z
 _atom_site_occupancy
  K  K0  1  0.34408350  0.78051126  0.13777922  1
  K  K1  1  0.84169796  0.71951625  0.86310661  1
  K  K2  1  0.65663009  0.27922270  0.36264613  1
  K  K3  1  0.15777810  0.22567141  0.63555905  1
  K  K4  1  0.78302879  0.56685654  0.58245219  1
  K  K5  1  0.27964049  0.93002244  0.41866756  1
  K  K6  1  0.21870281  0.07033372  0.91753622  1
  K  K7  1  0.71965152  0.43111552  0.08134989  1
  Zr  Zr8  1  0.74131190  0.94544549  0.29238335  1
  Zr  Zr9  1  0.75646085  0.05426974  0.79111289  1
  Zr  Zr10  1  0.25784005  0.44671013  0.20865876  1
  Si  Si11  1  0.76939374  0.96613533  0.54928718  1
  Si  Si12  1  0.26882046  0.53142411  0.45457892  1
  Si  Si13  1  0.23172811  0.47224369  0.95027345  1
  Si  Si14  1  0.72974801  0.03102941  0.04838020  1
  Si  Si15  1  0.91986639  0.36718030  0.83100744  1
  Si  Si16  1  0.41578157  0.13419380  0.16659921  1
  Si  Si17  1  0.08310146  0.86227224  0.66799400  1
  Si  Si18  1  0.58356683  0.63283032  0.33470857  1
  Si  Si19  1  0.49620414  0.82276149  0.67445691  1
  Si  Si20  1  0.99801006  0.67260796  0.32788007  1
  Si  Si21  1  0.50391452  0.33177630  0.82432096  1
  Si  Si22  1  0.00205497  0.17307939  0.17250370  1
  Sn  Sn23  1  0.24149051  0.55547158  0.71006307  1
  O  O24  1  0.68687344  0.27553553  0.57193415  1
  O  O25  1  0.18725351  0.22374426  0.42795529  1
  O  O26  1  0.31590029  0.78013809  0.92778324  1
  O  O27  1  0.81438980  0.72402622  0.07191315  1
  O  O28  1  0.22200807  0.48734425  0.56616856  1
  O  O29  1  0.72612107  0.01028654  0.43770757  1
  O  O30  1  0.77203076  0.98799088  0.93649413  1
  O  O31  1  0.27233959  0.51475976  0.06222726  1
  O  O32  1  0.25366445  0.58974890  0.86700349  1
  O  O33  1  0.75375017  0.91577188  0.13188904  1
  O  O34  1  0.74560293  0.08217025  0.63150201  1
  O  O35  1  0.24312853  0.41721423  0.37041429  1
  O  O36  1  0.05714491  0.70740574  0.68749373  1
  O  O37  1  0.55913444  0.78718634  0.31583750  1
  O  O38  1  0.94033974  0.21227668  0.81370731  1
  O  O39  1  0.43977934  0.28845706  0.18472953  1
  O  O40  1  0.00146437  0.44929006  0.73771221  1
  O  O41  1  0.49596652  0.05020038  0.25861100  1
  O  O42  1  0.00028642  0.94639405  0.75882603  1
  O  O43  1  0.50360691  0.54976541  0.24274509  1
  O  O44  1  0.40157616  0.39269225  0.72841003  1
  O  O45  1  0.90238180  0.10971596  0.26807799  1
  O  O46  1  0.59503500  0.88892031  0.76903457  1
  O  O47  1  0.09659477  0.61007198  0.23234727  1
  O  O48  1  0.63098402  0.84312996  0.57682567  1
  O  O49  1  0.13254272  0.65469177  0.42567781  1
  O  O50  1  0.37323525  0.35155211  0.92341195  1
  O  O51  1  0.86833780  0.15399062  0.07441198  1
  O  O52  1  0.98266944  0.90945759  0.56275711  1
  O  O53  1  0.48392211  0.58481842  0.44010874  1
  O  O54  1  0.01871074  0.41480121  0.93610040  1
  O  O55  1  0.51590745  0.08660417  0.06149290  1
  O  O56  1  0.30163136  0.89824492  0.64633034  1
  O  O57  1  0.80281506  0.59620068  0.35576613  1
  O  O58  1  0.70104334  0.40675587  0.84978061  1
  O  O59  1  0.19696833  0.09711402  0.14505086  1
  O  O60  1  0.47009338  0.66758377  0.68718091  1
  O  O61  1  0.96643101  0.82690736  0.31446088  1
  O  O62  1  0.53436107  0.17715044  0.81168097  1
  O  O63  1  0.03346713  0.32720893  0.18513273  1
