# generated using pymatgen
data_Li3MnP2O9
_symmetry_space_group_name_H-M   'P 1'
_cell_length_a   6.86595067
_cell_length_b   7.89938345
_cell_length_c   7.12109601
_cell_angle_alpha   89.54649972
_cell_angle_beta   87.81059111
_cell_angle_gamma   64.32430268
_symmetry_Int_Tables_number   1
_chemical_formula_structural   Li3MnP2O9
_chemical_formula_sum   'Li6 Mn2 P4 O18'
_cell_volume   347.81964716
_cell_formula_units_Z   2
loop_
 _symmetry_equiv_pos_site_id
 _symmetry_equiv_pos_as_xyz
  1  'x, y, z'
loop_
 _atom_site_type_symbol
 _atom_site_label
 _atom_site_symmetry_multiplicity
 _atom_site_fract_x
 _atom_site_fract_y
 _atom_site_fract_z
 _atom_site_occupancy
  Li  Li0  1  0.85737579  0.20749487  0.23881868  1
  Li  Li1  1  0.61519455  0.72880660  0.30065823  1
  Li  Li2  1  0.39880965  0.26770214  0.69755365  1
  Li  Li3  1  0.08728987  0.79232780  0.76570047  1
  Li  Li4  1  0.99947074  0.50511540  0.49986144  1
  Li  Li5  1  0.23961924  0.00060012  0.99540682  1
  Mn  Mn6  1  0.50365319  0.49753719  0.00173441  1
  Mn  Mn7  1  0.99953086  0.50499157  0.99802305  1
  P  P8  1  0.89057832  0.25071808  0.71044380  1
  P  P9  1  0.61339837  0.79449362  0.76032641  1
  P  P10  1  0.38151619  0.20488258  0.23871333  1
  P  P11  1  0.12261816  0.74995364  0.28929999  1
  O  O12  1  0.99082978  0.63697319  0.22884423  1
  O  O13  1  0.82364467  0.74154501  0.87578537  1
  O  O14  1  0.00512450  0.05899288  0.80229934  1
  O  O15  1  0.67650305  0.70092199  0.56715857  1
  O  O16  1  0.48509022  0.99149326  0.23806467  1
  O  O17  1  0.88924244  0.25368235  0.49709577  1
  O  O18  1  0.76223093  0.47404304  0.09879053  1
  O  O19  1  0.45291556  0.73013072  0.87449127  1
  O  O20  1  0.64589762  0.34239362  0.78146940  1
  O  O21  1  0.37000143  0.63955468  0.22755478  1
  O  O22  1  0.54968688  0.26821552  0.14315857  1
  O  O23  1  0.24413502  0.52497000  0.90084566  1
  O  O24  1  0.10705896  0.74514930  0.50215300  1
  O  O25  1  0.48793592  0.00777486  0.76362833  1
  O  O26  1  0.31392226  0.29859653  0.43284187  1
  O  O27  1  0.04237870  0.94105854  0.19478997  1
  O  O28  1  0.17898894  0.26256521  0.11104735  1
  O  O29  1  0.00716519  0.37731568  0.76343804  1
