# generated using pymatgen
data_LuCoGe2
_symmetry_space_group_name_H-M   'P 1'
_cell_length_a   8.59039561
_cell_length_b   8.59039561
_cell_length_c   4.11945646
_cell_angle_alpha   90.00000000
_cell_angle_beta   90.00000000
_cell_angle_gamma   27.37587706
_symmetry_Int_Tables_number   1
_chemical_formula_structural   LuCoGe2
_chemical_formula_sum   'Lu2 Co2 Ge4'
_cell_volume   139.78472757
_cell_formula_units_Z   2
loop_
 _symmetry_equiv_pos_site_id
 _symmetry_equiv_pos_as_xyz
  1  'x, y, z'
loop_
 _atom_site_type_symbol
 _atom_site_label
 _atom_site_symmetry_multiplicity
 _atom_site_fract_x
 _atom_site_fract_y
 _atom_site_fract_z
 _atom_site_occupancy
  Lu  Lu0  1  0.89019815  0.89019815  0.75000000  1
  Lu  Lu1  1  0.10980185  0.10980185  0.24999900  1
  Co  Co2  1  0.67835883  0.67835883  0.75000000  1
  Co  Co3  1  0.32164117  0.32164117  0.24999900  1
  Ge  Ge4  1  0.25137730  0.25137730  0.75000000  1
  Ge  Ge5  1  0.74862270  0.74862270  0.24999900  1
  Ge  Ge6  1  0.54397740  0.54397740  0.75000000  1
  Ge  Ge7  1  0.45602160  0.45602160  0.24999900  1
