# generated using pymatgen
data_Mn3VNi2(PO4)6
_symmetry_space_group_name_H-M   'P 1'
_cell_length_a   8.47032864
_cell_length_b   8.58563139
_cell_length_c   8.58563181
_cell_angle_alpha   60.00000087
_cell_angle_beta   59.54867004
_cell_angle_gamma   59.54866628
_symmetry_Int_Tables_number   1
_chemical_formula_structural   Mn3VNi2(PO4)6
_chemical_formula_sum   'Mn3 V1 Ni2 P6 O24'
_cell_volume   438.46317801
_cell_formula_units_Z   1
loop_
 _symmetry_equiv_pos_site_id
 _symmetry_equiv_pos_as_xyz
  1  'x, y, z'
loop_
 _atom_site_type_symbol
 _atom_site_label
 _atom_site_symmetry_multiplicity
 _atom_site_fract_x
 _atom_site_fract_y
 _atom_site_fract_z
 _atom_site_occupancy
  Mn  Mn0  1  0.07442757  0.64185748  0.64185748  1
  Mn  Mn1  1  0.42757200  0.85747633  0.85747633  1
  Mn  Mn2  1  0.92704599  0.35765167  0.35765167  1
  V  V3  1  0.57311894  0.14229402  0.14229402  1
  Ni  Ni4  1  0.00011866  0.99996045  0.99996045  1
  Ni  Ni5  1  0.50183066  0.49938978  0.49938978  1
  P  P6  1  0.25003385  0.24908691  0.54406197  1
  P  P7  1  0.25003385  0.95681727  0.24908691  1
  P  P8  1  0.25003385  0.54406197  0.95681727  1
  P  P9  1  0.74980555  0.45798640  0.04324145  1
  P  P10  1  0.74980555  0.04324145  0.74896561  1
  P  P11  1  0.74980555  0.74896561  0.45798640  1
  O  O12  1  0.06282758  0.11493193  0.31027229  1
  O  O13  1  0.06282758  0.51196820  0.11493193  1
  O  O14  1  0.06282758  0.31027229  0.51196820  1
  O  O15  1  0.22859842  0.08652104  0.74244151  1
  O  O16  1  0.43412591  0.18079647  0.38348233  1
  O  O17  1  0.27993462  0.40938586  0.55159018  1
  O  O18  1  0.22859842  0.94243903  0.08652104  1
  O  O19  1  0.27993462  0.75908934  0.40938586  1
  O  O20  1  0.56292398  0.61721046  0.00954730  1
  O  O21  1  0.27993462  0.55159018  0.75908934  1
  O  O22  1  0.76709042  0.25823352  0.06096326  1
  O  O23  1  0.56292398  0.00954730  0.81031827  1
  O  O24  1  0.43412591  0.00159529  0.18079647  1
  O  O25  1  0.22859842  0.74244151  0.94243903  1
  O  O26  1  0.72567800  0.44117765  0.24340327  1
  O  O27  1  0.43412591  0.38348233  0.00159529  1
  O  O28  1  0.72567800  0.24340327  0.58974108  1
  O  O29  1  0.76709042  0.06096326  0.91371280  1
  O  O30  1  0.72567800  0.58974108  0.44117765  1
  O  O31  1  0.56292398  0.81031827  0.61721046  1
  O  O32  1  0.76709042  0.91371280  0.25823352  1
  O  O33  1  0.93761042  0.68856956  0.48789082  1
  O  O34  1  0.93761042  0.48789082  0.88592921  1
  O  O35  1  0.93761042  0.88592921  0.68856956  1
