# generated using pymatgen
data_MgTl3
_symmetry_space_group_name_H-M   'P 1'
_cell_length_a   6.87767639
_cell_length_b   6.87767722
_cell_length_c   5.63643514
_cell_angle_alpha   90.00000000
_cell_angle_beta   90.00000000
_cell_angle_gamma   120.00000095
_symmetry_Int_Tables_number   1
_chemical_formula_structural   MgTl3
_chemical_formula_sum   'Mg2 Tl6'
_cell_volume   230.89720120
_cell_formula_units_Z   2
loop_
 _symmetry_equiv_pos_site_id
 _symmetry_equiv_pos_as_xyz
  1  'x, y, z'
loop_
 _atom_site_type_symbol
 _atom_site_label
 _atom_site_symmetry_multiplicity
 _atom_site_fract_x
 _atom_site_fract_y
 _atom_site_fract_z
 _atom_site_occupancy
  Mg  Mg0  1  0.66666800  0.33333400  0.25000000  1
  Mg  Mg1  1  0.33333400  0.66666700  0.74999900  1
  Tl  Tl2  1  0.16855327  0.33710654  0.25000000  1
  Tl  Tl3  1  0.66289446  0.83144673  0.25000000  1
  Tl  Tl4  1  0.16855327  0.83144673  0.25000000  1
  Tl  Tl5  1  0.83144673  0.16855427  0.74999900  1
  Tl  Tl6  1  0.33710754  0.16855427  0.74999900  1
  Tl  Tl7  1  0.83144573  0.66289346  0.74999900  1
