# generated using pymatgen
data_H6PbCI3N
_symmetry_space_group_name_H-M   'P 1'
_cell_length_a   9.13663073
_cell_length_b   9.15090738
_cell_length_c   13.00602373
_cell_angle_alpha   90.04749814
_cell_angle_beta   90.06731821
_cell_angle_gamma   90.13471272
_symmetry_Int_Tables_number   1
_chemical_formula_structural   H6PbCI3N
_chemical_formula_sum   'H24 Pb4 C4 I12 N4'
_cell_volume   1087.40950363
_cell_formula_units_Z   4
loop_
 _symmetry_equiv_pos_site_id
 _symmetry_equiv_pos_as_xyz
  1  'x, y, z'
loop_
 _atom_site_type_symbol
 _atom_site_label
 _atom_site_symmetry_multiplicity
 _atom_site_fract_x
 _atom_site_fract_y
 _atom_site_fract_z
 _atom_site_occupancy
  H  H0  1  0.42156751  0.92488875  0.70845196  1
  H  H1  1  0.61372656  0.96468263  0.71264646  1
  H  H2  1  0.39944980  0.02864011  0.88097824  1
  H  H3  1  0.57434050  0.07628982  0.88243191  1
  H  H4  1  0.53221205  0.90014168  0.88279171  1
  H  H5  1  0.92563536  0.42098230  0.70778450  1
  H  H6  1  0.11513653  0.47063939  0.71186110  1
  H  H7  1  0.89685539  0.51920491  0.87919781  1
  H  H8  1  0.07091725  0.57949461  0.88339048  1
  H  H9  1  0.03198611  0.40044078  0.88038514  1
  H  H10  1  0.89173568  0.49072544  0.20808036  1
  H  H11  1  0.06502872  0.40133109  0.21190483  1
  H  H12  1  0.93602436  0.58466878  0.38080610  1
  H  H13  1  0.10411206  0.51032327  0.38247378  1
  H  H14  1  0.95725454  0.40389801  0.38043944  1
  H  H15  1  0.42604394  0.92120056  0.20837809  1
  H  H16  1  0.61463281  0.97611811  0.21188779  1
  H  H17  1  0.39699995  0.01595985  0.38089947  1
  H  H18  1  0.57003351  0.07952074  0.38465249  1
  H  H19  1  0.53421897  0.90009911  0.38106594  1
  H  H20  1  0.05579689  0.59836135  0.20940029  1
  H  H21  1  0.97588454  0.61004618  0.70935429  1
  H  H22  1  0.48108555  0.11058281  0.71001103  1
  H  H23  1  0.47163220  0.11115418  0.21126601  1
  Pb  Pb24  1  0.99865908  0.00022695  0.00136367  1
  Pb  Pb25  1  0.49783281  0.49973277  0.50126703  1
  Pb  Pb26  1  0.00258003  0.99956058  0.50120843  1
  Pb  Pb27  1  0.50037237  0.49894032  0.00120503  1
  C  C28  1  0.50385634  0.00252452  0.23768725  1
  C  C29  1  0.00490371  0.50107667  0.73673741  1
  C  C30  1  0.00392238  0.49798647  0.23693220  1
  C  C31  1  0.50491630  0.00019170  0.73757504  1
  I  I32  1  0.00030482  0.00013897  0.25032548  1
  I  I33  1  0.50058160  0.50006509  0.75029045  1
  I  I34  1  0.00009801  0.00021446  0.75029693  1
  I  I35  1  0.49966006  0.50024041  0.25029259  1
  I  I36  1  0.22184880  0.72260532  0.00666739  1
  I  I37  1  0.72353900  0.22343221  0.50618884  1
  I  I38  1  0.27585105  0.22058725  0.00604882  1
  I  I39  1  0.77766919  0.72282806  0.50582314  1
  I  I40  1  0.77626716  0.27691342  0.00574043  1
  I  I41  1  0.27784767  0.77767318  0.50676496  1
  I  I42  1  0.72024277  0.77603368  0.00637151  1
  I  I43  1  0.22194215  0.27849512  0.50638876  1
  N  N44  1  0.50097982  -0.00047401  0.35212738  1
  N  N45  1  0.00092599  0.50018297  0.85107913  1
  N  N46  1  0.00039796  0.49952609  0.35127585  1
  N  N47  1  0.50182312  0.00068236  0.85196507  1
