# generated using pymatgen
data_Th2ZnTc
_symmetry_space_group_name_H-M   'P 1'
_cell_length_a   5.11929337
_cell_length_b   5.11931390
_cell_length_c   5.11930110
_cell_angle_alpha   59.99999936
_cell_angle_beta   60.00025441
_cell_angle_gamma   60.00013717
_symmetry_Int_Tables_number   1
_chemical_formula_structural   Th2ZnTc
_chemical_formula_sum   'Th2 Zn1 Tc1'
_cell_volume   94.86777999
_cell_formula_units_Z   1
loop_
 _symmetry_equiv_pos_site_id
 _symmetry_equiv_pos_as_xyz
  1  'x, y, z'
loop_
 _atom_site_type_symbol
 _atom_site_label
 _atom_site_symmetry_multiplicity
 _atom_site_fract_x
 _atom_site_fract_y
 _atom_site_fract_z
 _atom_site_occupancy
  Th  Th0  1  0.00000051  0.99999959  0.00000001  1
  Th  Th1  1  0.49999913  0.50000077  0.49999976  1
  Zn  Zn2  1  0.75000016  0.74999983  0.75000043  1
  Tc  Tc3  1  0.25000019  0.24999981  0.24999981  1
