# generated using pymatgen
data_Yb5Sn3
_symmetry_space_group_name_H-M   'P 1'
_cell_length_a   9.34304996
_cell_length_b   9.34287541
_cell_length_c   6.68429341
_cell_angle_alpha   90.00000000
_cell_angle_beta   90.00000000
_cell_angle_gamma   120.00393596
_symmetry_Int_Tables_number   1
_chemical_formula_structural   Yb5Sn3
_chemical_formula_sum   'Yb10 Sn6'
_cell_volume   505.28701687
_cell_formula_units_Z   2
loop_
 _symmetry_equiv_pos_site_id
 _symmetry_equiv_pos_as_xyz
  1  'x, y, z'
loop_
 _atom_site_type_symbol
 _atom_site_label
 _atom_site_symmetry_multiplicity
 _atom_site_fract_x
 _atom_site_fract_y
 _atom_site_fract_z
 _atom_site_occupancy
  Yb  Yb0  1  0.33332126  0.66667897  0.00000012  1
  Yb  Yb1  1  0.66668041  0.33331931  0.49999936  1
  Yb  Yb2  1  0.66668041  0.33331931  0.00000064  1
  Yb  Yb3  1  0.33332126  0.66667897  0.49999988  1
  Yb  Yb4  1  0.26905639  0.00001543  0.25000000  1
  Yb  Yb5  1  0.73093878  0.99998448  0.75000000  1
  Yb  Yb6  1  0.00001521  0.26906013  0.25000000  1
  Yb  Yb7  1  0.73103945  0.73104146  0.25000000  1
  Yb  Yb8  1  0.26895530  0.26895877  0.75000000  1
  Yb  Yb9  1  0.99998294  0.73094174  0.75000000  1
  Sn  Sn10  1  0.61259373  0.00001779  0.25000000  1
  Sn  Sn11  1  0.38741417  0.99998259  0.75000000  1
  Sn  Sn12  1  0.00002496  0.61257926  0.25000000  1
  Sn  Sn13  1  0.38755052  0.38755006  0.25000000  1
  Sn  Sn14  1  0.61245086  0.61245569  0.75000000  1
  Sn  Sn15  1  0.99997339  0.38741406  0.75000000  1
