# generated using pymatgen
data_Al(FeO2)2
_symmetry_space_group_name_H-M   'P 1'
_cell_length_a   5.97035115
_cell_length_b   5.97035103
_cell_length_c   5.97035135
_cell_angle_alpha   59.09041233
_cell_angle_beta   59.09041749
_cell_angle_gamma   59.09041413
_symmetry_Int_Tables_number   1
_chemical_formula_structural   Al(FeO2)2
_chemical_formula_sum   'Al2 Fe4 O8'
_cell_volume   147.36146925
_cell_formula_units_Z   2
loop_
 _symmetry_equiv_pos_site_id
 _symmetry_equiv_pos_as_xyz
  1  'x, y, z'
loop_
 _atom_site_type_symbol
 _atom_site_label
 _atom_site_symmetry_multiplicity
 _atom_site_fract_x
 _atom_site_fract_y
 _atom_site_fract_z
 _atom_site_occupancy
  Al  Al0  1  0.62738975  0.62738975  0.62738975  1
  Al  Al1  1  0.37261025  0.37261025  0.37261025  1
  Fe  Fe2  1  0.00000000  0.50000000  0.00000000  1
  Fe  Fe3  1  0.00000000  0.00000000  0.00000000  1
  Fe  Fe4  1  0.50000000  0.00000000  0.00000000  1
  Fe  Fe5  1  0.00000000  0.00000000  0.50000000  1
  O  O6  1  0.25063823  0.75330073  0.75330073  1
  O  O7  1  0.24669927  0.24669927  0.74936177  1
  O  O8  1  0.24669927  0.74936177  0.24669927  1
  O  O9  1  0.25100562  0.25100562  0.25100562  1
  O  O10  1  0.75330073  0.75330073  0.25063823  1
  O  O11  1  0.74936177  0.24669927  0.24669927  1
  O  O12  1  0.75330073  0.25063823  0.75330073  1
  O  O13  1  0.74899438  0.74899438  0.74899438  1
