# generated using pymatgen
data_Mn4ZnS8
_symmetry_space_group_name_H-M   'P 1'
_cell_length_a   7.24212688
_cell_length_b   7.24212663
_cell_length_c   7.24212778
_cell_angle_alpha   55.30270178
_cell_angle_beta   55.30269657
_cell_angle_gamma   55.30270271
_symmetry_Int_Tables_number   1
_chemical_formula_structural   Mn4ZnS8
_chemical_formula_sum   'Mn4 Zn1 S8'
_cell_volume   239.26863246
_cell_formula_units_Z   1
loop_
 _symmetry_equiv_pos_site_id
 _symmetry_equiv_pos_as_xyz
  1  'x, y, z'
loop_
 _atom_site_type_symbol
 _atom_site_label
 _atom_site_symmetry_multiplicity
 _atom_site_fract_x
 _atom_site_fract_y
 _atom_site_fract_z
 _atom_site_occupancy
  Mn  Mn0  1  0.50000100  0.99999900  0.50000100  1
  Mn  Mn1  1  0.99999900  0.50000000  0.50000100  1
  Mn  Mn2  1  0.50000000  0.50000000  0.00000000  1
  Mn  Mn3  1  0.00000000  0.00000000  0.00000000  1
  Zn  Zn4  1  0.50000000  0.50000100  0.49999900  1
  S  S5  1  0.75539347  0.26932853  0.75539346  1
  S  S6  1  0.24460554  0.24460653  0.73067148  1
  S  S7  1  0.24460553  0.73067247  0.24460554  1
  S  S8  1  0.73067047  0.24460653  0.24460654  1
  S  S9  1  0.26162559  0.26162659  0.26162559  1
  S  S10  1  0.73837441  0.73837441  0.73837441  1
  S  S11  1  0.26932953  0.75539447  0.75539346  1
  S  S12  1  0.75539446  0.75539447  0.26932852  1
