# generated using pymatgen
data_Ca2TaAgO6
_symmetry_space_group_name_H-M   'P 1'
_cell_length_a   5.85587363
_cell_length_b   6.07368887
_cell_length_c   7.62562951
_cell_angle_alpha   90.00000000
_cell_angle_beta   90.00000000
_cell_angle_gamma   79.13275705
_symmetry_Int_Tables_number   1
_chemical_formula_structural   Ca2TaAgO6
_chemical_formula_sum   'Ca4 Ta2 Ag2 O12'
_cell_volume   266.35503204
_cell_formula_units_Z   2
loop_
 _symmetry_equiv_pos_site_id
 _symmetry_equiv_pos_as_xyz
  1  'x, y, z'
loop_
 _atom_site_type_symbol
 _atom_site_label
 _atom_site_symmetry_multiplicity
 _atom_site_fract_x
 _atom_site_fract_y
 _atom_site_fract_z
 _atom_site_occupancy
  Ca  Ca0  1  0.03352274  0.93023083  0.25000000  1
  Ca  Ca1  1  0.52436162  0.43948986  0.25000000  1
  Ca  Ca2  1  0.47563838  0.56051014  0.75000000  1
  Ca  Ca3  1  0.96647726  0.06976917  0.75000000  1
  Ta  Ta4  1  0.00000000  0.50000000  0.00000000  1
  Ta  Ta5  1  0.00000000  0.50000000  0.50000000  1
  Ag  Ag6  1  0.50000000  0.00000000  0.00000000  1
  Ag  Ag7  1  0.50000000  0.00000000  0.50000000  1
  O  O8  1  0.82636358  0.81627073  0.54956487  1
  O  O9  1  0.26774452  0.64211875  0.44820684  1
  O  O10  1  0.17363642  0.18372927  0.45043513  1
  O  O11  1  0.73225548  0.35788125  0.94820684  1
  O  O12  1  0.10556273  0.45905978  0.75000000  1
  O  O13  1  0.73225548  0.35788125  0.55179316  1
  O  O14  1  0.26774452  0.64211875  0.05179316  1
  O  O15  1  0.82636358  0.81627073  0.95043513  1
  O  O16  1  0.62060660  0.05226292  0.25000000  1
  O  O17  1  0.17363642  0.18372927  0.04956487  1
  O  O18  1  0.37939340  0.94773708  0.75000000  1
  O  O19  1  0.89443727  0.54094022  0.25000000  1
