# generated using pymatgen
data_MgV2O4
_symmetry_space_group_name_H-M   'P 1'
_cell_length_a   6.05390134
_cell_length_b   6.06660911
_cell_length_c   24.18634708
_cell_angle_alpha   59.89039902
_cell_angle_beta   59.94241006
_cell_angle_gamma   59.93053793
_symmetry_Int_Tables_number   1
_chemical_formula_structural   MgV2O4
_chemical_formula_sum   'Mg8 V16 O32'
_cell_volume   626.98711986
_cell_formula_units_Z   8
loop_
 _symmetry_equiv_pos_site_id
 _symmetry_equiv_pos_as_xyz
  1  'x, y, z'
loop_
 _atom_site_type_symbol
 _atom_site_label
 _atom_site_symmetry_multiplicity
 _atom_site_fract_x
 _atom_site_fract_y
 _atom_site_fract_z
 _atom_site_occupancy
  Mg  Mg0  1  0.13251226  0.12276127  0.03049180  1
  Mg  Mg1  1  0.00269935  0.49774832  0.12545050  1
  Mg  Mg2  1  0.13127976  0.12089679  0.28173142  1
  Mg  Mg3  1  0.99948644  0.49908260  0.37558709  1
  Mg  Mg4  1  0.00059205  0.50050176  0.62460086  1
  Mg  Mg5  1  0.49999184  0.49953584  0.50023437  1
  Mg  Mg6  1  0.00402834  0.49957518  0.87420532  1
  Mg  Mg7  1  0.50221489  0.50078413  0.74905371  1
  V  V8  1  0.49652482  0.49774161  0.12511834  1
  V  V9  1  0.49316048  0.49898613  0.25221657  1
  V  V10  1  0.49652482  0.00526022  0.12511834  1
  V  V11  1  0.12808591  0.11979898  0.53307878  1
  V  V12  1  0.49919500  0.49844447  0.37496607  1
  V  V13  1  0.86816432  0.87783597  0.21904094  1
  V  V14  1  0.13086422  0.12075571  0.78190609  1
  V  V15  1  0.49919500  0.00249724  0.37496607  1
  V  V16  1  0.50075469  0.50091650  0.62447945  1
  V  V17  1  0.87009608  0.88223217  0.46635964  1
  V  V18  1  0.50075469  0.00041104  0.62447945  1
  V  V19  1  0.49847006  0.00311627  0.87462558  1
  V  V20  1  0.49847006  0.49991134  0.87462558  1
  V  V21  1  0.87176678  0.88003500  0.71704031  1
  V  V22  1  0.49718105  0.49703608  0.00218695  1
  V  V23  1  0.86807498  0.87654683  0.96970759  1
  O  O24  1  0.26977855  0.25444738  0.06429965  1
  O  O25  1  0.26432426  0.25609387  0.18087200  1
  O  O26  1  0.26977855  0.71857746  0.06429965  1
  O  O27  1  0.72718241  0.25648819  0.06496055  1
  O  O28  1  0.26655420  0.74553398  0.18559396  1
  O  O29  1  0.26965602  0.25607533  0.31428044  1
  O  O30  1  0.73198986  0.27661757  0.18623571  1
  O  O31  1  0.25694129  0.25296046  0.43428395  1
  O  O32  1  0.26965602  0.71714691  0.31428044  1
  O  O33  1  0.73870496  0.74461626  0.06801538  1
  O  O34  1  0.72238365  0.25592945  0.31643986  1
  O  O35  1  0.73198986  0.74644972  0.18623571  1
  O  O36  1  0.26043145  0.25295187  0.56515969  1
  O  O37  1  0.27020899  0.74864372  0.43312564  1
  O  O38  1  0.73867915  0.27333080  0.43415267  1
  O  O39  1  0.26935495  0.25189230  0.68171536  1
  O  O40  1  0.26043145  0.72597693  0.56515969  1
  O  O41  1  0.73992539  0.74619117  0.31692282  1
  O  O42  1  0.72981167  0.25452751  0.56528333  1
  O  O43  1  0.73867915  0.75138036  0.43415267  1
  O  O44  1  0.26959872  0.74573316  0.68473349  1
  O  O45  1  0.26358767  0.24670736  0.81536694  1
  O  O46  1  0.74034268  0.27289046  0.68474058  1
  O  O47  1  0.26771558  0.25769701  0.92922210  1
  O  O48  1  0.26358767  0.72823520  0.81536694  1
  O  O49  1  0.73189797  0.74900371  0.56752390  1
  O  O50  1  0.73426983  0.25293628  0.81496440  1
  O  O51  1  0.74034268  0.74780655  0.68474058  1
  O  O52  1  0.26771444  0.74356361  0.93628984  1
  O  O53  1  0.73243834  0.27536937  0.93630716  1
  O  O54  1  0.73951736  0.74485299  0.81769392  1
  O  O55  1  0.73243834  0.74696266  0.93630716  1
