# generated using pymatgen
data_MgVF5
_symmetry_space_group_name_H-M   'P 1'
_cell_length_a   5.19243363
_cell_length_b   7.56613042
_cell_length_c   9.77243118
_cell_angle_alpha   90.00000000
_cell_angle_beta   90.00000000
_cell_angle_gamma   110.35574458
_symmetry_Int_Tables_number   1
_chemical_formula_structural   MgVF5
_chemical_formula_sum   'Mg4 V4 F20'
_cell_volume   359.95008072
_cell_formula_units_Z   4
loop_
 _symmetry_equiv_pos_site_id
 _symmetry_equiv_pos_as_xyz
  1  'x, y, z'
loop_
 _atom_site_type_symbol
 _atom_site_label
 _atom_site_symmetry_multiplicity
 _atom_site_fract_x
 _atom_site_fract_y
 _atom_site_fract_z
 _atom_site_occupancy
  Mg  Mg0  1  0.47460100  0.75177360  0.01181525  1
  Mg  Mg1  1  0.52539900  0.74822640  0.51181525  1
  Mg  Mg2  1  0.52539900  0.24822640  0.98818475  1
  Mg  Mg3  1  0.47460100  0.25177360  0.48818475  1
  V  V4  1  0.89551992  0.60210678  0.75327824  1
  V  V5  1  0.10448008  0.89789322  0.25327824  1
  V  V6  1  0.10448008  0.39789322  0.24672176  1
  V  V7  1  0.89551992  0.10210678  0.74672176  1
  F  F8  1  0.60623136  0.57767287  0.88907312  1
  F  F9  1  0.39376864  0.92232713  0.38907312  1
  F  F10  1  0.39376864  0.42232713  0.11092688  1
  F  F11  1  0.60623136  0.07767287  0.61092688  1
  F  F12  1  0.64045386  0.49134744  0.60539390  1
  F  F13  1  0.35954614  0.00865256  0.10539390  1
  F  F14  1  0.35954614  0.50865256  0.39460610  1
  F  F15  1  0.64045386  0.99134744  0.89460610  1
  F  F16  1  0.85130442  0.80007548  0.40080216  1
  F  F17  1  0.14869558  0.69992452  0.90080216  1
  F  F18  1  0.14869558  0.19992452  0.59919784  1
  F  F19  1  0.85130442  0.30007548  0.09919784  1
  F  F20  1  0.79061584  0.84661180  0.13229170  1
  F  F21  1  0.20938416  0.65338820  0.63229170  1
  F  F22  1  0.20938416  0.15338820  0.86770830  1
  F  F23  1  0.79061584  0.34661180  0.36770830  1
  F  F24  1  0.83526422  0.83637970  0.67917061  1
  F  F25  1  0.16473578  0.66362030  0.17917061  1
  F  F26  1  0.16473578  0.16362030  0.32082939  1
  F  F27  1  0.83526422  0.33637970  0.82082939  1
