# generated using pymatgen
data_Mg2MoWO6
_symmetry_space_group_name_H-M   'P 1'
_cell_length_a   5.34349900
_cell_length_b   5.42754734
_cell_length_c   7.78724583
_cell_angle_alpha   90.00000000
_cell_angle_beta   89.87170548
_cell_angle_gamma   90.00000000
_symmetry_Int_Tables_number   1
_chemical_formula_structural   Mg2MoWO6
_chemical_formula_sum   'Mg4 Mo2 W2 O12'
_cell_volume   225.84586762
_cell_formula_units_Z   2
loop_
 _symmetry_equiv_pos_site_id
 _symmetry_equiv_pos_as_xyz
  1  'x, y, z'
loop_
 _atom_site_type_symbol
 _atom_site_label
 _atom_site_symmetry_multiplicity
 _atom_site_fract_x
 _atom_site_fract_y
 _atom_site_fract_z
 _atom_site_occupancy
  Mg  Mg0  1  0.00925306  0.03703331  0.25235654  1
  Mg  Mg1  1  0.49074694  0.53703431  0.24764346  1
  Mg  Mg2  1  0.99074794  0.96296769  0.74764346  1
  Mg  Mg3  1  0.50925206  0.46296669  0.75235654  1
  Mo  Mo4  1  0.50000000  0.00000000  0.00000000  1
  Mo  Mo5  1  0.00000100  0.49999900  0.50000000  1
  W  W6  1  0.50000000  0.00000000  0.49999900  1
  W  W7  1  0.00000000  0.49999900  0.00000000  1
  O  O8  1  0.65826165  0.31656926  0.42656163  1
  O  O9  1  0.84173835  0.81657026  0.07343837  1
  O  O10  1  0.34173735  0.68343074  0.57343837  1
  O  O11  1  0.15826265  0.18342974  0.92656163  1
  O  O12  1  0.18132899  0.16164566  0.56573565  1
  O  O13  1  0.31867101  0.66164466  0.93426435  1
  O  O14  1  0.81867201  0.83835434  0.43426435  1
  O  O15  1  0.68132799  0.33835534  0.06573565  1
  O  O16  1  0.12888471  0.40589368  0.24131834  1
  O  O17  1  0.37111629  0.90589468  0.25868066  1
  O  O18  1  0.62888471  0.09410532  0.74131934  1
  O  O19  1  0.87111629  0.59410632  0.75868166  1
