# generated using pymatgen
data_H6PbCI3N
_symmetry_space_group_name_H-M   'P 1'
_cell_length_a   9.01262725
_cell_length_b   12.74075518
_cell_length_c   8.91951897
_cell_angle_alpha   90.00000000
_cell_angle_beta   90.00000000
_cell_angle_gamma   90.00000000
_symmetry_Int_Tables_number   1
_chemical_formula_structural   H6PbCI3N
_chemical_formula_sum   'H24 Pb4 C4 I12 N4'
_cell_volume   1024.20764614
_cell_formula_units_Z   4
loop_
 _symmetry_equiv_pos_site_id
 _symmetry_equiv_pos_as_xyz
  1  'x, y, z'
loop_
 _atom_site_type_symbol
 _atom_site_label
 _atom_site_symmetry_multiplicity
 _atom_site_fract_x
 _atom_site_fract_y
 _atom_site_fract_z
 _atom_site_occupancy
  H  H0  1  0.41067658  0.32074116  0.38840803  1
  H  H1  1  0.58932342  0.67925884  0.61159197  1
  H  H2  1  0.08932342  0.67925884  0.88840803  1
  H  H3  1  0.91067658  0.32074116  0.11159197  1
  H  H4  1  0.58932342  0.82074116  0.61159197  1
  H  H5  1  0.41067658  0.17925884  0.38840803  1
  H  H6  1  0.91067658  0.17925884  0.11159197  1
  H  H7  1  0.08932342  0.82074116  0.88840803  1
  H  H8  1  0.57777349  0.31509292  0.60256129  1
  H  H9  1  0.42222651  0.68490708  0.39743871  1
  H  H10  1  0.92222651  0.68490708  0.10256129  1
  H  H11  1  0.07777349  0.31509292  0.89743871  1
  H  H12  1  0.42222651  0.81509292  0.39743871  1
  H  H13  1  0.57777349  0.18490708  0.60256129  1
  H  H14  1  0.07777349  0.18490708  0.89743871  1
  H  H15  1  0.92222651  0.81509292  0.10256129  1
  H  H16  1  0.33177545  0.25000000  0.54318028  1
  H  H17  1  0.66822455  0.75000000  0.45681972  1
  H  H18  1  0.16822455  0.75000000  0.04318028  1
  H  H19  1  0.83177545  0.25000000  0.95681972  1
  H  H20  1  0.65369155  0.25000000  0.46014991  1
  H  H21  1  0.34630845  0.75000000  0.53985009  1
  H  H22  1  0.84630845  0.75000000  0.96014991  1
  H  H23  1  0.15369155  0.25000000  0.03985009  1
  Pb  Pb24  1  0.50000000  0.00000000  0.00000000  1
  Pb  Pb25  1  0.00000000  0.00000000  0.50000000  1
  Pb  Pb26  1  0.50000000  0.50000000  0.00000000  1
  Pb  Pb27  1  0.00000000  0.50000000  0.50000000  1
  C  C28  1  0.91871845  0.25000000  0.04243126  1
  C  C29  1  0.08128155  0.75000000  0.95756874  1
  C  C30  1  0.58128155  0.75000000  0.54243126  1
  C  C31  1  0.41871845  0.25000000  0.45756874  1
  I  I32  1  0.19864412  0.01838860  0.19719842  1
  I  I33  1  0.80135588  0.98161140  0.80280158  1
  I  I34  1  0.30135588  0.98161140  0.69719842  1
  I  I35  1  0.69864412  0.01838860  0.30280158  1
  I  I36  1  0.80135588  0.51838860  0.80280158  1
  I  I37  1  0.19864412  0.48161140  0.19719842  1
  I  I38  1  0.69864412  0.48161140  0.30280158  1
  I  I39  1  0.30135588  0.51838860  0.69719842  1
  I  I40  1  0.47814393  0.25000000  0.94206730  1
  I  I41  1  0.52185607  0.75000000  0.05793270  1
  I  I42  1  0.02185607  0.75000000  0.44206730  1
  I  I43  1  0.97814393  0.25000000  0.55793270  1
  N  N44  1  0.93407386  0.75000000  0.03487718  1
  N  N45  1  0.06592614  0.25000000  0.96512282  1
  N  N46  1  0.56592614  0.25000000  0.53487718  1
  N  N47  1  0.43407386  0.75000000  0.46512282  1
