# generated using pymatgen
data_Al5(FeO4)3
_symmetry_space_group_name_H-M   'P 1'
_cell_length_a   5.77712909
_cell_length_b   17.27077672
_cell_length_c   5.77712865
_cell_angle_alpha   59.94226323
_cell_angle_beta   59.95524316
_cell_angle_gamma   59.94226237
_symmetry_Int_Tables_number   1
_chemical_formula_structural   Al5(FeO4)3
_chemical_formula_sum   'Al10 Fe6 O24'
_cell_volume   407.09387137
_cell_formula_units_Z   2
loop_
 _symmetry_equiv_pos_site_id
 _symmetry_equiv_pos_as_xyz
  1  'x, y, z'
loop_
 _atom_site_type_symbol
 _atom_site_label
 _atom_site_symmetry_multiplicity
 _atom_site_fract_x
 _atom_site_fract_y
 _atom_site_fract_z
 _atom_site_occupancy
  Al  Al0  1  0.50087780  0.16342155  0.50087780  1
  Al  Al1  1  0.49912220  0.83657845  0.49912220  1
  Al  Al2  1  0.50121552  0.16301505  0.00854252  1
  Al  Al3  1  0.50000000  0.50000000  0.00000000  1
  Al  Al4  1  0.49878448  0.83698495  0.99145748  1
  Al  Al5  1  0.50198059  0.33785691  0.50198059  1
  Al  Al6  1  0.49801941  0.66214309  0.49801941  1
  Al  Al7  1  0.00854252  0.16301505  0.50121552  1
  Al  Al8  1  0.00000000  0.50000000  0.50000000  1
  Al  Al9  1  0.99145748  0.83698495  0.49878448  1
  Fe  Fe10  1  0.87695727  0.29323839  0.87695727  1
  Fe  Fe11  1  0.88293042  0.62195763  0.88293042  1
  Fe  Fe12  1  0.88038601  0.95345858  0.88038601  1
  Fe  Fe13  1  0.11961399  0.04654142  0.11961399  1
  Fe  Fe14  1  0.11706958  0.37804237  0.11706958  1
  Fe  Fe15  1  0.12304273  0.70676161  0.12304273  1
  O  O16  1  0.73482075  0.24794274  0.73482075  1
  O  O17  1  0.73959781  0.57903589  0.73959781  1
  O  O18  1  0.76049403  0.90100033  0.76049403  1
  O  O19  1  0.23966469  0.09895501  0.72303908  1
  O  O20  1  0.24200342  0.41432930  0.72386257  1
  O  O21  1  0.26796556  0.75366035  0.70656985  1
  O  O22  1  0.26088507  0.23896694  0.26088507  1
  O  O23  1  0.24568486  0.57581025  0.24568486  1
  O  O24  1  0.26045381  0.90559343  0.26045381  1
  O  O25  1  0.72303908  0.09895501  0.23966469  1
  O  O26  1  0.72386257  0.41432930  0.24200342  1
  O  O27  1  0.70656985  0.75366035  0.26796556  1
  O  O28  1  0.73954619  0.09440657  0.73954619  1
  O  O29  1  0.75431514  0.42418975  0.75431514  1
  O  O30  1  0.73911493  0.76103306  0.73911493  1
  O  O31  1  0.29343015  0.24633965  0.73203444  1
  O  O32  1  0.27613743  0.58567070  0.75799658  1
  O  O33  1  0.27696092  0.90104499  0.76033531  1
  O  O34  1  0.23950597  0.09899967  0.23950597  1
  O  O35  1  0.26040219  0.42096411  0.26040219  1
  O  O36  1  0.26517925  0.75205726  0.26517925  1
  O  O37  1  0.73203444  0.24633965  0.29343015  1
  O  O38  1  0.75799658  0.58567070  0.27613743  1
  O  O39  1  0.76033531  0.90104499  0.27696092  1
