# generated using pymatgen
data_MoF5
_symmetry_space_group_name_H-M   'P 1'
_cell_length_a   5.53304898
_cell_length_b   5.54585541
_cell_length_c   7.95656883
_cell_angle_alpha   96.93479754
_cell_angle_beta   109.96473910
_cell_angle_gamma   109.87553750
_symmetry_Int_Tables_number   1
_chemical_formula_structural   MoF5
_chemical_formula_sum   'Mo2 F10'
_cell_volume   207.91919809
_cell_formula_units_Z   2
loop_
 _symmetry_equiv_pos_site_id
 _symmetry_equiv_pos_as_xyz
  1  'x, y, z'
loop_
 _atom_site_type_symbol
 _atom_site_label
 _atom_site_symmetry_multiplicity
 _atom_site_fract_x
 _atom_site_fract_y
 _atom_site_fract_z
 _atom_site_occupancy
  Mo  Mo0  1  0.99544220  0.99972200  0.99928796  1
  Mo  Mo1  1  0.49901150  0.00057552  0.49854207  1
  F  F2  1  0.32471234  0.07430302  0.24781200  1
  F  F3  1  0.66918369  0.92599875  0.74958797  1
  F  F4  1  0.58398482  0.74256565  0.38116824  1
  F  F5  1  0.86162776  0.20777898  0.11839937  1
  F  F6  1  0.76601294  0.70928258  0.05268895  1
  F  F7  1  0.15181840  0.72260517  0.44663252  1
  F  F8  1  0.22605709  0.29109142  0.94721943  1
  F  F9  1  0.84743383  0.27678487  0.55001094  1
  F  F10  1  0.12611625  0.79050194  0.87817385  1
  F  F11  1  0.41684718  0.26043909  0.61635370  1
