# generated using pymatgen
data_FeRu
_symmetry_space_group_name_H-M   'P 1'
_cell_length_a   2.64280156
_cell_length_b   2.64289094
_cell_length_c   4.07022682
_cell_angle_alpha   90.00000000
_cell_angle_beta   90.00000000
_cell_angle_gamma   59.99888117
_symmetry_Int_Tables_number   1
_chemical_formula_structural   FeRu
_chemical_formula_sum   'Fe1 Ru1'
_cell_volume   24.62000534
_cell_formula_units_Z   1
loop_
 _symmetry_equiv_pos_site_id
 _symmetry_equiv_pos_as_xyz
  1  'x, y, z'
loop_
 _atom_site_type_symbol
 _atom_site_label
 _atom_site_symmetry_multiplicity
 _atom_site_fract_x
 _atom_site_fract_y
 _atom_site_fract_z
 _atom_site_occupancy
  Fe  Fe0  1  0.33336085  0.33331957  0.75000000  1
  Ru  Ru1  1  0.66663915  0.66668043  0.25000000  1
