# generated using pymatgen
data_CsBPb(IF2)2
_symmetry_space_group_name_H-M   'P 1'
_cell_length_a   6.13235697
_cell_length_b   6.13198212
_cell_length_c   7.00539939
_cell_angle_alpha   89.16935638
_cell_angle_beta   89.23087951
_cell_angle_gamma   90.59182130
_symmetry_Int_Tables_number   1
_chemical_formula_structural   CsBPb(IF2)2
_chemical_formula_sum   'Cs1 B1 Pb1 I2 F4'
_cell_volume   263.36155461
_cell_formula_units_Z   1
loop_
 _symmetry_equiv_pos_site_id
 _symmetry_equiv_pos_as_xyz
  1  'x, y, z'
loop_
 _atom_site_type_symbol
 _atom_site_label
 _atom_site_symmetry_multiplicity
 _atom_site_fract_x
 _atom_site_fract_y
 _atom_site_fract_z
 _atom_site_occupancy
  Cs  Cs0  1  0.51518978  0.47093154  0.50370452  1
  B  B1  1  0.98885371  0.99877804  0.50344022  1
  Pb  Pb2  1  0.99573859  0.99200394  0.00351412  1
  I  I3  1  0.00417944  0.49350265  0.88455332  1
  I  I4  1  0.49376779  0.98182228  0.12251442  1
  F  F5  1  0.80104212  0.00043187  0.62480491  1
  F  F6  1  0.98963605  0.18601403  0.38136336  1
  F  F7  1  0.17754058  0.00067943  0.61891729  1
  F  F8  1  0.98534595  0.80947722  0.38883882  1
