# generated using pymatgen
data_Mg(NiO2)2
_symmetry_space_group_name_H-M   'P 1'
_cell_length_a   5.83532166
_cell_length_b   5.87542827
_cell_length_c   23.28208967
_cell_angle_alpha   59.68745849
_cell_angle_beta   60.72065987
_cell_angle_gamma   59.77237901
_symmetry_Int_Tables_number   1
_chemical_formula_structural   Mg(NiO2)2
_chemical_formula_sum   'Mg8 Ni16 O32'
_cell_volume   565.08739026
_cell_formula_units_Z   8
loop_
 _symmetry_equiv_pos_site_id
 _symmetry_equiv_pos_as_xyz
  1  'x, y, z'
loop_
 _atom_site_type_symbol
 _atom_site_label
 _atom_site_symmetry_multiplicity
 _atom_site_fract_x
 _atom_site_fract_y
 _atom_site_fract_z
 _atom_site_occupancy
  Mg  Mg0  1  0.15055688  0.12061622  0.02705317  1
  Mg  Mg1  1  0.99887982  0.50016109  0.12519900  1
  Mg  Mg2  1  0.14491555  0.11331038  0.28211567  1
  Mg  Mg3  1  0.00270213  0.49851177  0.37506858  1
  Mg  Mg4  1  0.99929687  0.49972865  0.62531121  1
  Mg  Mg5  1  0.50078537  0.50129115  0.49915833  1
  Mg  Mg6  1  0.99615893  0.50215010  0.87488522  1
  Mg  Mg7  1  0.50319969  0.49825657  0.75007130  1
  Ni  Ni8  1  0.49913650  0.49883471  0.12482603  1
  Ni  Ni9  1  0.49843514  0.49960980  0.25058607  1
  Ni  Ni10  1  0.49913650  0.00272467  0.12482603  1
  Ni  Ni11  1  0.13175208  0.11515604  0.53448371  1
  Ni  Ni12  1  0.50488965  0.49534841  0.37448094  1
  Ni  Ni13  1  0.85812515  0.88151659  0.21971042  1
  Ni  Ni14  1  0.13916539  0.11709035  0.78166348  1
  Ni  Ni15  1  0.50488965  0.00183917  0.37448094  1
  Ni  Ni16  1  0.49977634  0.50033821  0.62548342  1
  Ni  Ni17  1  0.86698530  0.88230592  0.46710047  1
  Ni  Ni18  1  0.49977634  0.99795178  0.62548342  1
  Ni  Ni19  1  0.49793931  0.99928908  0.87467175  1
  Ni  Ni20  1  0.49793931  0.50408462  0.87467175  1
  Ni  Ni21  1  0.86381854  0.88598449  0.71605262  1
  Ni  Ni22  1  0.49877223  0.49712209  0.00174615  1
  Ni  Ni23  1  0.85657835  0.88339948  0.96915542  1
  O  O24  1  0.28248405  0.26046194  0.06296303  1
  O  O25  1  0.28253647  0.25353163  0.17760007  1
  O  O26  1  0.28248405  0.70520387  0.06296303  1
  O  O27  1  0.73360348  0.26298729  0.06010574  1
  O  O28  1  0.25425008  0.75152161  0.18567617  1
  O  O29  1  0.28477994  0.25643389  0.31427098  1
  O  O30  1  0.71849102  0.28800118  0.18682440  1
  O  O31  1  0.26835353  0.24598586  0.43491819  1
  O  O32  1  0.28477994  0.70170225  0.31427098  1
  O  O33  1  0.71485625  0.74682082  0.07287528  1
  O  O34  1  0.72741163  0.25022144  0.31803687  1
  O  O35  1  0.71849102  0.74621019  0.18682440  1
  O  O36  1  0.26854696  0.24317111  0.56680004  1
  O  O37  1  0.27034134  0.75607990  0.42937447  1
  O  O38  1  0.73427997  0.28277923  0.43156569  1
  O  O39  1  0.26891346  0.24978556  0.68287911  1
  O  O40  1  0.26854696  0.72108079  0.56680004  1
  O  O41  1  0.72614730  0.74938098  0.31877244  1
  O  O42  1  0.73566471  0.24746121  0.56735322  1
  O  O43  1  0.73427997  0.75667904  0.43156569  1
  O  O44  1  0.27586297  0.75031385  0.68087708  1
  O  O45  1  0.26107413  0.24537642  0.81671777  1
  O  O46  1  0.72837253  0.28486285  0.68261311  1
  O  O47  1  0.28704301  0.25754674  0.92446538  1
  O  O48  1  0.26107413  0.72667635  0.81671777  1
  O  O49  1  0.72554803  0.75290451  0.56716099  1
  O  O50  1  0.75730993  0.24454623  0.81339940  1
  O  O51  1  0.72837253  0.75631416  0.68261311  1
  O  O52  1  0.26883235  0.72619239  0.94469597  1
  O  O53  1  0.71048274  0.29360362  0.93903999  1
  O  O54  1  0.71269276  0.74979008  0.82193152  1
  O  O55  1  0.71048274  0.73975270  0.93903999  1
