# generated using pymatgen
data_Mg3Ga
_symmetry_space_group_name_H-M   'P 1'
_cell_length_a   6.24484535
_cell_length_b   3.17986945
_cell_length_c   4.92628297
_cell_angle_alpha   90.00000000
_cell_angle_beta   90.00000000
_cell_angle_gamma   120.61049518
_symmetry_Int_Tables_number   1
_chemical_formula_structural   Mg3Ga
_chemical_formula_sum   'Mg3 Ga1'
_cell_volume   84.19305815
_cell_formula_units_Z   1
loop_
 _symmetry_equiv_pos_site_id
 _symmetry_equiv_pos_as_xyz
  1  'x, y, z'
loop_
 _atom_site_type_symbol
 _atom_site_label
 _atom_site_symmetry_multiplicity
 _atom_site_fract_x
 _atom_site_fract_y
 _atom_site_fract_z
 _atom_site_occupancy
  Mg  Mg0  1  0.66780114  0.66780114  0.25000000  1
  Mg  Mg1  1  0.32770650  0.32770650  0.75000000  1
  Mg  Mg2  1  0.83747478  0.33747478  0.75000000  1
  Ga  Ga3  1  0.16701758  0.66701758  0.25000000  1
