# generated using pymatgen
data_MgMn2O4
_symmetry_space_group_name_H-M   'P 1'
_cell_length_a   5.71970622
_cell_length_b   5.75921721
_cell_length_c   10.86336401
_cell_angle_alpha   89.99110059
_cell_angle_beta   89.99879601
_cell_angle_gamma   61.16288601
_symmetry_Int_Tables_number   1
_chemical_formula_structural   MgMn2O4
_chemical_formula_sum   'Mg4 Mn8 O16'
_cell_volume   313.47495943
_cell_formula_units_Z   4
loop_
 _symmetry_equiv_pos_site_id
 _symmetry_equiv_pos_as_xyz
  1  'x, y, z'
loop_
 _atom_site_type_symbol
 _atom_site_label
 _atom_site_symmetry_multiplicity
 _atom_site_fract_x
 _atom_site_fract_y
 _atom_site_fract_z
 _atom_site_occupancy
  Mg  Mg0  1  0.08875064  0.54284530  0.88645206  1
  Mg  Mg1  1  0.41121785  0.45730894  0.11352268  1
  Mg  Mg2  1  0.08869261  0.04268734  0.61361079  1
  Mg  Mg3  1  0.41123900  0.95725764  0.38641704  1
  Mn  Mn4  1  0.82015571  0.09495110  0.85710925  1
  Mn  Mn5  1  0.37198317  0.99400413  0.87879027  1
  Mn  Mn6  1  0.12799421  0.00615072  0.12114285  1
  Mn  Mn7  1  0.67983738  0.90509711  0.14287388  1
  Mn  Mn8  1  0.37204640  0.49370012  0.62121021  1
  Mn  Mn9  1  0.82008095  0.59490238  0.64303383  1
  Mn  Mn10  1  0.67987715  0.40501507  0.35700682  1
  Mn  Mn11  1  0.12799550  0.50614838  0.37880606  1
  O  O12  1  0.17919987  0.83908136  0.79140015  1
  O  O13  1  0.72535750  0.81825512  0.80871870  1
  O  O14  1  0.77465335  0.18178782  0.19128216  1
  O  O15  1  0.32079901  0.16098186  0.20861165  1
  O  O16  1  0.72537294  0.31809528  0.69135364  1
  O  O17  1  0.17924380  0.33896595  0.70875407  1
  O  O18  1  0.32077341  0.66095070  0.29128448  1
  O  O19  1  0.77465087  0.68176514  0.30864738  1
  O  O20  1  0.47791638  0.25618709  0.94525836  1
  O  O21  1  0.02141027  0.23394309  0.94721630  1
  O  O22  1  0.47859639  0.76617391  0.05276667  1
  O  O23  1  0.02208457  0.74391786  0.05473296  1
  O  O24  1  0.47861428  0.26615108  0.44718929  1
  O  O25  1  0.02212348  0.24381876  0.44519142  1
  O  O26  1  0.47786485  0.75607534  0.55480748  1
  O  O27  1  0.02138144  0.73376544  0.55280654  1
