# generated using pymatgen
data_MgCrNiP2O9
_symmetry_space_group_name_H-M   'P 1'
_cell_length_a   6.27436844
_cell_length_b   7.42714466
_cell_length_c   14.05258454
_cell_angle_alpha   89.98997950
_cell_angle_beta   89.99892709
_cell_angle_gamma   90.00198102
_symmetry_Int_Tables_number   1
_chemical_formula_structural   MgCrNiP2O9
_chemical_formula_sum   'Mg4 Cr4 Ni4 P8 O36'
_cell_volume   654.85945165
_cell_formula_units_Z   4
loop_
 _symmetry_equiv_pos_site_id
 _symmetry_equiv_pos_as_xyz
  1  'x, y, z'
loop_
 _atom_site_type_symbol
 _atom_site_label
 _atom_site_symmetry_multiplicity
 _atom_site_fract_x
 _atom_site_fract_y
 _atom_site_fract_z
 _atom_site_occupancy
  Mg  Mg0  1  0.74992696  0.92732887  0.77551933  1
  Mg  Mg1  1  0.75012803  0.57051908  0.27567880  1
  Mg  Mg2  1  0.24997529  0.07189029  0.22440782  1
  Mg  Mg3  1  0.24994726  0.42970489  0.72421872  1
  Cr  Cr4  1  0.75022009  0.35562990  0.88286164  1
  Cr  Cr5  1  0.25033956  0.64449311  0.11702736  1
  Cr  Cr6  1  0.25006811  0.85508378  0.61719269  1
  Cr  Cr7  1  0.74976974  0.14442576  0.38286424  1
  Ni  Ni8  1  0.50097939  0.00159005  -0.00026728  1
  Ni  Ni9  1  0.50020473  0.50006966  0.49997138  1
  Ni  Ni10  1  -0.00079011  0.49896432  0.49954143  1
  Ni  Ni11  1  0.99981309  -0.00060493  0.00047337  1
  P  P12  1  0.24996220  0.35273879  0.93191542  1
  P  P13  1  0.75005466  0.64715961  0.06799860  1
  P  P14  1  0.75006270  0.85266897  0.56795463  1
  P  P15  1  0.24998659  0.14728929  0.43212757  1
  P  P16  1  0.74996734  0.38344159  0.69579018  1
  P  P17  1  0.25004330  0.61663054  0.30420501  1
  P  P18  1  0.24987466  0.88287096  0.80448840  1
  P  P19  1  0.74992115  0.11734876  0.19566079  1
  O  O20  1  0.03837884  0.60976610  0.36087280  1
  O  O21  1  0.53842677  0.39049083  0.63909044  1
  O  O22  1  0.96155211  0.11073955  0.13898612  1
  O  O23  1  0.46156349  0.88924584  0.86114798  1
  O  O24  1  0.96143637  0.39051677  0.63904039  1
  O  O25  1  0.46163248  0.60964245  0.36089176  1
  O  O26  1  0.03822692  0.88915498  0.86114908  1
  O  O27  1  0.53838831  0.11087811  0.13895017  1
  O  O28  1  0.25000200  0.33478362  0.47706507  1
  O  O29  1  0.75005313  0.66537805  0.52285078  1
  O  O30  1  0.74960841  0.83503533  0.02347844  1
  O  O31  1  0.24964996  0.16482267  0.97643472  1
  O  O32  1  0.75036217  0.14698336  0.94383447  1
  O  O33  1  0.25027339  0.85324628  0.05620739  1
  O  O34  1  0.24967764  0.64644418  0.55634880  1
  O  O35  1  0.74960628  0.35329109  0.44345318  1
  O  O36  1  0.75003391  0.20769825  0.75992746  1
  O  O37  1  0.25020878  0.79238496  0.24009240  1
  O  O38  1  0.24999880  0.70728232  0.74033881  1
  O  O39  1  0.75003064  0.29285311  0.25973496  1
  O  O40  1  0.43760944  0.12329043  0.36157987  1
  O  O41  1  0.93779617  0.87680285  0.63845091  1
  O  O42  1  0.56226894  0.62208939  0.13839022  1
  O  O43  1  0.06223001  0.37772755  0.86152353  1
  O  O44  1  0.56234305  0.87679622  0.63848344  1
  O  O45  1  0.06220196  0.12311837  0.36167253  1
  O  O46  1  0.43777748  0.37760642  0.86156532  1
  O  O47  1  0.93781166  0.62256387  0.13844992  1
  O  O48  1  0.74990894  0.96721841  0.27346800  1
  O  O49  1  0.24996860  0.03286697  0.72664311  1
  O  O50  1  0.24982143  0.46627847  0.22660582  1
  O  O51  1  0.74987973  0.53382123  0.77342582  1
  O  O52  1  0.74998936  0.99255277  0.48862882  1
  O  O53  1  0.25026437  0.00760752  0.51157739  1
  O  O54  1  0.25011392  0.49160634  0.01171694  1
  O  O55  1  0.75045178  0.50816909  0.98829406  1
