# generated using pymatgen
data_VZnP2O7
_symmetry_space_group_name_H-M   'P 1'
_cell_length_a   6.52636034
_cell_length_b   6.52969452
_cell_length_c   6.68472476
_cell_angle_alpha   65.61850638
_cell_angle_beta   80.56974133
_cell_angle_gamma   80.03309249
_symmetry_Int_Tables_number   1
_chemical_formula_structural   VZnP2O7
_chemical_formula_sum   'V2 Zn2 P4 O14'
_cell_volume   254.18984543
_cell_formula_units_Z   2
loop_
 _symmetry_equiv_pos_site_id
 _symmetry_equiv_pos_as_xyz
  1  'x, y, z'
loop_
 _atom_site_type_symbol
 _atom_site_label
 _atom_site_symmetry_multiplicity
 _atom_site_fract_x
 _atom_site_fract_y
 _atom_site_fract_z
 _atom_site_occupancy
  V  V0  1  0.66195531  0.10715417  0.76943545  1
  V  V1  1  0.33804469  0.89284583  0.23056455  1
  Zn  Zn2  1  0.86120986  0.29306545  0.16035573  1
  Zn  Zn3  1  0.13879014  0.70693455  0.83964427  1
  P  P4  1  0.15351906  0.21932859  0.76151256  1
  P  P5  1  0.84648094  0.78067141  0.23848744  1
  P  P6  1  0.61328891  0.63975155  0.68857702  1
  P  P7  1  0.38671109  0.36024845  0.31142298  1
  O  O8  1  0.75955044  0.61066299  0.47537100  1
  O  O9  1  0.24044956  0.38933701  0.52462900  1
  O  O10  1  0.00300042  0.07101576  0.74320105  1
  O  O11  1  0.99699958  0.92898424  0.25679895  1
  O  O12  1  0.61124983  0.26330686  0.39000723  1
  O  O13  1  0.38875017  0.73669314  0.60999277  1
  O  O14  1  0.37819524  0.60378799  0.14228858  1
  O  O15  1  0.62180476  0.39621201  0.85771042  1
  O  O16  1  0.95086235  0.61481452  0.12953182  1
  O  O17  1  0.04913765  0.38518548  0.87046818  1
  O  O18  1  0.66005867  0.93707256  0.12611480  1
  O  O19  1  0.33994133  0.06292744  0.87388520  1
  O  O20  1  0.28170897  0.20450514  0.25718705  1
  O  O21  1  0.71829103  0.79549486  0.74281295  1
