# generated using pymatgen
data_LiTi2P2O9
_symmetry_space_group_name_H-M   'P 1'
_cell_length_a   6.41052494
_cell_length_b   7.64232098
_cell_length_c   14.06062666
_cell_angle_alpha   90.00000000
_cell_angle_beta   90.00000000
_cell_angle_gamma   90.00000000
_symmetry_Int_Tables_number   1
_chemical_formula_structural   LiTi2P2O9
_chemical_formula_sum   'Li4 Ti8 P8 O36'
_cell_volume   688.84822762
_cell_formula_units_Z   4
loop_
 _symmetry_equiv_pos_site_id
 _symmetry_equiv_pos_as_xyz
  1  'x, y, z'
loop_
 _atom_site_type_symbol
 _atom_site_label
 _atom_site_symmetry_multiplicity
 _atom_site_fract_x
 _atom_site_fract_y
 _atom_site_fract_z
 _atom_site_occupancy
  Li  Li0  1  0.75000000  0.95230635  0.77361052  1
  Li  Li1  1  0.75000000  0.54769365  0.27361052  1
  Li  Li2  1  0.25000100  0.45230535  0.72638948  1
  Li  Li3  1  0.25000100  0.04769365  0.22638948  1
  Ti  Ti4  1  0.75000000  0.35312751  0.87954949  1
  Ti  Ti5  1  0.25000100  0.64687249  0.12045051  1
  Ti  Ti6  1  0.25000100  0.85312751  0.62045051  1
  Ti  Ti7  1  0.75000000  0.14687249  0.37954949  1
  Ti  Ti8  1  0.50000000  -0.00000000  0.00000000  1
  Ti  Ti9  1  0.50000000  0.50000000  0.50000000  1
  Ti  Ti10  1  -0.00000000  0.50000000  0.50000000  1
  Ti  Ti11  1  -0.00000000  -0.00000000  0.00000000  1
  P  P12  1  0.25000100  0.35822639  0.93197808  1
  P  P13  1  0.75000000  0.64177361  0.06802292  1
  P  P14  1  0.75000000  0.85822639  0.56802192  1
  P  P15  1  0.25000100  0.14177461  0.43197808  1
  P  P16  1  0.75000000  0.37704392  0.68995537  1
  P  P17  1  0.75000000  0.12295608  0.18995537  1
  P  P18  1  0.25000100  0.87704392  0.81004463  1
  P  P19  1  0.25000100  0.62295508  0.31004463  1
  O  O20  1  0.05031374  0.60813631  0.37258992  1
  O  O21  1  0.55031274  0.39186269  0.62741008  1
  O  O22  1  0.94968626  0.10813631  0.12741008  1
  O  O23  1  0.44968626  0.89186369  0.87258992  1
  O  O24  1  0.94968626  0.39186269  0.62741008  1
  O  O25  1  0.44968626  0.60813631  0.37258992  1
  O  O26  1  0.05031374  0.89186369  0.87258992  1
  O  O27  1  0.55031274  0.10813631  0.12741008  1
  O  O28  1  0.25000100  0.32977873  0.47822719  1
  O  O29  1  0.75000000  0.67022227  0.52177281  1
  O  O30  1  0.75000000  0.82977773  0.02177181  1
  O  O31  1  0.25000100  0.17022227  0.97822719  1
  O  O32  1  0.75000000  0.13317184  0.94146780  1
  O  O33  1  0.25000100  0.86682816  0.05853120  1
  O  O34  1  0.25000100  0.63317184  0.55853120  1
  O  O35  1  0.75000000  0.36682916  0.44146880  1
  O  O36  1  0.75000000  0.20713081  0.75071531  1
  O  O37  1  0.25000100  0.79286919  0.24928569  1
  O  O38  1  0.25000100  0.70713081  0.74928469  1
  O  O39  1  0.75000000  0.29287019  0.25071431  1
  O  O40  1  0.44111236  0.12537384  0.36709205  1
  O  O41  1  0.94111236  0.87462616  0.63290795  1
  O  O42  1  0.55888764  0.62537284  0.13290795  1
  O  O43  1  0.05888764  0.37462616  0.86709205  1
  O  O44  1  0.55888764  0.87462616  0.63290795  1
  O  O45  1  0.05888764  0.12537384  0.36709205  1
  O  O46  1  0.44111236  0.37462616  0.86709205  1
  O  O47  1  0.94111236  0.62537284  0.13290795  1
  O  O48  1  0.75000000  0.50570631  0.98819913  1
  O  O49  1  0.25000100  0.02094622  0.73218050  1
  O  O50  1  0.25000100  0.47905278  0.23218050  1
  O  O51  1  0.75000000  0.52094622  0.76781950  1
  O  O52  1  0.75000000  -0.00570631  0.48819913  1
  O  O53  1  0.25000100  0.00570631  0.51180087  1
  O  O54  1  0.25000100  0.49429269  0.01179987  1
  O  O55  1  0.75000000  0.97905378  0.26781950  1
