# generated using pymatgen
data_In2Se3
_symmetry_space_group_name_H-M   'P 1'
_cell_length_a   4.01847152
_cell_length_b   4.01836753
_cell_length_c   9.78868835
_cell_angle_alpha   90.00005373
_cell_angle_beta   89.99944136
_cell_angle_gamma   119.99942218
_symmetry_Int_Tables_number   1
_chemical_formula_structural   In2Se3
_chemical_formula_sum   'In2 Se3'
_cell_volume   136.88889358
_cell_formula_units_Z   1
loop_
 _symmetry_equiv_pos_site_id
 _symmetry_equiv_pos_as_xyz
  1  'x, y, z'
loop_
 _atom_site_type_symbol
 _atom_site_label
 _atom_site_symmetry_multiplicity
 _atom_site_fract_x
 _atom_site_fract_y
 _atom_site_fract_z
 _atom_site_occupancy
  In  In0  1  0.66667285  0.33333627  0.19268932  1
  In  In1  1  0.33332715  0.66666373  0.80731068  1
  Se  Se2  1  -0.00000000  0.00000000  -0.00000000  1
  Se  Se3  1  0.66662966  0.33331514  0.67019278  1
  Se  Se4  1  0.33337034  0.66668486  0.32980722  1
