# generated using pymatgen
data_K3V2(PO4)3
_symmetry_space_group_name_H-M   'P 1'
_cell_length_a   8.99107695
_cell_length_b   8.99107664
_cell_length_c   9.26693885
_cell_angle_alpha   89.69614612
_cell_angle_beta   60.01623867
_cell_angle_gamma   118.64923520
_symmetry_Int_Tables_number   1
_chemical_formula_structural   K3V2(PO4)3
_chemical_formula_sum   'K6 V4 P6 O24'
_cell_volume   539.06830917
_cell_formula_units_Z   2
loop_
 _symmetry_equiv_pos_site_id
 _symmetry_equiv_pos_as_xyz
  1  'x, y, z'
loop_
 _atom_site_type_symbol
 _atom_site_label
 _atom_site_symmetry_multiplicity
 _atom_site_fract_x
 _atom_site_fract_y
 _atom_site_fract_z
 _atom_site_occupancy
  K  K0  1  -0.00000000  0.50000000  0.00000000  1
  K  K1  1  -0.00000000  -0.00000000  0.50000000  1
  K  K2  1  0.14749173  0.25489301  0.75772088  1
  K  K3  1  0.51261389  0.90521361  0.74227912  1
  K  K4  1  0.48738611  0.09478639  0.25772088  1
  K  K5  1  0.85250827  0.74510699  0.24227912  1
  V  V6  1  0.29480671  0.65031360  0.54803259  1
  V  V7  1  0.30165281  0.15716070  0.04803259  1
  V  V8  1  0.69834719  0.84283930  0.95196741  1
  V  V9  1  0.70519329  0.34968640  0.45196741  1
  P  P10  1  0.20824643  0.74038170  0.24537546  1
  P  P11  1  0.20442557  0.95442557  0.75000000  1
  P  P12  1  0.48575617  0.45362089  0.25462454  1
  P  P13  1  0.51424383  0.54637911  0.74537546  1
  P  P14  1  0.79557443  0.04557443  0.25000000  1
  P  P15  1  0.79175357  0.25961830  0.75462454  1
  O  O16  1  0.01547408  0.57225848  0.27380013  1
  O  O17  1  0.19727856  0.90667418  0.21909515  1
  O  O18  1  0.00205385  0.92299697  0.78502565  1
  O  O19  1  0.40776730  0.77531112  0.07489210  1
  O  O20  1  0.22560280  0.72962096  0.40235169  1
  O  O21  1  0.21392133  0.98067052  0.91172633  1
  O  O22  1  0.20802362  0.78707950  0.71497435  1
  O  O23  1  0.34605862  0.28927422  0.22619987  1
  O  O24  1  0.35020522  0.48266040  0.42510790  1
  O  O25  1  0.63197265  0.62795349  0.09764831  1
  O  O26  1  0.60760515  0.87435234  0.41172633  1
  O  O27  1  0.37423167  0.58362628  0.71909515  1
  O  O28  1  0.62576833  0.41637372  0.28090485  1
  O  O29  1  0.39239485  0.12564766  0.58827367  1
  O  O30  1  0.36802735  0.37204651  0.90235269  1
  O  O31  1  0.64979478  0.51733960  0.57489210  1
  O  O32  1  0.65394138  0.71072578  0.77380013  1
  O  O33  1  0.79197638  0.21292050  0.28502565  1
  O  O34  1  0.78607867  0.01932948  0.08827367  1
  O  O35  1  0.77439720  0.27037904  0.59764731  1
  O  O36  1  0.59223270  0.22468888  0.92510790  1
  O  O37  1  0.99794615  0.07700203  0.21497435  1
  O  O38  1  0.80272144  0.09332582  0.78090485  1
  O  O39  1  0.98452592  0.42774152  0.72619987  1
