# generated using pymatgen
data_Mg14CdSb
_symmetry_space_group_name_H-M   'P 1'
_cell_length_a   6.37737264
_cell_length_b   6.37737212
_cell_length_c   10.35865045
_cell_angle_alpha   90.00000000
_cell_angle_beta   90.00000000
_cell_angle_gamma   120.00000268
_symmetry_Int_Tables_number   1
_chemical_formula_structural   Mg14CdSb
_chemical_formula_sum   'Mg14 Cd1 Sb1'
_cell_volume   364.85252107
_cell_formula_units_Z   1
loop_
 _symmetry_equiv_pos_site_id
 _symmetry_equiv_pos_as_xyz
  1  'x, y, z'
loop_
 _atom_site_type_symbol
 _atom_site_label
 _atom_site_symmetry_multiplicity
 _atom_site_fract_x
 _atom_site_fract_y
 _atom_site_fract_z
 _atom_site_occupancy
  Mg  Mg0  1  0.16649651  0.83324776  0.12500000  1
  Mg  Mg1  1  0.16566484  0.83283192  0.62500000  1
  Mg  Mg2  1  0.66675224  0.33350349  0.12500000  1
  Mg  Mg3  1  0.66716808  0.33433516  0.62500000  1
  Mg  Mg4  1  0.66675224  0.83324776  0.12500000  1
  Mg  Mg5  1  0.66716808  0.83283192  0.62500000  1
  Mg  Mg6  1  0.33519098  0.16480902  0.37123399  1
  Mg  Mg7  1  0.33519098  0.16480902  0.87876601  1
  Mg  Mg8  1  0.33519098  0.67038296  0.37123399  1
  Mg  Mg9  1  0.33519098  0.67038296  0.87876601  1
  Mg  Mg10  1  0.82961704  0.16480902  0.37123399  1
  Mg  Mg11  1  0.82961704  0.16480902  0.87876601  1
  Mg  Mg12  1  0.83333300  0.66666700  0.37480750  1
  Mg  Mg13  1  0.83333300  0.66666700  0.87519250  1
  Cd  Cd14  1  0.16666700  0.33333300  0.12500000  1
  Sb  Sb15  1  0.16666700  0.33333300  0.62500000  1
