# generated using pymatgen
data_CaAl2SiO6
_symmetry_space_group_name_H-M   'P 1'
_cell_length_a   5.32304641
_cell_length_b   6.53807640
_cell_length_c   6.53807640
_cell_angle_alpha   83.59345047
_cell_angle_beta   78.11572278
_cell_angle_gamma   78.11572278
_symmetry_Int_Tables_number   1
_chemical_formula_structural   CaAl2SiO6
_chemical_formula_sum   'Ca2 Al4 Si2 O12'
_cell_volume   217.32215270
_cell_formula_units_Z   2
loop_
 _symmetry_equiv_pos_site_id
 _symmetry_equiv_pos_as_xyz
  1  'x, y, z'
loop_
 _atom_site_type_symbol
 _atom_site_label
 _atom_site_symmetry_multiplicity
 _atom_site_fract_x
 _atom_site_fract_y
 _atom_site_fract_z
 _atom_site_occupancy
  Ca  Ca0  1  0.24117296  0.32327714  0.69649980  1
  Ca  Ca1  1  0.74117296  0.69649980  0.32327714  1
  Al  Al2  1  0.20846313  0.80938668  0.61297971  1
  Al  Al3  1  0.70846313  0.61297971  0.80938668  1
  Al  Al4  1  0.26117200  0.90872985  0.08942334  1
  Al  Al5  1  0.76117200  0.08942334  0.90872985  1
  Si  Si6  1  0.28362984  0.38110434  0.18946882  1
  Si  Si7  1  0.78362984  0.18946882  0.38110434  1
  O  O8  1  0.12283385  0.97492351  0.82790740  1
  O  O9  1  0.32007699  0.91042670  0.35793822  1
  O  O10  1  0.97231000  0.66080986  0.61042465  1
  O  O11  1  0.37495682  0.20022349  0.02095592  1
  O  O12  1  0.20233462  0.62419464  0.11048134  1
  O  O13  1  0.51304980  0.35689986  0.33394474  1
  O  O14  1  0.87495682  0.02095592  0.20022349  1
  O  O15  1  0.70233462  0.11048134  0.62419464  1
  O  O16  1  0.01304980  0.33394474  0.35689986  1
  O  O17  1  0.62283385  0.82790740  0.97492351  1
  O  O18  1  0.82007699  0.35793822  0.91042670  1
  O  O19  1  0.47231000  0.61042465  0.66080986  1
