# generated using pymatgen
data_Mg6ZnCd
_symmetry_space_group_name_H-M   'P 1'
_cell_length_a   6.21991358
_cell_length_b   6.36914124
_cell_length_c   5.00683779
_cell_angle_alpha   90.00000000
_cell_angle_beta   90.00000000
_cell_angle_gamma   120.79687646
_symmetry_Int_Tables_number   1
_chemical_formula_structural   Mg6ZnCd
_chemical_formula_sum   'Mg6 Zn1 Cd1'
_cell_volume   170.37887747
_cell_formula_units_Z   1
loop_
 _symmetry_equiv_pos_site_id
 _symmetry_equiv_pos_as_xyz
  1  'x, y, z'
loop_
 _atom_site_type_symbol
 _atom_site_label
 _atom_site_symmetry_multiplicity
 _atom_site_fract_x
 _atom_site_fract_y
 _atom_site_fract_z
 _atom_site_occupancy
  Mg  Mg0  1  0.66822512  0.33388017  0.25000000  1
  Mg  Mg1  1  0.66822512  0.83434395  0.25000000  1
  Mg  Mg2  1  0.32946969  0.16857618  0.75000000  1
  Mg  Mg3  1  0.32946969  0.66089450  0.75000000  1
  Mg  Mg4  1  0.83920087  0.16960094  0.75000000  1
  Mg  Mg5  1  0.83401764  0.66700932  0.75000000  1
  Zn  Zn6  1  0.16515315  0.33257607  0.25000000  1
  Cd  Cd7  1  0.16623873  0.83311886  0.25000000  1
