# generated using pymatgen
data_Te2MoWSe2
_symmetry_space_group_name_H-M   'P 1'
_cell_length_a   3.43765470
_cell_length_b   3.43766365
_cell_length_c   39.14337653
_cell_angle_alpha   90.00115717
_cell_angle_beta   90.00000000
_cell_angle_gamma   119.99991391
_symmetry_Int_Tables_number   1
_chemical_formula_structural   Te2MoWSe2
_chemical_formula_sum   'Te4 Mo2 W2 Se4'
_cell_volume   400.60367265
_cell_formula_units_Z   2
loop_
 _symmetry_equiv_pos_site_id
 _symmetry_equiv_pos_as_xyz
  1  'x, y, z'
loop_
 _atom_site_type_symbol
 _atom_site_label
 _atom_site_symmetry_multiplicity
 _atom_site_fract_x
 _atom_site_fract_y
 _atom_site_fract_z
 _atom_site_occupancy
  Te  Te0  1  0.33336361  0.66672823  0.70521639  1
  Te  Te1  1  0.66663536  0.33326972  0.42225090  1
  Te  Te2  1  0.66664885  0.33329671  0.51699249  1
  Te  Te3  1  0.33336057  0.66672214  0.60989543  1
  Mo  Mo4  1  0.33331138  0.66662277  0.46962131  1
  Mo  Mo5  1  0.66668910  0.33337821  0.28180191  1
  W  W6  1  0.33330574  0.66661148  0.09391865  1
  W  W7  1  0.66669548  0.33339095  0.65758274  1
  Se  Se8  1  0.33335486  0.66671073  0.32362177  1
  Se  Se9  1  0.66664688  0.33329277  0.05201383  1
  Se  Se10  1  0.66662490  0.33324879  0.13583437  1
  Se  Se11  1  0.33336326  0.66672751  0.23999821  1
