# generated using pymatgen
data_Te3MoWSe
_symmetry_space_group_name_H-M   'P 1'
_cell_length_a   3.50031126
_cell_length_b   3.50031052
_cell_length_c   39.59917595
_cell_angle_alpha   90.00009275
_cell_angle_beta   90.00000000
_cell_angle_gamma   120.00000698
_symmetry_Int_Tables_number   1
_chemical_formula_structural   Te3MoWSe
_chemical_formula_sum   'Te6 Mo2 W2 Se2'
_cell_volume   420.17478659
_cell_formula_units_Z   2
loop_
 _symmetry_equiv_pos_site_id
 _symmetry_equiv_pos_as_xyz
  1  'x, y, z'
loop_
 _atom_site_type_symbol
 _atom_site_label
 _atom_site_symmetry_multiplicity
 _atom_site_fract_x
 _atom_site_fract_y
 _atom_site_fract_z
 _atom_site_occupancy
  Te  Te0  1  0.33335878  0.66671856  0.70403443  1
  Te  Te1  1  0.66664260  0.33328421  0.04743493  1
  Te  Te2  1  0.66664791  0.33329482  0.42344251  1
  Te  Te3  1  0.66664150  0.33328200  0.14044207  1
  Te  Te4  1  0.66664753  0.33329407  0.51585704  1
  Te  Te5  1  0.33335514  0.66671128  0.61102798  1
  Mo  Mo6  1  0.33331163  0.66662326  0.46964068  1
  Mo  Mo7  1  0.66668823  0.33337647  0.28179925  1
  W  W8  1  0.33330767  0.66661535  0.09392553  1
  W  W9  1  0.66669104  0.33338208  0.65755166  1
  Se  Se10  1  0.33334924  0.66669948  0.32265941  1
  Se  Se11  1  0.33335871  0.66671842  0.24093252  1
