# generated using pymatgen
data_TeW2Se2S
_symmetry_space_group_name_H-M   'P 1'
_cell_length_a   3.34231363
_cell_length_b   3.34231823
_cell_length_c   38.09946808
_cell_angle_alpha   89.99933513
_cell_angle_beta   90.00000000
_cell_angle_gamma   119.99995457
_symmetry_Int_Tables_number   1
_chemical_formula_structural   TeW2Se2S
_chemical_formula_sum   'Te2 W4 Se4 S2'
_cell_volume   368.59101182
_cell_formula_units_Z   2
loop_
 _symmetry_equiv_pos_site_id
 _symmetry_equiv_pos_as_xyz
  1  'x, y, z'
loop_
 _atom_site_type_symbol
 _atom_site_label
 _atom_site_symmetry_multiplicity
 _atom_site_fract_x
 _atom_site_fract_y
 _atom_site_fract_z
 _atom_site_occupancy
  Te  Te0  1  0.33335320  0.66670740  0.70759690  1
  Te  Te1  1  0.33335269  0.66670638  0.60749036  1
  W  W2  1  0.33331252  0.66662504  0.09390229  1
  W  W3  1  0.33331152  0.66662304  0.46966411  1
  W  W4  1  0.66668871  0.33337743  0.28181312  1
  W  W5  1  0.66668966  0.33337932  0.65756174  1
  Se  Se6  1  0.33335174  0.66670448  0.32572128  1
  Se  Se7  1  0.66664165  0.33328229  0.04999733  1
  Se  Se8  1  0.66664889  0.33329678  0.13782175  1
  Se  Se9  1  0.33335639  0.66671377  0.23787034  1
  S  S10  1  0.66664724  0.33329348  0.42969314  1
  S  S11  1  0.66664579  0.33329058  0.50961563  1
