# generated using pymatgen
data_TeW2Se2S
_symmetry_space_group_name_H-M   'P 1'
_cell_length_a   3.34331978
_cell_length_b   3.34332489
_cell_length_c   38.13645913
_cell_angle_alpha   90.00021681
_cell_angle_beta   90.00000000
_cell_angle_gamma   119.99994947
_symmetry_Int_Tables_number   1
_chemical_formula_structural   TeW2Se2S
_chemical_formula_sum   'Te2 W4 Se4 S2'
_cell_volume   369.17112010
_cell_formula_units_Z   2
loop_
 _symmetry_equiv_pos_site_id
 _symmetry_equiv_pos_as_xyz
  1  'x, y, z'
loop_
 _atom_site_type_symbol
 _atom_site_label
 _atom_site_symmetry_multiplicity
 _atom_site_fract_x
 _atom_site_fract_y
 _atom_site_fract_z
 _atom_site_occupancy
  Te  Te0  1  0.33335199  0.66670498  0.70759754  1
  Te  Te1  1  0.33334876  0.66669853  0.60754801  1
  W  W2  1  0.33331535  0.66663070  0.09390542  1
  W  W3  1  0.33331107  0.66662214  0.46963105  1
  W  W4  1  0.66669071  0.33338142  0.28180506  1
  W  W5  1  0.66668877  0.33337754  0.65759312  1
  Se  Se6  1  0.66664267  0.33328433  0.04996681  1
  Se  Se7  1  0.66664876  0.33329651  0.42568034  1
  Se  Se8  1  0.66665328  0.33330555  0.13785564  1
  Se  Se9  1  0.66663848  0.33327596  0.51357502  1
  S  S10  1  0.33335816  0.66671732  0.32171649  1
  S  S11  1  0.33335201  0.66670502  0.24187350  1
