# generated using pymatgen
data_TeW2Se2S
_symmetry_space_group_name_H-M   'P 1'
_cell_length_a   3.34299303
_cell_length_b   3.34299902
_cell_length_c   38.19164938
_cell_angle_alpha   90.00024517
_cell_angle_beta   90.00000000
_cell_angle_gamma   119.99994085
_symmetry_Int_Tables_number   1
_chemical_formula_structural   TeW2Se2S
_chemical_formula_sum   'Te2 W4 Se4 S2'
_cell_volume   369.63324528
_cell_formula_units_Z   2
loop_
 _symmetry_equiv_pos_site_id
 _symmetry_equiv_pos_as_xyz
  1  'x, y, z'
loop_
 _atom_site_type_symbol
 _atom_site_label
 _atom_site_symmetry_multiplicity
 _atom_site_fract_x
 _atom_site_fract_y
 _atom_site_fract_z
 _atom_site_occupancy
  Te  Te0  1  0.66665090  0.33330080  0.41967193  1
  Te  Te1  1  0.66665021  0.33329942  0.51958537  1
  W  W2  1  0.33330300  0.66660599  0.09390662  1
  W  W3  1  0.33331607  0.66663214  0.46962362  1
  W  W4  1  0.66669139  0.33338277  0.28176593  1
  W  W5  1  0.66668812  0.33337624  0.65761662  1
  Se  Se6  1  0.33335169  0.66670438  0.70150975  1
  Se  Se7  1  0.66663446  0.33326791  0.04998911  1
  Se  Se8  1  0.66664601  0.33329102  0.13782796  1
  Se  Se9  1  0.33335246  0.66670591  0.61368342  1
  S  S10  1  0.33335615  0.66671331  0.32162703  1
  S  S11  1  0.33335955  0.66672010  0.24194064  1
