# generated using pymatgen
data_Te4Mo3WSe4
_symmetry_space_group_name_H-M   'P 1'
_cell_length_a   3.44002353
_cell_length_b   3.43998678
_cell_length_c   39.10440764
_cell_angle_alpha   90.00029380
_cell_angle_beta   90.00000000
_cell_angle_gamma   120.00035348
_symmetry_Int_Tables_number   1
_chemical_formula_structural   Te4Mo3WSe4
_chemical_formula_sum   'Te4 Mo3 W1 Se4'
_cell_volume   400.74949449
_cell_formula_units_Z   1
loop_
 _symmetry_equiv_pos_site_id
 _symmetry_equiv_pos_as_xyz
  1  'x, y, z'
loop_
 _atom_site_type_symbol
 _atom_site_label
 _atom_site_symmetry_multiplicity
 _atom_site_fract_x
 _atom_site_fract_y
 _atom_site_fract_z
 _atom_site_occupancy
  Te  Te0  1  0.33335455  0.66671010  0.70497479  1
  Te  Te1  1  0.66665059  0.33330018  0.42190515  1
  Te  Te2  1  0.66664709  0.33329317  0.51732306  1
  Te  Te3  1  0.33335551  0.66671201  0.61014760  1
  Mo  Mo4  1  0.33331103  0.66662206  0.09392809  1
  Mo  Mo5  1  0.66669140  0.33338279  0.28180492  1
  Mo  Mo6  1  0.66669179  0.33338359  0.65759303  1
  W  W7  1  0.33331332  0.66662665  0.46962868  1
  Se  Se8  1  0.33335663  0.66671427  0.32362207  1
  Se  Se9  1  0.66662757  0.33325415  0.05212343  1
  Se  Se10  1  0.66664926  0.33329752  0.13573488  1
  Se  Se11  1  0.33335126  0.66670352  0.23996230  1
