# generated using pymatgen
data_Er(MnGa)6
_symmetry_space_group_name_H-M   'P 1'
_cell_length_a   4.88631378
_cell_length_b   6.70053587
_cell_length_c   6.84703520
_cell_angle_alpha   97.47560382
_cell_angle_beta   110.90501291
_cell_angle_gamma   68.61572912
_symmetry_Int_Tables_number   1
_chemical_formula_structural   Er(MnGa)6
_chemical_formula_sum   'Er1 Mn6 Ga6'
_cell_volume   195.00390233
_cell_formula_units_Z   1
loop_
 _symmetry_equiv_pos_site_id
 _symmetry_equiv_pos_as_xyz
  1  'x, y, z'
loop_
 _atom_site_type_symbol
 _atom_site_label
 _atom_site_symmetry_multiplicity
 _atom_site_fract_x
 _atom_site_fract_y
 _atom_site_fract_z
 _atom_site_occupancy
  Er  Er0  1  -0.00000000  -0.00000000  -0.00000000  1
  Mn  Mn1  1  0.50000000  0.50000000  -0.00000000  1
  Mn  Mn2  1  -0.00000000  0.50000000  -0.00000000  1
  Mn  Mn3  1  0.65073235  0.34926837  0.65073306  1
  Mn  Mn4  1  0.34926765  0.65073163  0.34926694  1
  Mn  Mn5  1  -0.00000072  0.34926837  0.34926694  1
  Mn  Mn6  1  0.00000072  0.65073163  0.65073306  1
  Ga  Ga7  1  0.75072710  0.73840101  0.23985521  1
  Ga  Ga8  1  0.24927290  0.26159899  0.76014479  1
  Ga  Ga9  1  0.51087189  0.73840101  0.76014479  1
  Ga  Ga10  1  0.48912811  0.26159899  0.23985521  1
  Ga  Ga11  1  0.50000000  -0.00000000  0.50000000  1
  Ga  Ga12  1  -0.00000000  -0.00000000  0.50000000  1
