# generated using pymatgen
data_TeW2Se2S
_symmetry_space_group_name_H-M   'P 1'
_cell_length_a   3.34339712
_cell_length_b   3.34337445
_cell_length_c   41.07582674
_cell_angle_alpha   90.00483913
_cell_angle_beta   90.00000000
_cell_angle_gamma   120.00022430
_symmetry_Int_Tables_number   1
_chemical_formula_structural   TeW2Se2S
_chemical_formula_sum   'Te2 W4 Se4 S2'
_cell_volume   397.63897414
_cell_formula_units_Z   2
loop_
 _symmetry_equiv_pos_site_id
 _symmetry_equiv_pos_as_xyz
  1  'x, y, z'
loop_
 _atom_site_type_symbol
 _atom_site_label
 _atom_site_symmetry_multiplicity
 _atom_site_fract_x
 _atom_site_fract_y
 _atom_site_fract_z
 _atom_site_occupancy
  Te  Te0  1  0.66668731  0.33337362  0.42320650  1
  Te  Te1  1  0.66668291  0.33336482  0.51611845  1
  W  W2  1  0.33325210  0.66650421  0.09370227  1
  W  W3  1  0.33334013  0.66668025  0.46963286  1
  W  W4  1  0.66675570  0.33351139  0.28043681  1
  W  W5  1  0.66664489  0.33328977  0.65908336  1
  Se  Se6  1  0.33340350  0.66680800  0.32122395  1
  Se  Se7  1  0.33333424  0.66666949  0.69984097  1
  Se  Se8  1  0.33345995  0.66692091  0.23972788  1
  Se  Se9  1  0.33328038  0.66656176  0.61835964  1
  S  S10  1  0.66651276  0.33302452  0.05665737  1
  S  S11  1  0.66664613  0.33329127  0.13075791  1
