# generated using pymatgen
data_Te4Mo3WSe4
_symmetry_space_group_name_H-M   'P 1'
_cell_length_a   3.43968018
_cell_length_b   3.43965861
_cell_length_c   39.08904733
_cell_angle_alpha   90.00006162
_cell_angle_beta   90.00000000
_cell_angle_gamma   120.00020744
_symmetry_Int_Tables_number   1
_chemical_formula_structural   Te4Mo3WSe4
_chemical_formula_sum   'Te4 Mo3 W1 Se4'
_cell_volume   400.51447297
_cell_formula_units_Z   1
loop_
 _symmetry_equiv_pos_site_id
 _symmetry_equiv_pos_as_xyz
  1  'x, y, z'
loop_
 _atom_site_type_symbol
 _atom_site_label
 _atom_site_symmetry_multiplicity
 _atom_site_fract_x
 _atom_site_fract_y
 _atom_site_fract_z
 _atom_site_occupancy
  Te  Te0  1  0.33336983  0.66674066  0.70527059  1
  Te  Te1  1  0.66664976  0.33329852  0.42219350  1
  Te  Te2  1  0.66664596  0.33329092  0.51703942  1
  Te  Te3  1  0.33335165  0.66670430  0.60983926  1
  Mo  Mo4  1  0.33331158  0.66662316  0.09392698  1
  Mo  Mo5  1  0.33331176  0.66662352  0.46962502  1
  Mo  Mo6  1  0.66668911  0.33337822  0.28179585  1
  W  W7  1  0.66669164  0.33338329  0.65759500  1
  Se  Se8  1  0.33335204  0.66670508  0.32364138  1
  Se  Se9  1  0.66662768  0.33325436  0.05210559  1
  Se  Se10  1  0.66664956  0.33329812  0.13575870  1
  Se  Se11  1  0.33334943  0.66669986  0.23995671  1
