# generated using pymatgen
data_Te2MoWSe2
_symmetry_space_group_name_H-M   'P 1'
_cell_length_a   3.43901360
_cell_length_b   3.43899578
_cell_length_c   39.10782392
_cell_angle_alpha   89.99977636
_cell_angle_beta   90.00000000
_cell_angle_gamma   120.00017137
_symmetry_Int_Tables_number   1
_chemical_formula_structural   Te2MoWSe2
_chemical_formula_sum   'Te4 Mo2 W2 Se4'
_cell_volume   400.55215227
_cell_formula_units_Z   2
loop_
 _symmetry_equiv_pos_site_id
 _symmetry_equiv_pos_as_xyz
  1  'x, y, z'
loop_
 _atom_site_type_symbol
 _atom_site_label
 _atom_site_symmetry_multiplicity
 _atom_site_fract_x
 _atom_site_fract_y
 _atom_site_fract_z
 _atom_site_occupancy
  Te  Te0  1  0.33335315  0.66670730  0.70523681  1
  Te  Te1  1  0.66663387  0.33326674  0.04651385  1
  Te  Te2  1  0.66663152  0.33326204  0.14135068  1
  Te  Te3  1  0.33336273  0.66672646  0.60982346  1
  Mo  Mo4  1  0.33330795  0.66661590  0.09390553  1
  Mo  Mo5  1  0.66669332  0.33338664  0.28178302  1
  W  W6  1  0.33331081  0.66662162  0.46963686  1
  W  W7  1  0.66669571  0.33339141  0.65755817  1
  Se  Se8  1  0.33336840  0.66673779  0.32367011  1
  Se  Se9  1  0.66663852  0.33327604  0.42768666  1
  Se  Se10  1  0.66664906  0.33329712  0.51160290  1
  Se  Se11  1  0.33335497  0.66671094  0.23997995  1
