# generated using pymatgen
data_Te3MoWSe
_symmetry_space_group_name_H-M   'P 1'
_cell_length_a   3.50046308
_cell_length_b   3.50043144
_cell_length_c   39.63005261
_cell_angle_alpha   90.00035172
_cell_angle_beta   90.00000000
_cell_angle_gamma   120.00029898
_symmetry_Int_Tables_number   1
_chemical_formula_structural   Te3MoWSe
_chemical_formula_sum   'Te6 Mo2 W2 Se2'
_cell_volume   420.53393770
_cell_formula_units_Z   2
loop_
 _symmetry_equiv_pos_site_id
 _symmetry_equiv_pos_as_xyz
  1  'x, y, z'
loop_
 _atom_site_type_symbol
 _atom_site_label
 _atom_site_symmetry_multiplicity
 _atom_site_fract_x
 _atom_site_fract_y
 _atom_site_fract_z
 _atom_site_occupancy
  Te  Te0  1  0.33336301  0.66672703  0.32826524  1
  Te  Te1  1  0.33335727  0.66671555  0.70373336  1
  Te  Te2  1  0.66664174  0.33328249  0.42318992  1
  Te  Te3  1  0.66664848  0.33329596  0.51615248  1
  Te  Te4  1  0.33335207  0.66670514  0.23529697  1
  Te  Te5  1  0.33336086  0.66672271  0.61133378  1
  Mo  Mo6  1  0.33331019  0.66662038  0.09391232  1
  Mo  Mo7  1  0.66669316  0.33338632  0.65754934  1
  W  W8  1  0.33331096  0.66662193  0.46966129  1
  W  W9  1  0.66669132  0.33338264  0.28177050  1
  Se  Se10  1  0.66662916  0.33325733  0.05311200  1
  Se  Se11  1  0.66664176  0.33328253  0.13477078  1
