# generated using pymatgen
data_Te2MoWSe2
_symmetry_space_group_name_H-M   'P 1'
_cell_length_a   3.43780430
_cell_length_b   3.43778304
_cell_length_c   39.08963764
_cell_angle_alpha   89.99973793
_cell_angle_beta   89.99996233
_cell_angle_gamma   120.00029190
_symmetry_Int_Tables_number   1
_chemical_formula_structural   Te2MoWSe2
_chemical_formula_sum   'Te4 Mo2 W2 Se4'
_cell_volume   400.08347549
_cell_formula_units_Z   2
loop_
 _symmetry_equiv_pos_site_id
 _symmetry_equiv_pos_as_xyz
  1  'x, y, z'
loop_
 _atom_site_type_symbol
 _atom_site_label
 _atom_site_symmetry_multiplicity
 _atom_site_fract_x
 _atom_site_fract_y
 _atom_site_fract_z
 _atom_site_occupancy
  Te  Te0  1  0.33335674  0.66671529  0.70524092  1
  Te  Te1  1  0.66663420  0.33326921  0.04650344  1
  Te  Te2  1  0.66663590  0.33327288  0.14134205  1
  Te  Te3  1  0.33335718  0.66671623  0.60981699  1
  Mo  Mo4  1  0.33331164  0.66662431  0.09391058  1
  Mo  Mo5  1  0.33331723  0.66663494  0.46964250  1
  W  W6  1  0.66669005  0.33338255  0.28179677  1
  W  W7  1  0.66669410  0.33339019  0.65755398  1
  Se  Se8  1  0.33335584  0.66671370  0.32378180  1
  Se  Se9  1  0.66664305  0.33327022  0.42780264  1
  Se  Se10  1  0.66665144  0.33330373  0.51149515  1
  Se  Se11  1  0.33335263  0.66670675  0.23986119  1
