# generated using pymatgen
data_Te2MoWSe2
_symmetry_space_group_name_H-M   'P 1'
_cell_length_a   3.43750106
_cell_length_b   3.43748271
_cell_length_c   39.14098089
_cell_angle_alpha   90.00030801
_cell_angle_beta   90.00000000
_cell_angle_gamma   120.00017663
_symmetry_Int_Tables_number   1
_chemical_formula_structural   Te2MoWSe2
_chemical_formula_sum   'Te4 Mo2 W2 Se4'
_cell_volume   400.53910813
_cell_formula_units_Z   2
loop_
 _symmetry_equiv_pos_site_id
 _symmetry_equiv_pos_as_xyz
  1  'x, y, z'
loop_
 _atom_site_type_symbol
 _atom_site_label
 _atom_site_symmetry_multiplicity
 _atom_site_fract_x
 _atom_site_fract_y
 _atom_site_fract_z
 _atom_site_occupancy
  Te  Te0  1  0.33335485  0.66671070  0.70522154  1
  Te  Te1  1  0.66663677  0.33327255  0.42225263  1
  Te  Te2  1  0.66665162  0.33330225  0.51699121  1
  Te  Te3  1  0.33335376  0.66670852  0.60988806  1
  Mo  Mo4  1  0.33331159  0.66662318  0.09391958  1
  Mo  Mo5  1  0.33331436  0.66662872  0.46963654  1
  W  W6  1  0.66668964  0.33337928  0.28179808  1
  W  W7  1  0.66669123  0.33338246  0.65759493  1
  Se  Se8  1  0.33335414  0.66670927  0.32372965  1
  Se  Se9  1  0.66664796  0.33329492  0.05213112  1
  Se  Se10  1  0.66664209  0.33328318  0.13571673  1
  Se  Se11  1  0.33335199  0.66670499  0.23986792  1
