# generated using pymatgen
data_Te2MoWSe2
_symmetry_space_group_name_H-M   'P 1'
_cell_length_a   3.43802590
_cell_length_b   3.43795388
_cell_length_c   39.13950099
_cell_angle_alpha   89.99991465
_cell_angle_beta   90.00000000
_cell_angle_gamma   120.00069294
_symmetry_Int_Tables_number   1
_chemical_formula_structural   Te2MoWSe2
_chemical_formula_sum   'Te4 Mo2 W2 Se4'
_cell_volume   400.63794013
_cell_formula_units_Z   2
loop_
 _symmetry_equiv_pos_site_id
 _symmetry_equiv_pos_as_xyz
  1  'x, y, z'
loop_
 _atom_site_type_symbol
 _atom_site_label
 _atom_site_symmetry_multiplicity
 _atom_site_fract_x
 _atom_site_fract_y
 _atom_site_fract_z
 _atom_site_occupancy
  Te  Te0  1  0.33335938  0.66671975  0.32951087  1
  Te  Te1  1  0.66663745  0.33327390  0.04651774  1
  Te  Te2  1  0.66663492  0.33326884  0.14126988  1
  Te  Te3  1  0.33335398  0.66670897  0.23416009  1
  Mo  Mo4  1  0.33330791  0.66661583  0.09387658  1
  Mo  Mo5  1  0.33331337  0.66662674  0.46966153  1
  W  W6  1  0.66669476  0.33338952  0.28184000  1
  W  W7  1  0.66668936  0.33337872  0.65753014  1
  Se  Se8  1  0.33335243  0.66670586  0.69946279  1
  Se  Se9  1  0.66663077  0.33326053  0.42783343  1
  Se  Se10  1  0.66664970  0.33329841  0.51147653  1
  Se  Se11  1  0.33337597  0.66675293  0.61560843  1
