# generated using pymatgen
data_Te2MoWSe2
_symmetry_space_group_name_H-M   'P 1'
_cell_length_a   3.43872283
_cell_length_b   3.43869407
_cell_length_c   39.10559412
_cell_angle_alpha   90.00041617
_cell_angle_beta   90.00000036
_cell_angle_gamma   120.00027571
_symmetry_Int_Tables_number   1
_chemical_formula_structural   Te2MoWSe2
_chemical_formula_sum   'Te4 Mo2 W2 Se4'
_cell_volume   400.45989107
_cell_formula_units_Z   2
loop_
 _symmetry_equiv_pos_site_id
 _symmetry_equiv_pos_as_xyz
  1  'x, y, z'
loop_
 _atom_site_type_symbol
 _atom_site_label
 _atom_site_symmetry_multiplicity
 _atom_site_fract_x
 _atom_site_fract_y
 _atom_site_fract_z
 _atom_site_occupancy
  Te  Te0  1  0.33335340  0.66670754  0.32920586  1
  Te  Te1  1  0.33335866  0.66671800  0.70526030  1
  Te  Te2  1  0.33335132  0.66670347  0.23438318  1
  Te  Te3  1  0.33335743  0.66671559  0.60979063  1
  Mo  Mo4  1  0.33331198  0.66662357  0.46967908  1
  Mo  Mo5  1  0.66668885  0.33337820  0.28181900  1
  W  W6  1  0.33330991  0.66661928  0.09392077  1
  W  W7  1  0.66669170  0.33338372  0.65754182  1
  Se  Se8  1  0.66664496  0.33328920  0.05199031  1
  Se  Se9  1  0.66663648  0.33327228  0.42776920  1
  Se  Se10  1  0.66664683  0.33329297  0.13586510  1
  Se  Se11  1  0.66664847  0.33329618  0.51152275  1
