# generated using pymatgen
data_Eu2Si3Ni
_symmetry_space_group_name_H-M   'P 1'
_cell_length_a   4.04045817
_cell_length_b   4.04045663
_cell_length_c   8.80308965
_cell_angle_alpha   90.00000000
_cell_angle_beta   90.00000000
_cell_angle_gamma   119.98723802
_symmetry_Int_Tables_number   1
_chemical_formula_structural   Eu2Si3Ni
_chemical_formula_sum   'Eu2 Si3 Ni1'
_cell_volume   124.47514944
_cell_formula_units_Z   1
loop_
 _symmetry_equiv_pos_site_id
 _symmetry_equiv_pos_as_xyz
  1  'x, y, z'
loop_
 _atom_site_type_symbol
 _atom_site_label
 _atom_site_symmetry_multiplicity
 _atom_site_fract_x
 _atom_site_fract_y
 _atom_site_fract_z
 _atom_site_occupancy
  Eu  Eu0  1  0.00001369  0.99998838  0.00818935  1
  Eu  Eu1  1  0.00001369  0.99998838  0.49181065  1
  Si  Si2  1  0.33331802  0.66666552  0.75000000  1
  Si  Si3  1  0.66655525  0.33332674  0.25000000  1
  Si  Si4  1  0.66670747  0.33337255  0.75000000  1
  Ni  Ni5  1  0.33319187  0.66665841  0.25000000  1
