# generated using pymatgen
data_Te3MoWSe
_symmetry_space_group_name_H-M   'P 1'
_cell_length_a   3.50065492
_cell_length_b   3.50066484
_cell_length_c   39.61217536
_cell_angle_alpha   89.99999097
_cell_angle_beta   90.00000000
_cell_angle_gamma   119.99990622
_symmetry_Int_Tables_number   1
_chemical_formula_structural   Te3MoWSe
_chemical_formula_sum   'Te6 Mo2 W2 Se2'
_cell_volume   420.39696315
_cell_formula_units_Z   2
loop_
 _symmetry_equiv_pos_site_id
 _symmetry_equiv_pos_as_xyz
  1  'x, y, z'
loop_
 _atom_site_type_symbol
 _atom_site_label
 _atom_site_symmetry_multiplicity
 _atom_site_fract_x
 _atom_site_fract_y
 _atom_site_fract_z
 _atom_site_occupancy
  Te  Te0  1  0.33335396  0.66670893  0.32830597  1
  Te  Te1  1  0.33335291  0.66670682  0.70403429  1
  Te  Te2  1  0.66663234  0.33326369  0.04769945  1
  Te  Te3  1  0.66664734  0.33329368  0.14014374  1
  Te  Te4  1  0.33335331  0.66670763  0.23529908  1
  Te  Te5  1  0.33336754  0.66673607  0.61101440  1
  Mo  Mo6  1  0.33330655  0.66661311  0.09390297  1
  Mo  Mo7  1  0.33331207  0.66662413  0.46966589  1
  W  W8  1  0.66668857  0.33337714  0.28182146  1
  W  W9  1  0.66669324  0.33338647  0.65753064  1
  Se  Se10  1  0.66664720  0.33329340  0.42877750  1
  Se  Se11  1  0.66664496  0.33328893  0.51055262  1
