# generated using pymatgen
data_Te2MoWSe2
_symmetry_space_group_name_H-M   'P 1'
_cell_length_a   3.43840350
_cell_length_b   3.43838013
_cell_length_c   39.14142179
_cell_angle_alpha   90.00029829
_cell_angle_beta   90.00000000
_cell_angle_gamma   120.00022487
_symmetry_Int_Tables_number   1
_chemical_formula_structural   Te2MoWSe2
_chemical_formula_sum   'Te4 Mo2 W2 Se4'
_cell_volume   400.75317604
_cell_formula_units_Z   2
loop_
 _symmetry_equiv_pos_site_id
 _symmetry_equiv_pos_as_xyz
  1  'x, y, z'
loop_
 _atom_site_type_symbol
 _atom_site_label
 _atom_site_symmetry_multiplicity
 _atom_site_fract_x
 _atom_site_fract_y
 _atom_site_fract_z
 _atom_site_occupancy
  Te  Te0  1  0.33335394  0.66670888  0.70493013  1
  Te  Te1  1  0.66664101  0.33328102  0.42192843  1
  Te  Te2  1  0.66664826  0.33329551  0.51731770  1
  Te  Te3  1  0.33335842  0.66671784  0.61017437  1
  Mo  Mo4  1  0.33330944  0.66661889  0.09392652  1
  Mo  Mo5  1  0.66669133  0.33338267  0.65758313  1
  W  W6  1  0.33331047  0.66662094  0.46965092  1
  W  W7  1  0.66668974  0.33337948  0.28181374  1
  Se  Se8  1  0.33335441  0.66670981  0.32371552  1
  Se  Se9  1  0.66664624  0.33329149  0.05209692  1
  Se  Se10  1  0.66664609  0.33329118  0.13574433  1
  Se  Se11  1  0.33335065  0.66670230  0.23986628  1
