# generated using pymatgen
data_Te3MoWSe
_symmetry_space_group_name_H-M   'P 1'
_cell_length_a   3.50053290
_cell_length_b   3.50054462
_cell_length_c   39.61816616
_cell_angle_alpha   90.00012355
_cell_angle_beta   90.00000000
_cell_angle_gamma   119.99988926
_symmetry_Int_Tables_number   1
_chemical_formula_structural   Te3MoWSe
_chemical_formula_sum   'Te6 Mo2 W2 Se2'
_cell_volume   420.43151899
_cell_formula_units_Z   2
loop_
 _symmetry_equiv_pos_site_id
 _symmetry_equiv_pos_as_xyz
  1  'x, y, z'
loop_
 _atom_site_type_symbol
 _atom_site_label
 _atom_site_symmetry_multiplicity
 _atom_site_fract_x
 _atom_site_fract_y
 _atom_site_fract_z
 _atom_site_occupancy
  Te  Te0  1  0.33335750  0.66671599  0.32828639  1
  Te  Te1  1  0.33336133  0.66672366  0.70403802  1
  Te  Te2  1  0.66664608  0.33329117  0.42346768  1
  Te  Te3  1  0.66664858  0.33329616  0.51586128  1
  Te  Te4  1  0.33335397  0.66670893  0.23528271  1
  Te  Te5  1  0.33335315  0.66670731  0.61102785  1
  Mo  Mo6  1  0.33330982  0.66661964  0.09391280  1
  Mo  Mo7  1  0.33331118  0.66662235  0.46966108  1
  W  W8  1  0.66668970  0.33337939  0.28177188  1
  W  W9  1  0.66669089  0.33338178  0.65755001  1
  Se  Se10  1  0.66663883  0.33327665  0.05310214  1
  Se  Se11  1  0.66663898  0.33327696  0.13478616  1
