# generated using pymatgen
data_Te2MoWSe2
_symmetry_space_group_name_H-M   'P 1'
_cell_length_a   3.43836048
_cell_length_b   3.43835264
_cell_length_c   39.16074503
_cell_angle_alpha   90.00094537
_cell_angle_beta   90.00000000
_cell_angle_gamma   120.00007543
_symmetry_Int_Tables_number   1
_chemical_formula_structural   Te2MoWSe2
_chemical_formula_sum   'Te4 Mo2 W2 Se4'
_cell_volume   400.94340088
_cell_formula_units_Z   2
loop_
 _symmetry_equiv_pos_site_id
 _symmetry_equiv_pos_as_xyz
  1  'x, y, z'
loop_
 _atom_site_type_symbol
 _atom_site_label
 _atom_site_symmetry_multiplicity
 _atom_site_fract_x
 _atom_site_fract_y
 _atom_site_fract_z
 _atom_site_occupancy
  Te  Te0  1  0.33335785  0.66671671  0.32913500  1
  Te  Te1  1  0.66664271  0.33328442  0.42203731  1
  Te  Te2  1  0.66664679  0.33329257  0.51736351  1
  Te  Te3  1  0.33334962  0.66670024  0.23438260  1
  Mo  Mo4  1  0.33330894  0.66661788  0.09392504  1
  Mo  Mo5  1  0.66668878  0.33337756  0.28175227  1
  W  W6  1  0.33330788  0.66661575  0.46968376  1
  W  W7  1  0.66669654  0.33339308  0.65753333  1
  Se  Se8  1  0.33335635  0.66671369  0.69945770  1
  Se  Se9  1  0.66664555  0.33329009  0.05213255  1
  Se  Se10  1  0.66664661  0.33329222  0.13571499  1
  Se  Se11  1  0.33335239  0.66670578  0.61562994  1
