# generated using pymatgen
data_Te4Mo3WSe4
_symmetry_space_group_name_H-M   'P 1'
_cell_length_a   3.43946920
_cell_length_b   3.43943078
_cell_length_c   39.09480640
_cell_angle_alpha   89.99964419
_cell_angle_beta   90.00000000
_cell_angle_gamma   120.00036951
_symmetry_Int_Tables_number   1
_chemical_formula_structural   Te4Mo3WSe4
_chemical_formula_sum   'Te4 Mo3 W1 Se4'
_cell_volume   400.52172671
_cell_formula_units_Z   1
loop_
 _symmetry_equiv_pos_site_id
 _symmetry_equiv_pos_as_xyz
  1  'x, y, z'
loop_
 _atom_site_type_symbol
 _atom_site_label
 _atom_site_symmetry_multiplicity
 _atom_site_fract_x
 _atom_site_fract_y
 _atom_site_fract_z
 _atom_site_occupancy
  Te  Te0  1  0.33336987  0.66674073  0.32918850  1
  Te  Te1  1  0.66664839  0.33329578  0.42198720  1
  Te  Te2  1  0.66664084  0.33328068  0.51740544  1
  Te  Te3  1  0.33335193  0.66670486  0.23433365  1
  Mo  Mo4  1  0.33331048  0.66662095  0.09391224  1
  Mo  Mo5  1  0.66669235  0.33338470  0.28174453  1
  Mo  Mo6  1  0.66668899  0.33337798  0.65753893  1
  W  W7  1  0.33331187  0.66662374  0.46971242  1
  Se  Se8  1  0.33335247  0.66670595  0.69936195  1
  Se  Se9  1  0.66662568  0.33325037  0.05211454  1
  Se  Se10  1  0.66664807  0.33329514  0.13574111  1
  Se  Se11  1  0.33335906  0.66671912  0.61570748  1
