# generated using pymatgen
data_Te2MoWSe2
_symmetry_space_group_name_H-M   'P 1'
_cell_length_a   3.43867623
_cell_length_b   3.43866001
_cell_length_c   39.11634169
_cell_angle_alpha   89.99984941
_cell_angle_beta   90.00000000
_cell_angle_gamma   120.00015612
_symmetry_Int_Tables_number   1
_chemical_formula_structural   Te2MoWSe2
_chemical_formula_sum   'Te4 Mo2 W2 Se4'
_cell_volume   400.56103853
_cell_formula_units_Z   2
loop_
 _symmetry_equiv_pos_site_id
 _symmetry_equiv_pos_as_xyz
  1  'x, y, z'
loop_
 _atom_site_type_symbol
 _atom_site_label
 _atom_site_symmetry_multiplicity
 _atom_site_fract_x
 _atom_site_fract_y
 _atom_site_fract_z
 _atom_site_occupancy
  Te  Te0  1  0.66663681  0.33327262  0.04650865  1
  Te  Te1  1  0.66663880  0.33327660  0.42195792  1
  Te  Te2  1  0.66664885  0.33329671  0.14133789  1
  Te  Te3  1  0.66665036  0.33329973  0.51737144  1
  Mo  Mo4  1  0.33331005  0.66662010  0.09390888  1
  Mo  Mo5  1  0.66668443  0.33336886  0.28177359  1
  W  W6  1  0.33331068  0.66662135  0.46963342  1
  W  W7  1  0.66669577  0.33339153  0.65753929  1
  Se  Se8  1  0.33334756  0.66669612  0.32365288  1
  Se  Se9  1  0.33335838  0.66671775  0.69947835  1
  Se  Se10  1  0.33334941  0.66669982  0.23997986  1
  Se  Se11  1  0.33336891  0.66673881  0.61560583  1
