# generated using pymatgen
data_Te2MoWSe2
_symmetry_space_group_name_H-M   'P 1'
_cell_length_a   3.43760899
_cell_length_b   3.43761087
_cell_length_c   39.14105512
_cell_angle_alpha   90.00077930
_cell_angle_beta   90.00000000
_cell_angle_gamma   119.99998202
_symmetry_Int_Tables_number   1
_chemical_formula_structural   Te2MoWSe2
_chemical_formula_sum   'Te4 Mo2 W2 Se4'
_cell_volume   400.56816346
_cell_formula_units_Z   2
loop_
 _symmetry_equiv_pos_site_id
 _symmetry_equiv_pos_as_xyz
  1  'x, y, z'
loop_
 _atom_site_type_symbol
 _atom_site_label
 _atom_site_symmetry_multiplicity
 _atom_site_fract_x
 _atom_site_fract_y
 _atom_site_fract_z
 _atom_site_occupancy
  Te  Te0  1  0.33335367  0.66670834  0.32942504  1
  Te  Te1  1  0.66664653  0.33329206  0.42233043  1
  Te  Te2  1  0.66664687  0.33329273  0.51705707  1
  Te  Te3  1  0.33335031  0.66670163  0.23407935  1
  Mo  Mo4  1  0.33330737  0.66661475  0.09393051  1
  Mo  Mo5  1  0.33331064  0.66662128  0.46970883  1
  W  W6  1  0.66668858  0.33337715  0.28177135  1
  W  W7  1  0.66669437  0.33338874  0.65754027  1
  Se  Se8  1  0.33335514  0.66671128  0.69946004  1
  Se  Se9  1  0.66664312  0.33328525  0.05212196  1
  Se  Se10  1  0.66664454  0.33328807  0.13570850  1
  Se  Se11  1  0.33335886  0.66671872  0.61561465  1
