# generated using pymatgen
data_Te3MoWSe
_symmetry_space_group_name_H-M   'P 1'
_cell_length_a   3.50032772
_cell_length_b   3.50032719
_cell_length_c   39.60830741
_cell_angle_alpha   90.00016456
_cell_angle_beta   90.00000000
_cell_angle_gamma   120.00000497
_symmetry_Int_Tables_number   1
_chemical_formula_structural   Te3MoWSe
_chemical_formula_sum   'Te6 Mo2 W2 Se2'
_cell_volume   420.27566434
_cell_formula_units_Z   2
loop_
 _symmetry_equiv_pos_site_id
 _symmetry_equiv_pos_as_xyz
  1  'x, y, z'
loop_
 _atom_site_type_symbol
 _atom_site_label
 _atom_site_symmetry_multiplicity
 _atom_site_fract_x
 _atom_site_fract_y
 _atom_site_fract_z
 _atom_site_occupancy
  Te  Te0  1  0.33335466  0.66671031  0.32800821  1
  Te  Te1  1  0.33335908  0.66671915  0.70404630  1
  Te  Te2  1  0.66664506  0.33328912  0.42315548  1
  Te  Te3  1  0.66664663  0.33329226  0.51616545  1
  Te  Te4  1  0.33335201  0.66670502  0.23556071  1
  Te  Te5  1  0.33336380  0.66672860  0.61102040  1
  Mo  Mo6  1  0.33330749  0.66661498  0.09391483  1
  Mo  Mo7  1  0.66668957  0.33337914  0.28177584  1
  W  W8  1  0.33330916  0.66661831  0.46966240  1
  W  W9  1  0.66669347  0.33338695  0.65755082  1
  Se  Se10  1  0.66664144  0.33328188  0.05307780  1
  Se  Se11  1  0.66663763  0.33327427  0.13480976  1
