# generated using pymatgen
data_Te2MoWSe2
_symmetry_space_group_name_H-M   'P 1'
_cell_length_a   3.43787007
_cell_length_b   3.43787380
_cell_length_c   39.09895751
_cell_angle_alpha   90.00049111
_cell_angle_beta   90.00000000
_cell_angle_gamma   119.99996397
_symmetry_Int_Tables_number   1
_chemical_formula_structural   Te2MoWSe2
_chemical_formula_sum   'Te4 Mo2 W2 Se4'
_cell_volume   400.19840843
_cell_formula_units_Z   2
loop_
 _symmetry_equiv_pos_site_id
 _symmetry_equiv_pos_as_xyz
  1  'x, y, z'
loop_
 _atom_site_type_symbol
 _atom_site_label
 _atom_site_symmetry_multiplicity
 _atom_site_fract_x
 _atom_site_fract_y
 _atom_site_fract_z
 _atom_site_occupancy
  Te  Te0  1  0.33335372  0.66670843  0.32922474  1
  Te  Te1  1  0.33335364  0.66670828  0.70524584  1
  Te  Te2  1  0.33335045  0.66670191  0.23437328  1
  Te  Te3  1  0.33335152  0.66670405  0.60983176  1
  Mo  Mo4  1  0.33331016  0.66662031  0.09390888  1
  Mo  Mo5  1  0.66668871  0.33337742  0.28178239  1
  W  W6  1  0.33331209  0.66662417  0.46965673  1
  W  W7  1  0.66669283  0.33338566  0.65754971  1
  Se  Se8  1  0.66664211  0.33328322  0.05211356  1
  Se  Se9  1  0.66664792  0.33329484  0.42769171  1
  Se  Se10  1  0.66664789  0.33329478  0.13575710  1
  Se  Se11  1  0.66664896  0.33329692  0.51161230  1
