# generated using pymatgen
data_Te3MoWSe
_symmetry_space_group_name_H-M   'P 1'
_cell_length_a   3.50002752
_cell_length_b   3.49999475
_cell_length_c   39.60452895
_cell_angle_alpha   89.99985991
_cell_angle_beta   90.00000000
_cell_angle_gamma   120.00030969
_symmetry_Int_Tables_number   1
_chemical_formula_structural   Te3MoWSe
_chemical_formula_sum   'Te6 Mo2 W2 Se2'
_cell_volume   420.15833270
_cell_formula_units_Z   2
loop_
 _symmetry_equiv_pos_site_id
 _symmetry_equiv_pos_as_xyz
  1  'x, y, z'
loop_
 _atom_site_type_symbol
 _atom_site_label
 _atom_site_symmetry_multiplicity
 _atom_site_fract_x
 _atom_site_fract_y
 _atom_site_fract_z
 _atom_site_occupancy
  Te  Te0  1  0.33336618  0.66673336  0.70403852  1
  Te  Te1  1  0.66663242  0.33326383  0.04770882  1
  Te  Te2  1  0.66664340  0.33328580  0.42316131  1
  Te  Te3  1  0.66664608  0.33329116  0.14015237  1
  Te  Te4  1  0.66664572  0.33329045  0.51615555  1
  Te  Te5  1  0.33336050  0.66672201  0.61103569  1
  Mo  Mo6  1  0.33330620  0.66661240  0.09392273  1
  Mo  Mo7  1  0.66668795  0.33337591  0.28179822  1
  W  W8  1  0.33330953  0.66661907  0.46963764  1
  W  W9  1  0.66669172  0.33338343  0.65755197  1
  Se  Se10  1  0.33335217  0.66670533  0.32264499  1
  Se  Se11  1  0.33335812  0.66671725  0.24094019  1
