# generated using pymatgen
data_SrMg30CrO32
_symmetry_space_group_name_H-M   'P 1'
_cell_length_a   8.65350477
_cell_length_b   8.58601388
_cell_length_c   8.58601388
_cell_angle_alpha   90.00000000
_cell_angle_beta   90.00000000
_cell_angle_gamma   90.00000000
_symmetry_Int_Tables_number   1
_chemical_formula_structural   SrMg30CrO32
_chemical_formula_sum   'Sr1 Mg30 Cr1 O32'
_cell_volume   637.93320747
_cell_formula_units_Z   1
loop_
 _symmetry_equiv_pos_site_id
 _symmetry_equiv_pos_as_xyz
  1  'x, y, z'
loop_
 _atom_site_type_symbol
 _atom_site_label
 _atom_site_symmetry_multiplicity
 _atom_site_fract_x
 _atom_site_fract_y
 _atom_site_fract_z
 _atom_site_occupancy
  Sr  Sr0  1  0.00000000  -0.00000000  0.00000000  1
  Mg  Mg1  1  0.00000000  -0.00000000  0.50000000  1
  Mg  Mg2  1  0.00000000  0.50000000  0.00000000  1
  Mg  Mg3  1  0.50000000  -0.00000000  0.00000000  1
  Mg  Mg4  1  0.50000000  -0.00000000  0.50000000  1
  Mg  Mg5  1  0.50000000  0.50000000  -0.00000000  1
  Mg  Mg6  1  0.50000000  0.50000000  0.50000000  1
  Mg  Mg7  1  0.00000000  0.25406356  0.25406356  1
  Mg  Mg8  1  0.00000000  0.25406356  0.74593644  1
  Mg  Mg9  1  0.00000000  0.74593644  0.25406356  1
  Mg  Mg10  1  0.00000000  0.74593644  0.74593644  1
  Mg  Mg11  1  0.50000000  0.25039820  0.25039820  1
  Mg  Mg12  1  0.50000000  0.25039820  0.74960180  1
  Mg  Mg13  1  0.50000000  0.74960180  0.25039820  1
  Mg  Mg14  1  0.50000000  0.74960180  0.74960180  1
  Mg  Mg15  1  0.25526664  -0.00000000  0.25502344  1
  Mg  Mg16  1  0.25526664  -0.00000000  0.74497656  1
  Mg  Mg17  1  0.25190556  0.50000000  0.25073817  1
  Mg  Mg18  1  0.25190556  0.50000000  0.74926183  1
  Mg  Mg19  1  0.74473336  -0.00000000  0.25502344  1
  Mg  Mg20  1  0.74473336  -0.00000000  0.74497656  1
  Mg  Mg21  1  0.74809444  0.50000000  0.25073817  1
  Mg  Mg22  1  0.74809444  0.50000000  0.74926183  1
  Mg  Mg23  1  0.25526664  0.25502344  0.00000000  1
  Mg  Mg24  1  0.25190556  0.25073817  0.50000000  1
  Mg  Mg25  1  0.25526664  0.74497656  -0.00000000  1
  Mg  Mg26  1  0.25190556  0.74926183  0.50000000  1
  Mg  Mg27  1  0.74473336  0.25502344  0.00000000  1
  Mg  Mg28  1  0.74809444  0.25073817  0.50000000  1
  Mg  Mg29  1  0.74473336  0.74497656  -0.00000000  1
  Mg  Mg30  1  0.74809444  0.74926183  0.50000000  1
  Cr  Cr31  1  0.00000000  0.50000000  0.50000000  1
  O  O32  1  0.26983279  -0.00000000  0.00000000  1
  O  O33  1  0.25306814  -0.00000000  0.50000000  1
  O  O34  1  0.25306814  0.50000000  -0.00000000  1
  O  O35  1  0.26440422  0.50000000  0.50000000  1
  O  O36  1  0.73016721  -0.00000000  -0.00000000  1
  O  O37  1  0.74693186  -0.00000000  0.50000000  1
  O  O38  1  0.74693186  0.50000000  -0.00000000  1
  O  O39  1  0.73559578  0.50000000  0.50000000  1
  O  O40  1  0.24887331  0.24959654  0.24959654  1
  O  O41  1  0.24887331  0.24959654  0.75040346  1
  O  O42  1  0.24887331  0.75040346  0.24959654  1
  O  O43  1  0.24887331  0.75040346  0.75040346  1
  O  O44  1  0.75112669  0.24959654  0.24959654  1
  O  O45  1  0.75112669  0.24959654  0.75040346  1
  O  O46  1  0.75112669  0.75040346  0.24959654  1
  O  O47  1  0.75112669  0.75040346  0.75040346  1
  O  O48  1  0.00000000  -0.00000000  0.27013558  1
  O  O49  1  0.00000000  -0.00000000  0.72986442  1
  O  O50  1  0.00000000  0.50000000  0.25195717  1
  O  O51  1  0.00000000  0.50000000  0.74804283  1
  O  O52  1  0.50000000  -0.00000000  0.25319328  1
  O  O53  1  0.50000000  -0.00000000  0.74680672  1
  O  O54  1  0.50000000  0.50000000  0.24840398  1
  O  O55  1  0.50000000  0.50000000  0.75159602  1
  O  O56  1  0.00000000  0.27013558  0.00000000  1
  O  O57  1  0.00000000  0.25195717  0.50000000  1
  O  O58  1  0.00000000  0.72986442  -0.00000000  1
  O  O59  1  0.00000000  0.74804283  0.50000000  1
  O  O60  1  0.50000000  0.25319328  0.00000000  1
  O  O61  1  0.50000000  0.24840398  0.50000000  1
  O  O62  1  0.50000000  0.74680672  0.00000000  1
  O  O63  1  0.50000000  0.75159602  0.50000000  1
