# generated using pymatgen
data_Gd(GaFe)6
_symmetry_space_group_name_H-M   'P 1'
_cell_length_a   5.07329174
_cell_length_b   6.44514056
_cell_length_c   6.60601373
_cell_angle_alpha   98.69236238
_cell_angle_beta   112.58108140
_cell_angle_gamma   66.82286933
_symmetry_Int_Tables_number   1
_chemical_formula_structural   Gd(GaFe)6
_chemical_formula_sum   'Gd1 Ga6 Fe6'
_cell_volume   183.34779367
_cell_formula_units_Z   1
loop_
 _symmetry_equiv_pos_site_id
 _symmetry_equiv_pos_as_xyz
  1  'x, y, z'
loop_
 _atom_site_type_symbol
 _atom_site_label
 _atom_site_symmetry_multiplicity
 _atom_site_fract_x
 _atom_site_fract_y
 _atom_site_fract_z
 _atom_site_occupancy
  Gd  Gd0  1  0.00000000  -0.00000000  -0.00000000  1
  Ga  Ga1  1  0.50000000  0.50000000  -0.00000000  1
  Ga  Ga2  1  0.00000000  0.50000000  -0.00000000  1
  Ga  Ga3  1  0.64880640  0.33434845  0.63196125  1
  Ga  Ga4  1  0.35119360  0.66565155  0.36803875  1
  Ga  Ga5  1  0.01684515  0.33434845  0.36803875  1
  Ga  Ga6  1  0.98315485  0.66565155  0.63196125  1
  Fe  Fe7  1  0.71290409  0.79379554  0.21960372  1
  Fe  Fe8  1  0.28709591  0.20620446  0.78039628  1
  Fe  Fe9  1  0.49330037  0.79379554  0.78039628  1
  Fe  Fe10  1  0.50669963  0.20620446  0.21960372  1
  Fe  Fe11  1  0.50000000  -0.00000000  0.50000000  1
  Fe  Fe12  1  0.00000000  -0.00000000  0.50000000  1
