# generated using pymatgen
data_Mg30AlZnO32
_symmetry_space_group_name_H-M   'P 1'
_cell_length_a   8.54498632
_cell_length_b   8.54738432
_cell_length_c   8.54738432
_cell_angle_alpha   90.00000000
_cell_angle_beta   90.00000000
_cell_angle_gamma   90.00000000
_symmetry_Int_Tables_number   1
_chemical_formula_structural   Mg30AlZnO32
_chemical_formula_sum   'Mg30 Al1 Zn1 O32'
_cell_volume   624.27771968
_cell_formula_units_Z   1
loop_
 _symmetry_equiv_pos_site_id
 _symmetry_equiv_pos_as_xyz
  1  'x, y, z'
loop_
 _atom_site_type_symbol
 _atom_site_label
 _atom_site_symmetry_multiplicity
 _atom_site_fract_x
 _atom_site_fract_y
 _atom_site_fract_z
 _atom_site_occupancy
  Mg  Mg0  1  0.00000000  0.00000000  0.50000000  1
  Mg  Mg1  1  0.00000000  0.50000000  0.00000000  1
  Mg  Mg2  1  0.50000000  0.00000000  0.00000000  1
  Mg  Mg3  1  0.50000000  0.00000000  0.50000000  1
  Mg  Mg4  1  0.50000000  0.50000000  0.00000000  1
  Mg  Mg5  1  0.50000000  0.50000000  0.50000000  1
  Mg  Mg6  1  0.00000000  0.25125739  0.25125739  1
  Mg  Mg7  1  0.00000000  0.25125739  0.74874261  1
  Mg  Mg8  1  0.00000000  0.74874261  0.25125739  1
  Mg  Mg9  1  0.00000000  0.74874261  0.74874261  1
  Mg  Mg10  1  0.50000000  0.25075364  0.25075364  1
  Mg  Mg11  1  0.50000000  0.25075364  0.74924636  1
  Mg  Mg12  1  0.50000000  0.74924636  0.25075364  1
  Mg  Mg13  1  0.50000000  0.74924636  0.74924636  1
  Mg  Mg14  1  0.25054445  0.00000000  0.25098134  1
  Mg  Mg15  1  0.25054445  0.00000000  0.74901866  1
  Mg  Mg16  1  0.25013440  0.50000000  0.25085644  1
  Mg  Mg17  1  0.25013440  0.50000000  0.74914356  1
  Mg  Mg18  1  0.74945555  0.00000000  0.25098134  1
  Mg  Mg19  1  0.74945555  0.00000000  0.74901866  1
  Mg  Mg20  1  0.74986560  0.50000000  0.25085644  1
  Mg  Mg21  1  0.74986560  0.50000000  0.74914356  1
  Mg  Mg22  1  0.25054445  0.25098134  0.00000000  1
  Mg  Mg23  1  0.25013440  0.25085644  0.50000000  1
  Mg  Mg24  1  0.25054445  0.74901866  0.00000000  1
  Mg  Mg25  1  0.25013440  0.74914356  0.50000000  1
  Mg  Mg26  1  0.74945555  0.25098134  -0.00000000  1
  Mg  Mg27  1  0.74986560  0.25085644  0.50000000  1
  Mg  Mg28  1  0.74945555  0.74901866  -0.00000000  1
  Mg  Mg29  1  0.74986560  0.74914356  0.50000000  1
  Al  Al30  1  0.00000000  0.00000000  0.00000000  1
  Zn  Zn31  1  0.00000000  0.50000000  0.50000000  1
  O  O32  1  0.23532773  0.00000000  -0.00000000  1
  O  O33  1  0.24893170  0.00000000  0.50000000  1
  O  O34  1  0.24893170  0.50000000  -0.00000000  1
  O  O35  1  0.25637403  0.50000000  0.50000000  1
  O  O36  1  0.76467227  0.00000000  0.00000000  1
  O  O37  1  0.75106830  0.00000000  0.50000000  1
  O  O38  1  0.75106830  0.50000000  0.00000000  1
  O  O39  1  0.74362597  0.50000000  0.50000000  1
  O  O40  1  0.24961921  0.24954424  0.24954424  1
  O  O41  1  0.24961921  0.24954424  0.75045576  1
  O  O42  1  0.24961921  0.75045576  0.24954424  1
  O  O43  1  0.24961921  0.75045576  0.75045576  1
  O  O44  1  0.75038079  0.24954424  0.24954424  1
  O  O45  1  0.75038079  0.24954424  0.75045576  1
  O  O46  1  0.75038079  0.75045576  0.24954424  1
  O  O47  1  0.75038079  0.75045576  0.75045576  1
  O  O48  1  0.00000000  0.00000000  0.23334132  1
  O  O49  1  0.00000000  0.00000000  0.76665868  1
  O  O50  1  0.00000000  0.50000000  0.24037459  1
  O  O51  1  0.00000000  0.50000000  0.75962541  1
  O  O52  1  0.50000000  0.00000000  0.24716750  1
  O  O53  1  0.50000000  0.00000000  0.75283250  1
  O  O54  1  0.50000000  0.50000000  0.24832508  1
  O  O55  1  0.50000000  0.50000000  0.75167492  1
  O  O56  1  0.00000000  0.23334132  -0.00000000  1
  O  O57  1  0.00000000  0.24037459  0.50000000  1
  O  O58  1  0.00000000  0.76665868  0.00000000  1
  O  O59  1  0.00000000  0.75962541  0.50000000  1
  O  O60  1  0.50000000  0.24716750  0.00000000  1
  O  O61  1  0.50000000  0.24832508  0.50000000  1
  O  O62  1  0.50000000  0.75283250  -0.00000000  1
  O  O63  1  0.50000000  0.75167492  0.50000000  1
