# generated using pymatgen
data_KMg30FeO32
_symmetry_space_group_name_H-M   'P 1'
_cell_length_a   8.58519866
_cell_length_b   8.57913649
_cell_length_c   8.57913649
_cell_angle_alpha   90.00000000
_cell_angle_beta   90.00000000
_cell_angle_gamma   90.00000000
_symmetry_Int_Tables_number   1
_chemical_formula_structural   KMg30FeO32
_chemical_formula_sum   'K1 Mg30 Fe1 O32'
_cell_volume   631.88421101
_cell_formula_units_Z   1
loop_
 _symmetry_equiv_pos_site_id
 _symmetry_equiv_pos_as_xyz
  1  'x, y, z'
loop_
 _atom_site_type_symbol
 _atom_site_label
 _atom_site_symmetry_multiplicity
 _atom_site_fract_x
 _atom_site_fract_y
 _atom_site_fract_z
 _atom_site_occupancy
  K  K0  1  -0.00000000  0.50000000  0.50000000  1
  Mg  Mg1  1  -0.00000000  -0.00000000  0.50000000  1
  Mg  Mg2  1  -0.00000000  0.50000000  0.00000000  1
  Mg  Mg3  1  0.50000000  -0.00000000  0.00000000  1
  Mg  Mg4  1  0.50000000  -0.00000000  0.50000000  1
  Mg  Mg5  1  0.50000000  0.50000000  0.00000000  1
  Mg  Mg6  1  0.50000000  0.50000000  0.50000000  1
  Mg  Mg7  1  -0.00000000  0.25170438  0.25170438  1
  Mg  Mg8  1  -0.00000000  0.25170438  0.74829562  1
  Mg  Mg9  1  -0.00000000  0.74829562  0.25170438  1
  Mg  Mg10  1  -0.00000000  0.74829562  0.74829562  1
  Mg  Mg11  1  0.50000000  0.25128010  0.25128010  1
  Mg  Mg12  1  0.50000000  0.25128010  0.74871990  1
  Mg  Mg13  1  0.50000000  0.74871990  0.25128010  1
  Mg  Mg14  1  0.50000000  0.74871990  0.74871990  1
  Mg  Mg15  1  0.25157725  -0.00000000  0.25282594  1
  Mg  Mg16  1  0.25157725  -0.00000000  0.74717406  1
  Mg  Mg17  1  0.25124750  0.50000000  0.25003254  1
  Mg  Mg18  1  0.25124750  0.50000000  0.74996746  1
  Mg  Mg19  1  0.74842275  -0.00000000  0.25282594  1
  Mg  Mg20  1  0.74842275  -0.00000000  0.74717406  1
  Mg  Mg21  1  0.74875250  0.50000000  0.25003254  1
  Mg  Mg22  1  0.74875250  0.50000000  0.74996746  1
  Mg  Mg23  1  0.25157725  0.25282594  0.00000000  1
  Mg  Mg24  1  0.25124750  0.25003254  0.50000000  1
  Mg  Mg25  1  0.25157725  0.74717406  0.00000000  1
  Mg  Mg26  1  0.25124750  0.74996746  0.50000000  1
  Mg  Mg27  1  0.74842275  0.25282594  0.00000000  1
  Mg  Mg28  1  0.74875250  0.25003254  0.50000000  1
  Mg  Mg29  1  0.74842275  0.74717406  0.00000000  1
  Mg  Mg30  1  0.74875250  0.74996746  0.50000000  1
  Fe  Fe31  1  -0.00000000  -0.00000000  0.00000000  1
  O  O32  1  0.24476426  -0.00000000  0.00000000  1
  O  O33  1  0.25245034  -0.00000000  0.50000000  1
  O  O34  1  0.25245034  0.50000000  0.00000000  1
  O  O35  1  0.27307899  0.50000000  0.50000000  1
  O  O36  1  0.75523574  -0.00000000  0.00000000  1
  O  O37  1  0.74754966  -0.00000000  0.50000000  1
  O  O38  1  0.74754966  0.50000000  0.00000000  1
  O  O39  1  0.72692101  0.50000000  0.50000000  1
  O  O40  1  0.24910017  0.24928827  0.24928827  1
  O  O41  1  0.24910017  0.24928827  0.75071173  1
  O  O42  1  0.24910017  0.75071173  0.24928827  1
  O  O43  1  0.24910017  0.75071173  0.75071173  1
  O  O44  1  0.75089983  0.24928827  0.24928827  1
  O  O45  1  0.75089983  0.24928827  0.75071173  1
  O  O46  1  0.75089983  0.75071173  0.24928827  1
  O  O47  1  0.75089983  0.75071173  0.75071173  1
  O  O48  1  -0.00000000  -0.00000000  0.24023426  1
  O  O49  1  -0.00000000  -0.00000000  0.75976574  1
  O  O50  1  -0.00000000  0.50000000  0.22593844  1
  O  O51  1  -0.00000000  0.50000000  0.77406156  1
  O  O52  1  0.50000000  -0.00000000  0.24744401  1
  O  O53  1  0.50000000  -0.00000000  0.75255599  1
  O  O54  1  0.50000000  0.50000000  0.24562254  1
  O  O55  1  0.50000000  0.50000000  0.75437746  1
  O  O56  1  -0.00000000  0.24023426  0.00000000  1
  O  O57  1  -0.00000000  0.22593844  0.50000000  1
  O  O58  1  -0.00000000  0.75976574  0.00000000  1
  O  O59  1  -0.00000000  0.77406156  0.50000000  1
  O  O60  1  0.50000000  0.24744401  0.00000000  1
  O  O61  1  0.50000000  0.24562254  0.50000000  1
  O  O62  1  0.50000000  0.75255599  0.00000000  1
  O  O63  1  0.50000000  0.75437746  0.50000000  1
