# generated using pymatgen
data_CaLaMg6
_symmetry_space_group_name_H-M   'P 1'
_cell_length_a   6.76108450
_cell_length_b   7.31639362
_cell_length_c   5.35272135
_cell_angle_alpha   90.00000000
_cell_angle_beta   90.00000000
_cell_angle_gamma   122.75628089
_symmetry_Int_Tables_number   1
_chemical_formula_structural   CaLaMg6
_chemical_formula_sum   'Ca1 La1 Mg6'
_cell_volume   222.67608502
_cell_formula_units_Z   1
loop_
 _symmetry_equiv_pos_site_id
 _symmetry_equiv_pos_as_xyz
  1  'x, y, z'
loop_
 _atom_site_type_symbol
 _atom_site_label
 _atom_site_symmetry_multiplicity
 _atom_site_fract_x
 _atom_site_fract_y
 _atom_site_fract_z
 _atom_site_occupancy
  Ca  Ca0  1  0.17626488  0.33813194  0.25000000  1
  La  La1  1  0.18991187  0.84495543  0.25000000  1
  Mg  Mg2  1  0.66896376  0.34122164  0.25000000  1
  Mg  Mg3  1  0.66896376  0.82774112  0.25000000  1
  Mg  Mg4  1  0.33776208  0.16991081  0.75000000  1
  Mg  Mg5  1  0.33776208  0.66785228  0.75000000  1
  Mg  Mg6  1  0.80565263  0.15282681  0.75000000  1
  Mg  Mg7  1  0.81471894  0.65735997  0.75000000  1
