# generated using pymatgen
data_Zn(NiO2)2
_symmetry_space_group_name_H-M   'P 1'
_cell_length_a   5.86648836
_cell_length_b   5.87357991
_cell_length_c   17.75525201
_cell_angle_alpha   59.46277939
_cell_angle_beta   59.76715033
_cell_angle_gamma   60.81655806
_symmetry_Int_Tables_number   1
_chemical_formula_structural   Zn(NiO2)2
_chemical_formula_sum   'Zn6 Ni12 O24'
_cell_volume   432.62454849
_cell_formula_units_Z   6
loop_
 _symmetry_equiv_pos_site_id
 _symmetry_equiv_pos_as_xyz
  1  'x, y, z'
loop_
 _atom_site_type_symbol
 _atom_site_label
 _atom_site_symmetry_multiplicity
 _atom_site_fract_x
 _atom_site_fract_y
 _atom_site_fract_z
 _atom_site_occupancy
  Zn  Zn0  1  0.11459242  0.13115896  0.04444713  1
  Zn  Zn1  1  0.12210292  0.12060235  0.37862668  1
  Zn  Zn2  1  0.50425557  0.50003619  0.99893983  1
  Zn  Zn3  1  0.10979023  0.13981696  0.70938838  1
  Zn  Zn4  1  0.87465480  0.87673781  0.28845401  1
  Zn  Zn5  1  0.88566500  0.87041090  0.62415629  1
  Ni  Ni6  1  0.99895188  0.49952247  0.16682075  1
  Ni  Ni7  1  0.49781424  0.50015314  0.16695428  1
  Ni  Ni8  1  0.00039773  0.49432819  0.50143037  1
  Ni  Ni9  1  0.49718845  0.99751386  0.16803125  1
  Ni  Ni10  1  0.49604248  0.49496561  0.33542106  1
  Ni  Ni11  1  0.50384563  0.49543543  0.50006746  1
  Ni  Ni12  1  0.00280907  0.50575057  0.83200465  1
  Ni  Ni13  1  0.50314921  0.99704299  0.50020417  1
  Ni  Ni14  1  0.49869887  0.00232258  0.83282399  1
  Ni  Ni15  1  0.49809349  0.50911238  0.66582952  1
  Ni  Ni16  1  0.49820976  0.50485111  0.83203906  1
  Ni  Ni17  1  0.88760864  0.86629016  0.95489544  1
  O  O18  1  0.25239319  0.24924149  0.09624240  1
  O  O19  1  0.26413717  0.26956876  0.24165196  1
  O  O20  1  0.25430077  0.71908685  0.09122080  1
  O  O21  1  0.70701959  0.25642904  0.09496582  1
  O  O22  1  0.28900736  0.73544020  0.24370995  1
  O  O23  1  0.23732618  0.26785908  0.42735611  1
  O  O24  1  0.73613794  0.28921212  0.24321471  1
  O  O25  1  0.73544884  0.73051656  0.08986443  1
  O  O26  1  0.26387680  0.70720561  0.42607474  1
  O  O27  1  0.28108632  0.25085371  0.57254358  1
  O  O28  1  0.74175510  0.74039447  0.24002535  1
  O  O29  1  0.71557581  0.24213505  0.42031989  1
  O  O30  1  0.29478352  0.74525142  0.58153177  1
  O  O31  1  0.24503179  0.29234132  0.75220463  1
  O  O32  1  0.73838218  0.28286380  0.57613448  1
  O  O33  1  0.72512854  0.74343635  0.42732043  1
  O  O34  1  0.24251199  0.27189033  0.90545286  1
  O  O35  1  0.24434243  0.72573702  0.75764373  1
  O  O36  1  0.75826099  0.71842878  0.57853274  1
  O  O37  1  0.70063277  0.29282061  0.75048203  1
  O  O38  1  0.28590655  0.72268668  0.90949625  1
  O  O39  1  0.75860085  0.73138196  0.76179301  1
  O  O40  1  0.76499693  0.28120484  0.90449816  1
  O  O41  1  0.76948501  0.72796532  0.90718490  1
