# generated using pymatgen
data_V2ZnP2O9
_symmetry_space_group_name_H-M   'P 1'
_cell_length_a   6.30484698
_cell_length_b   7.44561240
_cell_length_c   14.32497591
_cell_angle_alpha   90.00323955
_cell_angle_beta   89.99990181
_cell_angle_gamma   89.99921159
_symmetry_Int_Tables_number   1
_chemical_formula_structural   V2ZnP2O9
_chemical_formula_sum   'V8 Zn4 P8 O36'
_cell_volume   672.46374477
_cell_formula_units_Z   4
loop_
 _symmetry_equiv_pos_site_id
 _symmetry_equiv_pos_as_xyz
  1  'x, y, z'
loop_
 _atom_site_type_symbol
 _atom_site_label
 _atom_site_symmetry_multiplicity
 _atom_site_fract_x
 _atom_site_fract_y
 _atom_site_fract_z
 _atom_site_occupancy
  V  V0  1  0.75000109  0.35283011  0.87760096  1
  V  V1  1  0.24999285  0.64715664  0.12240149  1
  V  V2  1  0.25001369  0.85284511  0.62239268  1
  V  V3  1  0.74998640  0.14713917  0.37760609  1
  V  V4  1  0.50000622  0.99999718  0.00000291  1
  V  V5  1  0.50000579  0.49999442  0.49999447  1
  V  V6  1  0.00000556  0.49999835  0.49999548  1
  V  V7  1  -0.00000305  -0.00000132  0.00000189  1
  Zn  Zn8  1  0.75000497  0.92948168  0.76877237  1
  Zn  Zn9  1  0.74999183  0.57044996  0.26875457  1
  Zn  Zn10  1  0.25000225  0.42959243  0.73123886  1
  Zn  Zn11  1  0.24999300  0.07056816  0.23122904  1
  P  P12  1  0.24999925  0.36638735  0.92936142  1
  P  P13  1  0.74999656  0.63360893  0.07064055  1
  P  P14  1  0.75000566  0.86639632  0.57063566  1
  P  P15  1  0.24999450  0.13359212  0.42936253  1
  P  P16  1  0.75000323  0.38641301  0.69416762  1
  P  P17  1  0.75000073  0.11362052  0.19416298  1
  P  P18  1  0.24999821  0.88638436  0.80583769  1
  P  P19  1  0.25000017  0.61359731  0.30583154  1
  O  O20  1  0.03912588  0.60511501  0.36399372  1
  O  O21  1  0.53913572  0.39491113  0.63600543  1
  O  O22  1  0.96087238  0.10516891  0.13600364  1
  O  O23  1  0.46086921  0.89485542  0.86399744  1
  O  O24  1  0.96087648  0.39491737  0.63600603  1
  O  O25  1  0.46087471  0.60511920  0.36399214  1
  O  O26  1  0.03912754  0.89484925  0.86399630  1
  O  O27  1  0.53912477  0.10516014  0.13600517  1
  O  O28  1  0.25000620  0.32292506  0.47491280  1
  O  O29  1  0.74999979  0.67706500  0.52507885  1
  O  O30  1  0.75000349  0.82294468  0.02510102  1
  O  O31  1  0.24999666  0.17705173  0.97490683  1
  O  O32  1  0.74999817  0.13230388  0.95285879  1
  O  O33  1  0.25000355  0.86768729  0.04714529  1
  O  O34  1  0.25000047  0.63232694  0.54712662  1
  O  O35  1  0.75001359  0.36766663  0.45286290  1
  O  O36  1  0.75000949  0.20684573  0.75299079  1
  O  O37  1  0.24998769  0.79315440  0.24699933  1
  O  O38  1  0.25001310  0.70682694  0.74699036  1
  O  O39  1  0.74998457  0.29317118  0.25301600  1
  O  O40  1  0.43766589  0.12213096  0.35865374  1
  O  O41  1  0.93768110  0.87783041  0.64134587  1
  O  O42  1  0.56232564  0.62216119  0.14134661  1
  O  O43  1  0.06232521  0.37783781  0.85865465  1
  O  O44  1  0.56233510  0.87783895  0.64134977  1
  O  O45  1  0.06231902  0.12214392  0.35865605  1
  O  O46  1  0.43767059  0.37783334  0.85865365  1
  O  O47  1  0.93766938  0.62214701  0.14134524  1
  O  O48  1  0.74999434  0.48840071  0.99859649  1
  O  O49  1  0.24998875  0.03807537  0.73200288  1
  O  O50  1  0.25000762  0.46188130  0.23199495  1
  O  O51  1  0.74999889  0.53810418  0.76801785  1
  O  O52  1  0.74999403  0.01160297  0.49860973  1
  O  O53  1  0.25000187  0.98838517  0.50139789  1
  O  O54  1  0.25000038  0.51159212  0.00140304  1
  O  O55  1  0.75001581  0.96191192  0.26798932  1
