# generated using pymatgen
data_MgFe2(PO4)2
_symmetry_space_group_name_H-M   'P 1'
_cell_length_a   5.12891265
_cell_length_b   8.87978516
_cell_length_c   14.56630129
_cell_angle_alpha   86.18663468
_cell_angle_beta   79.86000213
_cell_angle_gamma   73.21404190
_symmetry_Int_Tables_number   1
_chemical_formula_structural   MgFe2(PO4)2
_chemical_formula_sum   'Mg4 Fe8 P8 O32'
_cell_volume   625.12821097
_cell_formula_units_Z   4
loop_
 _symmetry_equiv_pos_site_id
 _symmetry_equiv_pos_as_xyz
  1  'x, y, z'
loop_
 _atom_site_type_symbol
 _atom_site_label
 _atom_site_symmetry_multiplicity
 _atom_site_fract_x
 _atom_site_fract_y
 _atom_site_fract_z
 _atom_site_occupancy
  Mg  Mg0  1  0.44082254  0.82438136  0.87640613  1
  Mg  Mg1  1  0.14161003  0.67561864  0.62359387  1
  Mg  Mg2  1  0.85838997  0.32438136  0.37640613  1
  Mg  Mg3  1  0.55917746  0.17561864  0.12359387  1
  Fe  Fe4  1  0.20379563  0.22437024  0.96601510  1
  Fe  Fe5  1  0.39417997  0.27562976  0.53398490  1
  Fe  Fe6  1  0.79620437  0.77562976  0.03398490  1
  Fe  Fe7  1  0.50000000  0.50000000  0.00000000  1
  Fe  Fe8  1  0.60582003  0.72437024  0.46601510  1
  Fe  Fe9  1  0.57480148  0.75000000  0.25000000  1
  Fe  Fe10  1  0.42519852  0.25000000  0.75000000  1
  Fe  Fe11  1  -0.00000000  -0.00000000  0.50000000  1
  P  P12  1  0.06353105  0.56803268  0.85583640  1
  P  P13  1  0.77813142  0.43078280  0.61120452  1
  P  P14  1  0.93646895  0.43196732  0.14416360  1
  P  P15  1  0.17988225  0.93078280  0.11120452  1
  P  P16  1  0.51260087  0.06803268  0.35583640  1
  P  P17  1  0.48739913  0.93196732  0.64416360  1
  P  P18  1  0.22186858  0.56921720  0.38879548  1
  P  P19  1  0.82011775  0.06921720  0.88879548  1
  O  O20  1  0.72509225  0.37518603  0.09947961  1
  O  O21  1  0.73928918  0.91463224  0.91944527  1
  O  O22  1  0.80024211  0.87518603  0.59947961  1
  O  O23  1  0.80897568  0.29654184  0.54110449  1
  O  O24  1  0.21505396  0.38711837  0.07248156  1
  O  O25  1  0.65804253  0.39444819  0.71019451  1
  O  O26  1  0.64662302  0.20345816  0.95889551  1
  O  O27  1  0.86792485  0.95693282  0.10465622  1
  O  O28  1  0.19102432  0.70345816  0.45889551  1
  O  O29  1  0.57336669  0.58536776  0.58055473  1
  O  O30  1  0.84283161  0.61761552  0.14409356  1
  O  O31  1  0.56831493  0.14166886  0.26118404  1
  O  O32  1  0.26071082  0.08536776  0.08055473  1
  O  O33  1  0.07048812  0.45693282  0.60465622  1
  O  O34  1  0.27490675  0.62481397  0.90052039  1
  O  O35  1  0.15716839  0.38238448  0.85590644  1
  O  O36  1  0.02883117  0.64166886  0.76118404  1
  O  O37  1  0.35337698  0.79654184  0.04110449  1
  O  O38  1  0.39545931  0.11761552  0.64409356  1
  O  O39  1  0.43168507  0.85833114  0.73881596  1
  O  O40  1  0.92951188  0.54306718  0.39534378  1
  O  O41  1  0.32534611  0.88711837  0.57248156  1
  O  O42  1  0.13207515  0.04306718  0.89534378  1
  O  O43  1  0.23731377  0.89444819  0.21019451  1
  O  O44  1  0.42663331  0.41463224  0.41944527  1
  O  O45  1  0.19975789  0.12481397  0.40052039  1
  O  O46  1  0.97116883  0.35833114  0.23881596  1
  O  O47  1  0.67465389  0.11288163  0.42751844  1
  O  O48  1  0.78494604  0.61288163  0.92751844  1
  O  O49  1  0.76268623  0.10555181  0.78980549  1
  O  O50  1  0.34195747  0.60555181  0.28980549  1
  O  O51  1  0.60454069  0.88238448  0.35590644  1
