# generated using pymatgen
data_Ca5Mg
_symmetry_space_group_name_H-M   'P 1'
_cell_length_a   14.37452631
_cell_length_b   3.81862820
_cell_length_c   8.83748033
_cell_angle_alpha   90.00000000
_cell_angle_beta   105.71999396
_cell_angle_gamma   90.00000000
_symmetry_Int_Tables_number   1
_chemical_formula_structural   Ca5Mg
_chemical_formula_sum   'Ca10 Mg2'
_cell_volume   466.95389073
_cell_formula_units_Z   2
loop_
 _symmetry_equiv_pos_site_id
 _symmetry_equiv_pos_as_xyz
  1  'x, y, z'
loop_
 _atom_site_type_symbol
 _atom_site_label
 _atom_site_symmetry_multiplicity
 _atom_site_fract_x
 _atom_site_fract_y
 _atom_site_fract_z
 _atom_site_occupancy
  Ca  Ca0  1  0.99475143  0.00000000  0.01421248  1
  Ca  Ca1  1  0.17500219  0.50000000  0.33028159  1
  Ca  Ca2  1  0.04870884  0.00000000  0.59368973  1
  Ca  Ca3  1  0.33332422  -0.00000000  0.66345237  1
  Ca  Ca4  1  0.22637102  0.50000000  0.95443145  1
  Ca  Ca5  1  0.49475143  0.50000000  0.01421248  1
  Ca  Ca6  1  0.67500219  0.00000000  0.33028159  1
  Ca  Ca7  1  0.54870884  0.50000000  0.59368973  1
  Ca  Ca8  1  0.83332422  0.50000000  0.66345237  1
  Ca  Ca9  1  0.72637102  0.00000000  0.95443145  1
  Mg  Mg10  1  0.38850930  -0.00000000  0.27726537  1
  Mg  Mg11  1  0.88850930  0.50000000  0.27726537  1
