# generated using pymatgen
data_CeMg
_symmetry_space_group_name_H-M   'P 1'
_cell_length_a   12.53287156
_cell_length_b   3.14226028
_cell_length_c   7.99955798
_cell_angle_alpha   90.00000000
_cell_angle_beta   103.04852314
_cell_angle_gamma   90.00000000
_symmetry_Int_Tables_number   1
_chemical_formula_structural   CeMg
_chemical_formula_sum   'Ce6 Mg6'
_cell_volume   306.90049618
_cell_formula_units_Z   6
loop_
 _symmetry_equiv_pos_site_id
 _symmetry_equiv_pos_as_xyz
  1  'x, y, z'
loop_
 _atom_site_type_symbol
 _atom_site_label
 _atom_site_symmetry_multiplicity
 _atom_site_fract_x
 _atom_site_fract_y
 _atom_site_fract_z
 _atom_site_occupancy
  Ce  Ce0  1  0.38090911  0.00000000  0.29937604  1
  Ce  Ce1  1  0.17746756  0.50000000  0.34397994  1
  Ce  Ce2  1  0.05181804  -0.00000000  0.57210078  1
  Ce  Ce3  1  0.88090911  0.50000000  0.29937604  1
  Ce  Ce4  1  0.67746756  -0.00000000  0.34397994  1
  Ce  Ce5  1  0.55181804  0.50000000  0.57210078  1
  Mg  Mg6  1  0.99978568  0.00000000  0.98665798  1
  Mg  Mg7  1  0.33482577  -0.00000000  0.68966061  1
  Mg  Mg8  1  0.22186082  0.50000000  0.94155764  1
  Mg  Mg9  1  0.49978568  0.50000000  0.98665798  1
  Mg  Mg10  1  0.83482577  0.50000000  0.68966061  1
  Mg  Mg11  1  0.72186082  0.00000000  0.94155764  1
