# generated using pymatgen
data_V2ZnO4
_symmetry_space_group_name_H-M   'P 1'
_cell_length_a   6.06983367
_cell_length_b   6.06690390
_cell_length_c   18.22222324
_cell_angle_alpha   60.00724229
_cell_angle_beta   59.99990021
_cell_angle_gamma   60.03607917
_symmetry_Int_Tables_number   1
_chemical_formula_structural   V2ZnO4
_chemical_formula_sum   'V12 Zn6 O24'
_cell_volume   474.64837590
_cell_formula_units_Z   6
loop_
 _symmetry_equiv_pos_site_id
 _symmetry_equiv_pos_as_xyz
  1  'x, y, z'
loop_
 _atom_site_type_symbol
 _atom_site_label
 _atom_site_symmetry_multiplicity
 _atom_site_fract_x
 _atom_site_fract_y
 _atom_site_fract_z
 _atom_site_occupancy
  V  V0  1  0.49829041  0.49797267  0.16657469  1
  V  V1  1  0.49789281  0.00412550  0.16655607  1
  V  V2  1  0.49856173  0.49899404  0.50006777  1
  V  V3  1  0.00411691  0.49829896  0.16652843  1
  V  V4  1  0.49868857  0.00238559  0.49982244  1
  V  V5  1  0.50072545  0.50121001  0.66543352  1
  V  V6  1  0.87601852  0.87598711  0.29064553  1
  V  V7  1  0.50081553  0.49925661  0.83260265  1
  V  V8  1  0.00306470  0.49933053  0.49933283  1
  V  V9  1  0.50114915  0.00277099  0.83242828  1
  V  V10  1  0.00314757  0.50028181  0.83238275  1
  V  V11  1  0.87546572  0.87537329  0.95793013  1
  Zn  Zn12  1  0.12104782  0.12119492  0.04553170  1
  Zn  Zn13  1  0.11952067  0.11986455  0.38023795  1
  Zn  Zn14  1  0.49898058  0.49837310  0.33485080  1
  Zn  Zn15  1  0.12632291  0.12626905  0.70693491  1
  Zn  Zn16  1  0.49900938  0.49922876  0.00079402  1
  Zn  Zn17  1  0.87669166  0.87634477  0.62351982  1
  O  O18  1  0.25773097  0.25340059  0.08924974  1
  O  O19  1  0.25976233  0.25954378  0.24032805  1
  O  O20  1  0.25352156  0.72114578  0.08924671  1
  O  O21  1  0.72110529  0.25803964  0.08916492  1
  O  O22  1  0.25281485  0.25238230  0.42509100  1
  O  O23  1  0.27196840  0.74538541  0.24440457  1
  O  O24  1  0.25840629  0.25903813  0.57422450  1
  O  O25  1  0.74949365  0.27203215  0.24429673  1
  O  O26  1  0.74134987  0.74163184  0.09184033  1
  O  O27  1  0.25256034  0.71949478  0.42521377  1
  O  O28  1  0.71969662  0.25246238  0.42518190  1
  O  O29  1  0.74558708  0.74949828  0.24428938  1
  O  O30  1  0.26331039  0.26256390  0.75205658  1
  O  O31  1  0.28165437  0.74084989  0.57860971  1
  O  O32  1  0.73839026  0.28266892  0.57971263  1
  O  O33  1  0.26069386  0.26183216  0.90520118  1
  O  O34  1  0.74518370  0.74469053  0.42198706  1
  O  O35  1  0.26279010  0.71818310  0.75244177  1
  O  O36  1  0.71924236  0.26145425  0.75288905  1
  O  O37  1  0.73693597  0.73812409  0.58052980  1
  O  O38  1  0.26884691  0.75055582  0.91013208  1
  O  O39  1  0.75029868  0.26938817  0.91008881  1
  O  O40  1  0.73916619  0.73796127  0.76170095  1
  O  O41  1  0.74998185  0.75041257  0.90994450  1
