# generated using pymatgen
data_Zn2MoWO6
_symmetry_space_group_name_H-M   'P 1'
_cell_length_a   5.68632384
_cell_length_b   5.68207605
_cell_length_c   7.77283409
_cell_angle_alpha   84.83916275
_cell_angle_beta   136.70813782
_cell_angle_gamma   124.07780940
_symmetry_Int_Tables_number   1
_chemical_formula_structural   Zn2MoWO6
_chemical_formula_sum   'Zn2 Mo1 W1 O6'
_cell_volume   118.20428508
_cell_formula_units_Z   1
loop_
 _symmetry_equiv_pos_site_id
 _symmetry_equiv_pos_as_xyz
  1  'x, y, z'
loop_
 _atom_site_type_symbol
 _atom_site_label
 _atom_site_symmetry_multiplicity
 _atom_site_fract_x
 _atom_site_fract_y
 _atom_site_fract_z
 _atom_site_occupancy
  Zn  Zn0  1  0.99822231  0.51756878  0.26305377  1
  Zn  Zn1  1  0.99606852  0.53321817  0.77245542  1
  Mo  Mo2  1  0.99722216  0.98135312  0.49565729  1
  W  W3  1  0.99785284  0.98356826  0.99719227  1
  O  O4  1  0.27684554  0.11502783  0.37521116  1
  O  O5  1  0.71726676  0.82244358  0.61821869  1
  O  O6  1  0.34338931  0.46069910  0.09895426  1
  O  O7  1  0.36572060  0.83142388  0.74755953  1
  O  O8  1  0.60446539  0.10865344  0.22183053  1
  O  O9  1  0.67639657  0.50257782  0.89305109  1
