# generated using pymatgen
data_Ba2ZnCuSb2F14
_symmetry_space_group_name_H-M   'P 1'
_cell_length_a   5.35322132
_cell_length_b   7.70771229
_cell_length_c   16.27210653
_cell_angle_alpha   90.16370917
_cell_angle_beta   89.89483632
_cell_angle_gamma   110.34927515
_symmetry_Int_Tables_number   1
_chemical_formula_structural   Ba2ZnCuSb2F14
_chemical_formula_sum   'Ba4 Zn2 Cu2 Sb4 F28'
_cell_volume   629.49979505
_cell_formula_units_Z   2
loop_
 _symmetry_equiv_pos_site_id
 _symmetry_equiv_pos_as_xyz
  1  'x, y, z'
loop_
 _atom_site_type_symbol
 _atom_site_label
 _atom_site_symmetry_multiplicity
 _atom_site_fract_x
 _atom_site_fract_y
 _atom_site_fract_z
 _atom_site_occupancy
  Ba  Ba0  1  0.09024885  0.35300025  0.62675919  1
  Ba  Ba1  1  0.26486441  0.35492741  0.12705459  1
  Ba  Ba2  1  0.91057235  0.64455695  0.37262523  1
  Ba  Ba3  1  0.73834000  0.64341488  0.87280454  1
  Zn  Zn4  1  0.44981445  0.99933660  0.74843229  1
  Zn  Zn5  1  0.55242909  0.99947691  0.24963397  1
  Cu  Cu6  1  0.50232818  0.99951090  0.00024543  1
  Cu  Cu7  1  0.50057863  0.99895164  0.50004227  1
  Sb  Sb8  1  0.07078137  0.22414026  0.87653219  1
  Sb  Sb9  1  0.93123031  0.77339691  0.12311904  1
  Sb  Sb10  1  0.15690339  0.22489826  0.37641530  1
  Sb  Sb11  1  0.84364517  0.77144792  0.62338646  1
  F  F12  1  0.82108962  0.96855069  0.32842845  1
  F  F13  1  0.88740210  0.29951008  0.45026454  1
  F  F14  1  0.11559515  0.69950260  0.54972198  1
  F  F15  1  0.61760004  0.49342619  0.60189730  1
  F  F16  1  0.65328966  0.05984237  0.60768404  1
  F  F17  1  0.59756244  0.93541426  0.89391253  1
  F  F18  1  0.41537775  0.29786922  0.94960746  1
  F  F19  1  0.85132599  0.03012978  0.17028552  1
  F  F20  1  0.33864791  0.35340287  0.78406464  1
  F  F21  1  0.38573310  0.50174057  0.39817083  1
  F  F22  1  0.77394245  0.21990887  0.76373753  1
  F  F23  1  0.12009048  0.50061842  0.89928220  1
  F  F24  1  0.44666894  0.21970000  0.26387489  1
  F  F25  1  0.22561599  0.77973886  0.23629648  1
  F  F26  1  0.40740446  0.06266714  0.10716648  1
  F  F27  1  0.66036547  0.64662400  0.21515248  1
  F  F28  1  0.13120555  0.83945773  0.98801007  1
  F  F29  1  0.17673997  0.02813137  0.67040794  1
  F  F30  1  0.87334189  0.16043053  0.01198012  1
  F  F31  1  0.71558505  0.84154949  0.48758963  1
  F  F32  1  0.58758222  0.69946274  0.04951789  1
  F  F33  1  0.55846274  0.77984567  0.73699633  1
  F  F34  1  0.01547465  0.35345522  0.28457266  1
  F  F35  1  0.29019534  0.15927806  0.51196651  1
  F  F36  1  0.34601268  0.93675650  0.39311669  1
  F  F37  1  0.15412148  0.96820875  0.82884841  1
  F  F38  1  0.98946831  0.64531287  0.71486488  1
  F  F39  1  0.88002238  0.49584427  0.10193901  1
