# generated using pymatgen
data_VZn(GeO3)2
_symmetry_space_group_name_H-M   'P 1'
_cell_length_a   5.41295011
_cell_length_b   6.88799745
_cell_length_c   6.88799782
_cell_angle_alpha   85.81998663
_cell_angle_beta   78.33034997
_cell_angle_gamma   78.33035075
_symmetry_Int_Tables_number   1
_chemical_formula_structural   VZn(GeO3)2
_chemical_formula_sum   'V2 Zn2 Ge4 O12'
_cell_volume   246.17087522
_cell_formula_units_Z   2
loop_
 _symmetry_equiv_pos_site_id
 _symmetry_equiv_pos_as_xyz
  1  'x, y, z'
loop_
 _atom_site_type_symbol
 _atom_site_label
 _atom_site_symmetry_multiplicity
 _atom_site_fract_x
 _atom_site_fract_y
 _atom_site_fract_z
 _atom_site_occupancy
  V  V0  1  0.75000000  0.90681637  0.09318363  1
  V  V1  1  0.25000000  0.09318363  0.90681637  1
  Zn  Zn2  1  0.75000000  0.25084044  0.74915956  1
  Zn  Zn3  1  0.25000000  0.74915956  0.25084044  1
  Ge  Ge4  1  0.75368139  0.39071996  0.21072783  1
  Ge  Ge5  1  0.74631861  0.78927217  0.60928004  1
  Ge  Ge6  1  0.24631861  0.60928004  0.78927217  1
  Ge  Ge7  1  0.25368139  0.21072783  0.39071996  1
  O  O8  1  0.53767340  0.29897296  0.41502695  1
  O  O9  1  0.96232660  0.58497305  0.70102704  1
  O  O10  1  0.46232660  0.70102704  0.58497305  1
  O  O11  1  0.03767340  0.41502695  0.29897296  1
  O  O12  1  0.10950205  0.14022350  0.62890788  1
  O  O13  1  0.39049795  0.37109212  0.85977650  1
  O  O14  1  0.89049795  0.85977650  0.37109212  1
  O  O15  1  0.60950205  0.62890788  0.14022350  1
  O  O16  1  0.85275426  0.20488076  0.03059861  1
  O  O17  1  0.64724574  0.96940139  0.79511924  1
  O  O18  1  0.14724574  0.79511924  0.96940139  1
  O  O19  1  0.35275426  0.03059861  0.20488076  1
