# generated using pymatgen
data_Ca(BiO2)2
_symmetry_space_group_name_H-M   'P 1'
_cell_length_a   6.99774085
_cell_length_b   6.99773974
_cell_length_c   6.94991147
_cell_angle_alpha   60.22583883
_cell_angle_beta   60.22584253
_cell_angle_gamma   61.66917784
_symmetry_Int_Tables_number   1
_chemical_formula_structural   Ca(BiO2)2
_chemical_formula_sum   'Ca2 Bi4 O8'
_cell_volume   244.38405562
_cell_formula_units_Z   2
loop_
 _symmetry_equiv_pos_site_id
 _symmetry_equiv_pos_as_xyz
  1  'x, y, z'
loop_
 _atom_site_type_symbol
 _atom_site_label
 _atom_site_symmetry_multiplicity
 _atom_site_fract_x
 _atom_site_fract_y
 _atom_site_fract_z
 _atom_site_occupancy
  Ca  Ca0  1  0.12500000  0.62500000  0.62500000  1
  Ca  Ca1  1  0.62500000  0.12500000  0.62500000  1
  Bi  Bi2  1  0.00160014  0.00160014  0.99839986  1
  Bi  Bi3  1  0.24839986  0.24839986  0.25160014  1
  Bi  Bi4  1  0.62500000  0.62500000  0.12500000  1
  Bi  Bi5  1  0.62500000  0.62500000  0.62500000  1
  O  O6  1  0.38064325  0.38064325  0.38464002  1
  O  O7  1  0.38746953  0.84860700  0.38196223  1
  O  O8  1  0.38064325  0.38064325  0.85407449  1
  O  O9  1  0.84860700  0.38746953  0.38196223  1
  O  O10  1  0.40139300  0.86253047  0.86803777  1
  O  O11  1  0.86253047  0.40139300  0.86803777  1
  O  O12  1  0.86935675  0.86935675  0.39592551  1
  O  O13  1  0.86935675  0.86935675  0.86535998  1
