# generated using pymatgen
data_SrCaSn(PO4)2
_symmetry_space_group_name_H-M   'P 1'
_cell_length_a   5.71834046
_cell_length_b   6.92596409
_cell_length_c   10.37044315
_cell_angle_alpha   108.58881079
_cell_angle_beta   100.53043303
_cell_angle_gamma   96.70861469
_symmetry_Int_Tables_number   1
_chemical_formula_structural   SrCaSn(PO4)2
_chemical_formula_sum   'Sr2 Ca2 Sn2 P4 O16'
_cell_volume   375.92229129
_cell_formula_units_Z   2
loop_
 _symmetry_equiv_pos_site_id
 _symmetry_equiv_pos_as_xyz
  1  'x, y, z'
loop_
 _atom_site_type_symbol
 _atom_site_label
 _atom_site_symmetry_multiplicity
 _atom_site_fract_x
 _atom_site_fract_y
 _atom_site_fract_z
 _atom_site_occupancy
  Sr  Sr0  1  0.26383677  0.78868345  0.04525244  1
  Sr  Sr1  1  0.73616323  0.21131655  0.95474756  1
  Ca  Ca2  1  0.03486082  0.42177930  0.66636886  1
  Ca  Ca3  1  0.96513918  0.57822070  0.33363114  1
  Sn  Sn4  1  0.63416441  0.83625285  0.59127157  1
  Sn  Sn5  1  0.36583559  0.16374715  0.40872843  1
  P  P6  1  0.35676304  0.39829283  0.20341144  1
  P  P7  1  0.64323696  0.60170717  0.79658856  1
  P  P8  1  0.81673115  0.02631042  0.27417868  1
  P  P9  1  0.18326885  0.97368958  0.72582132  1
  O  O10  1  0.86187666  0.54645821  0.88254662  1
  O  O11  1  0.59697466  0.45260492  0.16382686  1
  O  O12  1  0.69315430  0.83546182  0.81090045  1
  O  O13  1  0.97765588  0.10262069  0.70214782  1
  O  O14  1  0.40302534  0.54739508  0.83617314  1
  O  O15  1  0.08849344  0.74665547  0.61455687  1
  O  O16  1  0.91150656  0.25334453  0.38544313  1
  O  O17  1  0.23912804  0.98089131  0.87723668  1
  O  O18  1  0.30684570  0.16453818  0.18909955  1
  O  O19  1  0.76087196  0.01910869  0.12276332  1
  O  O20  1  0.13812334  0.45354179  0.11745338  1
  O  O21  1  0.36565709  0.51639450  0.36093590  1
  O  O22  1  0.63434291  0.48360550  0.63906410  1
  O  O23  1  0.58500335  0.92507608  0.30579842  1
  O  O24  1  0.02234412  0.89737931  0.29785218  1
  O  O25  1  0.41499665  0.07492392  0.69420158  1
