# generated using pymatgen
data_CaV2(CuO4)2
_symmetry_space_group_name_H-M   'P 1'
_cell_length_a   6.61291156
_cell_length_b   8.78781901
_cell_length_c   12.36059030
_cell_angle_alpha   90.00000000
_cell_angle_beta   86.80284996
_cell_angle_gamma   90.00000000
_symmetry_Int_Tables_number   1
_chemical_formula_structural   CaV2(CuO4)2
_chemical_formula_sum   'Ca4 V8 Cu8 O32'
_cell_volume   717.19382422
_cell_formula_units_Z   4
loop_
 _symmetry_equiv_pos_site_id
 _symmetry_equiv_pos_as_xyz
  1  'x, y, z'
loop_
 _atom_site_type_symbol
 _atom_site_label
 _atom_site_symmetry_multiplicity
 _atom_site_fract_x
 _atom_site_fract_y
 _atom_site_fract_z
 _atom_site_occupancy
  Ca  Ca0  1  0.13479141  0.16719264  0.03667143  1
  Ca  Ca1  1  0.86520859  0.83280736  0.96332857  1
  Ca  Ca2  1  0.86520859  0.66719264  0.46332857  1
  Ca  Ca3  1  0.13479141  0.33280736  0.53667143  1
  V  V4  1  0.09251202  0.46290502  0.84104477  1
  V  V5  1  0.09251202  0.03709498  0.34104477  1
  V  V6  1  0.60573712  0.09097224  0.14098308  1
  V  V7  1  0.90748798  0.96290502  0.65895523  1
  V  V8  1  0.39426288  0.90902776  0.85901692  1
  V  V9  1  0.39426288  0.59097224  0.35901692  1
  V  V10  1  0.60573712  0.40902776  0.64098308  1
  V  V11  1  0.90748798  0.53709498  0.15895523  1
  Cu  Cu12  1  0.76199782  0.18324288  0.85204787  1
  Cu  Cu13  1  0.39377010  0.05221021  0.63351762  1
  Cu  Cu14  1  0.60622990  0.94778979  0.36648238  1
  Cu  Cu15  1  0.23800318  0.81675712  0.14795213  1
  Cu  Cu16  1  0.76199782  0.31675712  0.35204787  1
  Cu  Cu17  1  0.39377010  0.44778979  0.13351762  1
  Cu  Cu18  1  0.23800318  0.68324288  0.64795213  1
  Cu  Cu19  1  0.60622990  0.55221021  0.86648238  1
  O  O20  1  0.01924245  0.22509132  0.37726059  1
  O  O21  1  0.67757909  0.00281405  0.60375610  1
  O  O22  1  0.19452520  0.58461791  0.45727086  1
  O  O23  1  0.80547480  0.08461791  0.04272914  1
  O  O24  1  0.01924245  0.27490868  0.87726059  1
  O  O25  1  0.98075755  0.77490868  0.62273941  1
  O  O26  1  0.10307881  0.08920777  0.61297999  1
  O  O27  1  0.49688582  0.91304847  0.13321349  1
  O  O28  1  0.49688582  0.58695153  0.63321349  1
  O  O29  1  0.33021871  0.87327810  0.72106218  1
  O  O30  1  0.66978129  0.37327810  0.77893782  1
  O  O31  1  0.50311418  0.08695153  0.86678651  1
  O  O32  1  0.89692119  0.91079223  0.38702001  1
  O  O33  1  0.87802664  0.51853558  0.29919724  1
  O  O34  1  0.43998379  0.26677974  0.60455460  1
  O  O35  1  0.43998379  0.23322026  0.10455460  1
  O  O36  1  0.12197336  0.01853558  0.20080276  1
  O  O37  1  0.50311418  0.41304847  0.36678651  1
  O  O38  1  0.12197336  0.48146442  0.70080276  1
  O  O39  1  0.80547480  0.41538209  0.54272914  1
  O  O40  1  0.67757909  0.49718595  0.10375610  1
  O  O41  1  0.66978129  0.12672190  0.27893782  1
  O  O42  1  0.98075755  0.72509132  0.12273941  1
  O  O43  1  0.10307881  0.41079223  0.11297999  1
  O  O44  1  0.19452520  0.91538209  0.95727086  1
  O  O45  1  0.56001621  0.76677974  0.89544540  1
  O  O46  1  0.32242091  0.99718595  0.39624390  1
  O  O47  1  0.32242091  0.50281405  0.89624390  1
  O  O48  1  0.89692119  0.58920777  0.88702001  1
  O  O49  1  0.56001621  0.73322026  0.39544540  1
  O  O50  1  0.33021871  0.62672190  0.22106218  1
  O  O51  1  0.87802664  0.98146442  0.79919724  1
