# generated using pymatgen
data_Ba2YCu2F11
_symmetry_space_group_name_H-M   'P 1'
_cell_length_a   7.83658904
_cell_length_b   7.83658809
_cell_length_c   14.04772340
_cell_angle_alpha   90.00000000
_cell_angle_beta   90.00000000
_cell_angle_gamma   120.00000857
_symmetry_Int_Tables_number   1
_chemical_formula_structural   Ba2YCu2F11
_chemical_formula_sum   'Ba6 Y3 Cu6 F33'
_cell_volume   747.12046706
_cell_formula_units_Z   3
loop_
 _symmetry_equiv_pos_site_id
 _symmetry_equiv_pos_as_xyz
  1  'x, y, z'
loop_
 _atom_site_type_symbol
 _atom_site_label
 _atom_site_symmetry_multiplicity
 _atom_site_fract_x
 _atom_site_fract_y
 _atom_site_fract_z
 _atom_site_occupancy
  Ba  Ba0  1  0.56032160  0.20160534  0.66883215  1
  Ba  Ba1  1  0.18615678  0.51911689  0.81050319  1
  Ba  Ba2  1  0.64128474  0.43967840  0.00216515  1
  Ba  Ba3  1  0.48088311  0.66703989  0.47716919  1
  Ba  Ba4  1  0.33296111  0.81384322  0.14383619  1
  Ba  Ba5  1  0.79839466  0.35871526  0.33549815  1
  Y  Y6  1  0.14610613  0.99974234  0.88351754  1
  Y  Y7  1  0.85363721  0.85389387  0.21685054  1
  Y  Y8  1  0.00025766  0.14636279  0.55018354  1
  Cu  Cu9  1  0.64309193  0.99504995  0.89030905  1
  Cu  Cu10  1  0.77558924  0.75337227  0.71898574  1
  Cu  Cu11  1  0.24662773  0.02221697  0.38565174  1
  Cu  Cu12  1  0.35195702  0.35690807  0.22364205  1
  Cu  Cu13  1  0.97778303  0.22441076  0.05231874  1
  Cu  Cu14  1  0.00495005  0.64804298  0.55697505  1
  F  F15  1  0.69634855  0.10154696  0.02214426  1
  F  F16  1  0.51163976  0.72661139  0.93069314  1
  F  F17  1  0.40519840  0.30365145  0.35547726  1
  F  F18  1  0.09230197  0.42305969  0.47395151  1
  F  F19  1  0.53396321  0.27948073  0.18040311  1
  F  F20  1  0.92456060  0.62026015  0.18318907  1
  F  F21  1  0.57694031  0.66924228  0.14061851  1
  F  F22  1  0.37973985  0.30430045  0.84985607  1
  F  F23  1  0.74551651  0.46603679  0.51373611  1
  F  F24  1  0.24476710  0.33248033  0.09419256  1
  F  F25  1  0.33075772  0.90769803  0.80728551  1
  F  F26  1  0.89845304  0.59480160  0.68881126  1
  F  F27  1  0.33077936  0.03043809  0.00235799  1
  F  F28  1  0.03119958  0.48237302  0.02054442  1
  F  F29  1  0.69965873  0.66922064  0.33569099  1
  F  F30  1  0.27338861  0.78502737  0.59735914  1
  F  F31  1  0.99839055  0.16863147  0.89762165  1
  F  F32  1  0.08771324  0.75523290  0.42752556  1
  F  F33  1  0.01242715  0.05573884  0.39542302  1
  F  F34  1  0.96956191  0.30034127  0.66902399  1
  F  F35  1  0.04331169  0.98757285  0.72875702  1
  F  F36  1  0.51762698  0.54882756  0.68721142  1
  F  F37  1  0.45117244  0.96880042  0.35387742  1
  F  F38  1  0.17024092  0.00160945  0.23095465  1
  F  F39  1  0.66751967  0.91228676  0.76085956  1
  F  F40  1  0.72051927  0.25448349  0.84707011  1
  F  F41  1  0.21497263  0.48836024  0.26402614  1
  F  F42  1  0.91883867  0.69276416  0.88529959  1
  F  F43  1  0.77392549  0.08116133  0.21863259  1
  F  F44  1  0.94426116  0.95668831  0.06209002  1
  F  F45  1  0.69569955  0.07543940  0.51652207  1
  F  F46  1  0.83136853  0.82975908  0.56428765  1
  F  F47  1  0.30723584  0.22607451  0.55196559  1
