# generated using pymatgen
data_MnZnPO5
_symmetry_space_group_name_H-M   'P 1'
_cell_length_a   5.43095391
_cell_length_b   7.01275587
_cell_length_c   8.03321703
_cell_angle_alpha   89.98900547
_cell_angle_beta   42.31544992
_cell_angle_gamma   74.02261274
_symmetry_Int_Tables_number   1
_chemical_formula_structural   MnZnPO5
_chemical_formula_sum   'Mn2 Zn2 P2 O10'
_cell_volume   187.98684066
_cell_formula_units_Z   2
loop_
 _symmetry_equiv_pos_site_id
 _symmetry_equiv_pos_as_xyz
  1  'x, y, z'
loop_
 _atom_site_type_symbol
 _atom_site_label
 _atom_site_symmetry_multiplicity
 _atom_site_fract_x
 _atom_site_fract_y
 _atom_site_fract_z
 _atom_site_occupancy
  Mn  Mn0  1  0.50000797  0.48581020  0.99516308  1
  Mn  Mn1  1  0.50040457  0.98568486  0.99521232  1
  Zn  Zn2  1  0.50747509  0.23144308  0.66004104  1
  Zn  Zn3  1  0.50478109  0.73003483  0.32448798  1
  P  P4  1  0.49741267  0.23685897  0.33384245  1
  P  P5  1  0.49731320  0.73551021  0.65952763  1
  O  O6  1  0.33515991  0.10759773  0.30328272  1
  O  O7  1  0.66158686  0.36670618  0.14129462  1
  O  O8  1  0.65960706  0.86627049  0.68864473  1
  O  O9  1  0.33077068  0.60826599  0.85465240  1
  O  O10  1  0.82980370  0.58985606  0.37358219  1
  O  O11  1  0.16942195  0.87785398  0.70054329  1
  O  O12  1  0.16749659  0.38010640  0.62022948  1
  O  O13  1  0.82877433  0.09290862  0.28931998  1
  O  O14  1  0.49679290  0.73641962  0.09357772  1
  O  O15  1  0.49992042  0.23580179  0.89861236  1
