# generated using pymatgen
data_Sr2YMnCu2O7
_symmetry_space_group_name_H-M   'P 1'
_cell_length_a   5.44385794
_cell_length_b   5.45963940
_cell_length_c   12.37882289
_cell_angle_alpha   102.71484022
_cell_angle_beta   102.66913352
_cell_angle_gamma   89.94758704
_symmetry_Int_Tables_number   1
_chemical_formula_structural   Sr2YMnCu2O7
_chemical_formula_sum   'Sr4 Y2 Mn2 Cu4 O14'
_cell_volume   349.72313859
_cell_formula_units_Z   2
loop_
 _symmetry_equiv_pos_site_id
 _symmetry_equiv_pos_as_xyz
  1  'x, y, z'
loop_
 _atom_site_type_symbol
 _atom_site_label
 _atom_site_symmetry_multiplicity
 _atom_site_fract_x
 _atom_site_fract_y
 _atom_site_fract_z
 _atom_site_occupancy
  Sr  Sr0  1  0.33337637  0.34229117  0.70062126  1
  Sr  Sr1  1  0.63062165  0.65889005  0.29935099  1
  Sr  Sr2  1  0.83450599  0.86089857  0.70064399  1
  Sr  Sr3  1  0.13139507  0.14084180  0.29892074  1
  Y  Y4  1  0.98662869  0.00054204  0.99985766  1
  Y  Y5  1  0.48694114  0.50069246  0.00005432  1
  Mn  Mn6  1  0.26979929  0.69173037  0.49934590  1
  Mn  Mn7  1  0.76957473  0.30830182  0.49968702  1
  Cu  Cu8  1  0.91488047  0.43113066  0.85846105  1
  Cu  Cu9  1  0.05561322  0.57041971  0.14140693  1
  Cu  Cu10  1  0.41496964  0.92985067  0.85853498  1
  Cu  Cu11  1  0.55557161  0.07167191  0.14148786  1
  O  O12  1  0.12324567  0.35027412  0.49967786  1
  O  O13  1  0.62427436  0.65099605  0.50046251  1
  O  O14  1  0.18061340  0.19610371  0.87704543  1
  O  O15  1  0.30144321  0.80638749  0.12230779  1
  O  O16  1  0.68030782  0.18330000  0.87686503  1
  O  O17  1  0.80177244  0.81731799  0.12322535  1
  O  O18  1  0.66714408  0.68297135  0.87391518  1
  O  O19  1  0.79355622  0.31761731  0.12611681  1
  O  O20  1  0.16690562  0.69334621  0.87324276  1
  O  O21  1  0.29373543  0.30894290  0.12609945  1
  O  O22  1  0.29633452  0.85181133  0.65496577  1
  O  O23  1  0.64161741  0.15056856  0.34480417  1
  O  O24  1  0.79837787  0.30547488  0.65556842  1
  O  O25  1  0.14514808  0.69406088  0.34420976  1
