# generated using pymatgen
data_Sr2YCu3O7
_symmetry_space_group_name_H-M   'P 1'
_cell_length_a   5.45101335
_cell_length_b   5.42117092
_cell_length_c   12.22221675
_cell_angle_alpha   102.76306528
_cell_angle_beta   102.78342558
_cell_angle_gamma   89.85702122
_symmetry_Int_Tables_number   1
_chemical_formula_structural   Sr2YCu3O7
_chemical_formula_sum   'Sr4 Y2 Cu6 O14'
_cell_volume   343.11327319
_cell_formula_units_Z   2
loop_
 _symmetry_equiv_pos_site_id
 _symmetry_equiv_pos_as_xyz
  1  'x, y, z'
loop_
 _atom_site_type_symbol
 _atom_site_label
 _atom_site_symmetry_multiplicity
 _atom_site_fract_x
 _atom_site_fract_y
 _atom_site_fract_z
 _atom_site_occupancy
  Sr  Sr0  1  0.33318793  0.34562969  0.69310972  1
  Sr  Sr1  1  0.63752121  0.65429900  0.30551191  1
  Sr  Sr2  1  0.83336720  0.84814760  0.69310895  1
  Sr  Sr3  1  0.13755404  0.15257117  0.30589274  1
  Y  Y4  1  0.98871312  0.99984810  0.99939106  1
  Y  Y5  1  0.48864025  0.49962390  0.99930639  1
  Cu  Cu6  1  0.26553799  0.69649674  0.49953159  1
  Cu  Cu7  1  0.76353400  0.30369548  0.49949091  1
  Cu  Cu8  1  0.91389599  0.42541862  0.85101466  1
  Cu  Cu9  1  0.06192759  0.57461419  0.14796083  1
  Cu  Cu10  1  0.41390660  0.92549602  0.85039119  1
  Cu  Cu11  1  0.56166439  0.07393328  0.14787983  1
  O  O12  1  0.10254478  0.36972309  0.49960521  1
  O  O13  1  0.60588471  0.63487185  0.49961324  1
  O  O14  1  0.17948172  0.19130148  0.87412019  1
  O  O15  1  0.30423840  0.80861265  0.12430638  1
  O  O16  1  0.67994920  0.18418207  0.87475998  1
  O  O17  1  0.80387467  0.81600544  0.12432230  1
  O  O18  1  0.67320957  0.68394666  0.87382761  1
  O  O19  1  0.79800501  0.31658301  0.12558431  1
  O  O20  1  0.17218264  0.68948230  0.87351161  1
  O  O21  1  0.29717736  0.30938477  0.12482520  1
  O  O22  1  0.31625039  0.83739838  0.65858616  1
  O  O23  1  0.65303880  0.16251771  0.34071275  1
  O  O24  1  0.81224908  0.31925502  0.65820825  1
  O  O25  1  0.15544637  0.67793878  0.34036601  1
