# generated using pymatgen
data_Sr3CaTiMn3O10
_symmetry_space_group_name_H-M   'P 1'
_cell_length_a   11.15750093
_cell_length_b   11.32787625
_cell_length_c   17.73652366
_cell_angle_alpha   108.55431766
_cell_angle_beta   108.53323261
_cell_angle_gamma   89.89965255
_symmetry_Int_Tables_number   1
_chemical_formula_structural   Sr3CaTiMn3O10
_chemical_formula_sum   'Sr24 Ca8 Ti8 Mn24 O80'
_cell_volume   2002.64224183
_cell_formula_units_Z   8
loop_
 _symmetry_equiv_pos_site_id
 _symmetry_equiv_pos_as_xyz
  1  'x, y, z'
loop_
 _atom_site_type_symbol
 _atom_site_label
 _atom_site_symmetry_multiplicity
 _atom_site_fract_x
 _atom_site_fract_y
 _atom_site_fract_z
 _atom_site_occupancy
  Sr  Sr0  1  0.30740486  0.05955495  0.60941724  1
  Sr  Sr1  1  0.30757123  0.55990729  0.60907266  1
  Sr  Sr2  1  0.80917634  0.06139930  0.60928035  1
  Sr  Sr3  1  0.80989850  0.56000730  0.61030358  1
  Sr  Sr4  1  0.19784537  0.43866153  0.39049863  1
  Sr  Sr5  1  0.19354031  0.43670801  0.88898821  1
  Sr  Sr6  1  0.19452773  0.93892052  0.38821415  1
  Sr  Sr7  1  0.69911078  0.43992852  0.38963572  1
  Sr  Sr8  1  0.69729441  0.43990813  0.88981382  1
  Sr  Sr9  1  0.70190552  0.93867527  0.38996540  1
  Sr  Sr10  1  0.69526864  0.93686003  0.88821028  1
  Sr  Sr11  1  0.05893136  0.29530004  0.11166262  1
  Sr  Sr12  1  0.05834971  0.29941137  0.60909225  1
  Sr  Sr13  1  0.05869327  0.79785541  0.60990019  1
  Sr  Sr14  1  0.55776139  0.30053959  0.60871717  1
  Sr  Sr15  1  0.55759459  0.80102588  0.11317843  1
  Sr  Sr16  1  0.55997337  0.79761237  0.60983176  1
  Sr  Sr17  1  0.44760677  0.20126784  0.38774267  1
  Sr  Sr18  1  0.44106185  0.20054339  0.88854247  1
  Sr  Sr19  1  0.44749593  0.69812395  0.38770791  1
  Sr  Sr20  1  0.44516594  0.69949901  0.88895586  1
  Sr  Sr21  1  0.94744885  0.19942764  0.38857188  1
  Sr  Sr22  1  0.94918750  0.20367919  0.88998958  1
  Sr  Sr23  1  0.94785725  0.69977452  0.38845992  1
  Ca  Ca24  1  0.30197352  0.06841572  0.10923713  1
  Ca  Ca25  1  0.30284818  0.56317101  0.10953814  1
  Ca  Ca26  1  0.80422798  0.06533004  0.10787327  1
  Ca  Ca27  1  0.80350700  0.56595699  0.11022200  1
  Ca  Ca28  1  0.19602914  0.93664303  0.89248194  1
  Ca  Ca29  1  0.05362116  0.79809551  0.10957452  1
  Ca  Ca30  1  0.55050713  0.29257704  0.11040703  1
  Ca  Ca31  1  0.94493414  0.70218517  0.89166313  1
  Ti  Ti32  1  0.00337083  0.99814039  0.99809921  1
  Ti  Ti33  1  0.00563989  0.50428959  0.00652274  1
  Ti  Ti34  1  0.50022849  0.00024300  0.00150651  1
  Ti  Ti35  1  0.50462954  0.99913230  0.49906016  1
  Ti  Ti36  1  0.50332228  0.50347731  0.00567500  1
  Ti  Ti37  1  0.24924348  0.75155287  0.00266731  1
  Ti  Ti38  1  0.74936600  0.25115792  0.00146253  1
  Ti  Ti39  1  0.75714902  0.75100770  0.00277494  1
  Mn  Mn40  1  0.00501897  0.99848855  0.49937064  1
  Mn  Mn41  1  0.00472370  0.50049630  0.50002149  1
  Mn  Mn42  1  0.50523009  0.50162054  0.50038209  1
  Mn  Mn43  1  0.25498909  0.25114097  0.00185295  1
  Mn  Mn44  1  0.25376363  0.24888664  0.49927643  1
  Mn  Mn45  1  0.25434595  0.74979539  0.49912126  1
  Mn  Mn46  1  0.75400960  0.25016104  0.49906528  1
  Mn  Mn47  1  0.75596151  0.74893711  0.49971489  1
  Mn  Mn48  1  0.10443349  0.09034338  0.24356707  1
  Mn  Mn49  1  0.11063693  0.09234397  0.75059071  1
  Mn  Mn50  1  0.11037070  0.59586639  0.24825492  1
  Mn  Mn51  1  0.11256584  0.60195421  0.75339572  1
  Mn  Mn52  1  0.60654944  0.09732879  0.24574584  1
  Mn  Mn53  1  0.61236853  0.09716770  0.74993975  1
  Mn  Mn54  1  0.61013570  0.58995869  0.24725055  1
  Mn  Mn55  1  0.61725070  0.59749524  0.75150454  1
  Mn  Mn56  1  0.36059358  0.40294011  0.24854912  1
  Mn  Mn57  1  0.36304502  0.40510187  0.75284915  1
  Mn  Mn58  1  0.35838058  0.90429237  0.24693042  1
  Mn  Mn59  1  0.36135138  0.90402295  0.75262170  1
  Mn  Mn60  1  0.85457039  0.40050350  0.24493609  1
  Mn  Mn61  1  0.86253471  0.40877744  0.75449772  1
  Mn  Mn62  1  0.86402488  0.90655438  0.24716899  1
  Mn  Mn63  1  0.86475011  0.90196211  0.75051634  1
  O  O64  1  0.12637903  0.12297875  0.49399195  1
  O  O65  1  0.12321787  0.10834613  0.99087698  1
  O  O66  1  0.12768316  0.62543046  0.49239041  1
  O  O67  1  0.12212442  0.62547618  0.98715141  1
  O  O68  1  0.62474742  0.12131623  0.49268952  1
  O  O69  1  0.62722423  0.12432644  0.99335878  1
  O  O70  1  0.62374694  0.62129358  0.49243257  1
  O  O71  1  0.63029158  0.62343880  0.99202663  1
  O  O72  1  0.13161311  0.39138541  0.01185258  1
  O  O73  1  0.13192701  0.37485002  0.50474635  1
  O  O74  1  0.13953034  0.87872084  0.01648814  1
  O  O75  1  0.13203538  0.88013125  0.50758284  1
  O  O76  1  0.63867299  0.37924289  0.01389772  1
  O  O77  1  0.63102776  0.37552949  0.50479461  1
  O  O78  1  0.64123238  0.88042258  0.01287421  1
  O  O79  1  0.63213991  0.87891218  0.50721729  1
  O  O80  1  0.37592311  0.11812462  0.49165705  1
  O  O81  1  0.38017527  0.11219292  0.99173791  1
  O  O82  1  0.37618043  0.62064608  0.49323185  1
  O  O83  1  0.37684927  0.61799163  0.99130386  1
  O  O84  1  0.87570718  0.12146211  0.49456870  1
  O  O85  1  0.87649129  0.11593587  0.99224318  1
  O  O86  1  0.87334303  0.62206894  0.49158165  1
  O  O87  1  0.87913857  0.62316747  0.99017789  1
  O  O88  1  0.39516597  0.38993825  0.01645217  1
  O  O89  1  0.37963958  0.37564951  0.50344471  1
  O  O90  1  0.38711814  0.88561588  0.01402674  1
  O  O91  1  0.38504623  0.88155232  0.50777437  1
  O  O92  1  0.88503233  0.38939285  0.01448420  1
  O  O93  1  0.87895541  0.37587321  0.50479510  1
  O  O94  1  0.88954270  0.88050801  0.01448526  1
  O  O95  1  0.88372531  0.88063602  0.50663917  1
  O  O96  1  0.07805350  0.08250218  0.12869087  1
  O  O97  1  0.07579356  0.08039697  0.63499252  1
  O  O98  1  0.07917549  0.59794561  0.12626449  1
  O  O99  1  0.07508920  0.58546486  0.63301515  1
  O  O100  1  0.58161522  0.08902841  0.12794930  1
  O  O101  1  0.57385862  0.08422955  0.62738297  1
  O  O102  1  0.58569211  0.58983757  0.12633715  1
  O  O103  1  0.57451774  0.58160592  0.63178176  1
  O  O104  1  0.44072758  0.41993403  0.36429958  1
  O  O105  1  0.44821812  0.41745433  0.87332746  1
  O  O106  1  0.44489404  0.91807011  0.37077474  1
  O  O107  1  0.45094827  0.91554009  0.87535041  1
  O  O108  1  0.93650661  0.41940203  0.36239162  1
  O  O109  1  0.94130037  0.41667198  0.87146032  1
  O  O110  1  0.94437064  0.91805292  0.36838768  1
  O  O111  1  0.95188761  0.90395470  0.87615291  1
  O  O112  1  0.33174570  0.28799466  0.13815678  1
  O  O113  1  0.32750949  0.30172607  0.63909057  1
  O  O114  1  0.32540834  0.77839609  0.12525320  1
  O  O115  1  0.32396944  0.80161326  0.63468067  1
  O  O116  1  0.82673584  0.28390725  0.12695173  1
  O  O117  1  0.82997824  0.30731180  0.64133120  1
  O  O118  1  0.83150660  0.78154702  0.12684182  1
  O  O119  1  0.82429572  0.79508167  0.62885836  1
  O  O120  1  0.18399114  0.18998788  0.35716257  1
  O  O121  1  0.18943379  0.20341797  0.86309071  1
  O  O122  1  0.19384513  0.70544834  0.36840381  1
  O  O123  1  0.20156274  0.71986361  0.87750986  1
  O  O124  1  0.68303707  0.19501846  0.36038491  1
  O  O125  1  0.70044962  0.20965738  0.87783636  1
  O  O126  1  0.69166851  0.70202060  0.36836255  1
  O  O127  1  0.70440029  0.70848485  0.87528754  1
  O  O128  1  0.42475067  0.07086410  0.23895746  1
  O  O129  1  0.43243193  0.06584910  0.75237984  1
  O  O130  1  0.42268711  0.56139650  0.23886896  1
  O  O131  1  0.43876640  0.56397148  0.75231110  1
  O  O132  1  0.92500370  0.07486452  0.23932115  1
  O  O133  1  0.93771189  0.07148809  0.75245085  1
  O  O134  1  0.92291786  0.55999064  0.23895308  1
  O  O135  1  0.93383770  0.57406053  0.76074308  1
  O  O136  1  0.18513781  0.42786920  0.24796146  1
  O  O137  1  0.18798805  0.43478997  0.75265788  1
  O  O138  1  0.17123077  0.92729123  0.24037171  1
  O  O139  1  0.18410832  0.93337514  0.76056834  1
  O  O140  1  0.67222543  0.41500934  0.24007968  1
  O  O141  1  0.68664523  0.42939334  0.75154305  1
  O  O142  1  0.68377682  0.94086775  0.24813410  1
  O  O143  1  0.68609282  0.93268765  0.75231888  1
