# generated using pymatgen
data_BaSr7Co4(CuO6)4
_symmetry_space_group_name_H-M   'P 1'
_cell_length_a   7.78961885
_cell_length_b   7.78961885
_cell_length_c   7.78961885
_cell_angle_alpha   89.92147110
_cell_angle_beta   90.07852890
_cell_angle_gamma   89.92147110
_symmetry_Int_Tables_number   1
_chemical_formula_structural   BaSr7Co4(CuO6)4
_chemical_formula_sum   'Ba1 Sr7 Co4 Cu4 O24'
_cell_volume   472.65842023
_cell_formula_units_Z   1
loop_
 _symmetry_equiv_pos_site_id
 _symmetry_equiv_pos_as_xyz
  1  'x, y, z'
loop_
 _atom_site_type_symbol
 _atom_site_label
 _atom_site_symmetry_multiplicity
 _atom_site_fract_x
 _atom_site_fract_y
 _atom_site_fract_z
 _atom_site_occupancy
  Ba  Ba0  1  0.24904767  0.75095233  0.24904767  1
  Sr  Sr1  1  0.24799894  0.24803885  0.24799894  1
  Sr  Sr2  1  0.24788202  0.24822470  0.75177530  1
  Sr  Sr3  1  0.24799894  0.75200106  0.75196115  1
  Sr  Sr4  1  0.75177530  0.24822470  0.24788202  1
  Sr  Sr5  1  0.75188962  0.24811038  0.75188962  1
  Sr  Sr6  1  0.75196115  0.75200106  0.24799894  1
  Sr  Sr7  1  0.75177530  0.75211798  0.75177530  1
  Co  Co8  1  -0.00008711  0.49903999  0.50096001  1
  Co  Co9  1  0.50096001  0.00008711  0.50096001  1
  Co  Co10  1  0.50096001  0.49903999  -0.00008711  1
  Co  Co11  1  0.50121027  0.49878973  0.50121027  1
  Cu  Cu12  1  0.99971018  0.00028982  0.99971018  1
  Cu  Cu13  1  0.99974226  0.00025774  0.50046550  1
  Cu  Cu14  1  0.99974226  0.49953450  0.99974226  1
  Cu  Cu15  1  0.50046550  0.00025774  0.99974226  1
  O  O16  1  0.25120431  0.00629414  0.99370586  1
  O  O17  1  0.25451572  0.00563934  0.50655481  1
  O  O18  1  0.25451572  0.49344519  0.99436066  1
  O  O19  1  0.25495371  0.49497998  0.50502002  1
  O  O20  1  0.74894249  0.00143735  0.99856265  1
  O  O21  1  0.74591031  0.00079722  0.49965298  1
  O  O22  1  0.74591031  0.50034702  0.99920278  1
  O  O23  1  0.74528428  0.49919437  0.50080563  1
  O  O24  1  0.99856265  0.25105751  0.99856265  1
  O  O25  1  0.99920278  0.25408969  0.49965298  1
  O  O26  1  0.99370586  0.74879569  0.99370586  1
  O  O27  1  0.99436066  0.74548428  0.50655481  1
  O  O28  1  0.49965298  0.25408969  0.99920278  1
  O  O29  1  0.50080563  0.25471572  0.50080563  1
  O  O30  1  0.50655481  0.74548428  0.99436066  1
  O  O31  1  0.50502002  0.74504629  0.50502002  1
  O  O32  1  0.99370586  0.00629414  0.25120431  1
  O  O33  1  0.99856265  0.00143735  0.74894249  1
  O  O34  1  0.99436066  0.49344519  0.25451572  1
  O  O35  1  0.99920278  0.50034702  0.74591031  1
  O  O36  1  0.50655481  0.00563934  0.25451572  1
  O  O37  1  0.49965298  0.00079722  0.74591031  1
  O  O38  1  0.50502002  0.49497998  0.25495371  1
  O  O39  1  0.50080563  0.49919437  0.74528428  1
