# generated using pymatgen
data_VZnSiO5
_symmetry_space_group_name_H-M   'P 1'
_cell_length_a   5.53966437
_cell_length_b   7.23770572
_cell_length_c   8.33318396
_cell_angle_alpha   90.81980231
_cell_angle_beta   37.66872056
_cell_angle_gamma   106.63908896
_symmetry_Int_Tables_number   1
_chemical_formula_structural   VZnSiO5
_chemical_formula_sum   'V2 Zn2 Si2 O10'
_cell_volume   182.30730389
_cell_formula_units_Z   2
loop_
 _symmetry_equiv_pos_site_id
 _symmetry_equiv_pos_as_xyz
  1  'x, y, z'
loop_
 _atom_site_type_symbol
 _atom_site_label
 _atom_site_symmetry_multiplicity
 _atom_site_fract_x
 _atom_site_fract_y
 _atom_site_fract_z
 _atom_site_occupancy
  V  V0  1  0.50135706  0.49937653  0.50000587  1
  V  V1  1  0.50241364  0.99987186  0.49890643  1
  Zn  Zn2  1  0.44625978  0.28421500  0.21980715  1
  Zn  Zn3  1  0.55893997  0.71517849  0.78012830  1
  Si  Si4  1  0.53485263  0.24404406  0.81542224  1
  Si  Si5  1  0.46846435  0.75437230  0.18474511  1
  O  O6  1  0.77446795  0.13658598  0.57414256  1
  O  O7  1  0.46897321  0.42145175  0.75033640  1
  O  O8  1  0.23056523  0.86341699  0.42417023  1
  O  O9  1  0.53093113  0.57675417  0.25274907  1
  O  O10  1  0.18320662  0.65607086  0.16645817  1
  O  O11  1  0.94385162  0.92919018  0.86836460  1
  O  O12  1  0.81695736  0.34096682  0.83515102  1
  O  O13  1  0.05879344  0.06744400  0.13048872  1
  O  O14  1  0.45871100  0.73128914  0.59816243  1
  O  O15  1  0.54460702  0.26622787  0.40303171  1
