# generated using pymatgen
data_Sr4Ca4Mn7FeO20
_symmetry_space_group_name_H-M   'P 1'
_cell_length_a   10.99161861
_cell_length_b   11.12231883
_cell_length_c   17.69900768
_cell_angle_alpha   108.25746849
_cell_angle_beta   108.14992394
_cell_angle_gamma   90.08590071
_symmetry_Int_Tables_number   1
_chemical_formula_structural   Sr4Ca4Mn7FeO20
_chemical_formula_sum   'Sr16 Ca16 Mn28 Fe4 O80'
_cell_volume   1940.77229385
_cell_formula_units_Z   4
loop_
 _symmetry_equiv_pos_site_id
 _symmetry_equiv_pos_as_xyz
  1  'x, y, z'
loop_
 _atom_site_type_symbol
 _atom_site_label
 _atom_site_symmetry_multiplicity
 _atom_site_fract_x
 _atom_site_fract_y
 _atom_site_fract_z
 _atom_site_occupancy
  Sr  Sr0  1  0.30901702  0.55974910  0.61064447  1
  Sr  Sr1  1  0.80705478  0.05676869  0.60823990  1
  Sr  Sr2  1  0.80979311  0.55858286  0.61096467  1
  Sr  Sr3  1  0.19599124  0.43973516  0.38686428  1
  Sr  Sr4  1  0.20027098  0.44276553  0.89258367  1
  Sr  Sr5  1  0.69707327  0.43979637  0.38718868  1
  Sr  Sr6  1  0.69787711  0.93846545  0.38636177  1
  Sr  Sr7  1  0.70097383  0.94049870  0.89306453  1
  Sr  Sr8  1  0.05997116  0.29953592  0.60962024  1
  Sr  Sr9  1  0.06006846  0.80206055  0.60950676  1
  Sr  Sr10  1  0.55943203  0.30150714  0.61057458  1
  Sr  Sr11  1  0.55876296  0.80101083  0.60941331  1
  Sr  Sr12  1  0.44652293  0.19727998  0.38696754  1
  Sr  Sr13  1  0.45012730  0.20054219  0.89030727  1
  Sr  Sr14  1  0.94760046  0.19602637  0.38651781  1
  Sr  Sr15  1  0.94944080  0.20012609  0.89174142  1
  Ca  Ca16  1  0.30527560  0.06463096  0.10648586  1
  Ca  Ca17  1  0.30663754  0.05797464  0.60334294  1
  Ca  Ca18  1  0.30738649  0.56412903  0.10802959  1
  Ca  Ca19  1  0.80399978  0.06291718  0.10544482  1
  Ca  Ca20  1  0.80663041  0.56260775  0.10782162  1
  Ca  Ca21  1  0.20110788  0.93681791  0.39196549  1
  Ca  Ca22  1  0.20233938  0.93891851  0.89739871  1
  Ca  Ca23  1  0.70242536  0.44035925  0.89778561  1
  Ca  Ca24  1  0.05548433  0.29195871  0.10664965  1
  Ca  Ca25  1  0.05559820  0.79281425  0.10650037  1
  Ca  Ca26  1  0.55443701  0.29320735  0.10562765  1
  Ca  Ca27  1  0.55485314  0.79208434  0.10489559  1
  Ca  Ca28  1  0.44882259  0.70438681  0.39266820  1
  Ca  Ca29  1  0.45067526  0.70746598  0.89652680  1
  Ca  Ca30  1  0.95085139  0.70487333  0.39227899  1
  Ca  Ca31  1  0.95180067  0.70791395  0.89826086  1
  Mn  Mn32  1  0.00474682  0.99827425  0.49779689  1
  Mn  Mn33  1  0.00263000  0.49987900  0.49804755  1
  Mn  Mn34  1  0.50225871  0.99844897  0.49759763  1
  Mn  Mn35  1  0.50709463  0.50173144  0.00262590  1
  Mn  Mn36  1  0.50212586  0.49926686  0.49744643  1
  Mn  Mn37  1  0.25776805  0.25223472  0.00341545  1
  Mn  Mn38  1  0.25315547  0.24795339  0.49814200  1
  Mn  Mn39  1  0.25727165  0.75239440  0.00289008  1
  Mn  Mn40  1  0.25260548  0.74933016  0.49698846  1
  Mn  Mn41  1  0.75759543  0.25397407  0.00485935  1
  Mn  Mn42  1  0.75293591  0.24927232  0.49848366  1
  Mn  Mn43  1  0.75276365  0.74770400  0.49641327  1
  Mn  Mn44  1  0.10656380  0.08873437  0.24471332  1
  Mn  Mn45  1  0.11629108  0.09353871  0.75266626  1
  Mn  Mn46  1  0.10766996  0.60021405  0.24617030  1
  Mn  Mn47  1  0.11394421  0.60364717  0.75489592  1
  Mn  Mn48  1  0.60520814  0.08968027  0.24267457  1
  Mn  Mn49  1  0.60774811  0.09884188  0.74989144  1
  Mn  Mn50  1  0.60552952  0.59423079  0.24554456  1
  Mn  Mn51  1  0.61288558  0.59760597  0.75696375  1
  Mn  Mn52  1  0.35548665  0.40753893  0.24582157  1
  Mn  Mn53  1  0.36610963  0.40606694  0.75393891  1
  Mn  Mn54  1  0.35275417  0.89774937  0.24575114  1
  Mn  Mn55  1  0.36005862  0.90301095  0.75310735  1
  Mn  Mn56  1  0.85674685  0.40819255  0.24668628  1
  Mn  Mn57  1  0.86150712  0.41146877  0.75786065  1
  Mn  Mn58  1  0.85989567  0.89529363  0.24341413  1
  Mn  Mn59  1  0.86697331  0.90088206  0.75297670  1
  Fe  Fe60  1  0.00860479  0.00091009  0.00378128  1
  Fe  Fe61  1  0.00710711  0.50168303  0.00361459  1
  Fe  Fe62  1  0.50604086  0.00134808  0.00294587  1
  Fe  Fe63  1  0.75661914  0.74925649  0.00214888  1
  O  O64  1  0.12793772  0.11818793  0.49277920  1
  O  O65  1  0.12993956  0.12205105  0.99440528  1
  O  O66  1  0.12081250  0.62372987  0.48957372  1
  O  O67  1  0.12647680  0.62780632  0.99335433  1
  O  O68  1  0.62432181  0.12201093  0.49387562  1
  O  O69  1  0.62950744  0.12741181  0.99731614  1
  O  O70  1  0.62205550  0.62333186  0.49125029  1
  O  O71  1  0.62418534  0.61879347  0.99137597  1
  O  O72  1  0.13921029  0.38014837  0.01591505  1
  O  O73  1  0.12979811  0.37638082  0.50383670  1
  O  O74  1  0.13701298  0.87880920  0.01184917  1
  O  O75  1  0.13167935  0.87705737  0.50064618  1
  O  O76  1  0.63960815  0.38276111  0.01560540  1
  O  O77  1  0.62889607  0.37644807  0.50216551  1
  O  O78  1  0.63323958  0.87755976  0.01301347  1
  O  O79  1  0.62610066  0.87220767  0.49918620  1
  O  O80  1  0.37115186  0.11611135  0.49153331  1
  O  O81  1  0.37308292  0.12073971  0.99296845  1
  O  O82  1  0.37552144  0.62359526  0.49189789  1
  O  O83  1  0.37811983  0.62646458  0.99369679  1
  O  O84  1  0.87701788  0.12127353  0.49574008  1
  O  O85  1  0.87824925  0.12288736  0.99721991  1
  O  O86  1  0.87554814  0.62229938  0.49158181  1
  O  O87  1  0.87455094  0.61679659  0.99003088  1
  O  O88  1  0.38787090  0.38626829  0.01556736  1
  O  O89  1  0.37909981  0.37676010  0.50306436  1
  O  O90  1  0.38327539  0.88292048  0.01340826  1
  O  O91  1  0.37850038  0.87940858  0.50410767  1
  O  O92  1  0.88446518  0.38170076  0.01372151  1
  O  O93  1  0.87909929  0.37698099  0.50255773  1
  O  O94  1  0.88845146  0.88214771  0.01427713  1
  O  O95  1  0.88066388  0.87421034  0.50050341  1
  O  O96  1  0.08820652  0.09129550  0.13447555  1
  O  O97  1  0.08497581  0.07583947  0.63801232  1
  O  O98  1  0.07844981  0.59507812  0.13217216  1
  O  O99  1  0.07173400  0.58302156  0.63779270  1
  O  O100  1  0.57870540  0.09351736  0.13211723  1
  O  O101  1  0.57401413  0.07914164  0.63445380  1
  O  O102  1  0.57836907  0.59694930  0.13491878  1
  O  O103  1  0.57557292  0.58050687  0.64124720  1
  O  O104  1  0.43179439  0.41765426  0.35921169  1
  O  O105  1  0.44514116  0.41466962  0.86824765  1
  O  O106  1  0.43337555  0.91267484  0.36055695  1
  O  O107  1  0.44666582  0.91489598  0.86944363  1
  O  O108  1  0.93328453  0.41708074  0.35994209  1
  O  O109  1  0.94645685  0.41434188  0.87074429  1
  O  O110  1  0.93830778  0.91358082  0.35894798  1
  O  O111  1  0.94830340  0.91169068  0.86950940  1
  O  O112  1  0.33740286  0.29284922  0.13786854  1
  O  O113  1  0.32922988  0.30028711  0.63915526  1
  O  O114  1  0.32686069  0.78842699  0.13329415  1
  O  O115  1  0.31974234  0.80291547  0.63797861  1
  O  O116  1  0.83602934  0.29447148  0.13773598  1
  O  O117  1  0.82565710  0.31297729  0.64266422  1
  O  O118  1  0.83262297  0.78410133  0.13225006  1
  O  O119  1  0.82445281  0.80539962  0.63714777  1
  O  O120  1  0.18208138  0.19062471  0.35864778  1
  O  O121  1  0.19278569  0.20442798  0.86495086  1
  O  O122  1  0.19099522  0.69902559  0.36071519  1
  O  O123  1  0.20154275  0.71052357  0.87025707  1
  O  O124  1  0.68297030  0.18603398  0.35778701  1
  O  O125  1  0.68586857  0.20713624  0.86506212  1
  O  O126  1  0.69147426  0.68982084  0.35968378  1
  O  O127  1  0.69902564  0.70467027  0.86958642  1
  O  O128  1  0.42693812  0.05923854  0.23979496  1
  O  O129  1  0.42813057  0.06554189  0.74390689  1
  O  O130  1  0.42762801  0.57812548  0.24837750  1
  O  O131  1  0.43785735  0.58033008  0.76009937  1
  O  O132  1  0.92754411  0.06224281  0.23817413  1
  O  O133  1  0.94166791  0.06566728  0.75090793  1
  O  O134  1  0.92871700  0.57628573  0.24851885  1
  O  O135  1  0.93832285  0.57863893  0.76203954  1
  O  O136  1  0.17622617  0.42822447  0.23962424  1
  O  O137  1  0.19035049  0.43916210  0.75203983  1
  O  O138  1  0.17540412  0.91934677  0.24702763  1
  O  O139  1  0.18710951  0.92817614  0.76066970  1
  O  O140  1  0.67515311  0.42510784  0.23904452  1
  O  O141  1  0.68486114  0.43129408  0.76084519  1
  O  O142  1  0.68116346  0.92373932  0.23858489  1
  O  O143  1  0.69237829  0.94011905  0.75322404  1
