# generated using pymatgen
data_ZnCr2O4
_symmetry_space_group_name_H-M   'P 1'
_cell_length_a   5.99707029
_cell_length_b   5.99682613
_cell_length_c   18.03388206
_cell_angle_alpha   60.05983285
_cell_angle_beta   60.06890235
_cell_angle_gamma   59.99535612
_symmetry_Int_Tables_number   1
_chemical_formula_structural   ZnCr2O4
_chemical_formula_sum   'Zn6 Cr12 O24'
_cell_volume   459.03034024
_cell_formula_units_Z   6
loop_
 _symmetry_equiv_pos_site_id
 _symmetry_equiv_pos_as_xyz
  1  'x, y, z'
loop_
 _atom_site_type_symbol
 _atom_site_label
 _atom_site_symmetry_multiplicity
 _atom_site_fract_x
 _atom_site_fract_y
 _atom_site_fract_z
 _atom_site_occupancy
  Zn  Zn0  1  0.11988648  0.11989864  0.04677812  1
  Zn  Zn1  1  0.12472027  0.12474254  0.37526787  1
  Zn  Zn2  1  0.49686498  0.49679709  0.00313975  1
  Zn  Zn3  1  0.12583376  0.12586245  0.70749449  1
  Zn  Zn4  1  0.87669415  0.87668610  0.28997955  1
  Zn  Zn5  1  0.87537173  0.87536318  0.62464280  1
  Cr  Cr6  1  0.00109096  0.49854093  0.16730805  1
  Cr  Cr7  1  0.49846991  0.49853018  0.16729524  1
  Cr  Cr8  1  0.00052041  0.50040207  0.49955685  1
  Cr  Cr9  1  0.49850032  0.00109596  0.16731526  1
  Cr  Cr10  1  0.50032033  0.50033104  0.33299884  1
  Cr  Cr11  1  0.50040224  0.50041337  0.49955598  1
  Cr  Cr12  1  0.00296212  0.49979577  0.83243996  1
  Cr  Cr13  1  0.50043117  0.00050152  0.49955889  1
  Cr  Cr14  1  0.49985948  0.00291397  0.83243771  1
  Cr  Cr15  1  0.50078161  0.50079413  0.66588853  1
  Cr  Cr16  1  0.49984500  0.49979725  0.83244607  1
  Cr  Cr17  1  0.87736706  0.87710504  0.95598512  1
  O  O18  1  0.25346770  0.25354151  0.09145868  1
  O  O19  1  0.26073463  0.26077060  0.23926210  1
  O  O20  1  0.25357878  0.71860368  0.09143310  1
  O  O21  1  0.71860704  0.25359613  0.09144646  1
  O  O22  1  0.28527503  0.73726960  0.24671576  1
  O  O23  1  0.26126043  0.26127202  0.42082010  1
  O  O24  1  0.73726953  0.28531021  0.24671040  1
  O  O25  1  0.74038436  0.74081971  0.09292696  1
  O  O26  1  0.26129506  0.71499098  0.42080623  1
  O  O27  1  0.26154191  0.26152394  0.57180347  1
  O  O28  1  0.73730443  0.73728503  0.24672507  1
  O  O29  1  0.71499044  0.26129952  0.42081124  1
  O  O30  1  0.28464979  0.73831305  0.57957617  1
  O  O31  1  0.26224196  0.26223630  0.75346486  1
  O  O32  1  0.73830414  0.28465564  0.57958218  1
  O  O33  1  0.73856570  0.73858073  0.42810418  1
  O  O34  1  0.26151878  0.26151207  0.90514449  1
  O  O35  1  0.26224071  0.71510732  0.75346443  1
  O  O36  1  0.73834038  0.73832271  0.57957459  1
  O  O37  1  0.71511115  0.26223493  0.75346748  1
  O  O38  1  0.27170444  0.75180464  0.90814859  1
  O  O39  1  0.73784027  0.73781806  0.76215183  1
  O  O40  1  0.75172095  0.27157220  0.90829318  1
  O  O41  1  0.75212641  0.75198621  0.90801937  1
