# generated using pymatgen
data_Er2Mn3Ga
_symmetry_space_group_name_H-M   'P 1'
_cell_length_a   5.39016905
_cell_length_b   5.38709782
_cell_length_c   8.44507304
_cell_angle_alpha   90.00000000
_cell_angle_beta   90.00000000
_cell_angle_gamma   60.01884022
_symmetry_Int_Tables_number   1
_chemical_formula_structural   Er2Mn3Ga
_chemical_formula_sum   'Er4 Mn6 Ga2'
_cell_volume   212.40938772
_cell_formula_units_Z   2
loop_
 _symmetry_equiv_pos_site_id
 _symmetry_equiv_pos_as_xyz
  1  'x, y, z'
loop_
 _atom_site_type_symbol
 _atom_site_label
 _atom_site_symmetry_multiplicity
 _atom_site_fract_x
 _atom_site_fract_y
 _atom_site_fract_z
 _atom_site_occupancy
  Er  Er0  1  0.33315953  0.33342023  0.56484731  1
  Er  Er1  1  0.66684047  0.66657977  0.43515269  1
  Er  Er2  1  0.66684047  0.66657977  0.06484731  1
  Er  Er3  1  0.33315953  0.33342023  0.93515269  1
  Mn  Mn4  1  0.82590669  0.34849178  0.75000000  1
  Mn  Mn5  1  0.34865203  0.82567398  0.75000000  1
  Mn  Mn6  1  0.82590669  0.82560153  0.75000000  1
  Mn  Mn7  1  0.17409331  0.65150822  0.25000000  1
  Mn  Mn8  1  0.65134797  0.17432602  0.25000000  1
  Mn  Mn9  1  0.17409331  0.17439847  0.25000000  1
  Ga  Ga10  1  0.00000000  -0.00000000  0.50000000  1
  Ga  Ga11  1  0.00000000  -0.00000000  0.00000000  1
