# generated using pymatgen
data_Sr4CaFe2(SO3)2
_symmetry_space_group_name_H-M   'P 1'
_cell_length_a   3.97518697
_cell_length_b   3.97527700
_cell_length_c   16.77942765
_cell_angle_alpha   90.00030429
_cell_angle_beta   90.00012875
_cell_angle_gamma   90.00005881
_symmetry_Int_Tables_number   1
_chemical_formula_structural   Sr4CaFe2(SO3)2
_chemical_formula_sum   'Sr4 Ca1 Fe2 S2 O6'
_cell_volume   265.15639085
_cell_formula_units_Z   1
loop_
 _symmetry_equiv_pos_site_id
 _symmetry_equiv_pos_as_xyz
  1  'x, y, z'
loop_
 _atom_site_type_symbol
 _atom_site_label
 _atom_site_symmetry_multiplicity
 _atom_site_fract_x
 _atom_site_fract_y
 _atom_site_fract_z
 _atom_site_occupancy
  Sr  Sr0  1  0.74999412  0.75000305  0.20289712  1
  Sr  Sr1  1  0.25000838  0.24999962  0.79709950  1
  Sr  Sr2  1  0.74999795  0.74999978  0.41720726  1
  Sr  Sr3  1  0.25000457  0.24999896  0.58284321  1
  Ca  Ca4  1  0.25000084  0.74999348  0.99995930  1
  Fe  Fe5  1  0.24999572  0.25000651  0.32022981  1
  Fe  Fe6  1  0.75000306  0.74999763  0.67981442  1
  S  S7  1  0.24999408  0.24999097  0.11102451  1
  S  S8  1  0.75000424  0.74999718  0.88888197  1
  O  O9  1  0.75000040  0.25000197  0.30024465  1
  O  O10  1  0.24999517  0.75000001  0.29987760  1
  O  O11  1  0.25000305  0.75000032  0.70013219  1
  O  O12  1  0.75000594  0.25000352  0.69976849  1
  O  O13  1  0.24999695  0.25000325  0.43476389  1
  O  O14  1  0.74999753  0.75000474  0.56525810  1
