# generated using pymatgen
data_Er2Ge2S7
_symmetry_space_group_name_H-M   'P 1'
_cell_length_a   6.21267116
_cell_length_b   9.59525191
_cell_length_c   9.83050900
_cell_angle_alpha   121.20988900
_cell_angle_beta   90.00000000
_cell_angle_gamma   90.00000000
_symmetry_Int_Tables_number   1
_chemical_formula_structural   Er2Ge2S7
_chemical_formula_sum   'Er4 Ge4 S14'
_cell_volume   501.20621578
_cell_formula_units_Z   2
loop_
 _symmetry_equiv_pos_site_id
 _symmetry_equiv_pos_as_xyz
  1  'x, y, z'
loop_
 _atom_site_type_symbol
 _atom_site_label
 _atom_site_symmetry_multiplicity
 _atom_site_fract_x
 _atom_site_fract_y
 _atom_site_fract_z
 _atom_site_occupancy
  Er  Er0  1  0.17301667  0.75492257  0.14834618  1
  Er  Er1  1  0.17181874  0.82590437  0.60238046  1
  Er  Er2  1  0.67301667  0.24507743  0.85165382  1
  Er  Er3  1  0.67181874  0.17409563  0.39761954  1
  Ge  Ge4  1  0.48248379  0.00084324  0.99192764  1
  Ge  Ge5  1  0.98248379  0.99915676  0.00807236  1
  Ge  Ge6  1  0.10152545  0.33739144  0.66822633  1
  Ge  Ge7  1  0.60152545  0.66260856  0.33177367  1
  S  S8  1  0.27646929  0.08429491  0.22097610  1
  S  S9  1  0.24279330  0.77163404  0.86511223  1
  S  S10  1  0.28363928  0.11944766  0.88027416  1
  S  S11  1  0.77646929  0.91570509  0.77902390  1
  S  S12  1  0.74279330  0.22836596  0.13488777  1
  S  S13  1  0.78363928  0.88055234  0.11972584  1
  S  S14  1  0.47612729  0.53131606  0.08409956  1
  S  S15  1  0.43737314  0.90820643  0.42494626  1
  S  S16  1  0.46235605  0.58697021  0.48893218  1
  S  S17  1  0.97612729  0.46868394  0.91590044  1
  S  S18  1  0.93737314  0.09179357  0.57505374  1
  S  S19  1  0.96235605  0.41302979  0.51106782  1
  S  S20  1  0.46017700  0.34577522  0.67519153  1
  S  S21  1  0.96017700  0.65422478  0.32480847  1
