# generated using pymatgen
data_Sr5Ca3Mn4(FeO6)4
_symmetry_space_group_name_H-M   'P 1'
_cell_length_a   7.77046272
_cell_length_b   7.75429661
_cell_length_c   7.77046272
_cell_angle_alpha   90.00158605
_cell_angle_beta   90.00168000
_cell_angle_gamma   89.99841395
_symmetry_Int_Tables_number   1
_chemical_formula_structural   Sr5Ca3Mn4(FeO6)4
_chemical_formula_sum   'Sr5 Ca3 Mn4 Fe4 O24'
_cell_volume   468.20513376
_cell_formula_units_Z   1
loop_
 _symmetry_equiv_pos_site_id
 _symmetry_equiv_pos_as_xyz
  1  'x, y, z'
loop_
 _atom_site_type_symbol
 _atom_site_label
 _atom_site_symmetry_multiplicity
 _atom_site_fract_x
 _atom_site_fract_y
 _atom_site_fract_z
 _atom_site_occupancy
  Sr  Sr0  1  0.25101469  0.25073427  0.25094127  1
  Sr  Sr1  1  0.25095377  0.25066363  0.74904623  1
  Sr  Sr2  1  0.74903756  0.25060264  0.25096244  1
  Sr  Sr3  1  0.74905873  0.25073427  0.74898531  1
  Sr  Sr4  1  0.74898860  0.74931273  0.25101140  1
  Ca  Ca5  1  0.25128907  0.74898546  0.25138477  1
  Ca  Ca6  1  0.25137336  0.74904285  0.74862664  1
  Ca  Ca7  1  0.74861523  0.74898546  0.74871093  1
  Mn  Mn8  1  0.00079890  0.50172201  0.50057755  1
  Mn  Mn9  1  0.49938731  0.99763174  0.50061269  1
  Mn  Mn10  1  0.49942245  0.50172201  0.99920110  1
  Mn  Mn11  1  0.49949432  0.50154458  0.50050568  1
  Fe  Fe12  1  0.00078242  0.99779574  0.99921758  1
  Fe  Fe13  1  0.00060034  0.99808683  0.50053124  1
  Fe  Fe14  1  0.00060943  0.50173068  0.99939057  1
  Fe  Fe15  1  0.49946876  0.99808683  0.99939966  1
  O  O16  1  0.24698189  0.99388902  0.99923546  1
  O  O17  1  0.25372472  0.99367390  0.50067867  1
  O  O18  1  0.25376158  0.50645330  0.99933540  1
  O  O19  1  0.25093819  0.50719500  0.50044666  1
  O  O20  1  0.75323858  0.99572786  0.99723302  1
  O  O21  1  0.74615160  0.99578585  0.50293648  1
  O  O22  1  0.74618286  0.50417756  0.99707857  1
  O  O23  1  0.74898874  0.50434633  0.50344485  1
  O  O24  1  0.00073205  0.24659093  0.99926795  1
  O  O25  1  0.00062657  0.25390266  0.50053433  1
  O  O26  1  0.00256430  0.75286752  0.99743570  1
  O  O27  1  0.00272774  0.74633597  0.50282694  1
  O  O28  1  0.49946567  0.25390266  0.99937343  1
  O  O29  1  0.49957484  0.25109321  0.50042516  1
  O  O30  1  0.49717306  0.74633597  0.99727226  1
  O  O31  1  0.49666178  0.74909169  0.50333822  1
  O  O32  1  0.00276698  0.99572786  0.24676142  1
  O  O33  1  0.00076454  0.99388902  0.75301811  1
  O  O34  1  0.00292143  0.50417756  0.25381714  1
  O  O35  1  0.00066460  0.50645330  0.74623842  1
  O  O36  1  0.49706352  0.99578585  0.25384840  1
  O  O37  1  0.49932133  0.99367390  0.74627528  1
  O  O38  1  0.49655515  0.50434633  0.25101126  1
  O  O39  1  0.49955334  0.50719500  0.74906181  1
