# generated using pymatgen
data_Mn2Ga2S5
_symmetry_space_group_name_H-M   'P 1'
_cell_length_a   3.72882207
_cell_length_b   3.72708808
_cell_length_c   15.33345623
_cell_angle_alpha   90.00000002
_cell_angle_beta   90.03341130
_cell_angle_gamma   119.98462617
_symmetry_Int_Tables_number   1
_chemical_formula_structural   Mn2Ga2S5
_chemical_formula_sum   'Mn2 Ga2 S5'
_cell_volume   184.57767296
_cell_formula_units_Z   1
loop_
 _symmetry_equiv_pos_site_id
 _symmetry_equiv_pos_as_xyz
  1  'x, y, z'
loop_
 _atom_site_type_symbol
 _atom_site_label
 _atom_site_symmetry_multiplicity
 _atom_site_fract_x
 _atom_site_fract_y
 _atom_site_fract_z
 _atom_site_occupancy
  Mn  Mn0  1  0.33309144  0.66654572  0.59810094  1
  Mn  Mn1  1  0.66690856  0.33345428  0.40189906  1
  Ga  Ga2  1  0.33317507  0.66658753  0.17139566  1
  Ga  Ga3  1  0.66682493  0.33341247  0.82860434  1
  S  S4  1  -0.00000000  0.00000000  0.50000000  1
  S  S5  1  0.33344903  0.66672451  0.31688974  1
  S  S6  1  0.66655097  0.33327549  0.68311026  1
  S  S7  1  0.33354280  0.66677140  0.89410777  1
  S  S8  1  0.66645720  0.33322860  0.10589223  1
