# generated using pymatgen
data_CaMn12O24
_symmetry_space_group_name_H-M   'P 1'
_cell_length_a   5.89170086
_cell_length_b   13.92075231
_cell_length_c   9.74982497
_cell_angle_alpha   90.72150598
_cell_angle_beta   89.98039289
_cell_angle_gamma   90.00127969
_symmetry_Int_Tables_number   1
_chemical_formula_structural   CaMn12O24
_chemical_formula_sum   'Ca2 Mn24 O48'
_cell_volume   799.58705308
_cell_formula_units_Z   2
loop_
 _symmetry_equiv_pos_site_id
 _symmetry_equiv_pos_as_xyz
  1  'x, y, z'
loop_
 _atom_site_type_symbol
 _atom_site_label
 _atom_site_symmetry_multiplicity
 _atom_site_fract_x
 _atom_site_fract_y
 _atom_site_fract_z
 _atom_site_occupancy
  Ca  Ca0  1  0.49761371  0.73862199  0.01157150  1
  Ca  Ca1  1  0.25289222  0.23839207  0.51144431  1
  Mn  Mn2  1  0.24783487  0.49145359  0.50467962  1
  Mn  Mn3  1  0.24972690  0.51102845  0.99755968  1
  Mn  Mn4  1  0.75164081  0.48761892  0.50675080  1
  Mn  Mn5  1  0.75013678  0.51208501  0.99619013  1
  Mn  Mn6  1  0.24669491  0.85014665  0.73238348  1
  Mn  Mn7  1  0.24695327  0.84334750  0.27887766  1
  Mn  Mn8  1  0.75421375  0.84985040  0.73149455  1
  Mn  Mn9  1  0.75225422  0.84363016  0.27892825  1
  Mn  Mn10  1  0.24944357  0.15386563  0.78002228  1
  Mn  Mn11  1  0.24985592  0.15810293  0.21690807  1
  Mn  Mn12  1  0.75106948  0.15261384  0.76429196  1
  Mn  Mn13  1  0.74940884  0.16000161  0.22992682  1
  Mn  Mn14  1  0.50215192  0.99142635  0.00481486  1
  Mn  Mn15  1  0.50025408  0.01088308  0.49781848  1
  Mn  Mn16  1  0.99834313  0.98758159  0.00687752  1
  Mn  Mn17  1  0.99989147  0.01211498  0.49632405  1
  Mn  Mn18  1  0.50298926  0.34336575  0.77859450  1
  Mn  Mn19  1  0.50335335  0.35012946  0.23233444  1
  Mn  Mn20  1  0.99766514  0.34363730  0.77864794  1
  Mn  Mn21  1  0.99589855  0.34975129  0.23144275  1
  Mn  Mn22  1  0.50020378  0.65818878  0.71679121  1
  Mn  Mn23  1  0.50040324  0.65383494  0.28007477  1
  Mn  Mn24  1  0.00065939  0.66006754  0.72972510  1
  Mn  Mn25  1  0.99877405  0.65260113  0.26431283  1
  O  O26  1  0.25073497  0.07757520  0.59172805  1
  O  O27  1  0.25062369  0.05159050  0.09772945  1
  O  O28  1  0.74965713  0.07490373  0.59206969  1
  O  O29  1  0.74930258  0.05179568  0.10249308  1
  O  O30  1  0.25402026  0.92432713  0.91108178  1
  O  O31  1  0.25066887  0.94989346  0.40342450  1
  O  O32  1  0.74651379  0.92408027  0.91166936  1
  O  O33  1  0.74924871  0.95168087  0.40088058  1
  O  O34  1  0.00069278  0.55183900  0.60226866  1
  O  O35  1  0.00026504  0.57497932  0.09196623  1
  O  O36  1  0.49932315  0.55160817  0.59749415  1
  O  O37  1  0.49925536  0.57770883  0.09149178  1
  O  O38  1  0.49934342  0.44997027  0.90306329  1
  O  O39  1  0.49600139  0.42437950  0.41103165  1
  O  O40  1  0.00080535  0.45172456  0.90059311  1
  O  O41  1  0.00348296  0.42418123  0.41160872  1
  O  O42  1  0.99656116  0.09267550  0.85900757  1
  O  O43  1  0.00789520  0.11791823  0.34212088  1
  O  O44  1  0.50361969  0.09258057  0.86080777  1
  O  O45  1  0.49145964  0.11770355  0.34326833  1
  O  O46  1  0.00058566  0.91034986  0.64291112  1
  O  O47  1  0.99996597  0.88988289  0.17035389  1
  O  O48  1  0.50045255  0.91073534  0.64052449  1
  O  O49  1  0.49973201  0.88481076  0.15989233  1
  O  O50  1  0.25836105  0.61768200  0.84287256  1
  O  O51  1  0.24615404  0.59243972  0.36082829  1
  O  O52  1  0.74199302  0.61795261  0.84170866  1
  O  O53  1  0.75313475  0.59256518  0.35904688  1
  O  O54  1  0.25039096  0.38488147  0.65937191  1
  O  O55  1  0.24979126  0.41069727  0.14038741  1
  O  O56  1  0.75019355  0.38990841  0.66990920  1
  O  O57  1  0.74966842  0.41025898  0.14285863  1
  O  O58  1  0.00227924  0.22161599  0.68137881  1
  O  O59  1  0.99249693  0.22324697  0.12783616  1
  O  O60  1  0.49911400  0.22177467  0.68185257  1
  O  O61  1  0.50704304  0.22338858  0.12816556  1
  O  O62  1  0.00002237  0.78184638  0.82485227  1
  O  O63  1  0.99883726  0.77811528  0.37300534  1
  O  O64  1  0.50070561  0.78236394  0.80628816  1
  O  O65  1  0.50009514  0.77841170  0.37610399  1
  O  O66  1  0.24327339  0.72348071  0.62789942  1
  O  O67  1  0.25101440  0.72178663  0.18200784  1
  O  O68  1  0.75786181  0.72332289  0.62767851  1
  O  O69  1  0.74781161  0.72161511  0.18150859  1
  O  O70  1  0.24957788  0.27856689  0.87580438  1
  O  O71  1  0.24908594  0.28241894  0.30640108  1
  O  O72  1  0.75075984  0.27827250  0.87269247  1
  O  O73  1  0.74987957  0.28189283  0.32493026  1
