# generated using pymatgen
data_Sr3CaTi2Mn2O10
_symmetry_space_group_name_H-M   'P 1'
_cell_length_a   11.19601085
_cell_length_b   11.39144045
_cell_length_c   17.70763685
_cell_angle_alpha   108.68513906
_cell_angle_beta   108.63867401
_cell_angle_gamma   89.98855176
_symmetry_Int_Tables_number   1
_chemical_formula_structural   Sr3CaTi2Mn2O10
_chemical_formula_sum   'Sr24 Ca8 Ti16 Mn16 O80'
_cell_volume   2013.99191750
_cell_formula_units_Z   8
loop_
 _symmetry_equiv_pos_site_id
 _symmetry_equiv_pos_as_xyz
  1  'x, y, z'
loop_
 _atom_site_type_symbol
 _atom_site_label
 _atom_site_symmetry_multiplicity
 _atom_site_fract_x
 _atom_site_fract_y
 _atom_site_fract_z
 _atom_site_occupancy
  Sr  Sr0  1  0.30718798  0.06238951  0.61213136  1
  Sr  Sr1  1  0.30674143  0.56267030  0.61314018  1
  Sr  Sr2  1  0.80724373  0.06361718  0.61323822  1
  Sr  Sr3  1  0.80811350  0.56276527  0.61493098  1
  Sr  Sr4  1  0.19265774  0.43565204  0.38594908  1
  Sr  Sr5  1  0.19446117  0.43759471  0.88906129  1
  Sr  Sr6  1  0.19269184  0.93593321  0.38474929  1
  Sr  Sr7  1  0.69310247  0.43638487  0.38503278  1
  Sr  Sr8  1  0.69493889  0.43791075  0.88939624  1
  Sr  Sr9  1  0.69302753  0.93519908  0.38600113  1
  Sr  Sr10  1  0.69552318  0.93728266  0.88933978  1
  Sr  Sr11  1  0.05612260  0.29825955  0.11345385  1
  Sr  Sr12  1  0.05770863  0.29910342  0.61288511  1
  Sr  Sr13  1  0.05804505  0.80164211  0.61474577  1
  Sr  Sr14  1  0.55630823  0.29941571  0.61195435  1
  Sr  Sr15  1  0.55560080  0.79888917  0.11340043  1
  Sr  Sr16  1  0.55644498  0.80020890  0.61280329  1
  Sr  Sr17  1  0.44194055  0.19847981  0.38318071  1
  Sr  Sr18  1  0.44468992  0.20147617  0.88884774  1
  Sr  Sr19  1  0.44102628  0.69825317  0.38315431  1
  Sr  Sr20  1  0.44393373  0.70139105  0.88957593  1
  Sr  Sr21  1  0.94079976  0.19858882  0.38308835  1
  Sr  Sr22  1  0.94450671  0.20065820  0.88933010  1
  Sr  Sr23  1  0.94182840  0.69820836  0.38341488  1
  Ca  Ca24  1  0.30099314  0.06612781  0.10925391  1
  Ca  Ca25  1  0.29854730  0.56703855  0.10974695  1
  Ca  Ca26  1  0.79822374  0.06667911  0.10943135  1
  Ca  Ca27  1  0.79990887  0.56700628  0.10984152  1
  Ca  Ca28  1  0.19174297  0.93393606  0.89237396  1
  Ca  Ca29  1  0.05176323  0.79185053  0.10959692  1
  Ca  Ca30  1  0.55086098  0.29151276  0.11006880  1
  Ca  Ca31  1  0.94367177  0.70738359  0.89201619  1
  Ti  Ti32  1  0.00252085  0.99954857  0.00374485  1
  Ti  Ti33  1  0.99868709  0.99902596  0.49912660  1
  Ti  Ti34  1  0.99971005  0.50283476  0.00160191  1
  Ti  Ti35  1  0.99787791  0.50032695  0.49948480  1
  Ti  Ti36  1  0.49874967  0.00172902  0.00186522  1
  Ti  Ti37  1  0.49817178  0.99931916  0.49877673  1
  Ti  Ti38  1  0.50052314  0.50081318  0.00430191  1
  Ti  Ti39  1  0.49884435  0.49988129  0.49907913  1
  Ti  Ti40  1  0.25103578  0.24976734  0.00204317  1
  Ti  Ti41  1  0.24783340  0.24882738  0.49866414  1
  Ti  Ti42  1  0.24840736  0.75200706  0.00247195  1
  Ti  Ti43  1  0.24754854  0.74930861  0.49914516  1
  Ti  Ti44  1  0.74942589  0.25166417  0.00369107  1
  Ti  Ti45  1  0.74855606  0.25030613  0.49939648  1
  Ti  Ti46  1  0.75301631  0.75147508  0.00293564  1
  Ti  Ti47  1  0.74868584  0.74856879  0.49950825  1
  Mn  Mn48  1  0.10685206  0.08832583  0.24443650  1
  Mn  Mn49  1  0.11484932  0.09271994  0.75392934  1
  Mn  Mn50  1  0.10753789  0.59604526  0.24582430  1
  Mn  Mn51  1  0.11101940  0.60171426  0.75423748  1
  Mn  Mn52  1  0.60760655  0.09602358  0.24638243  1
  Mn  Mn53  1  0.61360847  0.09527042  0.75168367  1
  Mn  Mn54  1  0.60692023  0.58864254  0.24503194  1
  Mn  Mn55  1  0.61710766  0.59650798  0.75212644  1
  Mn  Mn56  1  0.36166561  0.40526127  0.24574954  1
  Mn  Mn57  1  0.36359063  0.40640956  0.75190118  1
  Mn  Mn58  1  0.35350506  0.90356760  0.24426689  1
  Mn  Mn59  1  0.36050187  0.90490728  0.75354129  1
  Mn  Mn60  1  0.85420904  0.40365348  0.24470313  1
  Mn  Mn61  1  0.86480554  0.41025354  0.75375083  1
  Mn  Mn62  1  0.86224088  0.90562379  0.24592521  1
  Mn  Mn63  1  0.86744568  0.90240832  0.75296072  1
  O  O64  1  0.12688547  0.12317794  0.49120826  1
  O  O65  1  0.13103514  0.11898138  0.98840529  1
  O  O66  1  0.12661993  0.62288811  0.49118054  1
  O  O67  1  0.12427861  0.62509774  0.98693595  1
  O  O68  1  0.62732973  0.12370301  0.49131064  1
  O  O69  1  0.62838544  0.12486315  0.99174083  1
  O  O70  1  0.62719904  0.62301796  0.49111553  1
  O  O71  1  0.63139611  0.62403911  0.99188126  1
  O  O72  1  0.14308336  0.38034063  0.01506157  1
  O  O73  1  0.13466428  0.37589437  0.50675157  1
  O  O74  1  0.14225719  0.88023793  0.01635364  1
  O  O75  1  0.13512206  0.87618491  0.50754655  1
  O  O76  1  0.64114550  0.37906795  0.01632291  1
  O  O77  1  0.63571543  0.37694081  0.50793172  1
  O  O78  1  0.64424844  0.88069392  0.01488970  1
  O  O79  1  0.63486875  0.87565728  0.50662240  1
  O  O80  1  0.37678886  0.11796243  0.49048288  1
  O  O81  1  0.37784885  0.11681809  0.99016481  1
  O  O82  1  0.37684231  0.61854657  0.49095800  1
  O  O83  1  0.37795427  0.61563081  0.99215865  1
  O  O84  1  0.87754119  0.11829784  0.49147166  1
  O  O85  1  0.87993384  0.11474441  0.99147469  1
  O  O86  1  0.87706269  0.61849613  0.49074263  1
  O  O87  1  0.88230988  0.62090730  0.99010407  1
  O  O88  1  0.39331273  0.38470525  0.01752952  1
  O  O89  1  0.38458032  0.38072334  0.50604874  1
  O  O90  1  0.38871428  0.88930174  0.01567281  1
  O  O91  1  0.38502383  0.88087062  0.50687872  1
  O  O92  1  0.88808020  0.39080920  0.01575566  1
  O  O93  1  0.88513137  0.38122261  0.50689929  1
  O  O94  1  0.89429197  0.88429528  0.01668921  1
  O  O95  1  0.88498158  0.88058964  0.50655534  1
  O  O96  1  0.08934710  0.08803674  0.12468735  1
  O  O97  1  0.07708214  0.07902391  0.62576635  1
  O  O98  1  0.08665668  0.59349844  0.12396183  1
  O  O99  1  0.07257885  0.58236059  0.62512576  1
  O  O100  1  0.58453476  0.09287097  0.12467421  1
  O  O101  1  0.57481834  0.08110008  0.62412284  1
  O  O102  1  0.58774755  0.58868549  0.12518170  1
  O  O103  1  0.57590118  0.58180695  0.62430628  1
  O  O104  1  0.45111918  0.41949870  0.37363161  1
  O  O105  1  0.45359586  0.41613588  0.87843742  1
  O  O106  1  0.44688724  0.91947289  0.37262817  1
  O  O107  1  0.45650193  0.91569660  0.87866673  1
  O  O108  1  0.94656574  0.41966593  0.37283812  1
  O  O109  1  0.95337195  0.41319509  0.87801278  1
  O  O110  1  0.95096156  0.91935899  0.37394868  1
  O  O111  1  0.95957593  0.90742107  0.87842533  1
  O  O112  1  0.33187946  0.27884680  0.12491401  1
  O  O113  1  0.32484183  0.29297753  0.62430937  1
  O  O114  1  0.32732365  0.77888037  0.12435451  1
  O  O115  1  0.32287489  0.79338286  0.62551348  1
  O  O116  1  0.83057786  0.27892016  0.12494311  1
  O  O117  1  0.82759480  0.29637091  0.62571460  1
  O  O118  1  0.83539046  0.77970973  0.12548910  1
  O  O119  1  0.82610435  0.79152189  0.62414396  1
  O  O120  1  0.19719742  0.20246276  0.37248117  1
  O  O121  1  0.20477553  0.21413759  0.87794664  1
  O  O122  1  0.19622897  0.70689912  0.37399539  1
  O  O123  1  0.20622816  0.72037621  0.87860329  1
  O  O124  1  0.69705625  0.20732502  0.37424570  1
  O  O125  1  0.70337678  0.21110820  0.87828172  1
  O  O126  1  0.69776301  0.70239088  0.37258106  1
  O  O127  1  0.71077935  0.71168595  0.87811116  1
  O  O128  1  0.41871015  0.07132681  0.23961664  1
  O  O129  1  0.42973581  0.07169599  0.75106393  1
  O  O130  1  0.41920964  0.57450157  0.23947473  1
  O  O131  1  0.43374316  0.57443488  0.75208154  1
  O  O132  1  0.91948617  0.07476358  0.23942387  1
  O  O133  1  0.93107592  0.07238531  0.75179793  1
  O  O134  1  0.91886173  0.57141665  0.23945564  1
  O  O135  1  0.92904971  0.58606788  0.76034943  1
  O  O136  1  0.18016147  0.43021315  0.24919639  1
  O  O137  1  0.18029342  0.43209213  0.75159070  1
  O  O138  1  0.16613579  0.91439315  0.24077285  1
  O  O139  1  0.17889184  0.92350006  0.76060601  1
  O  O140  1  0.66642230  0.41429351  0.24057011  1
  O  O141  1  0.68044020  0.42563981  0.75086907  1
  O  O142  1  0.68069881  0.93012110  0.24929976  1
  O  O143  1  0.68379545  0.92737581  0.75152027  1
