# generated using pymatgen
data_BaSr7Co6(CuO12)2
_symmetry_space_group_name_H-M   'P 1'
_cell_length_a   7.76248379
_cell_length_b   7.76248379
_cell_length_c   7.79322730
_cell_angle_alpha   90.00000000
_cell_angle_beta   90.00000000
_cell_angle_gamma   89.89087065
_symmetry_Int_Tables_number   1
_chemical_formula_structural   BaSr7Co6(CuO12)2
_chemical_formula_sum   'Ba1 Sr7 Co6 Cu2 O24'
_cell_volume   469.58905717
_cell_formula_units_Z   1
loop_
 _symmetry_equiv_pos_site_id
 _symmetry_equiv_pos_as_xyz
  1  'x, y, z'
loop_
 _atom_site_type_symbol
 _atom_site_label
 _atom_site_symmetry_multiplicity
 _atom_site_fract_x
 _atom_site_fract_y
 _atom_site_fract_z
 _atom_site_occupancy
  Ba  Ba0  1  0.24953384  0.75046616  0.25000000  1
  Sr  Sr1  1  0.24914781  0.24961191  0.25000000  1
  Sr  Sr2  1  0.24912222  0.24926341  0.75000000  1
  Sr  Sr3  1  0.24931460  0.75068540  0.75000000  1
  Sr  Sr4  1  0.75072957  0.24927043  0.25000000  1
  Sr  Sr5  1  0.75095409  0.24904591  0.75000000  1
  Sr  Sr6  1  0.75038809  0.75085219  0.25000000  1
  Sr  Sr7  1  0.75073659  0.75087778  0.75000000  1
  Co  Co8  1  0.99879644  0.49864300  0.99884865  1
  Co  Co9  1  0.99879644  0.49864300  0.50115135  1
  Co  Co10  1  0.50135700  0.00120356  0.99884865  1
  Co  Co11  1  0.50135700  0.00120356  0.50115135  1
  Co  Co12  1  0.50101051  0.49898949  0.99839273  1
  Co  Co13  1  0.50101051  0.49898949  0.50160727  1
  Cu  Cu14  1  0.99975372  0.00024628  0.99917709  1
  Cu  Cu15  1  0.99975372  0.00024628  0.50082291  1
  O  O16  1  0.25885046  0.00494143  0.99495855  1
  O  O17  1  0.25885046  0.00494143  0.50504145  1
  O  O18  1  0.25352246  0.49557282  0.99566309  1
  O  O19  1  0.25352246  0.49557282  0.50433691  1
  O  O20  1  0.74224333  0.00065893  0.99908893  1
  O  O21  1  0.74224333  0.00065893  0.50091107  1
  O  O22  1  0.74664508  0.49876923  0.99878869  1
  O  O23  1  0.74664508  0.49876923  0.50121131  1
  O  O24  1  0.99934107  0.25775667  0.99908893  1
  O  O25  1  0.99934107  0.25775667  0.50091107  1
  O  O26  1  0.99505857  0.74114954  0.99495855  1
  O  O27  1  0.99505857  0.74114954  0.50504145  1
  O  O28  1  0.50123077  0.25335492  0.99878869  1
  O  O29  1  0.50123077  0.25335492  0.50121131  1
  O  O30  1  0.50442718  0.74647754  0.99566309  1
  O  O31  1  0.50442718  0.74647754  0.50433691  1
  O  O32  1  0.99281518  0.00718482  0.25000000  1
  O  O33  1  0.99874006  0.00125994  0.75000000  1
  O  O34  1  0.99451312  0.49586431  0.25000000  1
  O  O35  1  0.99901369  0.49861732  0.75000000  1
  O  O36  1  0.50413569  0.00548688  0.25000000  1
  O  O37  1  0.50138268  0.00098631  0.75000000  1
  O  O38  1  0.50351451  0.49648549  0.25000000  1
  O  O39  1  0.50148506  0.49851494  0.75000000  1
