# generated using pymatgen
data_Sr2Mg
_symmetry_space_group_name_H-M   'P 1'
_cell_length_a   14.52332311
_cell_length_b   4.14118654
_cell_length_c   8.71519624
_cell_angle_alpha   90.00000000
_cell_angle_beta   105.83193825
_cell_angle_gamma   90.00000000
_symmetry_Int_Tables_number   1
_chemical_formula_structural   Sr2Mg
_chemical_formula_sum   'Sr8 Mg4'
_cell_volume   504.28129702
_cell_formula_units_Z   4
loop_
 _symmetry_equiv_pos_site_id
 _symmetry_equiv_pos_as_xyz
  1  'x, y, z'
loop_
 _atom_site_type_symbol
 _atom_site_label
 _atom_site_symmetry_multiplicity
 _atom_site_fract_x
 _atom_site_fract_y
 _atom_site_fract_z
 _atom_site_occupancy
  Sr  Sr0  1  0.18425536  0.50000000  0.13935615  1
  Sr  Sr1  1  0.47686581  0.50000000  0.26811646  1
  Sr  Sr2  1  0.02313419  0.00000000  0.73188354  1
  Sr  Sr3  1  0.31574464  0.00000000  0.86064385  1
  Sr  Sr4  1  0.68425536  -0.00000000  0.13935615  1
  Sr  Sr5  1  0.97686581  -0.00000000  0.26811646  1
  Sr  Sr6  1  0.52313419  0.50000000  0.73188354  1
  Sr  Sr7  1  0.81574464  0.50000000  0.86064385  1
  Mg  Mg8  1  0.32604387  -0.00000000  0.45505206  1
  Mg  Mg9  1  0.17395613  0.50000000  0.54494794  1
  Mg  Mg10  1  0.82604387  0.50000000  0.45505206  1
  Mg  Mg11  1  0.67395613  -0.00000000  0.54494794  1
