# generated using pymatgen
data_Sr2Mg
_symmetry_space_group_name_H-M   'P 1'
_cell_length_a   13.40385913
_cell_length_b   4.07125689
_cell_length_c   10.18130996
_cell_angle_alpha   90.00000000
_cell_angle_beta   111.97564228
_cell_angle_gamma   90.00000000
_symmetry_Int_Tables_number   1
_chemical_formula_structural   Sr2Mg
_chemical_formula_sum   'Sr8 Mg4'
_cell_volume   515.23152784
_cell_formula_units_Z   4
loop_
 _symmetry_equiv_pos_site_id
 _symmetry_equiv_pos_as_xyz
  1  'x, y, z'
loop_
 _atom_site_type_symbol
 _atom_site_label
 _atom_site_symmetry_multiplicity
 _atom_site_fract_x
 _atom_site_fract_y
 _atom_site_fract_z
 _atom_site_occupancy
  Sr  Sr0  1  0.33354243  0.50000000  0.88630397  1
  Sr  Sr1  1  0.51239910  0.00000000  0.69620665  1
  Sr  Sr2  1  0.98760090  0.50000000  0.30379335  1
  Sr  Sr3  1  0.16645757  0.00000000  0.11369603  1
  Sr  Sr4  1  0.83354243  0.00000000  0.88630397  1
  Sr  Sr5  1  0.01239910  0.50000000  0.69620665  1
  Sr  Sr6  1  0.48760090  0.00000000  0.30379335  1
  Sr  Sr7  1  0.66645757  0.50000000  0.11369603  1
  Mg  Mg8  1  0.19590654  0.00000000  0.56719769  1
  Mg  Mg9  1  0.30409346  0.50000000  0.43280231  1
  Mg  Mg10  1  0.69590654  0.50000000  0.56719769  1
  Mg  Mg11  1  0.80409346  0.00000000  0.43280231  1
