# generated using pymatgen
data_Mg2Ga
_symmetry_space_group_name_H-M   'P 1'
_cell_length_a   11.50506982
_cell_length_b   3.25791074
_cell_length_c   6.88475671
_cell_angle_alpha   90.00000000
_cell_angle_beta   105.19169747
_cell_angle_gamma   90.00000000
_symmetry_Int_Tables_number   1
_chemical_formula_structural   Mg2Ga
_chemical_formula_sum   'Mg8 Ga4'
_cell_volume   249.03986254
_cell_formula_units_Z   4
loop_
 _symmetry_equiv_pos_site_id
 _symmetry_equiv_pos_as_xyz
  1  'x, y, z'
loop_
 _atom_site_type_symbol
 _atom_site_label
 _atom_site_symmetry_multiplicity
 _atom_site_fract_x
 _atom_site_fract_y
 _atom_site_fract_z
 _atom_site_occupancy
  Mg  Mg0  1  0.19848961  0.50000000  0.15234260  1
  Mg  Mg1  1  0.47477238  0.50000000  0.21211881  1
  Mg  Mg2  1  0.02522762  -0.00000000  0.78788119  1
  Mg  Mg3  1  0.30151039  0.00000000  0.84765740  1
  Mg  Mg4  1  0.69848961  -0.00000000  0.15234260  1
  Mg  Mg5  1  0.97477238  -0.00000000  0.21211881  1
  Mg  Mg6  1  0.52522762  0.50000000  0.78788119  1
  Mg  Mg7  1  0.80151039  0.50000000  0.84765740  1
  Ga  Ga8  1  0.35975406  -0.00000000  0.47228474  1
  Ga  Ga9  1  0.14024594  0.50000000  0.52771526  1
  Ga  Ga10  1  0.85975406  0.50000000  0.47228474  1
  Ga  Ga11  1  0.64024594  -0.00000000  0.52771526  1
