# generated using pymatgen
data_Zn(FeO2)2
_symmetry_space_group_name_H-M   'P 1'
_cell_length_a   6.04811106
_cell_length_b   6.06231785
_cell_length_c   30.26832469
_cell_angle_alpha   59.95270098
_cell_angle_beta   60.04164533
_cell_angle_gamma   59.92226012
_symmetry_Int_Tables_number   1
_chemical_formula_structural   Zn(FeO2)2
_chemical_formula_sum   'Zn10 Fe20 O40'
_cell_volume   784.25442987
_cell_formula_units_Z   10
loop_
 _symmetry_equiv_pos_site_id
 _symmetry_equiv_pos_as_xyz
  1  'x, y, z'
loop_
 _atom_site_type_symbol
 _atom_site_label
 _atom_site_symmetry_multiplicity
 _atom_site_fract_x
 _atom_site_fract_y
 _atom_site_fract_z
 _atom_site_occupancy
  Zn  Zn0  1  0.99731069  0.00156917  0.99991019  1
  Zn  Zn1  1  0.12331155  0.62482562  0.12540744  1
  Zn  Zn2  1  0.99100422  0.00203809  0.20098392  1
  Zn  Zn3  1  0.12339080  0.62468522  0.32544775  1
  Zn  Zn4  1  0.99055057  0.00199390  0.40109233  1
  Zn  Zn5  1  0.12263743  0.62438803  0.52571730  1
  Zn  Zn6  1  0.98903790  0.00075561  0.60189017  1
  Zn  Zn7  1  0.12492271  0.62467185  0.72514672  1
  Zn  Zn8  1  0.25780793  0.25155098  0.84781802  1
  Zn  Zn9  1  -0.00091811  0.00268179  0.79911091  1
  Fe  Fe10  1  0.25371274  0.24706083  0.05043312  1
  Fe  Fe11  1  0.62820217  0.11786398  0.12554248  1
  Fe  Fe12  1  0.62427332  0.62817365  0.02387588  1
  Fe  Fe13  1  0.25877951  0.24655590  0.24962174  1
  Fe  Fe14  1  0.62820217  0.62622145  0.12554248  1
  Fe  Fe15  1  0.62799220  0.11756152  0.32572239  1
  Fe  Fe16  1  0.62766165  0.62571487  0.22418172  1
  Fe  Fe17  1  0.25889145  0.24626050  0.44971751  1
  Fe  Fe18  1  0.62799220  0.62583433  0.32572239  1
  Fe  Fe19  1  0.62794550  0.11737198  0.52589652  1
  Fe  Fe20  1  0.62723930  0.62524451  0.42445434  1
  Fe  Fe21  1  0.25769423  0.24950822  0.64865786  1
  Fe  Fe22  1  0.62794550  0.62519991  0.52589652  1
  Fe  Fe23  1  0.62689582  0.12074590  0.72554174  1
  Fe  Fe24  1  0.62592823  0.62703848  0.62399896  1
  Fe  Fe25  1  0.62689582  0.62464959  0.72554174  1
  Fe  Fe26  1  0.12511191  0.62719201  0.92410081  1
  Fe  Fe27  1  0.62720083  0.12542407  0.92402043  1
  Fe  Fe28  1  0.63209208  0.62480412  0.82365994  1
  Fe  Fe29  1  0.62720083  0.62727297  0.92402043  1
  O  O30  1  0.39253593  0.37684744  0.07489121  1
  O  O31  1  0.39089435  0.37753028  0.17080902  1
  O  O32  1  0.39253593  0.85616057  0.07489121  1
  O  O33  1  0.85405070  0.38257355  0.07616044  1
  O  O34  1  0.39190519  0.37723772  0.27508394  1
  O  O35  1  0.40183154  0.86643904  0.17305808  1
  O  O36  1  0.85361015  0.40528101  0.17385447  1
  O  O37  1  0.39134788  0.37745809  0.37074719  1
  O  O38  1  0.39190519  0.85543737  0.27508394  1
  O  O39  1  0.85380221  0.87196963  0.08045170  1
  O  O40  1  0.85361015  0.87183651  0.17385447  1
  O  O41  1  0.85648243  0.38228990  0.27578755  1
  O  O42  1  0.39168767  0.37667244  0.47528922  1
  O  O43  1  0.40124044  0.86629433  0.37323418  1
  O  O44  1  0.85325244  0.40496889  0.37409945  1
  O  O45  1  0.39168767  0.85519380  0.47528922  1
  O  O46  1  0.39199992  0.37869089  0.57012366  1
  O  O47  1  0.85338044  0.87090028  0.28096380  1
  O  O48  1  0.85325244  0.87128139  0.37409945  1
  O  O49  1  0.85634104  0.38154133  0.47611526  1
  O  O50  1  0.38881773  0.37820397  0.67480192  1
  O  O51  1  0.39950824  0.86770535  0.57301621  1
  O  O52  1  0.39852435  0.38092851  0.76792373  1
  O  O53  1  0.38881773  0.85896872  0.67480192  1
  O  O54  1  0.85280848  0.87023786  0.48134316  1
  O  O55  1  0.85349657  0.40365561  0.57411781  1
  O  O56  1  0.85349657  0.87225879  0.57411781  1
  O  O57  1  0.85754848  0.38245743  0.67550733  1
  O  O58  1  0.38385903  0.38312437  0.87845723  1
  O  O59  1  0.40370961  0.86405483  0.77363614  1
  O  O60  1  0.85223229  0.87043752  0.68137853  1
  O  O61  1  0.38076665  0.38040407  0.97168504  1
  O  O62  1  0.38385903  0.84073045  0.87845723  1
  O  O63  1  0.85320627  0.40277836  0.77477462  1
  O  O64  1  0.85320627  0.87014227  0.77477462  1
  O  O65  1  0.84477468  0.38227344  0.87813569  1
  O  O66  1  0.40532397  0.86435983  0.97319127  1
  O  O67  1  0.86358792  0.40834187  0.97287080  1
  O  O68  1  0.86460137  0.86375698  0.88157693  1
  O  O69  1  0.86358792  0.86371624  0.97287080  1
