# generated using pymatgen
data_Ni15O16
_symmetry_space_group_name_H-M   'P 1'
_cell_length_a   5.94772304
_cell_length_b   5.94772337
_cell_length_c   10.27932073
_cell_angle_alpha   73.21150245
_cell_angle_beta   89.98700260
_cell_angle_gamma   120.02731560
_symmetry_Int_Tables_number   1
_chemical_formula_structural   Ni15O16
_chemical_formula_sum   'Ni15 O16'
_cell_volume   296.77914001
_cell_formula_units_Z   1
loop_
 _symmetry_equiv_pos_site_id
 _symmetry_equiv_pos_as_xyz
  1  'x, y, z'
loop_
 _atom_site_type_symbol
 _atom_site_label
 _atom_site_symmetry_multiplicity
 _atom_site_fract_x
 _atom_site_fract_y
 _atom_site_fract_z
 _atom_site_occupancy
  Ni  Ni0  1  -0.00000000  0.50000000  0.50000000  1
  Ni  Ni1  1  -0.00000000  0.50000000  0.00000000  1
  Ni  Ni2  1  0.24443065  0.48889500  0.75724114  1
  Ni  Ni3  1  0.24974535  0.49952781  0.25072684  1
  Ni  Ni4  1  -0.00000000  -0.00000000  0.50000000  1
  Ni  Ni5  1  0.50000000  0.50000000  0.50000000  1
  Ni  Ni6  1  0.50000000  0.50000000  0.00000000  1
  Ni  Ni7  1  0.24444277  0.99830356  0.75725367  1
  Ni  Ni8  1  0.75025465  0.50047219  0.74927316  1
  Ni  Ni9  1  0.24613614  0.00167179  0.24275886  1
  Ni  Ni10  1  0.75556935  0.51110500  0.24275886  1
  Ni  Ni11  1  0.50000000  -0.00000000  0.50000000  1
  Ni  Ni12  1  0.50000000  -0.00000000  0.00000000  1
  Ni  Ni13  1  0.75386386  0.99832821  0.75724114  1
  Ni  Ni14  1  0.75555723  0.00169644  0.24274633  1
  O  O15  1  0.12679747  0.75111667  0.62469897  1
  O  O16  1  0.13244618  0.73592038  0.13163344  1
  O  O17  1  0.37502186  0.75006508  0.87491306  1
  O  O18  1  0.37581565  0.75149644  0.37530103  1
  O  O19  1  0.12495889  0.24998766  0.62505345  1
  O  O20  1  0.62406112  0.75134550  0.62459338  1
  O  O21  1  0.60325876  0.73572618  0.13172051  1
  O  O22  1  0.13255431  0.26502173  0.13172051  1
  O  O23  1  0.86744569  0.73497827  0.86827949  1
  O  O24  1  0.39674124  0.26427382  0.86827949  1
  O  O25  1  0.87504111  0.75001234  0.37494655  1
  O  O26  1  0.37593888  0.24865450  0.37540662  1
  O  O27  1  0.62418435  0.24850356  0.62469897  1
  O  O28  1  0.62497814  0.24993492  0.12508694  1
  O  O29  1  0.86755382  0.26407962  0.86836656  1
  O  O30  1  0.87320253  0.24888333  0.37530103  1
