# generated using pymatgen
data_Sr3CaTiMn3O12
_symmetry_space_group_name_H-M   'P 1'
_cell_length_a   7.79299018
_cell_length_b   7.74295570
_cell_length_c   7.74460311
_cell_angle_alpha   90.00000000
_cell_angle_beta   90.00000000
_cell_angle_gamma   90.00000000
_symmetry_Int_Tables_number   1
_chemical_formula_structural   Sr3CaTiMn3O12
_chemical_formula_sum   'Sr6 Ca2 Ti2 Mn6 O24'
_cell_volume   467.31537490
_cell_formula_units_Z   2
loop_
 _symmetry_equiv_pos_site_id
 _symmetry_equiv_pos_as_xyz
  1  'x, y, z'
loop_
 _atom_site_type_symbol
 _atom_site_label
 _atom_site_symmetry_multiplicity
 _atom_site_fract_x
 _atom_site_fract_y
 _atom_site_fract_z
 _atom_site_occupancy
  Sr  Sr0  1  0.25000000  0.24657156  0.24718980  1
  Sr  Sr1  1  0.25000000  0.24684303  0.75292659  1
  Sr  Sr2  1  0.25000000  0.75318383  0.75323577  1
  Sr  Sr3  1  0.75000000  0.24684303  0.24707341  1
  Sr  Sr4  1  0.75000000  0.24657156  0.75281020  1
  Sr  Sr5  1  0.75000000  0.75318383  0.24676423  1
  Ca  Ca6  1  0.25000000  0.75432796  0.24603307  1
  Ca  Ca7  1  0.75000000  0.75432796  0.75396693  1
  Ti  Ti8  1  -0.00000000  0.50223444  0.50000000  1
  Ti  Ti9  1  0.50000000  0.50223444  0.50000000  1
  Mn  Mn10  1  0.00000000  0.99898663  0.00000000  1
  Mn  Mn11  1  0.00000000  0.99937967  0.50000000  1
  Mn  Mn12  1  0.00000000  0.50125022  0.00000000  1
  Mn  Mn13  1  0.50000000  0.99898663  0.00000000  1
  Mn  Mn14  1  0.50000000  0.99937967  0.50000000  1
  Mn  Mn15  1  0.50000000  0.50125022  0.00000000  1
  O  O16  1  0.25000000  0.99655504  0.00247757  1
  O  O17  1  0.25000000  0.99654311  0.49736722  1
  O  O18  1  0.25000000  0.50341187  0.00298472  1
  O  O19  1  0.25000000  0.50232460  0.49891775  1
  O  O20  1  0.75000000  0.99655504  0.99752243  1
  O  O21  1  0.75000000  0.99654311  0.50263278  1
  O  O22  1  0.75000000  0.50341187  0.99701528  1
  O  O23  1  0.75000000  0.50232460  0.50108225  1
  O  O24  1  -0.00000000  0.24996979  0.00000000  1
  O  O25  1  0.00000000  0.24664226  0.50000000  1
  O  O26  1  0.00000000  0.74995884  0.00000000  1
  O  O27  1  0.00000000  0.75337054  0.50000000  1
  O  O28  1  0.50000000  0.24996979  0.00000000  1
  O  O29  1  0.50000000  0.24664226  0.50000000  1
  O  O30  1  0.50000000  0.74995884  0.00000000  1
  O  O31  1  0.50000000  0.75337054  0.50000000  1
  O  O32  1  0.00284891  0.99667336  0.24990648  1
  O  O33  1  0.99715109  0.99667336  0.75009352  1
  O  O34  1  0.00150032  0.50254995  0.24660372  1
  O  O35  1  0.99849968  0.50254995  0.75339628  1
  O  O36  1  0.49715109  0.99667336  0.24990648  1
  O  O37  1  0.50284891  0.99667336  0.75009352  1
  O  O38  1  0.49849968  0.50254995  0.24660372  1
  O  O39  1  0.50150032  0.50254995  0.75339628  1
