# generated using pymatgen
data_Zr5N5O2
_symmetry_space_group_name_H-M   'P 1'
_cell_length_a   3.11906284
_cell_length_b   5.52347695
_cell_length_c   9.25958118
_cell_angle_alpha   74.94476861
_cell_angle_beta   90.00000010
_cell_angle_gamma   73.59973728
_symmetry_Int_Tables_number   1
_chemical_formula_structural   Zr5N5O2
_chemical_formula_sum   'Zr5 N5 O2'
_cell_volume   147.31750078
_cell_formula_units_Z   1
loop_
 _symmetry_equiv_pos_site_id
 _symmetry_equiv_pos_as_xyz
  1  'x, y, z'
loop_
 _atom_site_type_symbol
 _atom_site_label
 _atom_site_symmetry_multiplicity
 _atom_site_fract_x
 _atom_site_fract_y
 _atom_site_fract_z
 _atom_site_occupancy
  Zr  Zr0  1  0.11358969  0.77281962  0.92698183  1
  Zr  Zr1  1  0.70063237  0.59873526  0.31002467  1
  Zr  Zr2  1  0.29621284  0.40757431  0.69268660  1
  Zr  Zr3  1  0.88781514  0.22436971  0.08066527  1
  Zr  Zr4  1  0.99861468  0.00276965  0.50323949  1
  N  N5  1  0.50372715  0.99254671  0.00791717  1
  N  N6  1  0.65562357  0.68875286  0.55649526  1
  N  N7  1  0.73731699  0.52536602  0.85568380  1
  N  N8  1  0.26456095  0.47087810  0.15123774  1
  N  N9  1  0.34151870  0.31696260  0.44904701  1
  O  O10  1  0.04427723  0.91144453  0.29094645  1
  O  O11  1  0.95483968  0.09032063  0.71700571  1
