# generated using pymatgen
data_V2Bi4O11
_symmetry_space_group_name_H-M   'P 1'
_cell_length_a   6.03349616
_cell_length_b   5.96734990
_cell_length_c   8.13041425
_cell_angle_alpha   93.49417369
_cell_angle_beta   111.75539696
_cell_angle_gamma   80.34767376
_symmetry_Int_Tables_number   1
_chemical_formula_structural   V2Bi4O11
_chemical_formula_sum   'V2 Bi4 O11'
_cell_volume   268.02857380
_cell_formula_units_Z   1
loop_
 _symmetry_equiv_pos_site_id
 _symmetry_equiv_pos_as_xyz
  1  'x, y, z'
loop_
 _atom_site_type_symbol
 _atom_site_label
 _atom_site_symmetry_multiplicity
 _atom_site_fract_x
 _atom_site_fract_y
 _atom_site_fract_z
 _atom_site_occupancy
  V  V0  1  0.51034945  0.42853958  0.99848261  1
  V  V1  1  0.94686993  0.98841966  0.99787578  1
  Bi  Bi2  1  0.11022690  0.45283505  0.33915899  1
  Bi  Bi3  1  0.25718091  0.94708333  0.65264772  1
  Bi  Bi4  1  0.60119292  0.94640026  0.34294908  1
  Bi  Bi5  1  0.76952411  0.44908961  0.65612282  1
  O  O6  1  0.99036856  0.73647680  0.50737966  1
  O  O7  1  0.98581320  0.23812079  0.48525924  1
  O  O8  1  0.24399471  0.40079297  0.99927025  1
  O  O9  1  0.17572617  0.05420712  0.19438120  1
  O  O10  1  0.47326338  0.56159182  0.80077659  1
  O  O11  1  0.47953159  0.73422175  0.48735532  1
  O  O12  1  0.49890103  0.23516284  0.51160935  1
  O  O13  1  0.65671859  0.13514942  0.99677169  1
  O  O14  1  0.67289672  0.55933133  0.19681588  1
  O  O15  1  0.97871948  0.05301637  0.80039384  1
  O  O16  1  0.92472235  0.71646131  0.99934999  1
