# generated using pymatgen
data_CoOs
_symmetry_space_group_name_H-M   'P 1'
_cell_length_a   2.67127373
_cell_length_b   2.67141078
_cell_length_c   4.11655652
_cell_angle_alpha   90.00000000
_cell_angle_beta   90.00000000
_cell_angle_gamma   59.99830287
_symmetry_Int_Tables_number   1
_chemical_formula_structural   CoOs
_chemical_formula_sum   'Co1 Os1'
_cell_volume   25.43995594
_cell_formula_units_Z   1
loop_
 _symmetry_equiv_pos_site_id
 _symmetry_equiv_pos_as_xyz
  1  'x, y, z'
loop_
 _atom_site_type_symbol
 _atom_site_label
 _atom_site_symmetry_multiplicity
 _atom_site_fract_x
 _atom_site_fract_y
 _atom_site_fract_z
 _atom_site_occupancy
  Co  Co0  1  0.33338411  0.33330795  0.75000000  1
  Os  Os1  1  0.66661589  0.66669205  0.25000000  1
