# generated using pymatgen
data_VMoO5
_symmetry_space_group_name_H-M   'P 1'
_cell_length_a   3.82238338
_cell_length_b   4.87962897
_cell_length_c   6.04959450
_cell_angle_alpha   89.28620804
_cell_angle_beta   108.54520250
_cell_angle_gamma   90.16813553
_symmetry_Int_Tables_number   1
_chemical_formula_structural   VMoO5
_chemical_formula_sum   'V1 Mo1 O5'
_cell_volume   106.96831242
_cell_formula_units_Z   1
loop_
 _symmetry_equiv_pos_site_id
 _symmetry_equiv_pos_as_xyz
  1  'x, y, z'
loop_
 _atom_site_type_symbol
 _atom_site_label
 _atom_site_symmetry_multiplicity
 _atom_site_fract_x
 _atom_site_fract_y
 _atom_site_fract_z
 _atom_site_occupancy
  V  V0  1  0.14967154  0.12354832  0.30116505  1
  Mo  Mo1  1  0.84785093  0.87288331  0.69374146  1
  O  O2  1  0.00701320  0.00841389  0.01086913  1
  O  O3  1  0.14549253  0.45367581  0.29336137  1
  O  O4  1  0.31725844  0.98018533  0.63251901  1
  O  O5  1  0.68336694  0.03717097  0.36600931  1
  O  O6  1  0.84934642  0.52412237  0.70233466  1
