# generated using pymatgen
data_Ta2FeB2
_symmetry_space_group_name_H-M   'P 1'
_cell_length_a   3.41385851
_cell_length_b   5.72141920
_cell_length_c   5.72141920
_cell_angle_alpha   90.00000000
_cell_angle_beta   90.00000000
_cell_angle_gamma   90.00000000
_symmetry_Int_Tables_number   1
_chemical_formula_structural   Ta2FeB2
_chemical_formula_sum   'Ta4 Fe2 B4'
_cell_volume   111.75142135
_cell_formula_units_Z   2
loop_
 _symmetry_equiv_pos_site_id
 _symmetry_equiv_pos_as_xyz
  1  'x, y, z'
loop_
 _atom_site_type_symbol
 _atom_site_label
 _atom_site_symmetry_multiplicity
 _atom_site_fract_x
 _atom_site_fract_y
 _atom_site_fract_z
 _atom_site_occupancy
  Ta  Ta0  1  0.50000000  0.17982746  0.67982746  1
  Ta  Ta1  1  0.50000000  0.82017254  0.32017254  1
  Ta  Ta2  1  0.50000000  0.32017254  0.17982746  1
  Ta  Ta3  1  0.50000000  0.67982746  0.82017254  1
  Fe  Fe4  1  0.00000000  0.50000000  0.50000000  1
  Fe  Fe5  1  -0.00000000  0.00000000  -0.00000000  1
  B  B6  1  -0.00000000  0.61560789  0.11560789  1
  B  B7  1  0.00000000  0.38439211  0.88439211  1
  B  B8  1  0.00000000  0.88439211  0.61560789  1
  B  B9  1  -0.00000000  0.11560789  0.38439211  1
