# generated using pymatgen
data_SrLaCl5
_symmetry_space_group_name_H-M   'P 1'
_cell_length_a   5.52916318
_cell_length_b   10.10841320
_cell_length_c   7.04512081
_cell_angle_alpha   88.74842913
_cell_angle_beta   94.58075605
_cell_angle_gamma   105.87223777
_symmetry_Int_Tables_number   1
_chemical_formula_structural   SrLaCl5
_chemical_formula_sum   'Sr2 La2 Cl10'
_cell_volume   377.53701293
_cell_formula_units_Z   2
loop_
 _symmetry_equiv_pos_site_id
 _symmetry_equiv_pos_as_xyz
  1  'x, y, z'
loop_
 _atom_site_type_symbol
 _atom_site_label
 _atom_site_symmetry_multiplicity
 _atom_site_fract_x
 _atom_site_fract_y
 _atom_site_fract_z
 _atom_site_occupancy
  Sr  Sr0  1  0.32222716  0.64445432  0.25000000  1
  Sr  Sr1  1  0.67777284  0.35554568  0.75000000  1
  La  La2  1  0.07876273  0.15752545  0.25000000  1
  La  La3  1  0.92123727  0.84247455  0.75000000  1
  Cl  Cl4  1  0.20834428  0.92121436  0.10849678  1
  Cl  Cl5  1  0.19597064  0.39102692  0.99238316  1
  Cl  Cl6  1  0.37013957  0.74027815  0.75000000  1
  Cl  Cl7  1  0.19505627  0.39102692  0.50761684  1
  Cl  Cl8  1  0.28712992  0.07878564  0.60849678  1
  Cl  Cl9  1  0.71287008  0.92121436  0.39150322  1
  Cl  Cl10  1  0.80494373  0.60897308  0.49238316  1
  Cl  Cl11  1  0.62986043  0.25972185  0.25000000  1
  Cl  Cl12  1  0.80402936  0.60897308  0.00761684  1
  Cl  Cl13  1  0.79165572  0.07878564  0.89150322  1
