# generated using pymatgen
data_LiH3C2O5
_symmetry_space_group_name_H-M   'P 1'
_cell_length_a   3.60599551
_cell_length_b   5.19124500
_cell_length_c   6.16065911
_cell_angle_alpha   79.13632327
_cell_angle_beta   84.95053511
_cell_angle_gamma   77.60582456
_symmetry_Int_Tables_number   1
_chemical_formula_structural   LiH3C2O5
_chemical_formula_sum   'Li1 H3 C2 O5'
_cell_volume   110.48263636
_cell_formula_units_Z   1
loop_
 _symmetry_equiv_pos_site_id
 _symmetry_equiv_pos_as_xyz
  1  'x, y, z'
loop_
 _atom_site_type_symbol
 _atom_site_label
 _atom_site_symmetry_multiplicity
 _atom_site_fract_x
 _atom_site_fract_y
 _atom_site_fract_z
 _atom_site_occupancy
  Li  Li0  1  0.92986541  0.13439742  0.29883385  1
  H  H1  1  0.63286708  0.35291511  0.73085633  1
  H  H2  1  0.30951876  0.49636675  0.34911745  1
  H  H3  1  0.36468650  0.45355290  0.10295158  1
  C  C4  1  0.99233483  0.99667951  0.80353674  1
  C  C5  1  0.21060207  0.75990902  0.69154774  1
  O  O6  1  0.00750804  0.99765621  0.00202327  1
  O  O7  1  0.79791915  0.18615653  0.65892159  1
  O  O8  1  0.17528833  0.77555826  0.48863430  1
  O  O9  1  0.41241344  0.56751498  0.81869870  1
  O  O10  1  0.36620638  0.35315331  0.25700843  1
