# generated using pymatgen
data_VInO4
_symmetry_space_group_name_H-M   'P 1'
_cell_length_a   4.79534987
_cell_length_b   5.02907971
_cell_length_c   5.71957465
_cell_angle_alpha   90.00000000
_cell_angle_beta   90.00000000
_cell_angle_gamma   92.60713380
_symmetry_Int_Tables_number   1
_chemical_formula_structural   VInO4
_chemical_formula_sum   'V2 In2 O8'
_cell_volume   137.79161355
_cell_formula_units_Z   2
loop_
 _symmetry_equiv_pos_site_id
 _symmetry_equiv_pos_as_xyz
  1  'x, y, z'
loop_
 _atom_site_type_symbol
 _atom_site_label
 _atom_site_symmetry_multiplicity
 _atom_site_fract_x
 _atom_site_fract_y
 _atom_site_fract_z
 _atom_site_occupancy
  V  V0  1  0.00000000  0.25000000  0.17459307  1
  V  V1  1  0.00000000  0.75000000  0.82540693  1
  In  In2  1  0.50000000  0.25000000  0.69719140  1
  In  In3  1  0.50000000  0.75000000  0.30280860  1
  O  O4  1  0.78988867  0.04700351  0.90444171  1
  O  O5  1  0.21011133  0.45299649  0.90444171  1
  O  O6  1  0.21011133  0.95299649  0.09555829  1
  O  O7  1  0.78988867  0.54700351  0.09555829  1
  O  O8  1  0.75028259  0.11195687  0.37545731  1
  O  O9  1  0.24971741  0.38804313  0.37545731  1
  O  O10  1  0.24971741  0.88804313  0.62454269  1
  O  O11  1  0.75028259  0.61195687  0.62454269  1
