# generated using pymatgen
data_Na9Mn15O32
_symmetry_space_group_name_H-M   'P 1'
_cell_length_a   6.19471328
_cell_length_b   6.19471328
_cell_length_c   20.24314095
_cell_angle_alpha   96.94660706
_cell_angle_beta   91.63816878
_cell_angle_gamma   120.75433966
_symmetry_Int_Tables_number   1
_chemical_formula_structural   Na9Mn15O32
_chemical_formula_sum   'Na9 Mn15 O32'
_cell_volume   658.93924140
_cell_formula_units_Z   1
loop_
 _symmetry_equiv_pos_site_id
 _symmetry_equiv_pos_as_xyz
  1  'x, y, z'
loop_
 _atom_site_type_symbol
 _atom_site_label
 _atom_site_symmetry_multiplicity
 _atom_site_fract_x
 _atom_site_fract_y
 _atom_site_fract_z
 _atom_site_occupancy
  Na  Na0  1  0.85143601  0.68274227  0.03417828  1
  Na  Na1  1  0.37500000  0.25000000  0.12500000  1
  Na  Na2  1  0.89856399  0.81725773  0.21582172  1
  Na  Na3  1  0.58816784  0.18999246  0.27815930  1
  Na  Na4  1  0.34258597  0.69158616  0.53417213  1
  Na  Na5  1  0.40741403  0.80841384  0.71582787  1
  Na  Na6  1  0.66138928  0.30512845  0.46651773  1
  Na  Na7  1  0.08861072  0.19487155  0.78348227  1
  Na  Na8  1  0.16183216  0.31000754  0.97184070  1
  Mn  Mn9  1  0.37500000  0.75000000  0.12500000  1
  Mn  Mn10  1  0.23992044  0.50858857  0.24850900  1
  Mn  Mn11  1  0.12409215  0.75004679  0.37413894  1
  Mn  Mn12  1  0.51007956  0.99141143  0.00149100  1
  Mn  Mn13  1  0.12675295  0.25033752  0.37304216  1
  Mn  Mn14  1  0.62270465  0.74628921  0.37304216  1
  Mn  Mn15  1  0.87500000  0.25000000  0.12500000  1
  Mn  Mn16  1  0.99868620  0.00058586  0.49927206  1
  Mn  Mn17  1  0.12729535  0.75371079  0.87695784  1
  Mn  Mn18  1  0.87500000  0.75000000  0.62500000  1
  Mn  Mn19  1  0.37500000  0.25000000  0.62500000  1
  Mn  Mn20  1  0.62590785  0.74995321  0.87586106  1
  Mn  Mn21  1  0.75131380  0.49941414  0.75072794  1
  Mn  Mn22  1  0.87500000  0.25000000  0.62500000  1
  Mn  Mn23  1  0.62324705  0.24966248  0.87695784  1
  O  O24  1  0.25353552  0.86737396  0.05681305  1
  O  O25  1  0.67231679  0.89724724  0.06956403  1
  O  O26  1  0.07768321  0.60275276  0.18043597  1
  O  O27  1  0.17117042  0.40736604  0.07853646  1
  O  O28  1  0.49646448  0.63262604  0.19318695  1
  O  O29  1  0.06056191  0.19672247  0.19318695  1
  O  O30  1  0.40791810  0.83082804  0.31942372  1
  O  O31  1  0.68943809  0.30327753  0.05681305  1
  O  O32  1  0.30295896  0.62140547  0.42436443  1
  O  O33  1  0.40552910  0.40983885  0.31536795  1
  O  O34  1  0.15785313  0.90852117  0.56637430  1
  O  O35  1  0.57882958  0.09263396  0.17146354  1
  O  O36  1  0.94667050  0.87807063  0.32474113  1
  O  O37  1  0.01180271  0.59256150  0.67639929  1
  O  O38  1  0.83425454  0.66154126  0.42640141  1
  O  O39  1  0.26486015  0.09214687  0.42640141  1
  O  O40  1  0.98859568  0.41150462  0.31942372  1
  O  O41  1  0.73819729  0.90743850  0.57360071  1
  O  O42  1  0.16616221  0.33540443  0.57360071  1
  O  O43  1  0.08671182  0.08973199  0.67644481  1
  O  O44  1  0.44704104  0.87859453  0.82563557  1
  O  O45  1  0.59214687  0.59147883  0.68362570  1
  O  O46  1  0.66328818  0.41026801  0.57355519  1
  O  O47  1  0.84143198  0.08963925  0.43107123  1
  O  O48  1  0.34208190  0.66917196  0.93057628  1
  O  O49  1  0.58383779  0.16459557  0.67639929  1
  O  O50  1  0.48513985  0.40785313  0.82359859  1
  O  O51  1  0.91574546  0.83845874  0.82359859  1
  O  O52  1  0.90856802  0.41036075  0.81892877  1
  O  O53  1  0.80332950  0.62192937  0.92525887  1
  O  O54  1  0.34447090  0.09016115  0.93463205  1
  O  O55  1  0.76140432  0.08849538  0.93057628  1
