# generated using pymatgen
data_NbV3Fe2(PO4)6
_symmetry_space_group_name_H-M   'P 1'
_cell_length_a   8.65181896
_cell_length_b   8.73106113
_cell_length_c   8.73106120
_cell_angle_alpha   59.99999729
_cell_angle_beta   59.69655864
_cell_angle_gamma   59.69655753
_symmetry_Int_Tables_number   1
_chemical_formula_structural   NbV3Fe2(PO4)6
_chemical_formula_sum   'Nb1 V3 Fe2 P6 O24'
_cell_volume   464.21511234
_cell_formula_units_Z   1
loop_
 _symmetry_equiv_pos_site_id
 _symmetry_equiv_pos_as_xyz
  1  'x, y, z'
loop_
 _atom_site_type_symbol
 _atom_site_label
 _atom_site_symmetry_multiplicity
 _atom_site_fract_x
 _atom_site_fract_y
 _atom_site_fract_z
 _atom_site_occupancy
  Nb  Nb0  1  0.57141972  0.14286043  0.14286043  1
  V  V1  1  0.07384387  0.64205171  0.64205171  1
  V  V2  1  0.43252033  0.85582689  0.85582689  1
  V  V3  1  0.92517989  0.35827370  0.35827370  1
  Fe  Fe4  1  0.01477577  0.99507474  0.99507474  1
  Fe  Fe5  1  0.50206492  0.49931203  0.49931203  1
  P  P6  1  0.24353730  0.25248562  0.54838338  1
  P  P7  1  0.24353730  0.95559369  0.25248562  1
  P  P8  1  0.24353730  0.54838338  0.95559369  1
  P  P9  1  0.75078348  0.46179061  0.04222112  1
  P  P10  1  0.75078348  0.04222112  0.74520480  1
  P  P11  1  0.75078348  0.74520480  0.46179061  1
  O  O12  1  0.06919046  0.11389723  0.31175210  1
  O  O13  1  0.06919046  0.50516121  0.11389723  1
  O  O14  1  0.06919046  0.31175210  0.50516121  1
  O  O15  1  0.23306948  0.08860964  0.73807720  1
  O  O16  1  0.42553292  0.18700837  0.38347507  1
  O  O17  1  0.27381683  0.40878738  0.55531262  1
  O  O18  1  0.23306948  0.94024368  0.08860964  1
  O  O19  1  0.27381683  0.76208217  0.40878738  1
  O  O20  1  0.56908933  0.61342173  0.00481802  1
  O  O21  1  0.27381683  0.55531262  0.76208217  1
  O  O22  1  0.76531789  0.26280915  0.06186511  1
  O  O23  1  0.56908933  0.00481802  0.81266991  1
  O  O24  1  0.42553292  0.00398364  0.18700837  1
  O  O25  1  0.23306948  0.73807720  0.94024368  1
  O  O26  1  0.73095631  0.44044492  0.23868901  1
  O  O27  1  0.42553292  0.38347507  0.00398364  1
  O  O28  1  0.73095631  0.23868901  0.58991076  1
  O  O29  1  0.76531789  0.06186511  0.91000885  1
  O  O30  1  0.73095631  0.58991076  0.44044492  1
  O  O31  1  0.56908933  0.81266991  0.61342173  1
  O  O32  1  0.76531789  0.91000885  0.26280915  1
  O  O33  1  0.93210450  0.69028980  0.49244037  1
  O  O34  1  0.93210450  0.49244037  0.88516533  1
  O  O35  1  0.93210450  0.88516533  0.69028980  1
