# generated using pymatgen
data_LuAsPt
_symmetry_space_group_name_H-M   'P 1'
_cell_length_a   4.24233104
_cell_length_b   4.24233104
_cell_length_c   15.28762984
_cell_angle_alpha   90.00000000
_cell_angle_beta   90.00000000
_cell_angle_gamma   119.99329591
_symmetry_Int_Tables_number   1
_chemical_formula_structural   LuAsPt
_chemical_formula_sum   'Lu4 As4 Pt4'
_cell_volume   238.29187507
_cell_formula_units_Z   4
loop_
 _symmetry_equiv_pos_site_id
 _symmetry_equiv_pos_as_xyz
  1  'x, y, z'
loop_
 _atom_site_type_symbol
 _atom_site_label
 _atom_site_symmetry_multiplicity
 _atom_site_fract_x
 _atom_site_fract_y
 _atom_site_fract_z
 _atom_site_occupancy
  Lu  Lu0  1  0.00000000  -0.00000000  0.50000000  1
  Lu  Lu1  1  0.00000000  -0.00000000  -0.00000000  1
  Lu  Lu2  1  -0.00000205  0.00000205  0.75000000  1
  Lu  Lu3  1  0.00000205  -0.00000205  0.25000000  1
  As  As4  1  0.66662148  0.33337852  0.11362444  1
  As  As5  1  0.33337852  0.66662148  0.88637556  1
  As  As6  1  0.33337852  0.66662148  0.61362444  1
  As  As7  1  0.66662148  0.33337852  0.38637556  1
  Pt  Pt8  1  0.66677916  0.33322084  0.63649640  1
  Pt  Pt9  1  0.33322084  0.66677916  0.36350360  1
  Pt  Pt10  1  0.33322084  0.66677916  0.13649640  1
  Pt  Pt11  1  0.66677916  0.33322084  0.86350360  1
