# generated using pymatgen
data_Ca2Ni10H
_symmetry_space_group_name_H-M   'P 1'
_cell_length_a   4.98106359
_cell_length_b   4.98308866
_cell_length_c   7.91419740
_cell_angle_alpha   90.00038085
_cell_angle_beta   90.00000003
_cell_angle_gamma   119.98656091
_symmetry_Int_Tables_number   1
_chemical_formula_structural   Ca2Ni10H
_chemical_formula_sum   'Ca2 Ni10 H1'
_cell_volume   170.14414444
_cell_formula_units_Z   1
loop_
 _symmetry_equiv_pos_site_id
 _symmetry_equiv_pos_as_xyz
  1  'x, y, z'
loop_
 _atom_site_type_symbol
 _atom_site_label
 _atom_site_symmetry_multiplicity
 _atom_site_fract_x
 _atom_site_fract_y
 _atom_site_fract_z
 _atom_site_occupancy
  Ca  Ca0  1  0.99998872  0.99997744  0.00007218  1
  Ca  Ca1  1  0.00000920  0.00001840  0.49851085  1
  Ni  Ni2  1  0.66667243  0.33334486  0.01215776  1
  Ni  Ni3  1  0.33333621  0.66667243  0.00358463  1
  Ni  Ni4  1  0.49295504  0.50725246  0.74580795  1
  Ni  Ni5  1  0.01429742  0.50725246  0.74580795  1
  Ni  Ni6  1  0.49282160  0.98564320  0.74584332  1
  Ni  Ni7  1  0.66666475  0.33332949  0.49920209  1
  Ni  Ni8  1  0.33335026  0.66670052  0.49671175  1
  Ni  Ni9  1  0.49905594  0.50088682  0.25249349  1
  Ni  Ni10  1  0.00183088  0.50088682  0.25249349  1
  Ni  Ni11  1  0.49908836  0.99817673  0.25247680  1
  H  H12  1  0.66652918  0.33305837  0.81023774  1
