# generated using pymatgen
data_Cu3AsO7
_symmetry_space_group_name_H-M   'P 1'
_cell_length_a   5.25820383
_cell_length_b   5.37811664
_cell_length_c   5.64943065
_cell_angle_alpha   89.83851350
_cell_angle_beta   113.57985372
_cell_angle_gamma   90.29219164
_symmetry_Int_Tables_number   1
_chemical_formula_structural   Cu3AsO7
_chemical_formula_sum   'Cu3 As1 O7'
_cell_volume   146.42007081
_cell_formula_units_Z   1
loop_
 _symmetry_equiv_pos_site_id
 _symmetry_equiv_pos_as_xyz
  1  'x, y, z'
loop_
 _atom_site_type_symbol
 _atom_site_label
 _atom_site_symmetry_multiplicity
 _atom_site_fract_x
 _atom_site_fract_y
 _atom_site_fract_z
 _atom_site_occupancy
  Cu  Cu0  1  0.36099535  0.05502556  0.60996836  1
  Cu  Cu1  1  0.36528755  0.55899744  0.36875074  1
  Cu  Cu2  1  0.36440571  0.56016497  0.86934533  1
  As  As3  1  0.00055230  0.02196899  0.99955899  1
  O  O4  1  0.08508154  0.16556432  0.29428607  1
  O  O5  1  0.07333679  0.19075419  0.78412827  1
  O  O6  1  0.20656637  0.73152409  0.55660369  1
  O  O7  1  0.19319081  0.73755682  0.06017371  1
  O  O8  1  0.52220236  0.37323276  0.67476249  1
  O  O9  1  0.53916299  0.41498871  0.18453909  1
  O  O10  1  0.66141823  0.91432215  0.88798326  1
