# generated using pymatgen
data_Co4Ru
_symmetry_space_group_name_H-M   'P 1'
_cell_length_a   2.56761165
_cell_length_b   2.56761165
_cell_length_c   10.38720481
_cell_angle_alpha   82.90037814
_cell_angle_beta   90.00000000
_cell_angle_gamma   120.00000000
_symmetry_Int_Tables_number   1
_chemical_formula_structural   Co4Ru
_chemical_formula_sum   'Co4 Ru1'
_cell_volume   58.69749540
_cell_formula_units_Z   1
loop_
 _symmetry_equiv_pos_site_id
 _symmetry_equiv_pos_as_xyz
  1  'x, y, z'
loop_
 _atom_site_type_symbol
 _atom_site_label
 _atom_site_symmetry_multiplicity
 _atom_site_fract_x
 _atom_site_fract_y
 _atom_site_fract_z
 _atom_site_occupancy
  Co  Co0  1  0.59682242  0.19364483  0.20953275  1
  Co  Co1  1  0.19943142  0.39886284  0.40170574  1
  Co  Co2  1  0.80056858  0.60113716  0.59829426  1
  Co  Co3  1  0.40317758  0.80635517  0.79046725  1
  Ru  Ru4  1  0.00000000  -0.00000000  -0.00000000  1
