# generated using pymatgen
data_Mn7CdO12
_symmetry_space_group_name_H-M   'P 1'
_cell_length_a   6.45265368
_cell_length_b   6.51603234
_cell_length_c   6.51603198
_cell_angle_alpha   109.66741095
_cell_angle_beta   109.27430866
_cell_angle_gamma   109.27430755
_symmetry_Int_Tables_number   1
_chemical_formula_structural   Mn7CdO12
_chemical_formula_sum   'Mn7 Cd1 O12'
_cell_volume   211.41342321
_cell_formula_units_Z   1
loop_
 _symmetry_equiv_pos_site_id
 _symmetry_equiv_pos_as_xyz
  1  'x, y, z'
loop_
 _atom_site_type_symbol
 _atom_site_label
 _atom_site_symmetry_multiplicity
 _atom_site_fract_x
 _atom_site_fract_y
 _atom_site_fract_z
 _atom_site_occupancy
  Mn  Mn0  1  0.50000000  -0.00000000  0.50000000  1
  Mn  Mn1  1  -0.00000000  0.50000000  0.50000000  1
  Mn  Mn2  1  0.50000000  0.50000000  -0.00000000  1
  Mn  Mn3  1  -0.00000000  -0.00000000  0.50000000  1
  Mn  Mn4  1  0.50000000  0.50000000  0.50000000  1
  Mn  Mn5  1  -0.00000000  0.50000000  -0.00000000  1
  Mn  Mn6  1  0.50000000  -0.00000000  -0.00000000  1
  Cd  Cd7  1  -0.00000000  -0.00000000  -0.00000000  1
  O  O8  1  0.13229103  0.82437318  0.32734957  1
  O  O9  1  0.80494146  0.67265043  0.49702362  1
  O  O10  1  0.30791784  0.50297638  0.17562682  1
  O  O11  1  0.86770897  0.17562682  0.67265043  1
  O  O12  1  0.19505854  0.32734957  0.50297638  1
  O  O13  1  0.69208216  0.49702362  0.82437318  1
  O  O14  1  0.52542864  0.83815852  0.70248868  1
  O  O15  1  0.82293996  0.29751132  0.13566984  1
  O  O16  1  0.68727013  0.86433016  0.16184148  1
  O  O17  1  0.47457136  0.16184148  0.29751132  1
  O  O18  1  0.17706004  0.70248868  0.86433016  1
  O  O19  1  0.31272987  0.13566984  0.83815852  1
