# generated using pymatgen
data_Sr2GdCu2RuO8
_symmetry_space_group_name_H-M   'P 1'
_cell_length_a   3.85573746
_cell_length_b   3.85573746
_cell_length_c   11.89419843
_cell_angle_alpha   90.00000000
_cell_angle_beta   90.00000000
_cell_angle_gamma   90.00000000
_symmetry_Int_Tables_number   1
_chemical_formula_structural   Sr2GdCu2RuO8
_chemical_formula_sum   'Sr2 Gd1 Cu2 Ru1 O8'
_cell_volume   176.82761492
_cell_formula_units_Z   1
loop_
 _symmetry_equiv_pos_site_id
 _symmetry_equiv_pos_as_xyz
  1  'x, y, z'
loop_
 _atom_site_type_symbol
 _atom_site_label
 _atom_site_symmetry_multiplicity
 _atom_site_fract_x
 _atom_site_fract_y
 _atom_site_fract_z
 _atom_site_occupancy
  Sr  Sr0  1  0.50000000  0.50000000  0.80793615  1
  Sr  Sr1  1  0.50000000  0.50000000  0.19206385  1
  Gd  Gd2  1  0.50000000  0.50000000  0.50000000  1
  Cu  Cu3  1  0.00000000  0.00000000  0.64388197  1
  Cu  Cu4  1  -0.00000000  0.00000000  0.35611803  1
  Ru  Ru5  1  0.00000000  -0.00000000  -0.00000000  1
  O  O6  1  0.50000000  -0.00000000  -0.00000000  1
  O  O7  1  -0.00000000  0.50000000  0.00000000  1
  O  O8  1  0.00000000  0.00000000  0.82880819  1
  O  O9  1  -0.00000000  0.00000000  0.17119181  1
  O  O10  1  0.50000000  0.00000000  0.62594310  1
  O  O11  1  0.00000000  0.50000000  0.62594310  1
  O  O12  1  0.50000000  -0.00000000  0.37405690  1
  O  O13  1  -0.00000000  0.50000000  0.37405690  1
