# generated using pymatgen
data_Ba2YInTe5
_symmetry_space_group_name_H-M   'P 1'
_cell_length_a   4.75357936
_cell_length_b   10.43308680
_cell_length_c   14.13284133
_cell_angle_alpha   90.00000000
_cell_angle_beta   90.00000000
_cell_angle_gamma   103.16833041
_symmetry_Int_Tables_number   1
_chemical_formula_structural   Ba2YInTe5
_chemical_formula_sum   'Ba4 Y2 In2 Te10'
_cell_volume   682.48080395
_cell_formula_units_Z   2
loop_
 _symmetry_equiv_pos_site_id
 _symmetry_equiv_pos_as_xyz
  1  'x, y, z'
loop_
 _atom_site_type_symbol
 _atom_site_label
 _atom_site_symmetry_multiplicity
 _atom_site_fract_x
 _atom_site_fract_y
 _atom_site_fract_z
 _atom_site_occupancy
  Ba  Ba0  1  0.87006925  0.74013851  0.81610754  1
  Ba  Ba1  1  0.12993075  0.25986149  0.31610754  1
  Ba  Ba2  1  0.88140725  0.76281451  0.18133781  1
  Ba  Ba3  1  0.11859275  0.23718549  0.68133781  1
  Y  Y4  1  0.79051835  0.58103671  0.51918391  1
  Y  Y5  1  0.20948165  0.41896329  0.01918391  1
  In  In6  1  0.55619177  0.11238354  0.93561934  1
  In  In7  1  0.44380823  0.88761646  0.43561934  1
  Te  Te8  1  0.64378394  0.28756787  0.50172782  1
  Te  Te9  1  0.35621606  0.71243213  0.00172782  1
  Te  Te10  1  0.70642905  0.41285811  0.15918804  1
  Te  Te11  1  0.29357095  0.58714189  0.65918804  1
  Te  Te12  1  0.69063095  0.38126191  0.86659366  1
  Te  Te13  1  0.30936905  0.61873809  0.36659366  1
  Te  Te14  1  0.49431232  0.98862464  0.75995863  1
  Te  Te15  1  0.50568768  0.01137536  0.25995863  1
  Te  Te16  1  0.94806501  0.89613002  0.55280326  1
  Te  Te17  1  0.05193499  0.10386998  0.05280326  1
