# generated using pymatgen
data_Gd2TiZnO6
_symmetry_space_group_name_H-M   'P 1'
_cell_length_a   5.39904036
_cell_length_b   5.72995706
_cell_length_c   7.73586864
_cell_angle_alpha   90.00000000
_cell_angle_beta   89.42713107
_cell_angle_gamma   90.00000000
_symmetry_Int_Tables_number   1
_chemical_formula_structural   Gd2TiZnO6
_chemical_formula_sum   'Gd4 Ti2 Zn2 O12'
_cell_volume   239.30695428
_cell_formula_units_Z   2
loop_
 _symmetry_equiv_pos_site_id
 _symmetry_equiv_pos_as_xyz
  1  'x, y, z'
loop_
 _atom_site_type_symbol
 _atom_site_label
 _atom_site_symmetry_multiplicity
 _atom_site_fract_x
 _atom_site_fract_y
 _atom_site_fract_z
 _atom_site_occupancy
  Gd  Gd0  1  0.98191173  0.06895487  0.24764432  1
  Gd  Gd1  1  0.48191173  0.43104513  0.74764432  1
  Gd  Gd2  1  0.01808827  0.93104513  0.75235568  1
  Gd  Gd3  1  0.51808827  0.56895487  0.25235568  1
  Ti  Ti4  1  -0.00000000  0.50000000  0.50000000  1
  Ti  Ti5  1  0.50000000  -0.00000000  0.00000000  1
  Zn  Zn6  1  0.50000000  -0.00000000  0.50000000  1
  Zn  Zn7  1  -0.00000000  0.50000000  0.00000000  1
  O  O8  1  0.29692581  0.68337273  0.55362912  1
  O  O9  1  0.79692581  0.81662727  0.05362912  1
  O  O10  1  0.70307419  0.31662727  0.44637088  1
  O  O11  1  0.20307419  0.18337273  0.94637088  1
  O  O12  1  0.18050284  0.20765055  0.56148713  1
  O  O13  1  0.68050284  0.29234945  0.06148713  1
  O  O14  1  0.81949716  0.79234945  0.43851287  1
  O  O15  1  0.31949716  0.70765055  0.93851287  1
  O  O16  1  0.11277262  0.45859716  0.25789333  1
  O  O17  1  0.61277262  0.04140284  0.75789333  1
  O  O18  1  0.88722738  0.54140284  0.74210667  1
  O  O19  1  0.38722738  0.95859716  0.24210667  1
