# generated using pymatgen
data_In2O3
_symmetry_space_group_name_H-M   'P 1'
_cell_length_a   5.59373152
_cell_length_b   5.68840821
_cell_length_c   8.08265540
_cell_angle_alpha   90.00000000
_cell_angle_beta   90.00000000
_cell_angle_gamma   90.00000000
_symmetry_Int_Tables_number   1
_chemical_formula_structural   In2O3
_chemical_formula_sum   'In8 O12'
_cell_volume   257.18547400
_cell_formula_units_Z   4
loop_
 _symmetry_equiv_pos_site_id
 _symmetry_equiv_pos_as_xyz
  1  'x, y, z'
loop_
 _atom_site_type_symbol
 _atom_site_label
 _atom_site_symmetry_multiplicity
 _atom_site_fract_x
 _atom_site_fract_y
 _atom_site_fract_z
 _atom_site_occupancy
  In  In0  1  0.24750478  0.52858730  0.11494437  1
  In  In1  1  0.25249522  0.02858730  0.38505563  1
  In  In2  1  0.25249522  0.47141270  0.61494437  1
  In  In3  1  0.24750478  0.97141270  0.88505563  1
  In  In4  1  0.75249522  0.47141270  0.88505563  1
  In  In5  1  0.74750478  0.97141270  0.61494437  1
  In  In6  1  0.74750478  0.52858730  0.38505563  1
  In  In7  1  0.75249522  0.02858730  0.11494437  1
  O  O8  1  0.39008765  0.60458413  0.84974926  1
  O  O9  1  0.10991235  0.10458413  0.65025074  1
  O  O10  1  0.10991235  0.39541587  0.34974926  1
  O  O11  1  0.39008765  0.89541587  0.15025074  1
  O  O12  1  0.60991235  0.39541587  0.15025074  1
  O  O13  1  0.89008765  0.89541587  0.34974926  1
  O  O14  1  0.89008765  0.60458413  0.65025074  1
  O  O15  1  0.60991235  0.10458413  0.84974926  1
  O  O16  1  0.95725612  0.75000000  -0.00000000  1
  O  O17  1  0.54274388  0.25000000  0.50000000  1
  O  O18  1  0.04274388  0.25000000  -0.00000000  1
  O  O19  1  0.45725612  0.75000000  0.50000000  1
