# generated using pymatgen
data_LiTi2O4
_symmetry_space_group_name_H-M   'P 1'
_cell_length_a   4.01630147
_cell_length_b   6.59792961
_cell_length_c   6.34097037
_cell_angle_alpha   106.21138483
_cell_angle_beta   108.46313913
_cell_angle_gamma   89.99999992
_symmetry_Int_Tables_number   1
_chemical_formula_structural   LiTi2O4
_chemical_formula_sum   'Li2 Ti4 O8'
_cell_volume   152.32204050
_cell_formula_units_Z   2
loop_
 _symmetry_equiv_pos_site_id
 _symmetry_equiv_pos_as_xyz
  1  'x, y, z'
loop_
 _atom_site_type_symbol
 _atom_site_label
 _atom_site_symmetry_multiplicity
 _atom_site_fract_x
 _atom_site_fract_y
 _atom_site_fract_z
 _atom_site_occupancy
  Li  Li0  1  0.05707826  0.34926803  0.11415653  1
  Li  Li1  1  0.94292174  0.65073197  0.88584347  1
  Ti  Ti2  1  0.71063528  0.28542686  0.42127055  1
  Ti  Ti3  1  0.28936472  0.71457314  0.57872945  1
  Ti  Ti4  1  0.61353089  0.70886889  0.22706178  1
  Ti  Ti5  1  0.38646911  0.29113111  0.77293822  1
  O  O6  1  0.64915131  0.00074358  0.29830263  1
  O  O7  1  0.35084869  0.99925642  0.70169737  1
  O  O8  1  0.77320038  0.65632187  0.54640076  1
  O  O9  1  0.22679962  0.34367813  0.45359924  1
  O  O10  1  0.88543357  0.32646664  0.77086713  1
  O  O11  1  0.11456643  0.67353336  0.22913287  1
  O  O12  1  0.56029145  0.35839596  0.12058290  1
  O  O13  1  0.43970855  0.64160404  0.87941710  1
