# generated using pymatgen
data_Co3Sn2
_symmetry_space_group_name_H-M   'P 1'
_cell_length_a   4.22299180
_cell_length_b   4.22299180
_cell_length_c   5.06685378
_cell_angle_alpha   90.00000000
_cell_angle_beta   90.00000000
_cell_angle_gamma   120.00789795
_symmetry_Int_Tables_number   1
_chemical_formula_structural   Co3Sn2
_chemical_formula_sum   'Co3 Sn2'
_cell_volume   78.24829995
_cell_formula_units_Z   1
loop_
 _symmetry_equiv_pos_site_id
 _symmetry_equiv_pos_as_xyz
  1  'x, y, z'
loop_
 _atom_site_type_symbol
 _atom_site_label
 _atom_site_symmetry_multiplicity
 _atom_site_fract_x
 _atom_site_fract_y
 _atom_site_fract_z
 _atom_site_occupancy
  Co  Co0  1  0.00001078  0.99998922  0.50364255  1
  Co  Co1  1  0.00001078  0.99998922  0.99635745  1
  Co  Co2  1  0.66664200  0.33335800  0.25000000  1
  Sn  Sn3  1  0.66669463  0.33330537  0.75000000  1
  Sn  Sn4  1  0.33334180  0.66665820  0.25000000  1
